REMARK SMILES CCc1nnn(CC2(C#N)CCCC2)c1C[N+](C)(C)Cc1cccc2ccccc12
REMARK SMILES IDX 3 1 4 2 5 3 6 4 15 5 2 6 1 7 16 8 17 9 18 10 19 11 20 12
REMARK SMILES IDX 21 13 22 14 30 15 23 16 29 17 25 18 24 19 28 20 26 21 27 22
REMARK SMILES IDX 7 23 8 24 11 25 14 26 12 27 13 28 9 29 10 30
REMARK H PARENT
ROOT
ATOM      1  C   UNL     1      -0.854  -0.149  -3.004  1.00  0.00     0.091 A 
ATOM      2  N   UNL     1      -2.077  -0.399  -3.511  1.00  0.00    -0.135 NA
ATOM      3  N   UNL     1      -2.962   0.023  -2.622  1.00  0.00    -0.067 NA
ATOM      4  N   UNL     1      -2.357   0.548  -1.567  1.00  0.00    -0.242 N 
ATOM      5  C   UNL     1      -1.019   0.440  -1.755  1.00  0.00     0.116 A 
ENDROOT
BRANCH   1   6
ATOM      6  C   UNL     1       0.411  -0.328  -3.797  1.00  0.00     0.057 C 
ATOM      7  C   UNL     1       0.578  -1.775  -4.250  1.00  0.00     0.011 C 
ENDBRANCH   1   6
BRANCH   5   8
ATOM      8  C   UNL     1       0.068   0.935  -0.809  1.00  0.00     0.322 C 
BRANCH   8   9
ATOM      9  N   UNL     1       0.572  -0.072   0.185  1.00  0.00    -0.320 N 
ATOM     10  C   UNL     1       1.094  -1.271  -0.514  1.00  0.00     0.334 C 
ATOM     11  C   UNL     1      -0.526  -0.491   1.091  1.00  0.00     0.334 C 
BRANCH   9  12
ATOM     12  C   UNL     1       1.665   0.595   0.970  1.00  0.00     0.301 C 
BRANCH  12  13
ATOM     13  C   UNL     1       2.292  -0.253   2.080  1.00  0.00     0.014 A 
ATOM     14  C   UNL     1       1.689  -0.204   3.353  1.00  0.00     0.010 A 
ATOM     15  C   UNL     1       3.463  -1.052   1.906  1.00  0.00    -0.010 A 
ATOM     16  C   UNL     1       2.178  -0.960   4.414  1.00  0.00     0.001 A 
ATOM     17  C   UNL     1       4.180  -1.105   0.689  1.00  0.00     0.009 A 
ATOM     18  C   UNL     1       3.945  -1.823   3.002  1.00  0.00    -0.018 A 
ATOM     19  C   UNL     1       3.293  -1.774   4.240  1.00  0.00     0.009 A 
ATOM     20  C   UNL     1       5.311  -1.914   0.559  1.00  0.00     0.001 A 
ATOM     21  C   UNL     1       5.084  -2.631   2.852  1.00  0.00     0.009 A 
ATOM     22  C   UNL     1       5.759  -2.678   1.634  1.00  0.00     0.001 A 
ENDBRANCH  12  13
ENDBRANCH   9  12
ENDBRANCH   8   9
ENDBRANCH   5   8
BRANCH   4  23
ATOM     23  C   UNL     1      -3.087   1.205  -0.475  1.00  0.00     0.169 C 
BRANCH  23  24
ATOM     24  C   UNL     1      -3.751   2.541  -0.919  1.00  0.00     0.077 C 
ATOM     25  C   UNL     1      -2.720   3.567  -1.412  1.00  0.00     0.024 C 
ATOM     26  C   UNL     1      -4.397   3.235   0.286  1.00  0.00     0.024 C 
ATOM     27  C   UNL     1      -2.267   4.346  -0.180  1.00  0.00     0.002 C 
ATOM     28  C   UNL     1      -3.300   4.085   0.915  1.00  0.00     0.002 C 
BRANCH  24  29
ATOM     29  C   UNL     1      -4.773   2.280  -1.954  1.00  0.00     0.071 C 
ATOM     30  N   UNL     1      -5.574   2.077  -2.765  1.00  0.00    -0.198 NA
ENDBRANCH  24  29
ENDBRANCH  23  24
ENDBRANCH   4  23
TORSDOF 8


