REMARK SMILES [N-]=[N+]=Nc1c(Cl)c(Cl)c(OC(=O)[C@]2(N)C[C@H](CO)C2)ccccc([O-])c1[NH2+]C1(CF)COC1
REMARK SMILES IDX 10 1 11 2 12 3 13 4 16 5 15 6 19 7 17 8 18 9 14 11 9 14
REMARK SMILES IDX 20 15 7 16 21 17 5 18 22 19 4 20 23 21 26 22 24 23 8 24 6 25
REMARK SMILES IDX 25 26 3 27 2 28 1 29 27 30 28 33 31 34 33 35 32 36 29 37
REMARK SMILES IDX 30 38
REMARK H PARENT 18 10 14 12 14 13 27 31 27 32
ROOT
ATOM      1  O   UNL     1       0.686   1.639  -1.083  1.00  0.00    -0.424 OA
ENDROOT
BRANCH   1   2
ATOM      2  C   UNL     1       0.014   2.380  -0.100  1.00  0.00     0.331 C 
ATOM      3  O   UNL     1       0.622   2.824   0.911  1.00  0.00    -0.250 OA
BRANCH   2   4
ATOM      4  C   UNL     1      -1.487   2.518  -0.185  1.00  0.00     0.116 C 
ATOM      5  C   UNL     1      -2.558   4.120  -1.170  1.00  0.00     0.019 C 
ATOM      6  C   UNL     1      -2.025   3.889   0.244  1.00  0.00     0.040 C 
ATOM      7  C   UNL     1      -2.018   2.756  -1.604  1.00  0.00     0.040 C 
BRANCH   5   8
ATOM      8  C   UNL     1      -1.896   5.303  -1.886  1.00  0.00     0.159 C 
BRANCH   8   9
ATOM      9  O   UNL     1      -2.328   5.343  -3.217  1.00  0.00    -0.396 OA
ATOM     10  H   UNL     1      -1.841   6.097  -3.641  1.00  0.00     0.210 HD
ENDBRANCH   8   9
ENDBRANCH   5   8
BRANCH   4  11
ATOM     11  N   UNL     1      -2.187   1.418   0.483  1.00  0.00    -0.316 NA
ATOM     12  H   UNL     1      -1.893   0.519   0.037  1.00  0.00     0.119 HD
ATOM     13  H   UNL     1      -1.876   1.383   1.481  1.00  0.00     0.119 HD
ENDBRANCH   4  11
ENDBRANCH   2   4
ENDBRANCH   1   2
BRANCH   1  14
ATOM     14  C   UNL     1       2.075   1.456  -1.183  1.00  0.00     0.151 A 
ATOM     15  C   UNL     1       2.986   2.345  -0.572  1.00  0.00     0.049 A 
ATOM     16  C   UNL     1       2.531   0.362  -1.935  1.00  0.00     0.103 A 
ATOM     17  C   UNL     1       4.255   1.978  -0.072  1.00  0.00     0.004 A 
ATOM     18  C   UNL     1       1.956  -0.925  -1.831  1.00  0.00     0.079 A 
ATOM     19  C   UNL     1       4.672   0.667   0.243  1.00  0.00    -0.000 A 
ATOM     20  C   UNL     1       1.203  -1.395  -0.713  1.00  0.00     0.118 A 
ATOM     21  C   UNL     1       3.805  -0.407   0.491  1.00  0.00    -0.002 A 
ATOM     22  C   UNL     1       1.400  -0.961   0.642  1.00  0.00     0.133 A 
ATOM     23  C   UNL     1       2.538  -0.229   1.055  1.00  0.00    -0.045 A 
ATOM     24  Cl  UNL     1       3.884   0.623  -3.043  1.00  0.00    -0.079 Cl
ATOM     25  Cl  UNL     1       2.310  -2.081  -3.122  1.00  0.00    -0.082 Cl
ATOM     26  O   UNL     1       2.395   0.742   2.044  1.00  0.00    -0.868 OA
BRANCH  20  27
ATOM     27  N   UNL     1       0.170  -2.370  -0.936  1.00  0.00    -0.053 NA
BRANCH  27  28
ATOM     28  N   UNL     1      -0.413  -2.495  -2.014  1.00  0.00     0.006 N 
ATOM     29  N   UNL     1      -0.999  -2.620  -3.088  1.00  0.00    -0.003 NA
ENDBRANCH  27  28
ENDBRANCH  20  27
BRANCH  22  30
ATOM     30  N   UNL     1       0.348  -1.198   1.621  1.00  0.00    -0.303 N 
ATOM     31  H   UNL     1       0.194  -0.329   2.184  1.00  0.00     0.353 HD
ATOM     32  H   UNL     1      -0.567  -1.369   1.145  1.00  0.00     0.353 HD
BRANCH  30  33
ATOM     33  C   UNL     1       0.638  -2.351   2.514  1.00  0.00     0.176 C 
ATOM     34  C   UNL     1       1.542  -2.030   3.697  1.00  0.00     0.234 C 
ATOM     35  C   UNL     1      -0.413  -2.511   3.603  1.00  0.00     0.234 C 
ATOM     36  O   UNL     1       0.505  -2.224   4.631  1.00  0.00    -0.368 OA
BRANCH  33  37
ATOM     37  C   UNL     1       0.966  -3.678   1.789  1.00  0.00     0.288 C 
ATOM     38  F   UNL     1       1.198  -4.706   2.687  1.00  0.00    -0.244 F 
ENDBRANCH  33  37
ENDBRANCH  30  33
ENDBRANCH  22  30
ENDBRANCH   1  14
TORSDOF 11


