MODEL 1
REMARK VINA RESULT:      -6.1      0.000      0.000
REMARK SMILES C[C@@H](C#N)N(C)CCCCc1cn(-c2cc(N)c3c4c(cccc24)C(=O)[N-]3)nn1
REMARK SMILES IDX 8 1 7 2 5 3 6 4 2 5 1 6 3 7 4 8 9 9 10 10 11 11 12 12 29 13
REMARK SMILES IDX 13 14 28 15 14 16 15 17 24 18 16 19 23 20 19 21 18 22 22 23
REMARK SMILES IDX 20 24 27 25 21 26 25 27 26 28 17 29
REMARK H PARENT 17 30 17 31
ROOT
ATOM      1  C   UNL     1      38.702 134.984  16.612  1.00  0.00     0.016 C 
ENDROOT
BRANCH   1   2
ATOM      2  C   UNL     1      38.930 134.792  15.107  1.00  0.00     0.085 C 
BRANCH   2   3
ATOM      3  N   UNL     1      37.979 135.644  14.352  1.00  0.00    -0.291 NA
ATOM      4  C   UNL     1      37.066 134.827  13.532  1.00  0.00     0.106 C 
BRANCH   3   5
ATOM      5  C   UNL     1      38.612 136.720  13.546  1.00  0.00     0.157 C 
ATOM      6  C   UNL     1      39.057 136.185  12.181  1.00  0.00     0.041 C 
BRANCH   5   7
ATOM      7  C   UNL     1      37.739 137.901  13.387  1.00  0.00     0.081 C 
ATOM      8  N   UNL     1      37.055 138.826  13.260  1.00  0.00    -0.197 NA
ENDBRANCH   5   7
ENDBRANCH   3   5
ENDBRANCH   2   3
ENDBRANCH   1   2
BRANCH   1   9
ATOM      9  C   UNL     1      39.220 136.337  17.139  1.00  0.00     0.008 C 
BRANCH   9  10
ATOM     10  C   UNL     1      40.482 136.247  18.015  1.00  0.00     0.060 C 
BRANCH  10  11
ATOM     11  C   UNL     1      41.026 134.852  18.086  1.00  0.00     0.083 A 
ATOM     12  C   UNL     1      42.097 134.357  17.378  1.00  0.00     0.140 A 
ATOM     13  N   UNL     1      40.625 133.914  18.967  1.00  0.00    -0.135 NA
ATOM     14  N   UNL     1      42.307 133.113  17.841  1.00  0.00    -0.220 N 
ATOM     15  N   UNL     1      41.426 132.871  18.799  1.00  0.00    -0.062 NA
BRANCH  14  16
ATOM     16  C   UNL     1      43.406 132.248  17.516  1.00  0.00     0.076 A 
ATOM     17  C   UNL     1      44.286 131.829  18.553  1.00  0.00     0.053 A 
ATOM     18  C   UNL     1      43.656 131.823  16.184  1.00  0.00     0.007 A 
ATOM     19  C   UNL     1      45.420 131.026  18.279  1.00  0.00     0.019 A 
ATOM     20  C   UNL     1      42.844 132.076  15.053  1.00  0.00     0.011 A 
ATOM     21  C   UNL     1      44.788 131.048  15.973  1.00  0.00    -0.020 A 
ATOM     22  C   UNL     1      45.650 130.652  16.953  1.00  0.00    -0.102 A 
ATOM     23  C   UNL     1      43.218 131.566  13.782  1.00  0.00     0.001 A 
ATOM     24  C   UNL     1      45.157 130.550  14.766  1.00  0.00     0.006 A 
ATOM     25  N   UNL     1      46.703 129.833  16.429  1.00  0.00    -0.620 NA
ATOM     26  C   UNL     1      44.390 130.791  13.628  1.00  0.00     0.011 A 
ATOM     27  C   UNL     1      46.368 129.782  15.032  1.00  0.00     0.086 C 
ATOM     28  O   UNL     1      47.037 129.150  14.173  1.00  0.00    -0.315 OA
BRANCH  19  29
ATOM     29  N   UNL     1      46.301 130.615  19.327  1.00  0.00    -0.400 N 
ATOM     30  H   UNL     1      47.335 130.614  19.188  1.00  0.00     0.156 HD
ATOM     31  H   UNL     1      45.922 130.310  20.252  1.00  0.00     0.156 HD
ENDBRANCH  19  29
ENDBRANCH  14  16
ENDBRANCH  10  11
ENDBRANCH   9  10
ENDBRANCH   1   9
TORSDOF 9
ENDMDL
MODEL 2
REMARK VINA RESULT:      -6.0      3.116      5.111
REMARK SMILES C[C@@H](C#N)N(C)CCCCc1cn(-c2cc(N)c3c4c(cccc24)C(=O)[N-]3)nn1
REMARK SMILES IDX 8 1 7 2 5 3 6 4 2 5 1 6 3 7 4 8 9 9 10 10 11 11 12 12 29 13
REMARK SMILES IDX 13 14 28 15 14 16 15 17 24 18 16 19 23 20 19 21 18 22 22 23
REMARK SMILES IDX 20 24 27 25 21 26 25 27 26 28 17 29
REMARK H PARENT 17 30 17 31
ROOT
ATOM      1  C   UNL     1      41.959 137.698  20.086  1.00  0.00     0.016 C 
ENDROOT
BRANCH   1   2
ATOM      2  C   UNL     1      42.814 136.753  20.940  1.00  0.00     0.085 C 
BRANCH   2   3
ATOM      3  N   UNL     1      43.705 137.553  21.816  1.00  0.00    -0.291 NA
ATOM      4  C   UNL     1      43.185 138.920  22.002  1.00  0.00     0.106 C 
BRANCH   3   5
ATOM      5  C   UNL     1      45.132 137.571  21.402  1.00  0.00     0.157 C 
ATOM      6  C   UNL     1      45.654 136.146  21.190  1.00  0.00     0.041 C 
BRANCH   5   7
ATOM      7  C   UNL     1      45.366 138.398  20.199  1.00  0.00     0.081 C 
ATOM      8  N   UNL     1      45.548 139.047  19.259  1.00  0.00    -0.197 NA
ENDBRANCH   5   7
ENDBRANCH   3   5
ENDBRANCH   2   3
ENDBRANCH   1   2
BRANCH   1   9
ATOM      9  C   UNL     1      41.286 136.997  18.890  1.00  0.00     0.008 C 
BRANCH   9  10
ATOM     10  C   UNL     1      40.481 135.736  19.250  1.00  0.00     0.060 C 
BRANCH  10  11
ATOM     11  C   UNL     1      40.970 134.523  18.519  1.00  0.00     0.083 A 
ATOM     12  C   UNL     1      42.283 134.189  18.278  1.00  0.00     0.140 A 
ATOM     13  N   UNL     1      40.188 133.504  18.110  1.00  0.00    -0.135 NA
ATOM     14  N   UNL     1      42.261 132.972  17.709  1.00  0.00    -0.220 N 
ATOM     15  N   UNL     1      41.000 132.573  17.628  1.00  0.00    -0.062 NA
BRANCH  14  16
ATOM     16  C   UNL     1      43.392 132.141  17.409  1.00  0.00     0.076 A 
ATOM     17  C   UNL     1      44.254 131.738  18.469  1.00  0.00     0.053 A 
ATOM     18  C   UNL     1      43.693 131.734  16.082  1.00  0.00     0.007 A 
ATOM     19  C   UNL     1      45.417 130.969  18.222  1.00  0.00     0.019 A 
ATOM     20  C   UNL     1      42.907 131.973  14.930  1.00  0.00     0.011 A 
ATOM     21  C   UNL     1      44.851 130.992  15.899  1.00  0.00    -0.020 A 
ATOM     22  C   UNL     1      45.696 130.612  16.901  1.00  0.00    -0.102 A 
ATOM     23  C   UNL     1      43.332 131.484  13.667  1.00  0.00     0.001 A 
ATOM     24  C   UNL     1      45.270 130.514  14.700  1.00  0.00     0.006 A 
ATOM     25  N   UNL     1      46.786 129.827  16.402  1.00  0.00    -0.620 NA
ATOM     26  C   UNL     1      44.529 130.743  13.541  1.00  0.00     0.011 A 
ATOM     27  C   UNL     1      46.493 129.778  14.995  1.00  0.00     0.086 C 
ATOM     28  O   UNL     1      47.205 129.172  14.152  1.00  0.00    -0.315 OA
BRANCH  19  29
ATOM     29  N   UNL     1      46.278 130.575  19.292  1.00  0.00    -0.400 N 
ATOM     30  H   UNL     1      46.189 129.633  19.734  1.00  0.00     0.156 HD
ATOM     31  H   UNL     1      47.014 131.225  19.650  1.00  0.00     0.156 HD
ENDBRANCH  19  29
ENDBRANCH  14  16
ENDBRANCH  10  11
ENDBRANCH   9  10
ENDBRANCH   1   9
TORSDOF 9
ENDMDL
MODEL 3
REMARK VINA RESULT:      -6.0      2.892      7.671
REMARK SMILES C[C@@H](C#N)N(C)CCCCc1cn(-c2cc(N)c3c4c(cccc24)C(=O)[N-]3)nn1
REMARK SMILES IDX 8 1 7 2 5 3 6 4 2 5 1 6 3 7 4 8 9 9 10 10 11 11 12 12 29 13
REMARK SMILES IDX 13 14 28 15 14 16 15 17 24 18 16 19 23 20 19 21 18 22 22 23
REMARK SMILES IDX 20 24 27 25 21 26 25 27 26 28 17 29
REMARK H PARENT 17 30 17 31
ROOT
ATOM      1  C   UNL     1      45.626 130.450  17.802  1.00  0.00     0.016 C 
ENDROOT
BRANCH   1   2
ATOM      2  C   UNL     1      46.152 130.354  16.364  1.00  0.00     0.085 C 
BRANCH   2   3
ATOM      3  N   UNL     1      45.102 129.769  15.494  1.00  0.00    -0.291 NA
ATOM      4  C   UNL     1      45.123 128.296  15.550  1.00  0.00     0.106 C 
BRANCH   3   5
ATOM      5  C   UNL     1      45.114 130.256  14.090  1.00  0.00     0.157 C 
ATOM      6  C   UNL     1      43.981 131.258  13.853  1.00  0.00     0.041 C 
BRANCH   5   7
ATOM      7  C   UNL     1      46.417 130.835  13.700  1.00  0.00     0.081 C 
ATOM      8  N   UNL     1      47.438 131.288  13.396  1.00  0.00    -0.197 NA
ENDBRANCH   5   7
ENDBRANCH   3   5
ENDBRANCH   2   3
ENDBRANCH   1   2
BRANCH   1   9
ATOM      9  C   UNL     1      45.088 131.849  18.162  1.00  0.00     0.008 C 
BRANCH   9  10
ATOM     10  C   UNL     1      44.407 131.943  19.539  1.00  0.00     0.060 C 
BRANCH  10  11
ATOM     11  C   UNL     1      43.085 132.646  19.473  1.00  0.00     0.083 A 
ATOM     12  C   UNL     1      42.403 132.993  18.330  1.00  0.00     0.140 A 
ATOM     13  N   UNL     1      42.304 132.917  20.537  1.00  0.00    -0.135 NA
ATOM     14  N   UNL     1      41.221 133.486  18.736  1.00  0.00    -0.220 N 
ATOM     15  N   UNL     1      41.175 133.420  20.058  1.00  0.00    -0.062 NA
BRANCH  14  16
ATOM     16  C   UNL     1      40.106 133.845  17.906  1.00  0.00     0.076 A 
ATOM     17  C   UNL     1      38.834 134.058  18.510  1.00  0.00     0.053 A 
ATOM     18  C   UNL     1      40.229 133.963  16.496  1.00  0.00     0.007 A 
ATOM     19  C   UNL     1      37.689 134.354  17.732  1.00  0.00     0.019 A 
ATOM     20  C   UNL     1      41.425 133.866  15.745  1.00  0.00     0.011 A 
ATOM     21  C   UNL     1      39.071 134.243  15.784  1.00  0.00    -0.020 A 
ATOM     22  C   UNL     1      37.843 134.433  16.346  1.00  0.00    -0.102 A 
ATOM     23  C   UNL     1      41.391 134.027  14.334  1.00  0.00     0.001 A 
ATOM     24  C   UNL     1      39.023 134.403  14.438  1.00  0.00     0.006 A 
ATOM     25  N   UNL     1      36.852 134.738  15.357  1.00  0.00    -0.620 NA
ATOM     26  C   UNL     1      40.177 134.299  13.664  1.00  0.00     0.011 A 
ATOM     27  C   UNL     1      37.628 134.713  14.147  1.00  0.00     0.086 C 
ATOM     28  O   UNL     1      37.152 134.937  13.004  1.00  0.00    -0.315 OA
BRANCH  19  29
ATOM     29  N   UNL     1      36.415 134.560  18.348  1.00  0.00    -0.400 N 
ATOM     30  H   UNL     1      35.626 133.897  18.183  1.00  0.00     0.156 HD
ATOM     31  H   UNL     1      36.254 135.380  18.976  1.00  0.00     0.156 HD
ENDBRANCH  19  29
ENDBRANCH  14  16
ENDBRANCH  10  11
ENDBRANCH   9  10
ENDBRANCH   1   9
TORSDOF 9
ENDMDL
MODEL 4
REMARK VINA RESULT:      -6.0      2.346      3.982
REMARK SMILES C[C@@H](C#N)N(C)CCCCc1cn(-c2cc(N)c3c4c(cccc24)C(=O)[N-]3)nn1
REMARK SMILES IDX 8 1 7 2 5 3 6 4 2 5 1 6 3 7 4 8 9 9 10 10 11 11 12 12 29 13
REMARK SMILES IDX 13 14 28 15 14 16 15 17 24 18 16 19 23 20 19 21 18 22 22 23
REMARK SMILES IDX 20 24 27 25 21 26 25 27 26 28 17 29
REMARK H PARENT 17 30 17 31
ROOT
ATOM      1  C   UNL     1      42.062 136.230  15.516  1.00  0.00     0.016 C 
ENDROOT
BRANCH   1   2
ATOM      2  C   UNL     1      42.930 137.239  16.277  1.00  0.00     0.085 C 
BRANCH   2   3
ATOM      3  N   UNL     1      42.511 137.274  17.700  1.00  0.00    -0.291 NA
ATOM      4  C   UNL     1      41.888 138.566  18.041  1.00  0.00     0.106 C 
BRANCH   3   5
ATOM      5  C   UNL     1      43.578 136.917  18.672  1.00  0.00     0.157 C 
ATOM      6  C   UNL     1      44.024 135.464  18.478  1.00  0.00     0.041 C 
BRANCH   5   7
ATOM      7  C   UNL     1      44.735 137.834  18.610  1.00  0.00     0.081 C 
ATOM      8  N   UNL     1      45.641 138.553  18.561  1.00  0.00    -0.197 NA
ENDBRANCH   5   7
ENDBRANCH   3   5
ENDBRANCH   2   3
ENDBRANCH   1   2
BRANCH   1   9
ATOM      9  C   UNL     1      40.562 136.336  15.858  1.00  0.00     0.008 C 
BRANCH   9  10
ATOM     10  C   UNL     1      39.791 135.006  15.797  1.00  0.00     0.060 C 
BRANCH  10  11
ATOM     11  C   UNL     1      40.593 133.859  16.334  1.00  0.00     0.083 A 
ATOM     12  C   UNL     1      41.781 133.385  15.826  1.00  0.00     0.140 A 
ATOM     13  N   UNL     1      40.331 133.210  17.486  1.00  0.00    -0.135 NA
ATOM     14  N   UNL     1      42.203 132.441  16.683  1.00  0.00    -0.220 N 
ATOM     15  N   UNL     1      41.330 132.359  17.676  1.00  0.00    -0.062 NA
BRANCH  14  16
ATOM     16  C   UNL     1      43.468 131.762  16.661  1.00  0.00     0.076 A 
ATOM     17  C   UNL     1      44.140 131.513  17.892  1.00  0.00     0.053 A 
ATOM     18  C   UNL     1      44.081 131.358  15.445  1.00  0.00     0.007 A 
ATOM     19  C   UNL     1      45.417 130.902  17.923  1.00  0.00     0.019 A 
ATOM     20  C   UNL     1      43.520 131.452  14.149  1.00  0.00     0.011 A 
ATOM     21  C   UNL     1      45.337 130.775  15.537  1.00  0.00    -0.020 A 
ATOM     22  C   UNL     1      46.001 130.546  16.706  1.00  0.00    -0.102 A 
ATOM     23  C   UNL     1      44.252 130.985  13.025  1.00  0.00     0.001 A 
ATOM     24  C   UNL     1      46.047 130.321  14.474  1.00  0.00     0.006 A 
ATOM     25  N   UNL     1      47.261 129.900  16.478  1.00  0.00    -0.620 NA
ATOM     26  C   UNL     1      45.534 130.411  13.181  1.00  0.00     0.011 A 
ATOM     27  C   UNL     1      47.268 129.768  15.046  1.00  0.00     0.086 C 
ATOM     28  O   UNL     1      48.207 129.238  14.396  1.00  0.00    -0.315 OA
BRANCH  19  29
ATOM     29  N   UNL     1      46.086 130.662  19.163  1.00  0.00    -0.400 N 
ATOM     30  H   UNL     1      45.593 130.201  19.959  1.00  0.00     0.156 HD
ATOM     31  H   UNL     1      47.084 130.945  19.293  1.00  0.00     0.156 HD
ENDBRANCH  19  29
ENDBRANCH  14  16
ENDBRANCH  10  11
ENDBRANCH   9  10
ENDBRANCH   1   9
TORSDOF 9
ENDMDL
MODEL 5
REMARK VINA RESULT:      -5.9      2.432      3.174
REMARK SMILES C[C@@H](C#N)N(C)CCCCc1cn(-c2cc(N)c3c4c(cccc24)C(=O)[N-]3)nn1
REMARK SMILES IDX 8 1 7 2 5 3 6 4 2 5 1 6 3 7 4 8 9 9 10 10 11 11 12 12 29 13
REMARK SMILES IDX 13 14 28 15 14 16 15 17 24 18 16 19 23 20 19 21 18 22 22 23
REMARK SMILES IDX 20 24 27 25 21 26 25 27 26 28 17 29
REMARK H PARENT 17 30 17 31
ROOT
ATOM      1  C   UNL     1      39.654 137.346  18.524  1.00  0.00     0.016 C 
ENDROOT
BRANCH   1   2
ATOM      2  C   UNL     1      39.879 137.373  17.007  1.00  0.00     0.085 C 
BRANCH   2   3
ATOM      3  N   UNL     1      41.258 136.914  16.707  1.00  0.00    -0.291 NA
ATOM      4  C   UNL     1      42.238 137.538  17.615  1.00  0.00     0.106 C 
BRANCH   3   5
ATOM      5  C   UNL     1      41.668 137.064  15.286  1.00  0.00     0.157 C 
ATOM      6  C   UNL     1      41.848 138.542  14.926  1.00  0.00     0.041 C 
BRANCH   5   7
ATOM      7  C   UNL     1      42.886 136.292  14.960  1.00  0.00     0.081 C 
ATOM      8  N   UNL     1      43.840 135.690  14.704  1.00  0.00    -0.197 NA
ENDBRANCH   5   7
ENDBRANCH   3   5
ENDBRANCH   2   3
ENDBRANCH   1   2
BRANCH   1   9
ATOM      9  C   UNL     1      38.232 136.902  18.922  1.00  0.00     0.008 C 
BRANCH   9  10
ATOM     10  C   UNL     1      38.093 135.406  19.255  1.00  0.00     0.060 C 
BRANCH  10  11
ATOM     11  C   UNL     1      39.085 134.564  18.511  1.00  0.00     0.083 A 
ATOM     12  C   UNL     1      40.353 134.234  18.931  1.00  0.00     0.140 A 
ATOM     13  N   UNL     1      38.822 133.890  17.374  1.00  0.00    -0.135 NA
ATOM     14  N   UNL     1      40.836 133.372  18.020  1.00  0.00    -0.220 N 
ATOM     15  N   UNL     1      39.901 133.169  17.104  1.00  0.00    -0.062 NA
BRANCH  14  16
ATOM     16  C   UNL     1      42.063 132.633  18.100  1.00  0.00     0.076 A 
ATOM     17  C   UNL     1      42.569 132.267  19.380  1.00  0.00     0.053 A 
ATOM     18  C   UNL     1      42.804 132.284  16.939  1.00  0.00     0.007 A 
ATOM     19  C   UNL     1      43.806 131.592  19.519  1.00  0.00     0.019 A 
ATOM     20  C   UNL     1      42.412 132.494  15.596  1.00  0.00     0.011 A 
ATOM     21  C   UNL     1      44.014 131.633  17.137  1.00  0.00    -0.020 A 
ATOM     22  C   UNL     1      44.520 131.290  18.357  1.00  0.00    -0.102 A 
ATOM     23  C   UNL     1      43.257 132.069  14.536  1.00  0.00     0.001 A 
ATOM     24  C   UNL     1      44.830 131.218  16.136  1.00  0.00     0.006 A 
ATOM     25  N   UNL     1      45.770 130.600  18.235  1.00  0.00    -0.620 NA
ATOM     26  C   UNL     1      44.484 131.422  14.801  1.00  0.00     0.011 A 
ATOM     27  C   UNL     1      45.948 130.566  16.808  1.00  0.00     0.086 C 
ATOM     28  O   UNL     1      46.936 130.035  16.238  1.00  0.00    -0.315 OA
BRANCH  19  29
ATOM     29  N   UNL     1      44.306 131.234  20.809  1.00  0.00    -0.400 N 
ATOM     30  H   UNL     1      44.269 131.909  21.604  1.00  0.00     0.156 HD
ATOM     31  H   UNL     1      44.718 130.289  20.977  1.00  0.00     0.156 HD
ENDBRANCH  19  29
ENDBRANCH  14  16
ENDBRANCH  10  11
ENDBRANCH   9  10
ENDBRANCH   1   9
TORSDOF 9
ENDMDL
MODEL 6
REMARK VINA RESULT:      -5.7      3.247      8.576
REMARK SMILES C[C@@H](C#N)N(C)CCCCc1cn(-c2cc(N)c3c4c(cccc24)C(=O)[N-]3)nn1
REMARK SMILES IDX 8 1 7 2 5 3 6 4 2 5 1 6 3 7 4 8 9 9 10 10 11 11 12 12 29 13
REMARK SMILES IDX 13 14 28 15 14 16 15 17 24 18 16 19 23 20 19 21 18 22 22 23
REMARK SMILES IDX 20 24 27 25 21 26 25 27 26 28 17 29
REMARK H PARENT 17 30 17 31
ROOT
ATOM      1  C   UNL     1      45.503 131.390  18.202  1.00  0.00     0.016 C 
ENDROOT
BRANCH   1   2
ATOM      2  C   UNL     1      45.682 130.806  19.609  1.00  0.00     0.085 C 
BRANCH   2   3
ATOM      3  N   UNL     1      44.454 131.052  20.403  1.00  0.00    -0.291 NA
ATOM      4  C   UNL     1      43.510 131.919  19.673  1.00  0.00     0.106 C 
BRANCH   3   5
ATOM      5  C   UNL     1      44.694 131.555  21.781  1.00  0.00     0.157 C 
ATOM      6  C   UNL     1      45.518 132.846  21.751  1.00  0.00     0.041 C 
BRANCH   5   7
ATOM      7  C   UNL     1      43.442 131.750  22.542  1.00  0.00     0.081 C 
ATOM      8  N   UNL     1      42.462 131.902  23.139  1.00  0.00    -0.197 NA
ENDBRANCH   5   7
ENDBRANCH   3   5
ENDBRANCH   2   3
ENDBRANCH   1   2
BRANCH   1   9
ATOM      9  C   UNL     1      45.921 130.418  17.081  1.00  0.00     0.008 C 
BRANCH   9  10
ATOM     10  C   UNL     1      44.961 130.368  15.880  1.00  0.00     0.060 C 
BRANCH  10  11
ATOM     11  C   UNL     1      44.420 131.721  15.528  1.00  0.00     0.083 A 
ATOM     12  C   UNL     1      43.092 132.061  15.400  1.00  0.00     0.140 A 
ATOM     13  N   UNL     1      45.161 132.842  15.422  1.00  0.00    -0.135 NA
ATOM     14  N   UNL     1      43.065 133.389  15.201  1.00  0.00    -0.220 N 
ATOM     15  N   UNL     1      44.310 133.841  15.230  1.00  0.00    -0.062 NA
BRANCH  14  16
ATOM     16  C   UNL     1      41.902 134.229  15.159  1.00  0.00     0.076 A 
ATOM     17  C   UNL     1      41.302 134.517  13.899  1.00  0.00     0.053 A 
ATOM     18  C   UNL     1      41.351 134.806  16.334  1.00  0.00     0.007 A 
ATOM     19  C   UNL     1      40.191 135.389  13.794  1.00  0.00     0.019 A 
ATOM     20  C   UNL     1      41.766 134.564  17.665  1.00  0.00     0.011 A 
ATOM     21  C   UNL     1      40.270 135.661  16.168  1.00  0.00    -0.020 A 
ATOM     22  C   UNL     1      39.695 135.960  14.968  1.00  0.00    -0.102 A 
ATOM     23  C   UNL     1      41.100 135.204  18.743  1.00  0.00     0.001 A 
ATOM     24  C   UNL     1      39.621 136.277  17.187  1.00  0.00     0.006 A 
ATOM     25  N   UNL     1      38.578 136.845  15.124  1.00  0.00    -0.620 NA
ATOM     26  C   UNL     1      40.012 136.075  18.510  1.00  0.00     0.011 A 
ATOM     27  C   UNL     1      38.550 137.034  16.549  1.00  0.00     0.086 C 
ATOM     28  O   UNL     1      37.706 137.752  17.144  1.00  0.00    -0.315 OA
BRANCH  19  29
ATOM     29  N   UNL     1      39.601 135.676  12.524  1.00  0.00    -0.400 N 
ATOM     30  H   UNL     1      39.882 136.521  11.981  1.00  0.00     0.156 HD
ATOM     31  H   UNL     1      38.877 135.041  12.118  1.00  0.00     0.156 HD
ENDBRANCH  19  29
ENDBRANCH  14  16
ENDBRANCH  10  11
ENDBRANCH   9  10
ENDBRANCH   1   9
TORSDOF 9
ENDMDL
MODEL 7
REMARK VINA RESULT:      -5.7      1.734      2.071
REMARK SMILES C[C@@H](C#N)N(C)CCCCc1cn(-c2cc(N)c3c4c(cccc24)C(=O)[N-]3)nn1
REMARK SMILES IDX 8 1 7 2 5 3 6 4 2 5 1 6 3 7 4 8 9 9 10 10 11 11 12 12 29 13
REMARK SMILES IDX 13 14 28 15 14 16 15 17 24 18 16 19 23 20 19 21 18 22 22 23
REMARK SMILES IDX 20 24 27 25 21 26 25 27 26 28 17 29
REMARK H PARENT 17 30 17 31
ROOT
ATOM      1  C   UNL     1      38.770 133.745  17.761  1.00  0.00     0.016 C 
ENDROOT
BRANCH   1   2
ATOM      2  C   UNL     1      37.739 134.305  16.772  1.00  0.00     0.085 C 
BRANCH   2   3
ATOM      3  N   UNL     1      38.410 135.248  15.844  1.00  0.00    -0.291 NA
ATOM      4  C   UNL     1      39.874 135.217  16.018  1.00  0.00     0.106 C 
BRANCH   3   5
ATOM      5  C   UNL     1      37.891 136.639  15.887  1.00  0.00     0.157 C 
ATOM      6  C   UNL     1      37.025 136.858  17.132  1.00  0.00     0.041 C 
BRANCH   5   7
ATOM      7  C   UNL     1      38.966 137.651  15.812  1.00  0.00     0.081 C 
ATOM      8  N   UNL     1      39.807 138.444  15.752  1.00  0.00    -0.197 NA
ENDBRANCH   5   7
ENDBRANCH   3   5
ENDBRANCH   2   3
ENDBRANCH   1   2
BRANCH   1   9
ATOM      9  C   UNL     1      38.437 134.059  19.232  1.00  0.00     0.008 C 
BRANCH   9  10
ATOM     10  C   UNL     1      39.474 134.936  19.955  1.00  0.00     0.060 C 
BRANCH  10  11
ATOM     11  C   UNL     1      40.873 134.659  19.493  1.00  0.00     0.083 A 
ATOM     12  C   UNL     1      41.454 133.421  19.347  1.00  0.00     0.140 A 
ATOM     13  N   UNL     1      41.723 135.591  19.016  1.00  0.00    -0.135 NA
ATOM     14  N   UNL     1      42.660 133.638  18.796  1.00  0.00    -0.220 N 
ATOM     15  N   UNL     1      42.798 134.939  18.594  1.00  0.00    -0.062 NA
BRANCH  14  16
ATOM     16  C   UNL     1      43.579 132.644  18.317  1.00  0.00     0.076 A 
ATOM     17  C   UNL     1      44.490 132.045  19.234  1.00  0.00     0.053 A 
ATOM     18  C   UNL     1      43.627 132.265  16.949  1.00  0.00     0.007 A 
ATOM     19  C   UNL     1      45.458 131.105  18.804  1.00  0.00     0.019 A 
ATOM     20  C   UNL     1      42.749 132.695  15.926  1.00  0.00     0.011 A 
ATOM     21  C   UNL     1      44.603 131.348  16.584  1.00  0.00    -0.020 A 
ATOM     22  C   UNL     1      45.493 130.778  17.447  1.00  0.00    -0.102 A 
ATOM     23  C   UNL     1      42.912 132.209  14.601  1.00  0.00     0.001 A 
ATOM     24  C   UNL     1      44.770 130.872  15.325  1.00  0.00     0.006 A 
ATOM     25  N   UNL     1      46.354 129.848  16.778  1.00  0.00    -0.620 NA
ATOM     26  C   UNL     1      43.935 131.285  14.288  1.00  0.00     0.011 A 
ATOM     27  C   UNL     1      45.874 129.925  15.424  1.00  0.00     0.086 C 
ATOM     28  O   UNL     1      46.351 129.254  14.473  1.00  0.00    -0.315 OA
BRANCH  19  29
ATOM     29  N   UNL     1      46.371 130.514  19.732  1.00  0.00    -0.400 N 
ATOM     30  H   UNL     1      47.234 130.030  19.400  1.00  0.00     0.156 HD
ATOM     31  H   UNL     1      46.189 130.559  20.760  1.00  0.00     0.156 HD
ENDBRANCH  19  29
ENDBRANCH  14  16
ENDBRANCH  10  11
ENDBRANCH   9  10
ENDBRANCH   1   9
TORSDOF 9
ENDMDL
MODEL 8
REMARK VINA RESULT:      -5.6      3.405      8.693
REMARK SMILES C[C@@H](C#N)N(C)CCCCc1cn(-c2cc(N)c3c4c(cccc24)C(=O)[N-]3)nn1
REMARK SMILES IDX 8 1 7 2 5 3 6 4 2 5 1 6 3 7 4 8 9 9 10 10 11 11 12 12 29 13
REMARK SMILES IDX 13 14 28 15 14 16 15 17 24 18 16 19 23 20 19 21 18 22 22 23
REMARK SMILES IDX 20 24 27 25 21 26 25 27 26 28 17 29
REMARK H PARENT 17 30 17 31
ROOT
ATOM      1  C   UNL     1      45.020 130.157  16.974  1.00  0.00     0.016 C 
ENDROOT
BRANCH   1   2
ATOM      2  C   UNL     1      45.516 131.264  17.912  1.00  0.00     0.085 C 
BRANCH   2   3
ATOM      3  N   UNL     1      44.441 131.612  18.875  1.00  0.00    -0.291 NA
ATOM      4  C   UNL     1      44.085 133.040  18.785  1.00  0.00     0.106 C 
BRANCH   3   5
ATOM      5  C   UNL     1      44.711 131.211  20.280  1.00  0.00     0.157 C 
ATOM      6  C   UNL     1      46.217 131.078  20.527  1.00  0.00     0.041 C 
BRANCH   5   7
ATOM      7  C   UNL     1      44.097 132.129  21.262  1.00  0.00     0.081 C 
ATOM      8  N   UNL     1      43.617 132.847  22.032  1.00  0.00    -0.197 NA
ENDBRANCH   5   7
ENDBRANCH   3   5
ENDBRANCH   2   3
ENDBRANCH   1   2
BRANCH   1   9
ATOM      9  C   UNL     1      45.091 130.543  15.484  1.00  0.00     0.008 C 
BRANCH   9  10
ATOM     10  C   UNL     1      44.973 132.052  15.202  1.00  0.00     0.060 C 
BRANCH  10  11
ATOM     11  C   UNL     1      43.548 132.492  15.055  1.00  0.00     0.083 A 
ATOM     12  C   UNL     1      42.997 133.653  15.548  1.00  0.00     0.140 A 
ATOM     13  N   UNL     1      42.627 131.873  14.290  1.00  0.00    -0.135 NA
ATOM     14  N   UNL     1      41.739 133.698  15.079  1.00  0.00    -0.220 N 
ATOM     15  N   UNL     1      41.540 132.632  14.318  1.00  0.00    -0.062 NA
BRANCH  14  16
ATOM     16  C   UNL     1      40.814 134.789  15.199  1.00  0.00     0.076 A 
ATOM     17  C   UNL     1      40.979 135.931  14.364  1.00  0.00     0.053 A 
ATOM     18  C   UNL     1      39.758 134.775  16.149  1.00  0.00     0.007 A 
ATOM     19  C   UNL     1      40.132 137.059  14.483  1.00  0.00     0.019 A 
ATOM     20  C   UNL     1      39.402 133.698  16.995  1.00  0.00     0.011 A 
ATOM     21  C   UNL     1      38.968 135.913  16.229  1.00  0.00    -0.020 A 
ATOM     22  C   UNL     1      39.124 137.021  15.448  1.00  0.00    -0.102 A 
ATOM     23  C   UNL     1      38.302 133.828  17.884  1.00  0.00     0.001 A 
ATOM     24  C   UNL     1      37.913 136.052  17.070  1.00  0.00     0.006 A 
ATOM     25  N   UNL     1      38.136 138.017  15.743  1.00  0.00    -0.620 NA
ATOM     26  C   UNL     1      37.542 135.019  17.929  1.00  0.00     0.011 A 
ATOM     27  C   UNL     1      37.375 137.376  16.782  1.00  0.00     0.086 C 
ATOM     28  O   UNL     1      36.380 137.901  17.347  1.00  0.00    -0.315 OA
BRANCH  19  29
ATOM     29  N   UNL     1      40.310 138.203  13.644  1.00  0.00    -0.400 N 
ATOM     30  H   UNL     1      40.261 138.118  12.604  1.00  0.00     0.156 HD
ATOM     31  H   UNL     1      40.492 139.144  14.058  1.00  0.00     0.156 HD
ENDBRANCH  19  29
ENDBRANCH  14  16
ENDBRANCH  10  11
ENDBRANCH   9  10
ENDBRANCH   1   9
TORSDOF 9
ENDMDL
MODEL 9
REMARK VINA RESULT:      -5.6      1.951      2.874
REMARK SMILES C[C@@H](C#N)N(C)CCCCc1cn(-c2cc(N)c3c4c(cccc24)C(=O)[N-]3)nn1
REMARK SMILES IDX 8 1 7 2 5 3 6 4 2 5 1 6 3 7 4 8 9 9 10 10 11 11 12 12 29 13
REMARK SMILES IDX 13 14 28 15 14 16 15 17 24 18 16 19 23 20 19 21 18 22 22 23
REMARK SMILES IDX 20 24 27 25 21 26 25 27 26 28 17 29
REMARK H PARENT 17 30 17 31
ROOT
ATOM      1  C   UNL     1      39.938 135.496  13.999  1.00  0.00     0.016 C 
ENDROOT
BRANCH   1   2
ATOM      2  C   UNL     1      40.180 137.010  14.055  1.00  0.00     0.085 C 
BRANCH   2   3
ATOM      3  N   UNL     1      41.408 137.283  14.842  1.00  0.00    -0.291 NA
ATOM      4  C   UNL     1      42.244 136.074  14.963  1.00  0.00     0.106 C 
BRANCH   3   5
ATOM      5  C   UNL     1      41.171 137.910  16.168  1.00  0.00     0.157 C 
ATOM      6  C   UNL     1      42.449 138.576  16.690  1.00  0.00     0.041 C 
BRANCH   5   7
ATOM      7  C   UNL     1      40.049 138.872  16.150  1.00  0.00     0.081 C 
ATOM      8  N   UNL     1      39.170 139.624  16.135  1.00  0.00    -0.197 NA
ENDBRANCH   5   7
ENDBRANCH   3   5
ENDBRANCH   2   3
ENDBRANCH   1   2
BRANCH   1   9
ATOM      9  C   UNL     1      38.445 135.116  14.034  1.00  0.00     0.008 C 
BRANCH   9  10
ATOM     10  C   UNL     1      37.949 134.578  15.388  1.00  0.00     0.060 C 
BRANCH  10  11
ATOM     11  C   UNL     1      39.072 134.337  16.350  1.00  0.00     0.083 A 
ATOM     12  C   UNL     1      39.945 133.273  16.335  1.00  0.00     0.140 A 
ATOM     13  N   UNL     1      39.477 135.211  17.293  1.00  0.00    -0.135 NA
ATOM     14  N   UNL     1      40.855 133.524  17.291  1.00  0.00    -0.220 N 
ATOM     15  N   UNL     1      40.567 134.693  17.844  1.00  0.00    -0.062 NA
BRANCH  14  16
ATOM     16  C   UNL     1      42.052 132.778  17.558  1.00  0.00     0.076 A 
ATOM     17  C   UNL     1      42.435 132.546  18.910  1.00  0.00     0.053 A 
ATOM     18  C   UNL     1      42.880 132.291  16.512  1.00  0.00     0.007 A 
ATOM     19  C   UNL     1      43.637 131.868  19.229  1.00  0.00     0.019 A 
ATOM     20  C   UNL     1      42.611 132.360  15.124  1.00  0.00     0.011 A 
ATOM     21  C   UNL     1      44.051 131.645  16.885  1.00  0.00    -0.020 A 
ATOM     22  C   UNL     1      44.440 131.430  18.174  1.00  0.00    -0.102 A 
ATOM     23  C   UNL     1      43.532 131.807  14.195  1.00  0.00     0.001 A 
ATOM     24  C   UNL     1      44.938 131.109  16.011  1.00  0.00     0.006 A 
ATOM     25  N   UNL     1      45.677 130.708  18.238  1.00  0.00    -0.620 NA
ATOM     26  C   UNL     1      44.714 131.172  14.636  1.00  0.00     0.011 A 
ATOM     27  C   UNL     1      45.976 130.516  16.845  1.00  0.00     0.086 C 
ATOM     28  O   UNL     1      46.996 129.909  16.425  1.00  0.00    -0.315 OA
BRANCH  19  29
ATOM     29  N   UNL     1      44.015 131.646  20.590  1.00  0.00    -0.400 N 
ATOM     30  H   UNL     1      43.399 131.952  21.375  1.00  0.00     0.156 HD
ATOM     31  H   UNL     1      44.916 131.170  20.821  1.00  0.00     0.156 HD
ENDBRANCH  19  29
ENDBRANCH  14  16
ENDBRANCH  10  11
ENDBRANCH   9  10
ENDBRANCH   1   9
TORSDOF 9
ENDMDL


