MODEL 1
REMARK VINA RESULT:      -8.1      0.000      0.000
REMARK SMILES Cc1nnn(/C=C2/C[C@@H](C)OC2=O)c1-c1c2ccccc2cc2c(N=[N+]=[N-])cccc12
REMARK SMILES IDX 15 1 16 2 17 3 18 4 19 5 20 6 21 7 22 8 23 9 24 10 28 11
REMARK SMILES IDX 29 12 30 13 31 14 14 15 5 16 4 17 3 18 2 19 1 20 6 21 7 22
REMARK SMILES IDX 12 23 8 24 11 25 9 26 13 27 10 28 25 29 26 30 27 31
REMARK H PARENT
ROOT
ATOM      1  C   UNL     1      43.459 132.574  17.484  1.00  0.00     0.018 A 
ATOM      2  C   UNL     1      44.104 132.232  18.701  1.00  0.00    -0.008 A 
ATOM      3  C   UNL     1      43.718 132.798  19.938  1.00  0.00     0.009 A 
ATOM      4  C   UNL     1      44.391 132.469  21.116  1.00  0.00     0.001 A 
ATOM      5  C   UNL     1      45.448 131.561  21.090  1.00  0.00     0.001 A 
ATOM      6  C   UNL     1      45.828 130.967  19.886  1.00  0.00     0.009 A 
ATOM      7  C   UNL     1      45.158 131.286  18.694  1.00  0.00    -0.017 A 
ATOM      8  C   UNL     1      45.532 130.660  17.502  1.00  0.00     0.018 A 
ATOM      9  C   UNL     1      44.872 130.942  16.298  1.00  0.00    -0.008 A 
ATOM     10  C   UNL     1      45.250 130.284  15.101  1.00  0.00     0.045 A 
ATOM     11  C   UNL     1      44.584 130.591  13.904  1.00  0.00     0.011 A 
ATOM     12  C   UNL     1      43.564 131.536  13.884  1.00  0.00     0.001 A 
ATOM     13  C   UNL     1      43.187 132.189  15.055  1.00  0.00     0.009 A 
ATOM     14  C   UNL     1      43.825 131.905  16.282  1.00  0.00    -0.008 A 
ENDROOT
BRANCH   1  15
ATOM     15  C   UNL     1      42.446 133.667  17.461  1.00  0.00     0.098 A 
ATOM     16  N   UNL     1      42.710 134.990  17.376  1.00  0.00    -0.219 N 
ATOM     17  N   UNL     1      41.577 135.647  17.566  1.00  0.00    -0.062 NA
ATOM     18  N   UNL     1      40.571 134.801  17.744  1.00  0.00    -0.135 NA
ATOM     19  C   UNL     1      41.090 133.558  17.699  1.00  0.00     0.088 A 
ATOM     20  C   UNL     1      40.295 132.309  17.900  1.00  0.00     0.071 C 
BRANCH  16  21
ATOM     21  C   UNL     1      43.996 135.620  17.359  1.00  0.00     0.126 C 
BRANCH  21  22
ATOM     22  C   UNL     1      44.366 136.529  18.268  1.00  0.00     0.059 C 
ATOM     23  C   UNL     1      44.254 137.966  18.182  1.00  0.00     0.335 C 
ATOM     24  C   UNL     1      44.990 136.208  19.584  1.00  0.00     0.089 C 
ATOM     25  O   UNL     1      44.863 138.564  19.263  1.00  0.00    -0.459 OA
ATOM     26  C   UNL     1      45.441 137.592  20.130  1.00  0.00     0.178 C 
ATOM     27  O   UNL     1      43.597 138.602  17.318  1.00  0.00    -0.247 OA
ATOM     28  C   UNL     1      46.963 137.740  20.116  1.00  0.00     0.053 C 
ENDBRANCH  21  22
ENDBRANCH  16  21
ENDBRANCH   1  15
BRANCH  10  29
ATOM     29  N   UNL     1      46.309 129.311  15.119  1.00  0.00    -0.060 NA
BRANCH  29  30
ATOM     30  N   UNL     1      47.172 129.253  14.241  1.00  0.00     0.005 N 
ATOM     31  N   UNL     1      48.032 129.197  13.364  1.00  0.00    -0.003 NA
ENDBRANCH  29  30
ENDBRANCH  10  29
TORSDOF 5
ENDMDL
MODEL 2
REMARK VINA RESULT:      -8.0      3.451      6.456
REMARK SMILES Cc1nnn(/C=C2/C[C@@H](C)OC2=O)c1-c1c2ccccc2cc2c(N=[N+]=[N-])cccc12
REMARK SMILES IDX 15 1 16 2 17 3 18 4 19 5 20 6 21 7 22 8 23 9 24 10 28 11
REMARK SMILES IDX 29 12 30 13 31 14 14 15 5 16 4 17 3 18 2 19 1 20 6 21 7 22
REMARK SMILES IDX 12 23 8 24 11 25 9 26 13 27 10 28 25 29 26 30 27 31
REMARK H PARENT
ROOT
ATOM      1  C   UNL     1      43.624 134.193  18.529  1.00  0.00     0.018 A 
ATOM      2  C   UNL     1      43.839 135.593  18.430  1.00  0.00    -0.008 A 
ATOM      3  C   UNL     1      43.213 136.378  17.434  1.00  0.00     0.009 A 
ATOM      4  C   UNL     1      43.467 137.748  17.338  1.00  0.00     0.001 A 
ATOM      5  C   UNL     1      44.334 138.364  18.238  1.00  0.00     0.001 A 
ATOM      6  C   UNL     1      44.939 137.617  19.248  1.00  0.00     0.009 A 
ATOM      7  C   UNL     1      44.690 136.239  19.359  1.00  0.00    -0.017 A 
ATOM      8  C   UNL     1      45.282 135.511  20.394  1.00  0.00     0.018 A 
ATOM      9  C   UNL     1      45.040 134.137  20.543  1.00  0.00    -0.008 A 
ATOM     10  C   UNL     1      45.632 133.416  21.610  1.00  0.00     0.045 A 
ATOM     11  C   UNL     1      45.386 132.039  21.733  1.00  0.00     0.011 A 
ATOM     12  C   UNL     1      44.573 131.381  20.816  1.00  0.00     0.001 A 
ATOM     13  C   UNL     1      43.990 132.082  19.765  1.00  0.00     0.009 A 
ATOM     14  C   UNL     1      44.204 133.468  19.607  1.00  0.00    -0.008 A 
ENDROOT
BRANCH   1  15
ATOM     15  C   UNL     1      42.841 133.485  17.477  1.00  0.00     0.098 A 
ATOM     16  N   UNL     1      43.356 132.846  16.403  1.00  0.00    -0.219 N 
ATOM     17  N   UNL     1      42.354 132.503  15.610  1.00  0.00    -0.062 NA
ATOM     18  N   UNL     1      41.194 132.868  16.140  1.00  0.00    -0.135 NA
ATOM     19  C   UNL     1      41.472 133.499  17.298  1.00  0.00     0.088 A 
ATOM     20  C   UNL     1      40.440 134.110  18.190  1.00  0.00     0.071 C 
BRANCH  16  21
ATOM     21  C   UNL     1      44.733 132.770  16.015  1.00  0.00     0.126 C 
BRANCH  21  22
ATOM     22  C   UNL     1      45.293 131.644  15.557  1.00  0.00     0.059 C 
ATOM     23  C   UNL     1      46.033 130.655  16.305  1.00  0.00     0.335 C 
ATOM     24  C   UNL     1      45.256 131.194  14.136  1.00  0.00     0.089 C 
ATOM     25  O   UNL     1      46.561 129.705  15.458  1.00  0.00    -0.459 OA
ATOM     26  C   UNL     1      46.241 129.992  14.100  1.00  0.00     0.178 C 
ATOM     27  O   UNL     1      46.102 130.579  17.558  1.00  0.00    -0.247 OA
ATOM     28  C   UNL     1      47.522 130.331  13.337  1.00  0.00     0.053 C 
ENDBRANCH  21  22
ENDBRANCH  16  21
ENDBRANCH   1  15
BRANCH  10  29
ATOM     29  N   UNL     1      46.478 134.095  22.554  1.00  0.00    -0.060 NA
BRANCH  29  30
ATOM     30  N   UNL     1      47.673 134.305  22.343  1.00  0.00     0.005 N 
ATOM     31  N   UNL     1      48.867 134.514  22.130  1.00  0.00    -0.003 NA
ENDBRANCH  29  30
ENDBRANCH  10  29
TORSDOF 5
ENDMDL
MODEL 3
REMARK VINA RESULT:      -7.9      4.138      7.357
REMARK SMILES Cc1nnn(/C=C2/C[C@@H](C)OC2=O)c1-c1c2ccccc2cc2c(N=[N+]=[N-])cccc12
REMARK SMILES IDX 15 1 16 2 17 3 18 4 19 5 20 6 21 7 22 8 23 9 24 10 28 11
REMARK SMILES IDX 29 12 30 13 31 14 14 15 5 16 4 17 3 18 2 19 1 20 6 21 7 22
REMARK SMILES IDX 12 23 8 24 11 25 9 26 13 27 10 28 25 29 26 30 27 31
REMARK H PARENT
ROOT
ATOM      1  C   UNL     1      41.079 135.016  15.774  1.00  0.00     0.018 A 
ATOM      2  C   UNL     1      41.817 136.188  16.088  1.00  0.00    -0.008 A 
ATOM      3  C   UNL     1      42.885 136.175  17.014  1.00  0.00     0.009 A 
ATOM      4  C   UNL     1      43.573 137.348  17.329  1.00  0.00     0.001 A 
ATOM      5  C   UNL     1      43.224 138.551  16.719  1.00  0.00     0.001 A 
ATOM      6  C   UNL     1      42.193 138.584  15.780  1.00  0.00     0.009 A 
ATOM      7  C   UNL     1      41.494 137.411  15.451  1.00  0.00    -0.017 A 
ATOM      8  C   UNL     1      40.484 137.456  14.487  1.00  0.00     0.018 A 
ATOM      9  C   UNL     1      39.779 136.300  14.121  1.00  0.00    -0.008 A 
ATOM     10  C   UNL     1      38.771 136.357  13.127  1.00  0.00     0.045 A 
ATOM     11  C   UNL     1      38.069 135.190  12.787  1.00  0.00     0.011 A 
ATOM     12  C   UNL     1      38.353 133.984  13.419  1.00  0.00     0.001 A 
ATOM     13  C   UNL     1      39.340 133.919  14.398  1.00  0.00     0.009 A 
ATOM     14  C   UNL     1      40.076 135.067  14.766  1.00  0.00    -0.008 A 
ENDROOT
BRANCH   1  15
ATOM     15  C   UNL     1      41.319 133.760  16.538  1.00  0.00     0.098 A 
ATOM     16  N   UNL     1      42.200 132.789  16.208  1.00  0.00    -0.219 N 
ATOM     17  N   UNL     1      41.998 131.761  17.017  1.00  0.00    -0.062 NA
ATOM     18  N   UNL     1      41.035 132.033  17.887  1.00  0.00    -0.135 NA
ATOM     19  C   UNL     1      40.583 133.269  17.599  1.00  0.00     0.088 A 
ATOM     20  C   UNL     1      39.459 133.941  18.320  1.00  0.00     0.071 C 
BRANCH  16  21
ATOM     21  C   UNL     1      43.027 132.727  15.040  1.00  0.00     0.126 C 
BRANCH  21  22
ATOM     22  C   UNL     1      44.018 131.838  14.905  1.00  0.00     0.059 C 
ATOM     23  C   UNL     1      45.206 131.704  15.716  1.00  0.00     0.335 C 
ATOM     24  C   UNL     1      44.078 130.788  13.848  1.00  0.00     0.089 C 
ATOM     25  O   UNL     1      46.050 130.755  15.183  1.00  0.00    -0.459 OA
ATOM     26  C   UNL     1      45.513 130.206  13.982  1.00  0.00     0.178 C 
ATOM     27  O   UNL     1      45.412 132.272  16.818  1.00  0.00    -0.247 OA
ATOM     28  C   UNL     1      46.399 130.603  12.801  1.00  0.00     0.053 C 
ENDBRANCH  21  22
ENDBRANCH  16  21
ENDBRANCH   1  15
BRANCH  10  29
ATOM     29  N   UNL     1      38.473 137.606  12.478  1.00  0.00    -0.060 NA
BRANCH  29  30
ATOM     30  N   UNL     1      38.396 137.714  11.253  1.00  0.00     0.005 N 
ATOM     31  N   UNL     1      38.317 137.824  10.031  1.00  0.00    -0.003 NA
ENDBRANCH  29  30
ENDBRANCH  10  29
TORSDOF 5
ENDMDL
MODEL 4
REMARK VINA RESULT:      -7.8      3.298      6.586
REMARK SMILES Cc1nnn(/C=C2/C[C@@H](C)OC2=O)c1-c1c2ccccc2cc2c(N=[N+]=[N-])cccc12
REMARK SMILES IDX 15 1 16 2 17 3 18 4 19 5 20 6 21 7 22 8 23 9 24 10 28 11
REMARK SMILES IDX 29 12 30 13 31 14 14 15 5 16 4 17 3 18 2 19 1 20 6 21 7 22
REMARK SMILES IDX 12 23 8 24 11 25 9 26 13 27 10 28 25 29 26 30 27 31
REMARK H PARENT
ROOT
ATOM      1  C   UNL     1      42.440 134.355  17.175  1.00  0.00     0.018 A 
ATOM      2  C   UNL     1      42.745 135.737  17.073  1.00  0.00    -0.008 A 
ATOM      3  C   UNL     1      42.474 136.479  15.900  1.00  0.00     0.009 A 
ATOM      4  C   UNL     1      42.815 137.831  15.814  1.00  0.00     0.001 A 
ATOM      5  C   UNL     1      43.415 138.473  16.896  1.00  0.00     0.001 A 
ATOM      6  C   UNL     1      43.664 137.770  18.074  1.00  0.00     0.009 A 
ATOM      7  C   UNL     1      43.324 136.411  18.176  1.00  0.00    -0.017 A 
ATOM      8  C   UNL     1      43.555 135.729  19.374  1.00  0.00     0.018 A 
ATOM      9  C   UNL     1      43.210 134.377  19.515  1.00  0.00    -0.008 A 
ATOM     10  C   UNL     1      43.431 133.703  20.742  1.00  0.00     0.045 A 
ATOM     11  C   UNL     1      43.091 132.347  20.857  1.00  0.00     0.011 A 
ATOM     12  C   UNL     1      42.545 131.660  19.778  1.00  0.00     0.001 A 
ATOM     13  C   UNL     1      42.326 132.313  18.568  1.00  0.00     0.009 A 
ATOM     14  C   UNL     1      42.646 133.679  18.411  1.00  0.00    -0.008 A 
ENDROOT
BRANCH   1  15
ATOM     15  C   UNL     1      41.960 133.609  15.978  1.00  0.00     0.098 A 
ATOM     16  N   UNL     1      42.727 132.872  15.144  1.00  0.00    -0.219 N 
ATOM     17  N   UNL     1      41.984 132.519  14.108  1.00  0.00    -0.062 NA
ATOM     18  N   UNL     1      40.745 132.973  14.245  1.00  0.00    -0.135 NA
ATOM     19  C   UNL     1      40.708 133.672  15.397  1.00  0.00     0.088 A 
ATOM     20  C   UNL     1      39.500 134.391  15.904  1.00  0.00     0.071 C 
BRANCH  16  21
ATOM     21  C   UNL     1      44.149 132.706  15.190  1.00  0.00     0.126 C 
BRANCH  21  22
ATOM     22  C   UNL     1      44.735 131.504  15.213  1.00  0.00     0.059 C 
ATOM     23  C   UNL     1      45.369 130.848  16.333  1.00  0.00     0.335 C 
ATOM     24  C   UNL     1      44.849 130.592  14.039  1.00  0.00     0.089 C 
ATOM     25  O   UNL     1      45.970 129.676  15.930  1.00  0.00    -0.459 OA
ATOM     26  C   UNL     1      45.810 129.472  14.528  1.00  0.00     0.178 C 
ATOM     27  O   UNL     1      45.296 131.209  17.535  1.00  0.00    -0.247 OA
ATOM     28  C   UNL     1      47.174 129.555  13.843  1.00  0.00     0.053 C 
ENDBRANCH  21  22
ENDBRANCH  16  21
ENDBRANCH   1  15
BRANCH  10  29
ATOM     29  N   UNL     1      44.002 134.411  21.857  1.00  0.00    -0.060 NA
BRANCH  29  30
ATOM     30  N   UNL     1      45.184 134.293  22.182  1.00  0.00     0.005 N 
ATOM     31  N   UNL     1      46.364 134.177  22.509  1.00  0.00    -0.003 NA
ENDBRANCH  29  30
ENDBRANCH  10  29
TORSDOF 5
ENDMDL
MODEL 5
REMARK VINA RESULT:      -7.7      3.692      6.710
REMARK SMILES Cc1nnn(/C=C2/C[C@@H](C)OC2=O)c1-c1c2ccccc2cc2c(N=[N+]=[N-])cccc12
REMARK SMILES IDX 15 1 16 2 17 3 18 4 19 5 20 6 21 7 22 8 23 9 24 10 28 11
REMARK SMILES IDX 29 12 30 13 31 14 14 15 5 16 4 17 3 18 2 19 1 20 6 21 7 22
REMARK SMILES IDX 12 23 8 24 11 25 9 26 13 27 10 28 25 29 26 30 27 31
REMARK H PARENT
ROOT
ATOM      1  C   UNL     1      43.249 134.016  16.857  1.00  0.00     0.018 A 
ATOM      2  C   UNL     1      43.264 135.430  16.731  1.00  0.00    -0.008 A 
ATOM      3  C   UNL     1      42.693 136.089  15.617  1.00  0.00     0.009 A 
ATOM      4  C   UNL     1      42.751 137.479  15.502  1.00  0.00     0.001 A 
ATOM      5  C   UNL     1      43.361 138.241  16.497  1.00  0.00     0.001 A 
ATOM      6  C   UNL     1      43.904 137.616  17.620  1.00  0.00     0.009 A 
ATOM      7  C   UNL     1      43.851 136.219  17.751  1.00  0.00    -0.017 A 
ATOM      8  C   UNL     1      44.374 135.612  18.896  1.00  0.00     0.018 A 
ATOM      9  C   UNL     1      44.320 134.221  19.067  1.00  0.00    -0.008 A 
ATOM     10  C   UNL     1      44.836 133.621  20.242  1.00  0.00     0.045 A 
ATOM     11  C   UNL     1      44.784 132.226  20.386  1.00  0.00     0.011 A 
ATOM     12  C   UNL     1      44.235 131.431  19.385  1.00  0.00     0.001 A 
ATOM     13  C   UNL     1      43.728 132.012  18.226  1.00  0.00     0.009 A 
ATOM     14  C   UNL     1      43.753 133.412  18.043  1.00  0.00    -0.008 A 
ENDROOT
BRANCH   1  15
ATOM     15  C   UNL     1      42.759 133.175  15.730  1.00  0.00     0.098 A 
ATOM     16  N   UNL     1      43.515 132.349  14.972  1.00  0.00    -0.219 N 
ATOM     17  N   UNL     1      42.769 131.918  13.967  1.00  0.00    -0.062 NA
ATOM     18  N   UNL     1      41.540 132.409  14.054  1.00  0.00    -0.135 NA
ATOM     19  C   UNL     1      41.512 133.210  15.137  1.00  0.00     0.088 A 
ATOM     20  C   UNL     1      40.317 133.997  15.568  1.00  0.00     0.071 C 
BRANCH  16  21
ATOM     21  C   UNL     1      44.933 132.159  15.043  1.00  0.00     0.126 C 
BRANCH  21  22
ATOM     22  C   UNL     1      45.539 131.064  14.570  1.00  0.00     0.059 C 
ATOM     23  C   UNL     1      45.529 129.733  15.130  1.00  0.00     0.335 C 
ATOM     24  C   UNL     1      46.370 131.021  13.332  1.00  0.00     0.089 C 
ATOM     25  O   UNL     1      46.376 128.906  14.426  1.00  0.00    -0.459 OA
ATOM     26  C   UNL     1      47.026 129.612  13.372  1.00  0.00     0.178 C 
ATOM     27  O   UNL     1      44.776 129.328  16.052  1.00  0.00    -0.247 OA
ATOM     28  C   UNL     1      48.524 129.691  13.662  1.00  0.00     0.053 C 
ENDBRANCH  21  22
ENDBRANCH  16  21
ENDBRANCH   1  15
BRANCH  10  29
ATOM     29  N   UNL     1      45.410 134.442  21.275  1.00  0.00    -0.060 NA
BRANCH  29  30
ATOM     30  N   UNL     1      46.611 134.423  21.547  1.00  0.00     0.005 N 
ATOM     31  N   UNL     1      47.810 134.405  21.820  1.00  0.00    -0.003 NA
ENDBRANCH  29  30
ENDBRANCH  10  29
TORSDOF 5
ENDMDL
MODEL 6
REMARK VINA RESULT:      -7.6      1.423      2.212
REMARK SMILES Cc1nnn(/C=C2/C[C@@H](C)OC2=O)c1-c1c2ccccc2cc2c(N=[N+]=[N-])cccc12
REMARK SMILES IDX 15 1 16 2 17 3 18 4 19 5 20 6 21 7 22 8 23 9 24 10 28 11
REMARK SMILES IDX 29 12 30 13 31 14 14 15 5 16 4 17 3 18 2 19 1 20 6 21 7 22
REMARK SMILES IDX 12 23 8 24 11 25 9 26 13 27 10 28 25 29 26 30 27 31
REMARK H PARENT
ROOT
ATOM      1  C   UNL     1      43.467 132.236  17.604  1.00  0.00     0.018 A 
ATOM      2  C   UNL     1      44.106 132.013  18.852  1.00  0.00    -0.008 A 
ATOM      3  C   UNL     1      43.556 132.479  20.068  1.00  0.00     0.009 A 
ATOM      4  C   UNL     1      44.221 132.275  21.279  1.00  0.00     0.001 A 
ATOM      5  C   UNL     1      45.435 131.591  21.305  1.00  0.00     0.001 A 
ATOM      6  C   UNL     1      45.983 131.096  20.121  1.00  0.00     0.009 A 
ATOM      7  C   UNL     1      45.323 131.291  18.897  1.00  0.00    -0.017 A 
ATOM      8  C   UNL     1      45.871 130.763  17.725  1.00  0.00     0.018 A 
ATOM      9  C   UNL     1      45.228 130.923  16.489  1.00  0.00    -0.008 A 
ATOM     10  C   UNL     1      45.786 130.365  15.312  1.00  0.00     0.045 A 
ATOM     11  C   UNL     1      45.133 130.550  14.083  1.00  0.00     0.011 A 
ATOM     12  C   UNL     1      43.950 131.278  14.013  1.00  0.00     0.001 A 
ATOM     13  C   UNL     1      43.396 131.831  15.164  1.00  0.00     0.009 A 
ATOM     14  C   UNL     1      44.016 131.664  16.422  1.00  0.00    -0.008 A 
ENDROOT
BRANCH   1  15
ATOM     15  C   UNL     1      42.263 133.110  17.531  1.00  0.00     0.098 A 
ATOM     16  N   UNL     1      42.258 134.430  17.239  1.00  0.00    -0.219 N 
ATOM     17  N   UNL     1      41.036 134.892  17.448  1.00  0.00    -0.062 NA
ATOM     18  N   UNL     1      40.228 133.916  17.839  1.00  0.00    -0.135 NA
ATOM     19  C   UNL     1      40.974 132.795  17.914  1.00  0.00     0.088 A 
ATOM     20  C   UNL     1      40.452 131.469  18.363  1.00  0.00     0.071 C 
BRANCH  16  21
ATOM     21  C   UNL     1      43.394 135.273  17.009  1.00  0.00     0.126 C 
BRANCH  21  22
ATOM     22  C   UNL     1      43.292 136.483  16.448  1.00  0.00     0.059 C 
ATOM     23  C   UNL     1      43.392 137.771  17.095  1.00  0.00     0.335 C 
ATOM     24  C   UNL     1      43.040 136.729  14.999  1.00  0.00     0.089 C 
ATOM     25  O   UNL     1      43.102 138.782  16.205  1.00  0.00    -0.459 OA
ATOM     26  C   UNL     1      42.767 138.258  14.922  1.00  0.00     0.178 C 
ATOM     27  O   UNL     1      43.800 137.976  18.266  1.00  0.00    -0.247 OA
ATOM     28  C   UNL     1      41.299 138.558  14.619  1.00  0.00     0.053 C 
ENDBRANCH  21  22
ENDBRANCH  16  21
ENDBRANCH   1  15
BRANCH  10  29
ATOM     29  N   UNL     1      47.013 129.617  15.383  1.00  0.00    -0.060 NA
BRANCH  29  30
ATOM     30  N   UNL     1      47.804 129.550  14.440  1.00  0.00     0.005 N 
ATOM     31  N   UNL     1      48.592 129.480  13.499  1.00  0.00    -0.003 NA
ENDBRANCH  29  30
ENDBRANCH  10  29
TORSDOF 5
ENDMDL
MODEL 7
REMARK VINA RESULT:      -7.4      2.468      5.010
REMARK SMILES Cc1nnn(/C=C2/C[C@@H](C)OC2=O)c1-c1c2ccccc2cc2c(N=[N+]=[N-])cccc12
REMARK SMILES IDX 15 1 16 2 17 3 18 4 19 5 20 6 21 7 22 8 23 9 24 10 28 11
REMARK SMILES IDX 29 12 30 13 31 14 14 15 5 16 4 17 3 18 2 19 1 20 6 21 7 22
REMARK SMILES IDX 12 23 8 24 11 25 9 26 13 27 10 28 25 29 26 30 27 31
REMARK H PARENT
ROOT
ATOM      1  C   UNL     1      43.657 134.000  18.138  1.00  0.00     0.018 A 
ATOM      2  C   UNL     1      43.436 135.108  17.278  1.00  0.00    -0.008 A 
ATOM      3  C   UNL     1      42.769 136.275  17.716  1.00  0.00     0.009 A 
ATOM      4  C   UNL     1      42.536 137.337  16.840  1.00  0.00     0.001 A 
ATOM      5  C   UNL     1      42.974 137.266  15.519  1.00  0.00     0.001 A 
ATOM      6  C   UNL     1      43.661 136.137  15.072  1.00  0.00     0.009 A 
ATOM      7  C   UNL     1      43.905 135.063  15.942  1.00  0.00    -0.017 A 
ATOM      8  C   UNL     1      44.620 133.952  15.486  1.00  0.00     0.018 A 
ATOM      9  C   UNL     1      44.897 132.871  16.334  1.00  0.00    -0.008 A 
ATOM     10  C   UNL     1      45.640 131.760  15.863  1.00  0.00     0.045 A 
ATOM     11  C   UNL     1      45.895 130.683  16.726  1.00  0.00     0.011 A 
ATOM     12  C   UNL     1      45.421 130.696  18.033  1.00  0.00     0.001 A 
ATOM     13  C   UNL     1      44.689 131.782  18.504  1.00  0.00     0.009 A 
ATOM     14  C   UNL     1      44.416 132.890  17.673  1.00  0.00    -0.008 A 
ENDROOT
BRANCH   1  15
ATOM     15  C   UNL     1      43.048 133.982  19.498  1.00  0.00     0.098 A 
ATOM     16  N   UNL     1      41.802 133.557  19.802  1.00  0.00    -0.219 N 
ATOM     17  N   UNL     1      41.562 133.863  21.067  1.00  0.00    -0.062 NA
ATOM     18  N   UNL     1      42.619 134.448  21.615  1.00  0.00    -0.135 NA
ATOM     19  C   UNL     1      43.555 134.550  20.651  1.00  0.00     0.088 A 
ATOM     20  C   UNL     1      44.890 135.194  20.842  1.00  0.00     0.071 C 
BRANCH  16  21
ATOM     21  C   UNL     1      40.792 133.105  18.892  1.00  0.00     0.126 C 
BRANCH  21  22
ATOM     22  C   UNL     1      40.239 133.905  17.974  1.00  0.00     0.059 C 
ATOM     23  C   UNL     1      39.375 135.042  18.192  1.00  0.00     0.335 C 
ATOM     24  C   UNL     1      40.416 133.756  16.500  1.00  0.00     0.089 C 
ATOM     25  O   UNL     1      38.905 135.530  16.993  1.00  0.00    -0.459 OA
ATOM     26  C   UNL     1      39.389 134.755  15.898  1.00  0.00     0.178 C 
ATOM     27  O   UNL     1      39.162 135.602  19.298  1.00  0.00    -0.247 OA
ATOM     28  C   UNL     1      38.219 134.034  15.230  1.00  0.00     0.053 C 
ENDBRANCH  21  22
ENDBRANCH  16  21
ENDBRANCH   1  15
BRANCH  10  29
ATOM     29  N   UNL     1      46.125 131.743  14.509  1.00  0.00    -0.060 NA
BRANCH  29  30
ATOM     30  N   UNL     1      46.680 130.760  14.015  1.00  0.00     0.005 N 
ATOM     31  N   UNL     1      47.234 129.777  13.524  1.00  0.00    -0.003 NA
ENDBRANCH  29  30
ENDBRANCH  10  29
TORSDOF 5
ENDMDL
MODEL 8
REMARK VINA RESULT:      -7.4      2.697      4.087
REMARK SMILES Cc1nnn(/C=C2/C[C@@H](C)OC2=O)c1-c1c2ccccc2cc2c(N=[N+]=[N-])cccc12
REMARK SMILES IDX 15 1 16 2 17 3 18 4 19 5 20 6 21 7 22 8 23 9 24 10 28 11
REMARK SMILES IDX 29 12 30 13 31 14 14 15 5 16 4 17 3 18 2 19 1 20 6 21 7 22
REMARK SMILES IDX 12 23 8 24 11 25 9 26 13 27 10 28 25 29 26 30 27 31
REMARK H PARENT
ROOT
ATOM      1  C   UNL     1      44.140 132.944  18.161  1.00  0.00     0.018 A 
ATOM      2  C   UNL     1      43.814 134.211  17.609  1.00  0.00    -0.008 A 
ATOM      3  C   UNL     1      43.085 135.180  18.337  1.00  0.00     0.009 A 
ATOM      4  C   UNL     1      42.749 136.405  17.758  1.00  0.00     0.001 A 
ATOM      5  C   UNL     1      43.144 136.697  16.454  1.00  0.00     0.001 A 
ATOM      6  C   UNL     1      43.891 135.769  15.727  1.00  0.00     0.009 A 
ATOM      7  C   UNL     1      44.239 134.534  16.297  1.00  0.00    -0.017 A 
ATOM      8  C   UNL     1      45.011 133.628  15.566  1.00  0.00     0.018 A 
ATOM      9  C   UNL     1      45.392 132.394  16.112  1.00  0.00    -0.008 A 
ATOM     10  C   UNL     1      46.192 131.494  15.366  1.00  0.00     0.045 A 
ATOM     11  C   UNL     1      46.550 130.259  15.927  1.00  0.00     0.011 A 
ATOM     12  C   UNL     1      46.122 129.911  17.204  1.00  0.00     0.001 A 
ATOM     13  C   UNL     1      45.334 130.788  17.944  1.00  0.00     0.009 A 
ATOM     14  C   UNL     1      44.957 132.044  17.421  1.00  0.00    -0.008 A 
ENDROOT
BRANCH   1  15
ATOM     15  C   UNL     1      43.582 132.544  19.484  1.00  0.00     0.098 A 
ATOM     16  N   UNL     1      44.198 132.685  20.678  1.00  0.00    -0.219 N 
ATOM     17  N   UNL     1      43.475 132.054  21.590  1.00  0.00    -0.062 NA
ATOM     18  N   UNL     1      42.388 131.528  21.041  1.00  0.00    -0.135 NA
ATOM     19  C   UNL     1      42.440 131.805  19.723  1.00  0.00     0.088 A 
ATOM     20  C   UNL     1      41.421 131.350  18.729  1.00  0.00     0.071 C 
BRANCH  16  21
ATOM     21  C   UNL     1      45.522 133.177  20.921  1.00  0.00     0.126 C 
BRANCH  21  22
ATOM     22  C   UNL     1      45.756 134.348  21.525  1.00  0.00     0.059 C 
ATOM     23  C   UNL     1      45.908 134.601  22.939  1.00  0.00     0.335 C 
ATOM     24  C   UNL     1      45.902 135.654  20.820  1.00  0.00     0.089 C 
ATOM     25  O   UNL     1      46.008 135.953  23.180  1.00  0.00    -0.459 OA
ATOM     26  C   UNL     1      45.909 136.700  21.969  1.00  0.00     0.178 C 
ATOM     27  O   UNL     1      46.052 133.727  23.832  1.00  0.00    -0.247 OA
ATOM     28  C   UNL     1      44.626 137.531  21.989  1.00  0.00     0.053 C 
ENDBRANCH  21  22
ENDBRANCH  16  21
ENDBRANCH   1  15
BRANCH  10  29
ATOM     29  N   UNL     1      46.630 131.850  14.042  1.00  0.00    -0.060 NA
BRANCH  29  30
ATOM     30  N   UNL     1      46.987 131.011  13.214  1.00  0.00     0.005 N 
ATOM     31  N   UNL     1      47.343 130.173  12.388  1.00  0.00    -0.003 NA
ENDBRANCH  29  30
ENDBRANCH  10  29
TORSDOF 5
ENDMDL
MODEL 9
REMARK VINA RESULT:      -7.3      2.456      4.255
REMARK SMILES Cc1nnn(/C=C2/C[C@@H](C)OC2=O)c1-c1c2ccccc2cc2c(N=[N+]=[N-])cccc12
REMARK SMILES IDX 15 1 16 2 17 3 18 4 19 5 20 6 21 7 22 8 23 9 24 10 28 11
REMARK SMILES IDX 29 12 30 13 31 14 14 15 5 16 4 17 3 18 2 19 1 20 6 21 7 22
REMARK SMILES IDX 12 23 8 24 11 25 9 26 13 27 10 28 25 29 26 30 27 31
REMARK H PARENT
ROOT
ATOM      1  C   UNL     1      43.474 133.215  17.905  1.00  0.00     0.018 A 
ATOM      2  C   UNL     1      44.207 132.678  18.996  1.00  0.00    -0.008 A 
ATOM      3  C   UNL     1      44.144 133.243  20.291  1.00  0.00     0.009 A 
ATOM      4  C   UNL     1      44.901 132.715  21.339  1.00  0.00     0.001 A 
ATOM      5  C   UNL     1      45.719 131.608  21.124  1.00  0.00     0.001 A 
ATOM      6  C   UNL     1      45.775 131.014  19.863  1.00  0.00     0.009 A 
ATOM      7  C   UNL     1      45.017 131.533  18.800  1.00  0.00    -0.017 A 
ATOM      8  C   UNL     1      45.061 130.909  17.551  1.00  0.00     0.018 A 
ATOM      9  C   UNL     1      44.302 131.390  16.474  1.00  0.00    -0.008 A 
ATOM     10  C   UNL     1      44.342 130.734  15.218  1.00  0.00     0.045 A 
ATOM     11  C   UNL     1      43.585 131.241  14.150  1.00  0.00     0.011 A 
ATOM     12  C   UNL     1      42.804 132.379  14.314  1.00  0.00     0.001 A 
ATOM     13  C   UNL     1      42.760 133.030  15.544  1.00  0.00     0.009 A 
ATOM     14  C   UNL     1      43.500 132.551  16.647  1.00  0.00    -0.008 A 
ENDROOT
BRANCH   1  15
ATOM     15  C   UNL     1      42.730 134.496  18.068  1.00  0.00     0.098 A 
ATOM     16  N   UNL     1      41.394 134.621  18.227  1.00  0.00    -0.219 N 
ATOM     17  N   UNL     1      41.091 135.907  18.155  1.00  0.00    -0.062 NA
ATOM     18  N   UNL     1      42.186 136.636  17.984  1.00  0.00    -0.135 NA
ATOM     19  C   UNL     1      43.222 135.777  17.910  1.00  0.00     0.088 A 
ATOM     20  C   UNL     1      44.639 136.190  17.675  1.00  0.00     0.071 C 
BRANCH  16  21
ATOM     21  C   UNL     1      40.415 133.575  18.204  1.00  0.00     0.126 C 
BRANCH  21  22
ATOM     22  C   UNL     1      39.133 133.795  17.890  1.00  0.00     0.059 C 
ATOM     23  C   UNL     1      38.549 133.908  16.574  1.00  0.00     0.335 C 
ATOM     24  C   UNL     1      38.034 133.975  18.883  1.00  0.00     0.089 C 
ATOM     25  O   UNL     1      37.222 134.264  16.663  1.00  0.00    -0.459 OA
ATOM     26  C   UNL     1      36.826 134.439  18.021  1.00  0.00     0.178 C 
ATOM     27  O   UNL     1      39.115 133.613  15.490  1.00  0.00    -0.247 OA
ATOM     28  C   UNL     1      36.484 135.908  18.266  1.00  0.00     0.053 C 
ENDBRANCH  21  22
ENDBRANCH  16  21
ENDBRANCH   1  15
BRANCH  10  29
ATOM     29  N   UNL     1      45.156 129.561  15.046  1.00  0.00    -0.060 NA
BRANCH  29  30
ATOM     30  N   UNL     1      46.169 129.553  14.345  1.00  0.00     0.005 N 
ATOM     31  N   UNL     1      47.182 129.547  13.647  1.00  0.00    -0.003 NA
ENDBRANCH  29  30
ENDBRANCH  10  29
TORSDOF 5
ENDMDL


