MODEL 1
REMARK VINA RESULT:      -8.0      0.000      0.000
REMARK SMILES C#CCO/C([O-])=C\[C@@H]1CC[C@@H]2C(OC(=O)[C@H](C)C(F)(F)F)=Nc3c(N=[N+]=[N-])cc(Cl)c1c32
REMARK SMILES IDX 8 1 31 2 29 3 30 4 28 5 24 6 23 7 32 8 11 9 12 10 22 11
REMARK SMILES IDX 10 12 9 13 7 14 5 15 6 16 4 17 3 18 2 19 1 20 25 21 26 22
REMARK SMILES IDX 27 23 13 24 14 25 15 26 16 27 17 28 18 29 19 30 20 31 21 32
REMARK H PARENT
ROOT
ATOM      1  C   UNL     1      42.634 133.424  17.131  1.00  0.00     0.045 C 
ATOM      2  C   UNL     1      43.443 132.968  18.345  1.00  0.00    -0.016 A 
ATOM      3  C   UNL     1      42.991 133.106  19.680  1.00  0.00     0.045 A 
ATOM      4  Cl  UNL     1      41.663 134.183  20.095  1.00  0.00    -0.084 Cl
ATOM      5  C   UNL     1      43.575 132.328  20.705  1.00  0.00     0.033 A 
ATOM      6  C   UNL     1      44.583 131.389  20.412  1.00  0.00     0.065 A 
ATOM      7  C   UNL     1      45.070 131.348  19.096  1.00  0.00     0.081 A 
ATOM      8  C   UNL     1      44.581 132.191  18.138  1.00  0.00    -0.004 A 
ATOM      9  C   UNL     1      45.190 131.853  16.838  1.00  0.00     0.109 C 
ATOM     10  C   UNL     1      45.900 130.584  17.226  1.00  0.00     0.206 C 
ATOM     11  N   UNL     1      45.873 130.337  18.504  1.00  0.00    -0.216 NA
ATOM     12  C   UNL     1      44.097 131.733  15.778  1.00  0.00     0.019 C 
ATOM     13  C   UNL     1      43.280 133.045  15.757  1.00  0.00     0.014 C 
ENDROOT
BRANCH   1  14
ATOM     14  C   UNL     1      41.197 132.936  17.178  1.00  0.00     0.005 C 
BRANCH  14  15
ATOM     15  C   UNL     1      40.121 133.692  16.925  1.00  0.00     0.049 C 
ATOM     16  O   UNL     1      40.015 134.940  17.531  1.00  0.00    -0.547 OA
BRANCH  15  17
ATOM     17  O   UNL     1      39.106 133.238  16.081  1.00  0.00    -0.601 OA
BRANCH  17  18
ATOM     18  C   UNL     1      38.643 133.988  14.967  1.00  0.00     0.160 C 
BRANCH  18  19
ATOM     19  C   UNL     1      39.788 134.387  14.148  1.00  0.00    -0.095 C 
ATOM     20  C   UNL     1      40.730 134.716  13.472  1.00  0.00     0.005 C 
ENDBRANCH  18  19
ENDBRANCH  17  18
ENDBRANCH  15  17
ENDBRANCH  14  15
ENDBRANCH   1  14
BRANCH   6  21
ATOM     21  N   UNL     1      45.049 130.512  21.448  1.00  0.00    -0.058 NA
BRANCH  21  22
ATOM     22  N   UNL     1      44.707 130.636  22.625  1.00  0.00     0.005 N 
ATOM     23  N   UNL     1      44.362 130.755  23.800  1.00  0.00    -0.003 NA
ENDBRANCH  21  22
ENDBRANCH   6  21
BRANCH  10  24
ATOM     24  O   UNL     1      46.561 129.773  16.295  1.00  0.00    -0.410 OA
BRANCH  24  25
ATOM     25  C   UNL     1      46.011 129.325  15.087  1.00  0.00     0.324 C 
ATOM     26  O   UNL     1      44.847 128.840  15.041  1.00  0.00    -0.251 OA
BRANCH  25  27
ATOM     27  C   UNL     1      46.832 129.427  13.830  1.00  0.00     0.201 C 
ATOM     28  C   UNL     1      48.328 129.450  14.169  1.00  0.00     0.030 C 
BRANCH  27  29
ATOM     29  C   UNL     1      46.418 130.653  12.998  1.00  0.00     0.401 C 
ATOM     30  F   UNL     1      47.161 130.730  11.832  1.00  0.00    -0.170 F 
ATOM     31  F   UNL     1      45.077 130.569  12.670  1.00  0.00    -0.170 F 
ATOM     32  F   UNL     1      46.618 131.809  13.734  1.00  0.00    -0.170 F 
ENDBRANCH  27  29
ENDBRANCH  25  27
ENDBRANCH  24  25
ENDBRANCH  10  24
TORSDOF 11
ENDMDL
MODEL 2
REMARK VINA RESULT:      -7.8      3.642      5.598
REMARK SMILES C#CCO/C([O-])=C\[C@@H]1CC[C@@H]2C(OC(=O)[C@H](C)C(F)(F)F)=Nc3c(N=[N+]=[N-])cc(Cl)c1c32
REMARK SMILES IDX 8 1 31 2 29 3 30 4 28 5 24 6 23 7 32 8 11 9 12 10 22 11
REMARK SMILES IDX 10 12 9 13 7 14 5 15 6 16 4 17 3 18 2 19 1 20 25 21 26 22
REMARK SMILES IDX 27 23 13 24 14 25 15 26 16 27 17 28 18 29 19 30 20 31 21 32
REMARK H PARENT
ROOT
ATOM      1  C   UNL     1      42.170 133.033  19.400  1.00  0.00     0.045 C 
ATOM      2  C   UNL     1      41.855 133.908  18.188  1.00  0.00    -0.016 A 
ATOM      3  C   UNL     1      41.163 135.142  18.276  1.00  0.00     0.045 A 
ATOM      4  Cl  UNL     1      40.238 135.578  19.707  1.00  0.00    -0.084 Cl
ATOM      5  C   UNL     1      41.253 136.075  17.219  1.00  0.00     0.033 A 
ATOM      6  C   UNL     1      42.049 135.810  16.087  1.00  0.00     0.065 A 
ATOM      7  C   UNL     1      42.643 134.542  15.994  1.00  0.00     0.081 A 
ATOM      8  C   UNL     1      42.451 133.602  16.966  1.00  0.00    -0.004 A 
ATOM      9  C   UNL     1      43.274 132.417  16.664  1.00  0.00     0.109 C 
ATOM     10  C   UNL     1      44.074 132.964  15.513  1.00  0.00     0.206 C 
ATOM     11  N   UNL     1      43.677 134.136  15.108  1.00  0.00    -0.216 NA
ATOM     12  C   UNL     1      44.055 132.005  17.910  1.00  0.00     0.019 C 
ATOM     13  C   UNL     1      43.058 131.787  19.071  1.00  0.00     0.014 C 
ENDROOT
BRANCH   1  14
ATOM     14  C   UNL     1      42.790 133.822  20.539  1.00  0.00     0.005 C 
BRANCH  14  15
ATOM     15  C   UNL     1      44.030 134.325  20.537  1.00  0.00     0.049 C 
ATOM     16  O   UNL     1      44.484 135.001  19.408  1.00  0.00    -0.547 OA
BRANCH  15  17
ATOM     17  O   UNL     1      44.873 134.164  21.638  1.00  0.00    -0.601 OA
BRANCH  17  18
ATOM     18  C   UNL     1      46.202 133.675  21.521  1.00  0.00     0.160 C 
BRANCH  18  19
ATOM     19  C   UNL     1      46.163 132.277  21.091  1.00  0.00    -0.095 C 
ATOM     20  C   UNL     1      46.131 131.125  20.738  1.00  0.00     0.005 C 
ENDBRANCH  18  19
ENDBRANCH  17  18
ENDBRANCH  15  17
ENDBRANCH  14  15
ENDBRANCH   1  14
BRANCH   6  21
ATOM     21  N   UNL     1      42.237 136.839  15.104  1.00  0.00    -0.058 NA
BRANCH  21  22
ATOM     22  N   UNL     1      42.322 138.032  15.400  1.00  0.00     0.005 N 
ATOM     23  N   UNL     1      42.405 139.224  15.691  1.00  0.00    -0.003 NA
ENDBRANCH  21  22
ENDBRANCH   6  21
BRANCH  10  24
ATOM     24  O   UNL     1      45.120 132.252  14.912  1.00  0.00    -0.410 OA
BRANCH  24  25
ATOM     25  C   UNL     1      44.975 131.034  14.235  1.00  0.00     0.324 C 
ATOM     26  O   UNL     1      43.882 130.716  13.690  1.00  0.00    -0.251 OA
BRANCH  25  27
ATOM     27  C   UNL     1      46.151 130.097  14.163  1.00  0.00     0.201 C 
ATOM     28  C   UNL     1      46.917 130.097  15.492  1.00  0.00     0.030 C 
BRANCH  27  29
ATOM     29  C   UNL     1      47.067 130.449  12.978  1.00  0.00     0.401 C 
ATOM     30  F   UNL     1      47.852 131.551  13.274  1.00  0.00    -0.170 F 
ATOM     31  F   UNL     1      47.891 129.378  12.684  1.00  0.00    -0.170 F 
ATOM     32  F   UNL     1      46.301 130.732  11.860  1.00  0.00    -0.170 F 
ENDBRANCH  27  29
ENDBRANCH  25  27
ENDBRANCH  24  25
ENDBRANCH  10  24
TORSDOF 11
ENDMDL
MODEL 3
REMARK VINA RESULT:      -7.7      1.531      1.864
REMARK SMILES C#CCO/C([O-])=C\[C@@H]1CC[C@@H]2C(OC(=O)[C@H](C)C(F)(F)F)=Nc3c(N=[N+]=[N-])cc(Cl)c1c32
REMARK SMILES IDX 8 1 31 2 29 3 30 4 28 5 24 6 23 7 32 8 11 9 12 10 22 11
REMARK SMILES IDX 10 12 9 13 7 14 5 15 6 16 4 17 3 18 2 19 1 20 25 21 26 22
REMARK SMILES IDX 27 23 13 24 14 25 15 26 16 27 17 28 18 29 19 30 20 31 21 32
REMARK H PARENT
ROOT
ATOM      1  C   UNL     1      43.487 135.641  16.884  1.00  0.00     0.045 C 
ATOM      2  C   UNL     1      43.758 134.815  18.140  1.00  0.00    -0.016 A 
ATOM      3  C   UNL     1      43.303 135.186  19.430  1.00  0.00     0.045 A 
ATOM      4  Cl  UNL     1      42.755 136.821  19.777  1.00  0.00    -0.084 Cl
ATOM      5  C   UNL     1      43.232 134.217  20.456  1.00  0.00     0.033 A 
ATOM      6  C   UNL     1      43.578 132.875  20.206  1.00  0.00     0.065 A 
ATOM      7  C   UNL     1      44.112 132.565  18.946  1.00  0.00     0.081 A 
ATOM      8  C   UNL     1      44.290 133.535  17.999  1.00  0.00    -0.004 A 
ATOM      9  C   UNL     1      44.758 132.911  16.748  1.00  0.00     0.109 C 
ATOM     10  C   UNL     1      44.595 131.463  17.123  1.00  0.00     0.206 C 
ATOM     11  N   UNL     1      44.285 131.276  18.374  1.00  0.00    -0.216 NA
ATOM     12  C   UNL     1      43.917 133.417  15.579  1.00  0.00     0.019 C 
ATOM     13  C   UNL     1      43.973 134.962  15.560  1.00  0.00     0.014 C 
ENDROOT
BRANCH   1  14
ATOM     14  C   UNL     1      42.027 136.036  16.755  1.00  0.00     0.005 C 
BRANCH  14  15
ATOM     15  C   UNL     1      41.073 135.277  16.201  1.00  0.00     0.049 C 
ATOM     16  O   UNL     1      40.470 134.284  16.968  1.00  0.00    -0.547 OA
BRANCH  15  17
ATOM     17  O   UNL     1      40.691 135.458  14.871  1.00  0.00    -0.601 OA
BRANCH  17  18
ATOM     18  C   UNL     1      40.339 134.375  14.021  1.00  0.00     0.160 C 
BRANCH  18  19
ATOM     19  C   UNL     1      38.883 134.320  13.892  1.00  0.00    -0.095 C 
ATOM     20  C   UNL     1      37.683 134.272  13.786  1.00  0.00     0.005 C 
ENDBRANCH  18  19
ENDBRANCH  17  18
ENDBRANCH  15  17
ENDBRANCH  14  15
ENDBRANCH   1  14
BRANCH   6  21
ATOM     21  N   UNL     1      43.353 131.890  21.226  1.00  0.00    -0.058 NA
BRANCH  21  22
ATOM     22  N   UNL     1      44.274 131.342  21.835  1.00  0.00     0.005 N 
ATOM     23  N   UNL     1      45.191 130.798  22.447  1.00  0.00    -0.003 NA
ENDBRANCH  21  22
ENDBRANCH   6  21
BRANCH  10  24
ATOM     24  O   UNL     1      44.802 130.419  16.214  1.00  0.00    -0.410 OA
BRANCH  24  25
ATOM     25  C   UNL     1      46.056 129.970  15.779  1.00  0.00     0.324 C 
ATOM     26  O   UNL     1      47.033 129.894  16.575  1.00  0.00    -0.251 OA
BRANCH  25  27
ATOM     27  C   UNL     1      46.230 129.576  14.337  1.00  0.00     0.201 C 
ATOM     28  C   UNL     1      47.675 129.133  14.073  1.00  0.00     0.030 C 
BRANCH  27  29
ATOM     29  C   UNL     1      45.805 130.718  13.398  1.00  0.00     0.401 C 
ATOM     30  F   UNL     1      46.339 130.540  12.133  1.00  0.00    -0.170 F 
ATOM     31  F   UNL     1      44.425 130.759  13.300  1.00  0.00    -0.170 F 
ATOM     32  F   UNL     1      46.244 131.930  13.904  1.00  0.00    -0.170 F 
ENDBRANCH  27  29
ENDBRANCH  25  27
ENDBRANCH  24  25
ENDBRANCH  10  24
TORSDOF 11
ENDMDL
MODEL 4
REMARK VINA RESULT:      -7.5      1.659      2.091
REMARK SMILES C#CCO/C([O-])=C\[C@@H]1CC[C@@H]2C(OC(=O)[C@H](C)C(F)(F)F)=Nc3c(N=[N+]=[N-])cc(Cl)c1c32
REMARK SMILES IDX 8 1 31 2 29 3 30 4 28 5 24 6 23 7 32 8 11 9 12 10 22 11
REMARK SMILES IDX 10 12 9 13 7 14 5 15 6 16 4 17 3 18 2 19 1 20 25 21 26 22
REMARK SMILES IDX 27 23 13 24 14 25 15 26 16 27 17 28 18 29 19 30 20 31 21 32
REMARK H PARENT
ROOT
ATOM      1  C   UNL     1      42.740 135.353  16.314  1.00  0.00     0.045 C 
ATOM      2  C   UNL     1      43.581 134.580  17.328  1.00  0.00    -0.016 A 
ATOM      3  C   UNL     1      43.609 134.885  18.712  1.00  0.00     0.045 A 
ATOM      4  Cl  UNL     1      43.020 136.424  19.326  1.00  0.00    -0.084 Cl
ATOM      5  C   UNL     1      44.069 133.919  19.635  1.00  0.00     0.033 A 
ATOM      6  C   UNL     1      44.472 132.641  19.203  1.00  0.00     0.065 A 
ATOM      7  C   UNL     1      44.519 132.408  17.820  1.00  0.00     0.081 A 
ATOM      8  C   UNL     1      44.187 133.390  16.929  1.00  0.00    -0.004 A 
ATOM      9  C   UNL     1      44.220 132.837  15.563  1.00  0.00     0.109 C 
ATOM     10  C   UNL     1      44.411 131.382  15.894  1.00  0.00     0.206 C 
ATOM     11  N   UNL     1      44.633 131.156  17.157  1.00  0.00    -0.216 NA
ATOM     12  C   UNL     1      42.935 133.212  14.828  1.00  0.00     0.019 C 
ATOM     13  C   UNL     1      42.769 134.748  14.871  1.00  0.00     0.014 C 
ENDROOT
BRANCH   1  14
ATOM     14  C   UNL     1      41.303 135.531  16.769  1.00  0.00     0.005 C 
BRANCH  14  15
ATOM     15  C   UNL     1      40.549 136.610  16.524  1.00  0.00     0.049 C 
ATOM     16  O   UNL     1      40.963 137.849  17.006  1.00  0.00    -0.547 OA
BRANCH  15  17
ATOM     17  O   UNL     1      39.353 136.505  15.812  1.00  0.00    -0.601 OA
BRANCH  17  18
ATOM     18  C   UNL     1      39.314 136.299  14.407  1.00  0.00     0.160 C 
BRANCH  18  19
ATOM     19  C   UNL     1      38.883 134.927  14.134  1.00  0.00    -0.095 C 
ATOM     20  C   UNL     1      38.526 133.798  13.909  1.00  0.00     0.005 C 
ENDBRANCH  18  19
ENDBRANCH  17  18
ENDBRANCH  15  17
ENDBRANCH  14  15
ENDBRANCH   1  14
BRANCH   6  21
ATOM     21  N   UNL     1      44.790 131.637  20.178  1.00  0.00    -0.058 NA
BRANCH  21  22
ATOM     22  N   UNL     1      45.197 131.915  21.307  1.00  0.00     0.005 N 
ATOM     23  N   UNL     1      45.600 132.188  22.437  1.00  0.00    -0.003 NA
ENDBRANCH  21  22
ENDBRANCH   6  21
BRANCH  10  24
ATOM     24  O   UNL     1      44.394 130.376  14.921  1.00  0.00    -0.410 OA
BRANCH  24  25
ATOM     25  C   UNL     1      45.275 129.287  14.876  1.00  0.00     0.324 C 
ATOM     26  O   UNL     1      44.963 128.174  15.384  1.00  0.00    -0.251 OA
BRANCH  25  27
ATOM     27  C   UNL     1      46.614 129.460  14.210  1.00  0.00     0.201 C 
ATOM     28  C   UNL     1      47.687 129.809  15.250  1.00  0.00     0.030 C 
BRANCH  27  29
ATOM     29  C   UNL     1      46.541 130.513  13.091  1.00  0.00     0.401 C 
ATOM     30  F   UNL     1      46.881 131.766  13.573  1.00  0.00    -0.170 F 
ATOM     31  F   UNL     1      47.410 130.176  12.069  1.00  0.00    -0.170 F 
ATOM     32  F   UNL     1      45.257 130.564  12.576  1.00  0.00    -0.170 F 
ENDBRANCH  27  29
ENDBRANCH  25  27
ENDBRANCH  24  25
ENDBRANCH  10  24
TORSDOF 11
ENDMDL
MODEL 5
REMARK VINA RESULT:      -7.4      3.659      5.796
REMARK SMILES C#CCO/C([O-])=C\[C@@H]1CC[C@@H]2C(OC(=O)[C@H](C)C(F)(F)F)=Nc3c(N=[N+]=[N-])cc(Cl)c1c32
REMARK SMILES IDX 8 1 31 2 29 3 30 4 28 5 24 6 23 7 32 8 11 9 12 10 22 11
REMARK SMILES IDX 10 12 9 13 7 14 5 15 6 16 4 17 3 18 2 19 1 20 25 21 26 22
REMARK SMILES IDX 27 23 13 24 14 25 15 26 16 27 17 28 18 29 19 30 20 31 21 32
REMARK H PARENT
ROOT
ATOM      1  C   UNL     1      43.819 132.673  19.840  1.00  0.00     0.045 C 
ATOM      2  C   UNL     1      43.104 133.525  18.793  1.00  0.00    -0.016 A 
ATOM      3  C   UNL     1      42.380 134.702  19.108  1.00  0.00     0.045 A 
ATOM      4  Cl  UNL     1      41.882 135.062  20.756  1.00  0.00    -0.084 Cl
ATOM      5  C   UNL     1      42.092 135.643  18.094  1.00  0.00     0.033 A 
ATOM      6  C   UNL     1      42.542 135.443  16.774  1.00  0.00     0.065 A 
ATOM      7  C   UNL     1      43.173 134.224  16.481  1.00  0.00     0.081 A 
ATOM      8  C   UNL     1      43.340 133.268  17.444  1.00  0.00    -0.004 A 
ATOM      9  C   UNL     1      44.123 132.151  16.887  1.00  0.00     0.109 C 
ATOM     10  C   UNL     1      44.513 132.761  15.568  1.00  0.00     0.206 C 
ATOM     11  N   UNL     1      43.932 133.900  15.325  1.00  0.00    -0.216 NA
ATOM     12  C   UNL     1      45.260 131.796  17.843  1.00  0.00     0.019 C 
ATOM     13  C   UNL     1      44.661 131.499  19.237  1.00  0.00     0.014 C 
ENDROOT
BRANCH   1  14
ATOM     14  C   UNL     1      44.685 133.503  20.770  1.00  0.00     0.005 C 
BRANCH  14  15
ATOM     15  C   UNL     1      45.551 133.005  21.661  1.00  0.00     0.049 C 
ATOM     16  O   UNL     1      46.624 133.791  22.073  1.00  0.00    -0.547 OA
BRANCH  15  17
ATOM     17  O   UNL     1      45.401 131.711  22.164  1.00  0.00    -0.601 OA
BRANCH  17  18
ATOM     18  C   UNL     1      44.774 131.441  23.410  1.00  0.00     0.160 C 
BRANCH  18  19
ATOM     19  C   UNL     1      43.676 130.497  23.200  1.00  0.00    -0.095 C 
ATOM     20  C   UNL     1      42.772 129.719  23.027  1.00  0.00     0.005 C 
ENDBRANCH  18  19
ENDBRANCH  17  18
ENDBRANCH  15  17
ENDBRANCH  14  15
ENDBRANCH   1  14
BRANCH   6  21
ATOM     21  N   UNL     1      42.361 136.485  15.805  1.00  0.00    -0.058 NA
BRANCH  21  22
ATOM     22  N   UNL     1      41.267 137.010  15.591  1.00  0.00     0.005 N 
ATOM     23  N   UNL     1      40.176 137.537  15.381  1.00  0.00    -0.003 NA
ENDBRANCH  21  22
ENDBRANCH   6  21
BRANCH  10  24
ATOM     24  O   UNL     1      45.388 132.133  14.673  1.00  0.00    -0.410 OA
BRANCH  24  25
ATOM     25  C   UNL     1      45.164 130.885  14.076  1.00  0.00     0.324 C 
ATOM     26  O   UNL     1      44.016 130.551  13.672  1.00  0.00    -0.251 OA
BRANCH  25  27
ATOM     27  C   UNL     1      46.321 129.934  13.920  1.00  0.00     0.201 C 
ATOM     28  C   UNL     1      47.031 129.731  15.264  1.00  0.00     0.030 C 
BRANCH  27  29
ATOM     29  C   UNL     1      47.293 130.422  12.831  1.00  0.00     0.401 C 
ATOM     30  F   UNL     1      47.868 131.630  13.191  1.00  0.00    -0.170 F 
ATOM     31  F   UNL     1      48.296 129.488  12.641  1.00  0.00    -0.170 F 
ATOM     32  F   UNL     1      46.615 130.587  11.635  1.00  0.00    -0.170 F 
ENDBRANCH  27  29
ENDBRANCH  25  27
ENDBRANCH  24  25
ENDBRANCH  10  24
TORSDOF 11
ENDMDL
MODEL 6
REMARK VINA RESULT:      -7.2      3.462      5.112
REMARK SMILES C#CCO/C([O-])=C\[C@@H]1CC[C@@H]2C(OC(=O)[C@H](C)C(F)(F)F)=Nc3c(N=[N+]=[N-])cc(Cl)c1c32
REMARK SMILES IDX 8 1 31 2 29 3 30 4 28 5 24 6 23 7 32 8 11 9 12 10 22 11
REMARK SMILES IDX 10 12 9 13 7 14 5 15 6 16 4 17 3 18 2 19 1 20 25 21 26 22
REMARK SMILES IDX 27 23 13 24 14 25 15 26 16 27 17 28 18 29 19 30 20 31 21 32
REMARK H PARENT
ROOT
ATOM      1  C   UNL     1      42.633 132.492  19.284  1.00  0.00     0.045 C 
ATOM      2  C   UNL     1      42.078 132.589  17.864  1.00  0.00    -0.016 A 
ATOM      3  C   UNL     1      40.982 133.414  17.509  1.00  0.00     0.045 A 
ATOM      4  Cl  UNL     1      39.897 134.075  18.726  1.00  0.00    -0.084 Cl
ATOM      5  C   UNL     1      40.775 133.766  16.156  1.00  0.00     0.033 A 
ATOM      6  C   UNL     1      41.665 133.333  15.154  1.00  0.00     0.065 A 
ATOM      7  C   UNL     1      42.682 132.443  15.529  1.00  0.00     0.081 A 
ATOM      8  C   UNL     1      42.800 132.013  16.821  1.00  0.00    -0.004 A 
ATOM      9  C   UNL     1      44.011 131.181  16.946  1.00  0.00     0.109 C 
ATOM     10  C   UNL     1      44.610 131.417  15.586  1.00  0.00     0.206 C 
ATOM     11  N   UNL     1      43.833 132.080  14.779  1.00  0.00    -0.216 NA
ATOM     12  C   UNL     1      44.830 131.647  18.148  1.00  0.00     0.019 C 
ATOM     13  C   UNL     1      43.927 131.621  19.403  1.00  0.00     0.014 C 
ENDROOT
BRANCH   1  14
ATOM     14  C   UNL     1      42.871 133.856  19.907  1.00  0.00     0.005 C 
BRANCH  14  15
ATOM     15  C   UNL     1      43.255 134.949  19.236  1.00  0.00     0.049 C 
ATOM     16  O   UNL     1      44.133 134.810  18.164  1.00  0.00    -0.547 OA
BRANCH  15  17
ATOM     17  O   UNL     1      42.804 136.217  19.607  1.00  0.00    -0.601 OA
BRANCH  17  18
ATOM     18  C   UNL     1      43.603 137.384  19.473  1.00  0.00     0.160 C 
BRANCH  18  19
ATOM     19  C   UNL     1      43.259 138.326  20.538  1.00  0.00    -0.095 C 
ATOM     20  C   UNL     1      42.975 139.102  21.416  1.00  0.00     0.005 C 
ENDBRANCH  18  19
ENDBRANCH  17  18
ENDBRANCH  15  17
ENDBRANCH  14  15
ENDBRANCH   1  14
BRANCH   6  21
ATOM     21  N   UNL     1      41.511 133.830  13.816  1.00  0.00    -0.058 NA
BRANCH  21  22
ATOM     22  N   UNL     1      40.676 134.686  13.518  1.00  0.00     0.005 N 
ATOM     23  N   UNL     1      39.840 135.540  13.226  1.00  0.00    -0.003 NA
ENDBRANCH  21  22
ENDBRANCH   6  21
BRANCH  10  24
ATOM     24  O   UNL     1      45.869 130.927  15.218  1.00  0.00    -0.410 OA
BRANCH  24  25
ATOM     25  C   UNL     1      46.121 129.629  14.755  1.00  0.00     0.324 C 
ATOM     26  O   UNL     1      45.496 128.637  15.222  1.00  0.00    -0.251 OA
BRANCH  25  27
ATOM     27  C   UNL     1      47.157 129.426  13.682  1.00  0.00     0.201 C 
ATOM     28  C   UNL     1      48.568 129.487  14.283  1.00  0.00     0.030 C 
BRANCH  27  29
ATOM     29  C   UNL     1      46.979 130.446  12.544  1.00  0.00     0.401 C 
ATOM     30  F   UNL     1      45.639 130.734  12.346  1.00  0.00    -0.170 F 
ATOM     31  F   UNL     1      47.649 131.617  12.851  1.00  0.00    -0.170 F 
ATOM     32  F   UNL     1      47.506 129.936  11.369  1.00  0.00    -0.170 F 
ENDBRANCH  27  29
ENDBRANCH  25  27
ENDBRANCH  24  25
ENDBRANCH  10  24
TORSDOF 11
ENDMDL
MODEL 7
REMARK VINA RESULT:      -7.1      3.590      5.490
REMARK SMILES C#CCO/C([O-])=C\[C@@H]1CC[C@@H]2C(OC(=O)[C@H](C)C(F)(F)F)=Nc3c(N=[N+]=[N-])cc(Cl)c1c32
REMARK SMILES IDX 8 1 31 2 29 3 30 4 28 5 24 6 23 7 32 8 11 9 12 10 22 11
REMARK SMILES IDX 10 12 9 13 7 14 5 15 6 16 4 17 3 18 2 19 1 20 25 21 26 22
REMARK SMILES IDX 27 23 13 24 14 25 15 26 16 27 17 28 18 29 19 30 20 31 21 32
REMARK H PARENT
ROOT
ATOM      1  C   UNL     1      44.296 131.771  19.660  1.00  0.00     0.045 C 
ATOM      2  C   UNL     1      43.075 132.175  18.836  1.00  0.00    -0.016 A 
ATOM      3  C   UNL     1      41.986 132.911  19.365  1.00  0.00     0.045 A 
ATOM      4  Cl  UNL     1      41.737 133.065  21.100  1.00  0.00    -0.084 Cl
ATOM      5  C   UNL     1      41.103 133.587  18.492  1.00  0.00     0.033 A 
ATOM      6  C   UNL     1      41.309 133.565  17.099  1.00  0.00     0.065 A 
ATOM      7  C   UNL     1      42.340 132.751  16.607  1.00  0.00     0.081 A 
ATOM      8  C   UNL     1      43.113 132.006  17.453  1.00  0.00    -0.004 A 
ATOM      9  C   UNL     1      44.177 131.340  16.679  1.00  0.00     0.109 C 
ATOM     10  C   UNL     1      43.968 132.015  15.350  1.00  0.00     0.206 C 
ATOM     11  N   UNL     1      42.903 132.763  15.303  1.00  0.00    -0.216 NA
ATOM     12  C   UNL     1      45.524 131.568  17.361  1.00  0.00     0.019 C 
ATOM     13  C   UNL     1      45.426 131.081  18.825  1.00  0.00     0.014 C 
ENDROOT
BRANCH   1  14
ATOM     14  C   UNL     1      44.873 132.933  20.448  1.00  0.00     0.005 C 
BRANCH  14  15
ATOM     15  C   UNL     1      45.027 132.958  21.778  1.00  0.00     0.049 C 
ATOM     16  O   UNL     1      45.458 131.805  22.429  1.00  0.00    -0.547 OA
BRANCH  15  17
ATOM     17  O   UNL     1      44.744 134.110  22.513  1.00  0.00    -0.601 OA
BRANCH  17  18
ATOM     18  C   UNL     1      45.492 135.310  22.374  1.00  0.00     0.160 C 
BRANCH  18  19
ATOM     19  C   UNL     1      44.575 136.418  22.106  1.00  0.00    -0.095 C 
ATOM     20  C   UNL     1      43.820 137.331  21.884  1.00  0.00     0.005 C 
ENDBRANCH  18  19
ENDBRANCH  17  18
ENDBRANCH  15  17
ENDBRANCH  14  15
ENDBRANCH   1  14
BRANCH   6  21
ATOM     21  N   UNL     1      40.484 134.382  16.255  1.00  0.00    -0.058 NA
BRANCH  21  22
ATOM     22  N   UNL     1      39.961 133.954  15.225  1.00  0.00     0.005 N 
ATOM     23  N   UNL     1      39.437 133.533  14.194  1.00  0.00    -0.003 NA
ENDBRANCH  21  22
ENDBRANCH   6  21
BRANCH  10  24
ATOM     24  O   UNL     1      44.823 131.816  14.259  1.00  0.00    -0.410 OA
BRANCH  24  25
ATOM     25  C   UNL     1      45.541 130.640  14.006  1.00  0.00     0.324 C 
ATOM     26  O   UNL     1      45.029 129.506  14.213  1.00  0.00    -0.251 OA
BRANCH  25  27
ATOM     27  C   UNL     1      46.948 130.745  13.482  1.00  0.00     0.201 C 
ATOM     28  C   UNL     1      46.964 130.583  11.956  1.00  0.00     0.030 C 
BRANCH  27  29
ATOM     29  C   UNL     1      47.871 129.726  14.172  1.00  0.00     0.401 C 
ATOM     30  F   UNL     1      47.767 129.821  15.549  1.00  0.00    -0.170 F 
ATOM     31  F   UNL     1      47.530 128.442  13.785  1.00  0.00    -0.170 F 
ATOM     32  F   UNL     1      49.186 129.958  13.804  1.00  0.00    -0.170 F 
ENDBRANCH  27  29
ENDBRANCH  25  27
ENDBRANCH  24  25
ENDBRANCH  10  24
TORSDOF 11
ENDMDL
MODEL 8
REMARK VINA RESULT:      -7.1      3.484      5.556
REMARK SMILES C#CCO/C([O-])=C\[C@@H]1CC[C@@H]2C(OC(=O)[C@H](C)C(F)(F)F)=Nc3c(N=[N+]=[N-])cc(Cl)c1c32
REMARK SMILES IDX 8 1 31 2 29 3 30 4 28 5 24 6 23 7 32 8 11 9 12 10 22 11
REMARK SMILES IDX 10 12 9 13 7 14 5 15 6 16 4 17 3 18 2 19 1 20 25 21 26 22
REMARK SMILES IDX 27 23 13 24 14 25 15 26 16 27 17 28 18 29 19 30 20 31 21 32
REMARK H PARENT
ROOT
ATOM      1  C   UNL     1      43.666 133.035  18.955  1.00  0.00     0.045 C 
ATOM      2  C   UNL     1      42.591 133.192  17.881  1.00  0.00    -0.016 A 
ATOM      3  C   UNL     1      41.566 134.169  17.940  1.00  0.00     0.045 A 
ATOM      4  Cl  UNL     1      41.182 135.009  19.438  1.00  0.00    -0.084 Cl
ATOM      5  C   UNL     1      40.866 134.526  16.766  1.00  0.00     0.033 A 
ATOM      6  C   UNL     1      41.193 133.945  15.526  1.00  0.00     0.065 A 
ATOM      7  C   UNL     1      42.147 132.915  15.522  1.00  0.00     0.081 A 
ATOM      8  C   UNL     1      42.732 132.494  16.684  1.00  0.00    -0.004 A 
ATOM      9  C   UNL     1      43.764 131.488  16.369  1.00  0.00     0.109 C 
ATOM     10  C   UNL     1      43.770 131.607  14.870  1.00  0.00     0.206 C 
ATOM     11  N   UNL     1      42.824 132.368  14.400  1.00  0.00    -0.216 NA
ATOM     12  C   UNL     1      45.061 131.844  17.093  1.00  0.00     0.019 C 
ATOM     13  C   UNL     1      44.765 131.978  18.604  1.00  0.00     0.014 C 
ENDROOT
BRANCH   1  14
ATOM     14  C   UNL     1      44.319 134.357  19.317  1.00  0.00     0.005 C 
BRANCH  14  15
ATOM     15  C   UNL     1      44.335 134.894  20.544  1.00  0.00     0.049 C 
ATOM     16  O   UNL     1      44.551 136.262  20.680  1.00  0.00    -0.547 OA
BRANCH  15  17
ATOM     17  O   UNL     1      44.158 134.100  21.679  1.00  0.00    -0.601 OA
BRANCH  17  18
ATOM     18  C   UNL     1      45.243 133.497  22.369  1.00  0.00     0.160 C 
BRANCH  18  19
ATOM     19  C   UNL     1      45.117 132.042  22.285  1.00  0.00    -0.095 C 
ATOM     20  C   UNL     1      45.015 130.843  22.214  1.00  0.00     0.005 C 
ENDBRANCH  18  19
ENDBRANCH  17  18
ENDBRANCH  15  17
ENDBRANCH  14  15
ENDBRANCH   1  14
BRANCH   6  21
ATOM     21  N   UNL     1      40.566 134.437  14.332  1.00  0.00    -0.058 NA
BRANCH  21  22
ATOM     22  N   UNL     1      40.113 135.579  14.243  1.00  0.00     0.005 N 
ATOM     23  N   UNL     1      39.664 136.721  14.158  1.00  0.00    -0.003 NA
ENDBRANCH  21  22
ENDBRANCH   6  21
BRANCH  10  24
ATOM     24  O   UNL     1      44.686 130.924  14.061  1.00  0.00    -0.410 OA
BRANCH  24  25
ATOM     25  C   UNL     1      45.322 129.724  14.406  1.00  0.00     0.324 C 
ATOM     26  O   UNL     1      44.699 128.804  15.004  1.00  0.00    -0.251 OA
BRANCH  25  27
ATOM     27  C   UNL     1      46.774 129.541  14.054  1.00  0.00     0.201 C 
ATOM     28  C   UNL     1      47.666 129.936  15.239  1.00  0.00     0.030 C 
BRANCH  27  29
ATOM     29  C   UNL     1      47.137 130.328  12.783  1.00  0.00     0.401 C 
ATOM     30  F   UNL     1      48.002 129.600  11.984  1.00  0.00    -0.170 F 
ATOM     31  F   UNL     1      45.991 130.611  12.061  1.00  0.00    -0.170 F 
ATOM     32  F   UNL     1      47.744 131.524  13.127  1.00  0.00    -0.170 F 
ENDBRANCH  27  29
ENDBRANCH  25  27
ENDBRANCH  24  25
ENDBRANCH  10  24
TORSDOF 11
ENDMDL
MODEL 9
REMARK VINA RESULT:      -7.0      1.420      1.882
REMARK SMILES C#CCO/C([O-])=C\[C@@H]1CC[C@@H]2C(OC(=O)[C@H](C)C(F)(F)F)=Nc3c(N=[N+]=[N-])cc(Cl)c1c32
REMARK SMILES IDX 8 1 31 2 29 3 30 4 28 5 24 6 23 7 32 8 11 9 12 10 22 11
REMARK SMILES IDX 10 12 9 13 7 14 5 15 6 16 4 17 3 18 2 19 1 20 25 21 26 22
REMARK SMILES IDX 27 23 13 24 14 25 15 26 16 27 17 28 18 29 19 30 20 31 21 32
REMARK H PARENT
ROOT
ATOM      1  C   UNL     1      41.298 133.785  17.472  1.00  0.00     0.045 C 
ATOM      2  C   UNL     1      42.198 133.546  18.683  1.00  0.00    -0.016 A 
ATOM      3  C   UNL     1      41.754 133.676  20.022  1.00  0.00     0.045 A 
ATOM      4  Cl  UNL     1      40.265 134.525  20.419  1.00  0.00    -0.084 Cl
ATOM      5  C   UNL     1      42.485 133.069  21.068  1.00  0.00     0.033 A 
ATOM      6  C   UNL     1      43.637 132.307  20.795  1.00  0.00     0.065 A 
ATOM      7  C   UNL     1      44.098 132.278  19.470  1.00  0.00     0.081 A 
ATOM      8  C   UNL     1      43.450 132.969  18.484  1.00  0.00    -0.004 A 
ATOM      9  C   UNL     1      44.084 132.671  17.187  1.00  0.00     0.109 C 
ATOM     10  C   UNL     1      45.014 131.569  17.618  1.00  0.00     0.206 C 
ATOM     11  N   UNL     1      45.056 131.392  18.907  1.00  0.00    -0.216 NA
ATOM     12  C   UNL     1      43.010 132.304  16.165  1.00  0.00     0.019 C 
ATOM     13  C   UNL     1      41.974 133.450  16.101  1.00  0.00     0.014 C 
ENDROOT
BRANCH   1  14
ATOM     14  C   UNL     1      39.971 133.057  17.584  1.00  0.00     0.005 C 
BRANCH  14  15
ATOM     15  C   UNL     1      38.772 133.607  17.354  1.00  0.00     0.049 C 
ATOM     16  O   UNL     1      37.731 133.354  18.244  1.00  0.00    -0.547 OA
BRANCH  15  17
ATOM     17  O   UNL     1      38.551 134.410  16.234  1.00  0.00    -0.601 OA
BRANCH  17  18
ATOM     18  C   UNL     1      38.453 133.880  14.920  1.00  0.00     0.160 C 
BRANCH  18  19
ATOM     19  C   UNL     1      37.380 134.570  14.202  1.00  0.00    -0.095 C 
ATOM     20  C   UNL     1      36.496 135.137  13.611  1.00  0.00     0.005 C 
ENDBRANCH  18  19
ENDBRANCH  17  18
ENDBRANCH  15  17
ENDBRANCH  14  15
ENDBRANCH   1  14
BRANCH   6  21
ATOM     21  N   UNL     1      44.269 131.583  21.860  1.00  0.00    -0.058 NA
BRANCH  21  22
ATOM     22  N   UNL     1      43.811 130.531  22.312  1.00  0.00     0.005 N 
ATOM     23  N   UNL     1      43.350 129.482  22.757  1.00  0.00    -0.003 NA
ENDBRANCH  21  22
ENDBRANCH   6  21
BRANCH  10  24
ATOM     24  O   UNL     1      45.790 130.837  16.711  1.00  0.00    -0.410 OA
BRANCH  24  25
ATOM     25  C   UNL     1      45.302 130.224  15.549  1.00  0.00     0.324 C 
ATOM     26  O   UNL     1      44.757 129.087  15.591  1.00  0.00    -0.251 OA
BRANCH  25  27
ATOM     27  C   UNL     1      45.438 130.943  14.234  1.00  0.00     0.201 C 
ATOM     28  C   UNL     1      44.171 130.757  13.389  1.00  0.00     0.030 C 
BRANCH  27  29
ATOM     29  C   UNL     1      46.698 130.483  13.481  1.00  0.00     0.401 C 
ATOM     30  F   UNL     1      47.794 131.247  13.842  1.00  0.00    -0.170 F 
ATOM     31  F   UNL     1      46.961 129.156  13.770  1.00  0.00    -0.170 F 
ATOM     32  F   UNL     1      46.499 130.602  12.115  1.00  0.00    -0.170 F 
ENDBRANCH  27  29
ENDBRANCH  25  27
ENDBRANCH  24  25
ENDBRANCH  10  24
TORSDOF 11
ENDMDL


