MODEL 1
REMARK VINA RESULT:      -7.3      0.000      0.000
REMARK SMILES C#CCOC(O)=C[C@H]1c2c(N=[N+]=[N-])ccc3c2[C@@H](C[C@@H]1C(=O)N=[N+]=[N-])C(=O)N(O)C3=O
REMARK SMILES IDX 7 1 5 2 4 3 3 4 2 5 1 6 6 7 8 9 9 10 20 11 10 12 17 13 19 14
REMARK SMILES IDX 14 15 16 16 18 17 15 18 30 19 26 20 28 21 31 22 27 23 21 24
REMARK SMILES IDX 22 25 23 26 24 27 25 28 11 29 12 30 13 31 29 32
REMARK H PARENT 6 8 29 33
ROOT
ATOM      1  C   UNL     1      45.154 132.522  15.332  1.00  0.00     0.070 C 
ENDROOT
BRANCH   1   2
ATOM      2  C   UNL     1      45.768 131.809  14.376  1.00  0.00     0.274 C 
BRANCH   2   3
ATOM      3  O   UNL     1      47.126 132.014  14.117  1.00  0.00    -0.453 OA
BRANCH   3   4
ATOM      4  C   UNL     1      47.818 131.368  13.061  1.00  0.00     0.322 C 
BRANCH   4   5
ATOM      5  C   UNL     1      48.010 129.961  13.416  1.00  0.00    -0.065 C 
ATOM      6  C   UNL     1      48.157 128.801  13.709  1.00  0.00     0.007 C 
ENDBRANCH   4   5
ENDBRANCH   3   4
ENDBRANCH   2   3
BRANCH   2   7
ATOM      7  O   UNL     1      45.058 130.855  13.644  1.00  0.00    -0.481 OA
ATOM      8  H   UNL     1      45.506 130.272  12.948  1.00  0.00     0.296 HD
ENDBRANCH   2   7
ENDBRANCH   1   2
BRANCH   1   9
ATOM      9  C   UNL     1      43.934 132.023  16.085  1.00  0.00     0.060 C 
ATOM     10  C   UNL     1      44.266 131.741  17.557  1.00  0.00    -0.026 A 
ATOM     11  C   UNL     1      42.746 132.999  15.848  1.00  0.00     0.076 C 
ATOM     12  C   UNL     1      45.300 130.822  17.869  1.00  0.00     0.042 A 
ATOM     13  C   UNL     1      43.525 132.342  18.614  1.00  0.00    -0.018 A 
ATOM     14  C   UNL     1      41.724 132.948  16.986  1.00  0.00     0.031 C 
ATOM     15  C   UNL     1      45.642 130.588  19.210  1.00  0.00     0.011 A 
ATOM     16  C   UNL     1      43.884 132.077  19.956  1.00  0.00     0.047 A 
ATOM     17  C   UNL     1      42.415 133.336  18.301  1.00  0.00     0.113 C 
ATOM     18  C   UNL     1      44.950 131.215  20.238  1.00  0.00     0.015 A 
ATOM     19  C   UNL     1      43.092 132.654  21.061  1.00  0.00     0.284 C 
ATOM     20  C   UNL     1      41.418 133.475  19.431  1.00  0.00     0.261 C 
ATOM     21  N   UNL     1      41.832 133.267  20.783  1.00  0.00    -0.151 N 
ATOM     22  O   UNL     1      43.501 132.579  22.252  1.00  0.00    -0.266 OA
ATOM     23  O   UNL     1      40.248 133.885  19.199  1.00  0.00    -0.271 OA
BRANCH  11  24
ATOM     24  C   UNL     1      42.082 132.724  14.523  1.00  0.00     0.222 C 
ATOM     25  O   UNL     1      42.308 131.642  13.912  1.00  0.00    -0.292 OA
BRANCH  24  26
ATOM     26  N   UNL     1      41.222 133.710  13.946  1.00  0.00    -0.022 NA
BRANCH  26  27
ATOM     27  N   UNL     1      41.315 134.899  14.252  1.00  0.00     0.008 N 
ATOM     28  N   UNL     1      41.408 136.086  14.559  1.00  0.00    -0.003 NA
ENDBRANCH  26  27
ENDBRANCH  24  26
ENDBRANCH  11  24
BRANCH  12  29
ATOM     29  N   UNL     1      45.988 130.135  16.810  1.00  0.00    -0.060 NA
BRANCH  29  30
ATOM     30  N   UNL     1      45.498 129.177  16.212  1.00  0.00     0.005 N 
ATOM     31  N   UNL     1      45.008 128.219  15.617  1.00  0.00    -0.003 NA
ENDBRANCH  29  30
ENDBRANCH  12  29
BRANCH  21  32
ATOM     32  O   UNL     1      41.028 133.655  21.805  1.00  0.00    -0.278 OA
ATOM     33  H   UNL     1      40.109 133.433  21.507  1.00  0.00     0.247 HD
ENDBRANCH  21  32
ENDBRANCH   1   9
TORSDOF 12
ENDMDL
MODEL 2
REMARK VINA RESULT:      -7.1      2.352      5.604
REMARK SMILES C#CCOC(O)=C[C@H]1c2c(N=[N+]=[N-])ccc3c2[C@@H](C[C@@H]1C(=O)N=[N+]=[N-])C(=O)N(O)C3=O
REMARK SMILES IDX 7 1 5 2 4 3 3 4 2 5 1 6 6 7 8 9 9 10 20 11 10 12 17 13 19 14
REMARK SMILES IDX 14 15 16 16 18 17 15 18 30 19 26 20 28 21 31 22 27 23 21 24
REMARK SMILES IDX 22 25 23 26 24 27 25 28 11 29 12 30 13 31 29 32
REMARK H PARENT 6 8 29 33
ROOT
ATOM      1  C   UNL     1      42.960 133.827  14.871  1.00  0.00     0.070 C 
ENDROOT
BRANCH   1   2
ATOM      2  C   UNL     1      41.943 132.960  14.768  1.00  0.00     0.274 C 
BRANCH   2   3
ATOM      3  O   UNL     1      40.827 133.093  15.598  1.00  0.00    -0.453 OA
BRANCH   3   4
ATOM      4  C   UNL     1      40.923 133.384  16.983  1.00  0.00     0.322 C 
BRANCH   4   5
ATOM      5  C   UNL     1      40.454 134.752  17.210  1.00  0.00    -0.065 C 
ATOM      6  C   UNL     1      40.059 135.874  17.399  1.00  0.00     0.007 C 
ENDBRANCH   4   5
ENDBRANCH   3   4
ENDBRANCH   2   3
BRANCH   2   7
ATOM      7  O   UNL     1      41.989 131.929  13.826  1.00  0.00    -0.481 OA
ATOM      8  H   UNL     1      41.511 131.995  12.936  1.00  0.00     0.296 HD
ENDBRANCH   2   7
ENDBRANCH   1   2
BRANCH   1   9
ATOM      9  C   UNL     1      44.163 133.594  15.767  1.00  0.00     0.060 C 
ATOM     10  C   UNL     1      44.038 134.377  17.081  1.00  0.00    -0.026 A 
ATOM     11  C   UNL     1      44.399 132.064  15.927  1.00  0.00     0.076 C 
ATOM     12  C   UNL     1      43.873 135.785  17.035  1.00  0.00     0.042 A 
ATOM     13  C   UNL     1      44.133 133.728  18.345  1.00  0.00    -0.018 A 
ATOM     14  C   UNL     1      45.136 131.728  17.225  1.00  0.00     0.031 C 
ATOM     15  C   UNL     1      43.714 136.507  18.228  1.00  0.00     0.011 A 
ATOM     16  C   UNL     1      43.982 134.484  19.532  1.00  0.00     0.047 A 
ATOM     17  C   UNL     1      44.303 132.217  18.418  1.00  0.00     0.113 C 
ATOM     18  C   UNL     1      43.758 135.863  19.458  1.00  0.00     0.015 A 
ATOM     19  C   UNL     1      44.130 133.832  20.848  1.00  0.00     0.284 C 
ATOM     20  C   UNL     1      44.896 131.757  19.733  1.00  0.00     0.261 C 
ATOM     21  N   UNL     1      44.665 132.509  20.927  1.00  0.00    -0.151 N 
ATOM     22  O   UNL     1      43.822 134.445  21.907  1.00  0.00    -0.266 OA
ATOM     23  O   UNL     1      45.498 130.651  19.807  1.00  0.00    -0.271 OA
BRANCH  11  24
ATOM     24  C   UNL     1      45.137 131.508  14.736  1.00  0.00     0.222 C 
ATOM     25  O   UNL     1      44.561 130.702  13.953  1.00  0.00    -0.292 OA
BRANCH  24  26
ATOM     26  N   UNL     1      46.502 131.870  14.519  1.00  0.00    -0.022 NA
BRANCH  26  27
ATOM     27  N   UNL     1      47.195 131.288  13.684  1.00  0.00     0.008 N 
ATOM     28  N   UNL     1      47.886 130.705  12.850  1.00  0.00    -0.003 NA
ENDBRANCH  26  27
ENDBRANCH  24  26
ENDBRANCH  11  24
BRANCH  12  29
ATOM     29  N   UNL     1      43.874 136.462  15.767  1.00  0.00    -0.060 NA
BRANCH  29  30
ATOM     30  N   UNL     1      42.932 137.158  15.385  1.00  0.00     0.005 N 
ATOM     31  N   UNL     1      41.994 137.856  15.005  1.00  0.00    -0.003 NA
ENDBRANCH  29  30
ENDBRANCH  12  29
BRANCH  21  32
ATOM     32  O   UNL     1      44.952 131.966  22.136  1.00  0.00    -0.278 OA
ATOM     33  H   UNL     1      44.626 131.031  22.082  1.00  0.00     0.247 HD
ENDBRANCH  21  32
ENDBRANCH   1   9
TORSDOF 12
ENDMDL
MODEL 3
REMARK VINA RESULT:      -7.1      2.349      5.622
REMARK SMILES C#CCOC(O)=C[C@H]1c2c(N=[N+]=[N-])ccc3c2[C@@H](C[C@@H]1C(=O)N=[N+]=[N-])C(=O)N(O)C3=O
REMARK SMILES IDX 7 1 5 2 4 3 3 4 2 5 1 6 6 7 8 9 9 10 20 11 10 12 17 13 19 14
REMARK SMILES IDX 14 15 16 16 18 17 15 18 30 19 26 20 28 21 31 22 27 23 21 24
REMARK SMILES IDX 22 25 23 26 24 27 25 28 11 29 12 30 13 31 29 32
REMARK H PARENT 6 8 29 33
ROOT
ATOM      1  C   UNL     1      43.226 132.277  15.544  1.00  0.00     0.070 C 
ENDROOT
BRANCH   1   2
ATOM      2  C   UNL     1      42.014 132.641  15.989  1.00  0.00     0.274 C 
BRANCH   2   3
ATOM      3  O   UNL     1      41.567 132.197  17.236  1.00  0.00    -0.453 OA
BRANCH   3   4
ATOM      4  C   UNL     1      40.336 132.610  17.808  1.00  0.00     0.322 C 
BRANCH   4   5
ATOM      5  C   UNL     1      40.612 133.575  18.872  1.00  0.00    -0.065 C 
ATOM      6  C   UNL     1      40.847 134.375  19.743  1.00  0.00     0.007 C 
ENDBRANCH   4   5
ENDBRANCH   3   4
ENDBRANCH   2   3
BRANCH   2   7
ATOM      7  O   UNL     1      41.201 133.473  15.215  1.00  0.00    -0.481 OA
ATOM      8  H   UNL     1      40.232 133.247  15.025  1.00  0.00     0.296 HD
ENDBRANCH   2   7
ENDBRANCH   1   2
BRANCH   1   9
ATOM      9  C   UNL     1      44.479 132.345  16.398  1.00  0.00     0.060 C 
ATOM     10  C   UNL     1      44.379 133.463  17.445  1.00  0.00    -0.026 A 
ATOM     11  C   UNL     1      44.795 130.931  16.965  1.00  0.00     0.076 C 
ATOM     12  C   UNL     1      44.145 134.794  17.016  1.00  0.00     0.042 A 
ATOM     13  C   UNL     1      44.565 133.200  18.832  1.00  0.00    -0.018 A 
ATOM     14  C   UNL     1      45.608 130.999  18.260  1.00  0.00     0.031 C 
ATOM     15  C   UNL     1      44.008 135.818  17.966  1.00  0.00     0.011 A 
ATOM     16  C   UNL     1      44.434 134.255  19.766  1.00  0.00     0.047 A 
ATOM     17  C   UNL     1      44.810 131.778  19.315  1.00  0.00     0.113 C 
ATOM     18  C   UNL     1      44.141 135.549  19.322  1.00  0.00     0.015 A 
ATOM     19  C   UNL     1      44.675 134.006  21.202  1.00  0.00     0.284 C 
ATOM     20  C   UNL     1      45.485 131.727  20.669  1.00  0.00     0.261 C 
ATOM     21  N   UNL     1      45.275 132.777  21.616  1.00  0.00    -0.151 N 
ATOM     22  O   UNL     1      44.388 134.882  22.063  1.00  0.00    -0.266 OA
ATOM     23  O   UNL     1      46.142 130.707  21.014  1.00  0.00    -0.271 OA
BRANCH  11  24
ATOM     24  C   UNL     1      45.502 130.086  15.936  1.00  0.00     0.222 C 
ATOM     25  O   UNL     1      44.902 129.118  15.390  1.00  0.00    -0.292 OA
BRANCH  24  26
ATOM     26  N   UNL     1      46.865 130.364  15.609  1.00  0.00    -0.022 NA
BRANCH  26  27
ATOM     27  N   UNL     1      47.177 130.845  14.519  1.00  0.00     0.008 N 
ATOM     28  N   UNL     1      47.488 131.325  13.431  1.00  0.00    -0.003 NA
ENDBRANCH  26  27
ENDBRANCH  24  26
ENDBRANCH  11  24
BRANCH  12  29
ATOM     29  N   UNL     1      44.054 135.086  15.611  1.00  0.00    -0.060 NA
BRANCH  29  30
ATOM     30  N   UNL     1      43.456 136.070  15.174  1.00  0.00     0.005 N 
ATOM     31  N   UNL     1      42.862 137.053  14.736  1.00  0.00    -0.003 NA
ENDBRANCH  29  30
ENDBRANCH  12  29
BRANCH  21  32
ATOM     32  O   UNL     1      45.645 132.607  22.910  1.00  0.00    -0.278 OA
ATOM     33  H   UNL     1      44.877 132.941  23.442  1.00  0.00     0.247 HD
ENDBRANCH  21  32
ENDBRANCH   1   9
TORSDOF 12
ENDMDL
MODEL 4
REMARK VINA RESULT:      -7.0      2.503      5.738
REMARK SMILES C#CCOC(O)=C[C@H]1c2c(N=[N+]=[N-])ccc3c2[C@@H](C[C@@H]1C(=O)N=[N+]=[N-])C(=O)N(O)C3=O
REMARK SMILES IDX 7 1 5 2 4 3 3 4 2 5 1 6 6 7 8 9 9 10 20 11 10 12 17 13 19 14
REMARK SMILES IDX 14 15 16 16 18 17 15 18 30 19 26 20 28 21 31 22 27 23 21 24
REMARK SMILES IDX 22 25 23 26 24 27 25 28 11 29 12 30 13 31 29 32
REMARK H PARENT 6 8 29 33
ROOT
ATOM      1  C   UNL     1      42.867 133.625  14.902  1.00  0.00     0.070 C 
ENDROOT
BRANCH   1   2
ATOM      2  C   UNL     1      41.678 133.086  15.209  1.00  0.00     0.274 C 
BRANCH   2   3
ATOM      3  O   UNL     1      40.647 133.090  14.267  1.00  0.00    -0.453 OA
BRANCH   3   4
ATOM      4  C   UNL     1      39.963 134.269  13.874  1.00  0.00     0.322 C 
BRANCH   4   5
ATOM      5  C   UNL     1      38.687 134.333  14.589  1.00  0.00    -0.065 C 
ATOM      6  C   UNL     1      37.634 134.378  15.173  1.00  0.00     0.007 C 
ENDBRANCH   4   5
ENDBRANCH   3   4
ENDBRANCH   2   3
BRANCH   2   7
ATOM      7  O   UNL     1      41.471 132.510  16.465  1.00  0.00    -0.481 OA
ATOM      8  H   UNL     1      40.814 131.752  16.604  1.00  0.00     0.296 HD
ENDBRANCH   2   7
ENDBRANCH   1   2
BRANCH   1   9
ATOM      9  C   UNL     1      44.106 133.449  15.761  1.00  0.00     0.060 C 
ATOM     10  C   UNL     1      44.001 134.254  17.063  1.00  0.00    -0.026 A 
ATOM     11  C   UNL     1      44.397 131.931  15.941  1.00  0.00     0.076 C 
ATOM     12  C   UNL     1      43.789 135.655  16.995  1.00  0.00     0.042 A 
ATOM     13  C   UNL     1      44.159 133.635  18.335  1.00  0.00    -0.018 A 
ATOM     14  C   UNL     1      45.188 131.645  17.220  1.00  0.00     0.031 C 
ATOM     15  C   UNL     1      43.647 136.396  18.178  1.00  0.00     0.011 A 
ATOM     16  C   UNL     1      44.025 134.410  19.511  1.00  0.00     0.047 A 
ATOM     17  C   UNL     1      44.381 132.132  18.431  1.00  0.00     0.113 C 
ATOM     18  C   UNL     1      43.754 135.780  19.418  1.00  0.00     0.015 A 
ATOM     19  C   UNL     1      44.238 133.790  20.834  1.00  0.00     0.284 C 
ATOM     20  C   UNL     1      45.032 131.718  19.733  1.00  0.00     0.261 C 
ATOM     21  N   UNL     1      44.817 132.487  20.920  1.00  0.00    -0.151 N 
ATOM     22  O   UNL     1      43.946 134.415  21.891  1.00  0.00    -0.266 OA
ATOM     23  O   UNL     1      45.671 130.633  19.808  1.00  0.00    -0.271 OA
BRANCH  11  24
ATOM     24  C   UNL     1      45.111 131.374  14.737  1.00  0.00     0.222 C 
ATOM     25  O   UNL     1      44.514 130.583  13.954  1.00  0.00    -0.292 OA
BRANCH  24  26
ATOM     26  N   UNL     1      46.479 131.718  14.506  1.00  0.00    -0.022 NA
BRANCH  26  27
ATOM     27  N   UNL     1      47.109 131.239  13.562  1.00  0.00     0.008 N 
ATOM     28  N   UNL     1      47.739 130.760  12.620  1.00  0.00    -0.003 NA
ENDBRANCH  26  27
ENDBRANCH  24  26
ENDBRANCH  11  24
BRANCH  12  29
ATOM     29  N   UNL     1      43.725 136.305  15.714  1.00  0.00    -0.060 NA
BRANCH  29  30
ATOM     30  N   UNL     1      42.816 137.077  15.406  1.00  0.00     0.005 N 
ATOM     31  N   UNL     1      41.909 137.847  15.095  1.00  0.00    -0.003 NA
ENDBRANCH  29  30
ENDBRANCH  12  29
BRANCH  21  32
ATOM     32  O   UNL     1      45.163 131.978  22.129  1.00  0.00    -0.278 OA
ATOM     33  H   UNL     1      44.405 131.391  22.386  1.00  0.00     0.247 HD
ENDBRANCH  21  32
ENDBRANCH   1   9
TORSDOF 12
ENDMDL
MODEL 5
REMARK VINA RESULT:      -6.7      2.656      4.319
REMARK SMILES C#CCOC(O)=C[C@H]1c2c(N=[N+]=[N-])ccc3c2[C@@H](C[C@@H]1C(=O)N=[N+]=[N-])C(=O)N(O)C3=O
REMARK SMILES IDX 7 1 5 2 4 3 3 4 2 5 1 6 6 7 8 9 9 10 20 11 10 12 17 13 19 14
REMARK SMILES IDX 14 15 16 16 18 17 15 18 30 19 26 20 28 21 31 22 27 23 21 24
REMARK SMILES IDX 22 25 23 26 24 27 25 28 11 29 12 30 13 31 29 32
REMARK H PARENT 6 8 29 33
ROOT
ATOM      1  C   UNL     1      42.491 133.651  15.698  1.00  0.00     0.070 C 
ENDROOT
BRANCH   1   2
ATOM      2  C   UNL     1      41.804 133.697  14.547  1.00  0.00     0.274 C 
BRANCH   2   3
ATOM      3  O   UNL     1      41.665 134.910  13.866  1.00  0.00    -0.453 OA
BRANCH   3   4
ATOM      4  C   UNL     1      40.923 136.004  14.380  1.00  0.00     0.322 C 
BRANCH   4   5
ATOM      5  C   UNL     1      41.858 137.001  14.904  1.00  0.00    -0.065 C 
ATOM      6  C   UNL     1      42.627 137.827  15.327  1.00  0.00     0.007 C 
ENDBRANCH   4   5
ENDBRANCH   3   4
ENDBRANCH   2   3
BRANCH   2   7
ATOM      7  O   UNL     1      41.235 132.535  14.020  1.00  0.00    -0.481 OA
ATOM      8  H   UNL     1      41.050 132.432  13.030  1.00  0.00     0.296 HD
ENDBRANCH   2   7
ENDBRANCH   1   2
BRANCH   1   9
ATOM      9  C   UNL     1      42.186 132.661  16.807  1.00  0.00     0.060 C 
ATOM     10  C   UNL     1      43.464 131.974  17.307  1.00  0.00    -0.026 A 
ATOM     11  C   UNL     1      41.337 133.363  17.907  1.00  0.00     0.076 C 
ATOM     12  C   UNL     1      44.275 131.265  16.384  1.00  0.00     0.042 A 
ATOM     13  C   UNL     1      43.829 131.991  18.683  1.00  0.00    -0.018 A 
ATOM     14  C   UNL     1      41.501 132.694  19.273  1.00  0.00     0.031 C 
ATOM     15  C   UNL     1      45.468 130.668  16.819  1.00  0.00     0.011 A 
ATOM     16  C   UNL     1      45.031 131.371  19.095  1.00  0.00     0.047 A 
ATOM     17  C   UNL     1      42.977 132.752  19.690  1.00  0.00     0.113 C 
ATOM     18  C   UNL     1      45.846 130.730  18.154  1.00  0.00     0.015 A 
ATOM     19  C   UNL     1      45.394 131.338  20.526  1.00  0.00     0.284 C 
ATOM     20  C   UNL     1      43.173 132.265  21.109  1.00  0.00     0.261 C 
ATOM     21  N   UNL     1      44.426 131.706  21.510  1.00  0.00    -0.151 N 
ATOM     22  O   UNL     1      46.539 130.953  20.890  1.00  0.00    -0.266 OA
ATOM     23  O   UNL     1      42.275 132.453  21.975  1.00  0.00    -0.271 OA
BRANCH  11  24
ATOM     24  C   UNL     1      39.884 133.416  17.510  1.00  0.00     0.222 C 
ATOM     25  O   UNL     1      39.187 132.363  17.513  1.00  0.00    -0.292 OA
BRANCH  24  26
ATOM     26  N   UNL     1      39.310 134.659  17.098  1.00  0.00    -0.022 NA
BRANCH  26  27
ATOM     27  N   UNL     1      38.349 134.696  16.329  1.00  0.00     0.008 N 
ATOM     28  N   UNL     1      37.390 134.734  15.560  1.00  0.00    -0.003 NA
ENDBRANCH  26  27
ENDBRANCH  24  26
ENDBRANCH  11  24
BRANCH  12  29
ATOM     29  N   UNL     1      43.865 131.158  15.010  1.00  0.00    -0.060 NA
BRANCH  29  30
ATOM     30  N   UNL     1      44.642 130.846  14.107  1.00  0.00     0.005 N 
ATOM     31  N   UNL     1      45.420 130.539  13.205  1.00  0.00    -0.003 NA
ENDBRANCH  29  30
ENDBRANCH  12  29
BRANCH  21  32
ATOM     32  O   UNL     1      44.698 131.526  22.827  1.00  0.00    -0.278 OA
ATOM     33  H   UNL     1      44.508 130.568  23.000  1.00  0.00     0.247 HD
ENDBRANCH  21  32
ENDBRANCH   1   9
TORSDOF 12
ENDMDL
MODEL 6
REMARK VINA RESULT:      -6.5      3.172      3.983
REMARK SMILES C#CCOC(O)=C[C@H]1c2c(N=[N+]=[N-])ccc3c2[C@@H](C[C@@H]1C(=O)N=[N+]=[N-])C(=O)N(O)C3=O
REMARK SMILES IDX 7 1 5 2 4 3 3 4 2 5 1 6 6 7 8 9 9 10 20 11 10 12 17 13 19 14
REMARK SMILES IDX 14 15 16 16 18 17 15 18 30 19 26 20 28 21 31 22 27 23 21 24
REMARK SMILES IDX 22 25 23 26 24 27 25 28 11 29 12 30 13 31 29 32
REMARK H PARENT 6 8 29 33
ROOT
ATOM      1  C   UNL     1      43.929 131.864  17.311  1.00  0.00     0.070 C 
ENDROOT
BRANCH   1   2
ATOM      2  C   UNL     1      44.637 131.898  16.172  1.00  0.00     0.274 C 
BRANCH   2   3
ATOM      3  O   UNL     1      44.738 130.752  15.379  1.00  0.00    -0.453 OA
BRANCH   3   4
ATOM      4  C   UNL     1      44.476 130.751  13.985  1.00  0.00     0.322 C 
BRANCH   4   5
ATOM      5  C   UNL     1      45.745 130.615  13.268  1.00  0.00    -0.065 C 
ATOM      6  C   UNL     1      46.787 130.493  12.675  1.00  0.00     0.007 C 
ENDBRANCH   4   5
ENDBRANCH   3   4
ENDBRANCH   2   3
BRANCH   2   7
ATOM      7  O   UNL     1      45.265 133.079  15.769  1.00  0.00    -0.481 OA
ATOM      8  H   UNL     1      46.127 133.073  15.239  1.00  0.00     0.296 HD
ENDBRANCH   2   7
ENDBRANCH   1   2
BRANCH   1   9
ATOM      9  C   UNL     1      43.163 133.059  17.849  1.00  0.00     0.060 C 
ATOM     10  C   UNL     1      43.975 133.807  18.915  1.00  0.00    -0.026 A 
ATOM     11  C   UNL     1      42.667 133.931  16.660  1.00  0.00     0.076 C 
ATOM     12  C   UNL     1      44.425 133.103  20.061  1.00  0.00     0.042 A 
ATOM     13  C   UNL     1      44.244 135.200  18.803  1.00  0.00    -0.018 A 
ATOM     14  C   UNL     1      42.450 135.390  17.069  1.00  0.00     0.031 C 
ATOM     15  C   UNL     1      45.206 133.764  21.023  1.00  0.00     0.011 A 
ATOM     16  C   UNL     1      45.022 135.844  19.794  1.00  0.00     0.047 A 
ATOM     17  C   UNL     1      43.776 135.973  17.578  1.00  0.00     0.113 C 
ATOM     18  C   UNL     1      45.508 135.113  20.885  1.00  0.00     0.015 A 
ATOM     19  C   UNL     1      45.265 137.298  19.715  1.00  0.00     0.284 C 
ATOM     20  C   UNL     1      43.667 137.461  17.830  1.00  0.00     0.261 C 
ATOM     21  N   UNL     1      44.518 138.091  18.791  1.00  0.00    -0.151 N 
ATOM     22  O   UNL     1      46.100 137.852  20.482  1.00  0.00    -0.266 OA
ATOM     23  O   UNL     1      42.908 138.173  17.117  1.00  0.00    -0.271 OA
BRANCH  11  24
ATOM     24  C   UNL     1      41.410 133.355  16.059  1.00  0.00     0.222 C 
ATOM     25  O   UNL     1      40.533 132.833  16.802  1.00  0.00    -0.292 OA
BRANCH  24  26
ATOM     26  N   UNL     1      41.234 133.371  14.640  1.00  0.00    -0.022 NA
BRANCH  26  27
ATOM     27  N   UNL     1      40.146 133.643  14.133  1.00  0.00     0.008 N 
ATOM     28  N   UNL     1      39.058 133.914  13.626  1.00  0.00    -0.003 NA
ENDBRANCH  26  27
ENDBRANCH  24  26
ENDBRANCH  11  24
BRANCH  12  29
ATOM     29  N   UNL     1      44.076 131.719  20.233  1.00  0.00    -0.060 NA
BRANCH  29  30
ATOM     30  N   UNL     1      43.483 131.302  21.229  1.00  0.00     0.005 N 
ATOM     31  N   UNL     1      42.889 130.887  22.222  1.00  0.00    -0.003 NA
ENDBRANCH  29  30
ENDBRANCH  12  29
BRANCH  21  32
ATOM     32  O   UNL     1      44.619 139.444  18.824  1.00  0.00    -0.278 OA
ATOM     33  H   UNL     1      45.423 139.654  18.283  1.00  0.00     0.247 HD
ENDBRANCH  21  32
ENDBRANCH   1   9
TORSDOF 12
ENDMDL
MODEL 7
REMARK VINA RESULT:      -6.5      2.573      6.057
REMARK SMILES C#CCOC(O)=C[C@H]1c2c(N=[N+]=[N-])ccc3c2[C@@H](C[C@@H]1C(=O)N=[N+]=[N-])C(=O)N(O)C3=O
REMARK SMILES IDX 7 1 5 2 4 3 3 4 2 5 1 6 6 7 8 9 9 10 20 11 10 12 17 13 19 14
REMARK SMILES IDX 14 15 16 16 18 17 15 18 30 19 26 20 28 21 31 22 27 23 21 24
REMARK SMILES IDX 22 25 23 26 24 27 25 28 11 29 12 30 13 31 29 32
REMARK H PARENT 6 8 29 33
ROOT
ATOM      1  C   UNL     1      42.467 134.396  14.455  1.00  0.00     0.070 C 
ENDROOT
BRANCH   1   2
ATOM      2  C   UNL     1      41.352 133.702  14.185  1.00  0.00     0.274 C 
BRANCH   2   3
ATOM      3  O   UNL     1      40.104 134.320  14.292  1.00  0.00    -0.453 OA
BRANCH   3   4
ATOM      4  C   UNL     1      39.173 134.011  15.318  1.00  0.00     0.322 C 
BRANCH   4   5
ATOM      5  C   UNL     1      37.855 134.513  14.924  1.00  0.00    -0.065 C 
ATOM      6  C   UNL     1      36.775 134.929  14.591  1.00  0.00     0.007 C 
ENDBRANCH   4   5
ENDBRANCH   3   4
ENDBRANCH   2   3
BRANCH   2   7
ATOM      7  O   UNL     1      41.434 132.365  13.788  1.00  0.00    -0.481 OA
ATOM      8  H   UNL     1      41.998 132.076  12.998  1.00  0.00     0.296 HD
ENDBRANCH   2   7
ENDBRANCH   1   2
BRANCH   1   9
ATOM      9  C   UNL     1      43.230 134.267  15.761  1.00  0.00     0.060 C 
ATOM     10  C   UNL     1      42.575 135.098  16.873  1.00  0.00    -0.026 A 
ATOM     11  C   UNL     1      43.436 132.760  16.092  1.00  0.00     0.076 C 
ATOM     12  C   UNL     1      42.395 136.491  16.681  1.00  0.00     0.042 A 
ATOM     13  C   UNL     1      42.190 134.510  18.111  1.00  0.00    -0.018 A 
ATOM     14  C   UNL     1      43.617 132.521  17.593  1.00  0.00     0.031 C 
ATOM     15  C   UNL     1      41.759 137.255  17.671  1.00  0.00     0.011 A 
ATOM     16  C   UNL     1      41.562 135.307  19.097  1.00  0.00     0.047 A 
ATOM     17  C   UNL     1      42.368 133.015  18.336  1.00  0.00     0.113 C 
ATOM     18  C   UNL     1      41.339 136.668  18.858  1.00  0.00     0.015 A 
ATOM     19  C   UNL     1      41.205 134.721  20.404  1.00  0.00     0.284 C 
ATOM     20  C   UNL     1      42.414 132.645  19.803  1.00  0.00     0.261 C 
ATOM     21  N   UNL     1      41.710 133.434  20.765  1.00  0.00    -0.151 N 
ATOM     22  O   UNL     1      40.487 135.362  21.221  1.00  0.00    -0.266 OA
ATOM     23  O   UNL     1      42.975 131.577  20.172  1.00  0.00    -0.271 OA
BRANCH  11  24
ATOM     24  C   UNL     1      44.599 132.194  15.318  1.00  0.00     0.222 C 
ATOM     25  O   UNL     1      45.762 132.652  15.497  1.00  0.00    -0.292 OA
BRANCH  24  26
ATOM     26  N   UNL     1      44.371 131.161  14.356  1.00  0.00    -0.022 NA
BRANCH  26  27
ATOM     27  N   UNL     1      45.264 130.788  13.595  1.00  0.00     0.008 N 
ATOM     28  N   UNL     1      46.156 130.414  12.835  1.00  0.00    -0.003 NA
ENDBRANCH  26  27
ENDBRANCH  24  26
ENDBRANCH  11  24
BRANCH  12  29
ATOM     29  N   UNL     1      42.870 137.112  15.474  1.00  0.00    -0.060 NA
BRANCH  29  30
ATOM     30  N   UNL     1      42.374 138.143  15.017  1.00  0.00     0.005 N 
ATOM     31  N   UNL     1      41.879 139.171  14.559  1.00  0.00    -0.003 NA
ENDBRANCH  29  30
ENDBRANCH  12  29
BRANCH  21  32
ATOM     32  O   UNL     1      41.518 132.960  22.022  1.00  0.00    -0.278 OA
ATOM     33  H   UNL     1      40.744 133.470  22.374  1.00  0.00     0.247 HD
ENDBRANCH  21  32
ENDBRANCH   1   9
TORSDOF 12
ENDMDL
MODEL 8
REMARK VINA RESULT:      -6.5      3.032      3.912
REMARK SMILES C#CCOC(O)=C[C@H]1c2c(N=[N+]=[N-])ccc3c2[C@@H](C[C@@H]1C(=O)N=[N+]=[N-])C(=O)N(O)C3=O
REMARK SMILES IDX 7 1 5 2 4 3 3 4 2 5 1 6 6 7 8 9 9 10 20 11 10 12 17 13 19 14
REMARK SMILES IDX 14 15 16 16 18 17 15 18 30 19 26 20 28 21 31 22 27 23 21 24
REMARK SMILES IDX 22 25 23 26 24 27 25 28 11 29 12 30 13 31 29 32
REMARK H PARENT 6 8 29 33
ROOT
ATOM      1  C   UNL     1      43.669 131.590  16.953  1.00  0.00     0.070 C 
ENDROOT
BRANCH   1   2
ATOM      2  C   UNL     1      45.009 131.554  16.948  1.00  0.00     0.274 C 
BRANCH   2   3
ATOM      3  O   UNL     1      45.717 132.103  15.876  1.00  0.00    -0.453 OA
BRANCH   3   4
ATOM      4  C   UNL     1      45.649 131.584  14.557  1.00  0.00     0.322 C 
BRANCH   4   5
ATOM      5  C   UNL     1      46.684 130.560  14.401  1.00  0.00    -0.065 C 
ATOM      6  C   UNL     1      47.539 129.719  14.283  1.00  0.00     0.007 C 
ENDBRANCH   4   5
ENDBRANCH   3   4
ENDBRANCH   2   3
BRANCH   2   7
ATOM      7  O   UNL     1      45.701 130.978  18.016  1.00  0.00    -0.481 OA
ATOM      8  H   UNL     1      46.713 130.981  18.062  1.00  0.00     0.296 HD
ENDBRANCH   2   7
ENDBRANCH   1   2
BRANCH   1   9
ATOM      9  C   UNL     1      42.873 132.858  17.207  1.00  0.00     0.060 C 
ATOM     10  C   UNL     1      43.448 133.648  18.391  1.00  0.00    -0.026 A 
ATOM     11  C   UNL     1      42.737 133.657  15.879  1.00  0.00     0.076 C 
ATOM     12  C   UNL     1      43.561 133.016  19.655  1.00  0.00     0.042 A 
ATOM     13  C   UNL     1      43.825 135.015  18.259  1.00  0.00    -0.018 A 
ATOM     14  C   UNL     1      42.522 135.152  16.127  1.00  0.00     0.031 C 
ATOM     15  C   UNL     1      44.125 133.714  20.735  1.00  0.00     0.011 A 
ATOM     16  C   UNL     1      44.379 135.697  19.368  1.00  0.00     0.047 A 
ATOM     17  C   UNL     1      43.720 135.710  16.909  1.00  0.00     0.113 C 
ATOM     18  C   UNL     1      44.538 135.032  20.589  1.00  0.00     0.015 A 
ATOM     19  C   UNL     1      44.726 137.128  19.258  1.00  0.00     0.284 C 
ATOM     20  C   UNL     1      43.648 137.217  17.031  1.00  0.00     0.261 C 
ATOM     21  N   UNL     1      44.279 137.880  18.129  1.00  0.00    -0.151 N 
ATOM     22  O   UNL     1      45.384 137.701  20.170  1.00  0.00    -0.266 OA
ATOM     23  O   UNL     1      43.132 137.905  16.108  1.00  0.00    -0.271 OA
BRANCH  11  24
ATOM     24  C   UNL     1      41.630 133.094  15.025  1.00  0.00     0.222 C 
ATOM     25  O   UNL     1      41.906 132.385  14.017  1.00  0.00    -0.292 OA
BRANCH  24  26
ATOM     26  N   UNL     1      40.270 133.398  15.341  1.00  0.00    -0.022 NA
BRANCH  26  27
ATOM     27  N   UNL     1      39.434 133.587  14.457  1.00  0.00     0.008 N 
ATOM     28  N   UNL     1      38.599 133.777  13.574  1.00  0.00    -0.003 NA
ENDBRANCH  26  27
ENDBRANCH  24  26
ENDBRANCH  11  24
BRANCH  12  29
ATOM     29  N   UNL     1      43.092 131.668  19.824  1.00  0.00    -0.060 NA
BRANCH  29  30
ATOM     30  N   UNL     1      42.842 131.184  20.929  1.00  0.00     0.005 N 
ATOM     31  N   UNL     1      42.590 130.702  22.031  1.00  0.00    -0.003 NA
ENDBRANCH  29  30
ENDBRANCH  12  29
BRANCH  21  32
ATOM     32  O   UNL     1      44.456 139.225  18.099  1.00  0.00    -0.278 OA
ATOM     33  H   UNL     1      45.400 139.366  18.368  1.00  0.00     0.247 HD
ENDBRANCH  21  32
ENDBRANCH   1   9
TORSDOF 12
ENDMDL
MODEL 9
REMARK VINA RESULT:      -6.5      2.579      5.959
REMARK SMILES C#CCOC(O)=C[C@H]1c2c(N=[N+]=[N-])ccc3c2[C@@H](C[C@@H]1C(=O)N=[N+]=[N-])C(=O)N(O)C3=O
REMARK SMILES IDX 7 1 5 2 4 3 3 4 2 5 1 6 6 7 8 9 9 10 20 11 10 12 17 13 19 14
REMARK SMILES IDX 14 15 16 16 18 17 15 18 30 19 26 20 28 21 31 22 27 23 21 24
REMARK SMILES IDX 22 25 23 26 24 27 25 28 11 29 12 30 13 31 29 32
REMARK H PARENT 6 8 29 33
ROOT
ATOM      1  C   UNL     1      42.727 133.201  15.778  1.00  0.00     0.070 C 
ENDROOT
BRANCH   1   2
ATOM      2  C   UNL     1      41.530 132.958  16.330  1.00  0.00     0.274 C 
BRANCH   2   3
ATOM      3  O   UNL     1      40.436 133.766  16.007  1.00  0.00    -0.453 OA
BRANCH   3   4
ATOM      4  C   UNL     1      39.242 133.793  16.773  1.00  0.00     0.322 C 
BRANCH   4   5
ATOM      5  C   UNL     1      38.155 134.296  15.932  1.00  0.00    -0.065 C 
ATOM      6  C   UNL     1      37.257 134.701  15.238  1.00  0.00     0.007 C 
ENDBRANCH   4   5
ENDBRANCH   3   4
ENDBRANCH   2   3
BRANCH   2   7
ATOM      7  O   UNL     1      41.368 131.892  17.219  1.00  0.00    -0.481 OA
ATOM      8  H   UNL     1      42.132 131.271  17.454  1.00  0.00     0.296 HD
ENDBRANCH   2   7
ENDBRANCH   1   2
BRANCH   1   9
ATOM      9  C   UNL     1      44.021 133.215  16.573  1.00  0.00     0.060 C 
ATOM     10  C   UNL     1      43.890 134.082  17.833  1.00  0.00    -0.026 A 
ATOM     11  C   UNL     1      44.490 131.752  16.821  1.00  0.00     0.076 C 
ATOM     12  C   UNL     1      43.518 135.445  17.699  1.00  0.00     0.042 A 
ATOM     13  C   UNL     1      44.183 133.564  19.126  1.00  0.00    -0.018 A 
ATOM     14  C   UNL     1      45.372 131.635  18.066  1.00  0.00     0.031 C 
ATOM     15  C   UNL     1      43.354 136.237  18.846  1.00  0.00     0.011 A 
ATOM     16  C   UNL     1      44.021 134.390  20.263  1.00  0.00     0.047 A 
ATOM     17  C   UNL     1      44.578 132.103  19.293  1.00  0.00     0.113 C 
ATOM     18  C   UNL     1      43.592 135.713  20.110  1.00  0.00     0.015 A 
ATOM     19  C   UNL     1      44.369 133.880  21.604  1.00  0.00     0.284 C 
ATOM     20  C   UNL     1      45.336 131.844  20.576  1.00  0.00     0.261 C 
ATOM     21  N   UNL     1      45.097 132.656  21.728  1.00  0.00    -0.151 N 
ATOM     22  O   UNL     1      44.063 134.532  22.640  1.00  0.00    -0.266 OA
ATOM     23  O   UNL     1      46.097 130.843  20.674  1.00  0.00    -0.271 OA
BRANCH  11  24
ATOM     24  C   UNL     1      45.201 131.204  15.610  1.00  0.00     0.222 C 
ATOM     25  O   UNL     1      44.959 130.032  15.209  1.00  0.00    -0.292 OA
BRANCH  24  26
ATOM     26  N   UNL     1      46.176 132.007  14.940  1.00  0.00    -0.022 NA
BRANCH  26  27
ATOM     27  N   UNL     1      46.977 131.513  14.147  1.00  0.00     0.008 N 
ATOM     28  N   UNL     1      47.777 131.019  13.354  1.00  0.00    -0.003 NA
ENDBRANCH  26  27
ENDBRANCH  24  26
ENDBRANCH  11  24
BRANCH  12  29
ATOM     29  N   UNL     1      43.316 136.004  16.391  1.00  0.00    -0.060 NA
BRANCH  29  30
ATOM     30  N   UNL     1      43.051 137.194  16.210  1.00  0.00     0.005 N 
ATOM     31  N   UNL     1      42.784 138.380  16.029  1.00  0.00    -0.003 NA
ENDBRANCH  29  30
ENDBRANCH  12  29
BRANCH  21  32
ATOM     32  O   UNL     1      45.558 132.264  22.942  1.00  0.00    -0.278 OA
ATOM     33  H   UNL     1      46.131 133.011  23.253  1.00  0.00     0.247 HD
ENDBRANCH  21  32
ENDBRANCH   1   9
TORSDOF 12
ENDMDL


