MODEL 1
REMARK VINA RESULT:      -8.1      0.000      0.000
REMARK SMILES C[C@H](Cl)[C@@H]1[C@H](C)N(C(=O)OCC(F)F)NN1c1ccc2c3c(ccc(N)c13)CC2
REMARK SMILES IDX 8 1 9 2 7 3 4 4 5 5 16 6 15 7 6 8 2 10 1 11 3 12 17 13 18 14
REMARK SMILES IDX 27 15 19 16 25 17 21 18 20 19 24 20 22 21 29 22 23 23 28 24
REMARK SMILES IDX 26 25 10 28 11 29 12 30 13 31 14 32
REMARK H PARENT 15 9 26 26 26 27
ROOT
ATOM      1  C   UNL     1      46.225 131.558  15.552  1.00  0.00     0.426 C 
ATOM      2  O   UNL     1      46.670 130.497  16.069  1.00  0.00    -0.223 OA
ENDROOT
BRANCH   1   3
ATOM      3  N   UNL     1      45.241 132.331  16.253  1.00  0.00    -0.220 N 
ATOM      4  C   UNL     1      43.243 132.888  17.388  1.00  0.00     0.144 C 
ATOM      5  C   UNL     1      44.284 131.757  17.196  1.00  0.00     0.131 C 
ATOM      6  N   UNL     1      43.691 133.901  16.428  1.00  0.00    -0.283 N 
ATOM      7  N   UNL     1      44.935 133.636  15.839  1.00  0.00    -0.139 NA
ATOM      8  C   UNL     1      45.001 131.245  18.456  1.00  0.00     0.035 C 
ATOM      9  H   UNL     1      45.637 134.274  16.280  1.00  0.00     0.175 HD
BRANCH   4  10
ATOM     10  C   UNL     1      43.096 133.476  18.826  1.00  0.00     0.104 C 
ATOM     11  C   UNL     1      41.732 134.138  19.048  1.00  0.00     0.027 C 
ATOM     12  Cl  UNL     1      44.389 134.652  19.223  1.00  0.00    -0.121 Cl
ENDBRANCH   4  10
BRANCH   6  13
ATOM     13  C   UNL     1      42.921 135.044  16.029  1.00  0.00     0.064 A 
ATOM     14  C   UNL     1      43.312 136.314  16.528  1.00  0.00     0.028 A 
ATOM     15  C   UNL     1      41.714 134.931  15.277  1.00  0.00     0.030 A 
ATOM     16  C   UNL     1      42.483 137.439  16.380  1.00  0.00     0.006 A 
ATOM     17  C   UNL     1      41.238 133.779  14.579  1.00  0.00     0.042 A 
ATOM     18  C   UNL     1      40.913 136.075  15.211  1.00  0.00    -0.008 A 
ATOM     19  C   UNL     1      41.261 137.282  15.733  1.00  0.00    -0.039 A 
ATOM     20  C   UNL     1      39.949 133.813  13.986  1.00  0.00     0.026 A 
ATOM     21  C   UNL     1      39.693 136.119  14.613  1.00  0.00    -0.039 A 
ATOM     22  C   UNL     1      40.189 138.294  15.483  1.00  0.00     0.041 C 
ATOM     23  C   UNL     1      39.168 134.982  14.006  1.00  0.00     0.006 A 
ATOM     24  C   UNL     1      39.101 137.489  14.722  1.00  0.00     0.041 C 
BRANCH  17  25
ATOM     25  N   UNL     1      42.063 132.634  14.338  1.00  0.00    -0.398 N 
ATOM     26  H   UNL     1      41.682 131.772  13.893  1.00  0.00     0.156 HD
ATOM     27  H   UNL     1      43.007 132.562  14.777  1.00  0.00     0.156 HD
ENDBRANCH  17  25
ENDBRANCH   6  13
ENDBRANCH   1   3
BRANCH   1  28
ATOM     28  O   UNL     1      46.699 131.987  14.309  1.00  0.00    -0.442 OA
BRANCH  28  29
ATOM     29  C   UNL     1      47.610 131.224  13.526  1.00  0.00     0.308 C 
BRANCH  29  30
ATOM     30  C   UNL     1      46.837 130.376  12.527  1.00  0.00     0.379 C 
ATOM     31  F   UNL     1      47.303 130.613  11.247  1.00  0.00    -0.207 F 
ATOM     32  F   UNL     1      45.492 130.693  12.587  1.00  0.00    -0.207 F 
ENDBRANCH  29  30
ENDBRANCH  28  29
ENDBRANCH   1  28
TORSDOF 7
ENDMDL
MODEL 2
REMARK VINA RESULT:      -7.5      1.091      1.224
REMARK SMILES C[C@H](Cl)[C@@H]1[C@H](C)N(C(=O)OCC(F)F)NN1c1ccc2c3c(ccc(N)c13)CC2
REMARK SMILES IDX 8 1 9 2 7 3 4 4 5 5 16 6 15 7 6 8 2 10 1 11 3 12 17 13 18 14
REMARK SMILES IDX 27 15 19 16 25 17 21 18 20 19 24 20 22 21 29 22 23 23 28 24
REMARK SMILES IDX 26 25 10 28 11 29 12 30 13 31 14 32
REMARK H PARENT 15 9 26 26 26 27
ROOT
ATOM      1  C   UNL     1      45.812 131.630  15.641  1.00  0.00     0.426 C 
ATOM      2  O   UNL     1      46.453 130.781  16.318  1.00  0.00    -0.223 OA
ENDROOT
BRANCH   1   3
ATOM      3  N   UNL     1      44.919 132.537  16.301  1.00  0.00    -0.220 N 
ATOM      4  C   UNL     1      42.979 133.370  17.366  1.00  0.00     0.144 C 
ATOM      5  C   UNL     1      43.866 132.108  17.220  1.00  0.00     0.131 C 
ATOM      6  N   UNL     1      43.587 134.301  16.411  1.00  0.00    -0.283 N 
ATOM      7  N   UNL     1      44.803 133.864  15.864  1.00  0.00    -0.139 NA
ATOM      8  C   UNL     1      44.471 131.525  18.507  1.00  0.00     0.035 C 
ATOM      9  H   UNL     1      45.569 134.411  16.321  1.00  0.00     0.175 HD
BRANCH   4  10
ATOM     10  C   UNL     1      42.869 133.994  18.793  1.00  0.00     0.104 C 
ATOM     11  C   UNL     1      44.237 134.382  19.366  1.00  0.00     0.027 C 
ATOM     12  Cl  UNL     1      42.034 132.913  19.953  1.00  0.00    -0.121 Cl
ENDBRANCH   4  10
BRANCH   6  13
ATOM     13  C   UNL     1      42.989 135.530  15.975  1.00  0.00     0.064 A 
ATOM     14  C   UNL     1      43.437 136.735  16.577  1.00  0.00     0.028 A 
ATOM     15  C   UNL     1      41.880 135.567  15.078  1.00  0.00     0.030 A 
ATOM     16  C   UNL     1      42.746 137.944  16.382  1.00  0.00     0.006 A 
ATOM     17  C   UNL     1      41.385 134.496  14.274  1.00  0.00     0.042 A 
ATOM     18  C   UNL     1      41.210 136.789  14.969  1.00  0.00    -0.008 A 
ATOM     19  C   UNL     1      41.606 137.936  15.585  1.00  0.00    -0.039 A 
ATOM     20  C   UNL     1      40.191 134.682  13.532  1.00  0.00     0.026 A 
ATOM     21  C   UNL     1      40.084 136.979  14.231  1.00  0.00    -0.039 A 
ATOM     22  C   UNL     1      40.677 139.060  15.255  1.00  0.00     0.041 C 
ATOM     23  C   UNL     1      39.531 135.924  13.511  1.00  0.00     0.006 A 
ATOM     24  C   UNL     1      39.619 138.398  14.331  1.00  0.00     0.041 C 
BRANCH  17  25
ATOM     25  N   UNL     1      42.118 133.281  14.082  1.00  0.00    -0.398 N 
ATOM     26  H   UNL     1      42.108 132.777  13.169  1.00  0.00     0.156 HD
ATOM     27  H   UNL     1      42.516 132.769  14.900  1.00  0.00     0.156 HD
ENDBRANCH  17  25
ENDBRANCH   6  13
ENDBRANCH   1   3
BRANCH   1  28
ATOM     28  O   UNL     1      45.981 131.698  14.254  1.00  0.00    -0.442 OA
BRANCH  28  29
ATOM     29  C   UNL     1      45.889 130.556  13.410  1.00  0.00     0.308 C 
BRANCH  29  30
ATOM     30  C   UNL     1      47.198 130.373  12.656  1.00  0.00     0.379 C 
ATOM     31  F   UNL     1      47.881 129.279  13.156  1.00  0.00    -0.207 F 
ATOM     32  F   UNL     1      47.982 131.503  12.800  1.00  0.00    -0.207 F 
ENDBRANCH  29  30
ENDBRANCH  28  29
ENDBRANCH   1  28
TORSDOF 7
ENDMDL
MODEL 3
REMARK VINA RESULT:      -7.4      1.431      1.607
REMARK SMILES C[C@H](Cl)[C@@H]1[C@H](C)N(C(=O)OCC(F)F)NN1c1ccc2c3c(ccc(N)c13)CC2
REMARK SMILES IDX 8 1 9 2 7 3 4 4 5 5 16 6 15 7 6 8 2 10 1 11 3 12 17 13 18 14
REMARK SMILES IDX 27 15 19 16 25 17 21 18 20 19 24 20 22 21 29 22 23 23 28 24
REMARK SMILES IDX 26 25 10 28 11 29 12 30 13 31 14 32
REMARK H PARENT 15 9 26 26 26 27
ROOT
ATOM      1  C   UNL     1      44.505 131.541  14.858  1.00  0.00     0.426 C 
ATOM      2  O   UNL     1      43.841 130.904  13.995  1.00  0.00    -0.223 OA
ENDROOT
BRANCH   1   3
ATOM      3  N   UNL     1      43.895 132.633  15.560  1.00  0.00    -0.220 N 
ATOM      4  C   UNL     1      42.341 133.852  16.860  1.00  0.00     0.144 C 
ATOM      5  C   UNL     1      43.000 132.459  16.703  1.00  0.00     0.131 C 
ATOM      6  N   UNL     1      42.864 134.586  15.704  1.00  0.00    -0.283 N 
ATOM      7  N   UNL     1      43.874 133.917  14.997  1.00  0.00    -0.139 NA
ATOM      8  C   UNL     1      43.767 131.907  17.916  1.00  0.00     0.035 C 
ATOM      9  H   UNL     1      44.784 134.376  15.235  1.00  0.00     0.175 HD
BRANCH   4  10
ATOM     10  C   UNL     1      42.606 134.612  18.197  1.00  0.00     0.104 C 
ATOM     11  C   UNL     1      41.481 135.594  18.541  1.00  0.00     0.027 C 
ATOM     12  Cl  UNL     1      44.168 135.490  18.192  1.00  0.00    -0.121 Cl
ENDBRANCH   4  10
BRANCH   6  13
ATOM     13  C   UNL     1      42.363 135.849  15.244  1.00  0.00     0.064 A 
ATOM     14  C   UNL     1      43.088 137.017  15.594  1.00  0.00     0.028 A 
ATOM     15  C   UNL     1      41.107 135.979  14.580  1.00  0.00     0.030 A 
ATOM     16  C   UNL     1      42.546 138.298  15.388  1.00  0.00     0.006 A 
ATOM     17  C   UNL     1      40.312 134.930  14.025  1.00  0.00     0.042 A 
ATOM     18  C   UNL     1      40.603 137.277  14.452  1.00  0.00    -0.008 A 
ATOM     19  C   UNL     1      41.273 138.398  14.834  1.00  0.00    -0.039 A 
ATOM     20  C   UNL     1      39.026 135.235  13.510  1.00  0.00     0.026 A 
ATOM     21  C   UNL     1      39.385 137.575  13.927  1.00  0.00    -0.039 A 
ATOM     22  C   UNL     1      40.460 139.621  14.553  1.00  0.00     0.041 C 
ATOM     23  C   UNL     1      38.553 136.559  13.464  1.00  0.00     0.006 A 
ATOM     24  C   UNL     1      39.151 139.053  13.939  1.00  0.00     0.041 C 
BRANCH  17  25
ATOM     25  N   UNL     1      40.814 133.601  13.847  1.00  0.00    -0.398 N 
ATOM     26  H   UNL     1      41.419 133.352  13.036  1.00  0.00     0.156 HD
ATOM     27  H   UNL     1      40.427 132.812  14.410  1.00  0.00     0.156 HD
ENDBRANCH  17  25
ENDBRANCH   6  13
ENDBRANCH   1   3
BRANCH   1  28
ATOM     28  O   UNL     1      45.825 131.175  15.142  1.00  0.00    -0.442 OA
BRANCH  28  29
ATOM     29  C   UNL     1      46.892 131.367  14.220  1.00  0.00     0.308 C 
BRANCH  29  30
ATOM     30  C   UNL     1      46.896 130.236  13.202  1.00  0.00     0.379 C 
ATOM     31  F   UNL     1      48.185 129.770  13.020  1.00  0.00    -0.207 F 
ATOM     32  F   UNL     1      46.403 130.694  11.994  1.00  0.00    -0.207 F 
ENDBRANCH  29  30
ENDBRANCH  28  29
ENDBRANCH   1  28
TORSDOF 7
ENDMDL
MODEL 4
REMARK VINA RESULT:      -7.3      0.924      1.123
REMARK SMILES C[C@H](Cl)[C@@H]1[C@H](C)N(C(=O)OCC(F)F)NN1c1ccc2c3c(ccc(N)c13)CC2
REMARK SMILES IDX 8 1 9 2 7 3 4 4 5 5 16 6 15 7 6 8 2 10 1 11 3 12 17 13 18 14
REMARK SMILES IDX 27 15 19 16 25 17 21 18 20 19 24 20 22 21 29 22 23 23 28 24
REMARK SMILES IDX 26 25 10 28 11 29 12 30 13 31 14 32
REMARK H PARENT 15 9 26 26 26 27
ROOT
ATOM      1  C   UNL     1      45.858 131.726  14.965  1.00  0.00     0.426 C 
ATOM      2  O   UNL     1      46.914 132.331  14.635  1.00  0.00    -0.223 OA
ENDROOT
BRANCH   1   3
ATOM      3  N   UNL     1      44.949 132.337  15.891  1.00  0.00    -0.220 N 
ATOM      4  C   UNL     1      43.104 132.615  17.344  1.00  0.00     0.144 C 
ATOM      5  C   UNL     1      44.154 131.583  16.858  1.00  0.00     0.131 C 
ATOM      6  N   UNL     1      43.377 133.774  16.490  1.00  0.00    -0.283 N 
ATOM      7  N   UNL     1      44.539 133.666  15.712  1.00  0.00    -0.139 NA
ATOM      8  C   UNL     1      45.056 130.947  17.928  1.00  0.00     0.035 C 
ATOM      9  H   UNL     1      45.268 134.278  16.146  1.00  0.00     0.175 HD
BRANCH   4  10
ATOM     10  C   UNL     1      43.133 132.990  18.859  1.00  0.00     0.104 C 
ATOM     11  C   UNL     1      41.767 133.467  19.366  1.00  0.00     0.027 C 
ATOM     12  Cl  UNL     1      44.364 134.237  19.235  1.00  0.00    -0.121 Cl
ENDBRANCH   4  10
BRANCH   6  13
ATOM     13  C   UNL     1      42.516 134.915  16.363  1.00  0.00     0.064 A 
ATOM     14  C   UNL     1      42.836 136.075  17.115  1.00  0.00     0.028 A 
ATOM     15  C   UNL     1      41.291 134.873  15.631  1.00  0.00     0.030 A 
ATOM     16  C   UNL     1      41.926 137.141  17.230  1.00  0.00     0.006 A 
ATOM     17  C   UNL     1      40.870 133.863  14.713  1.00  0.00     0.042 A 
ATOM     18  C   UNL     1      40.411 135.941  15.831  1.00  0.00    -0.008 A 
ATOM     19  C   UNL     1      40.695 137.032  16.591  1.00  0.00    -0.039 A 
ATOM     20  C   UNL     1      39.561 133.924  14.170  1.00  0.00     0.026 A 
ATOM     21  C   UNL     1      39.169 136.018  15.284  1.00  0.00    -0.039 A 
ATOM     22  C   UNL     1      39.546 137.990  16.589  1.00  0.00     0.041 C 
ATOM     23  C   UNL     1      38.701 135.000  14.458  1.00  0.00     0.006 A 
ATOM     24  C   UNL     1      38.488 137.285  15.697  1.00  0.00     0.041 C 
BRANCH  17  25
ATOM     25  N   UNL     1      41.762 132.861  14.214  1.00  0.00    -0.398 N 
ATOM     26  H   UNL     1      42.414 132.348  14.844  1.00  0.00     0.156 HD
ATOM     27  H   UNL     1      41.920 132.760  13.187  1.00  0.00     0.156 HD
ENDBRANCH  17  25
ENDBRANCH   6  13
ENDBRANCH   1   3
BRANCH   1  28
ATOM     28  O   UNL     1      45.565 130.472  14.420  1.00  0.00    -0.442 OA
BRANCH  28  29
ATOM     29  C   UNL     1      46.572 129.527  14.076  1.00  0.00     0.308 C 
BRANCH  29  30
ATOM     30  C   UNL     1      47.421 130.077  12.938  1.00  0.00     0.379 C 
ATOM     31  F   UNL     1      46.604 130.546  11.926  1.00  0.00    -0.207 F 
ATOM     32  F   UNL     1      48.236 129.077  12.439  1.00  0.00    -0.207 F 
ENDBRANCH  29  30
ENDBRANCH  28  29
ENDBRANCH   1  28
TORSDOF 7
ENDMDL
MODEL 5
REMARK VINA RESULT:      -7.2      2.360      4.551
REMARK SMILES C[C@H](Cl)[C@@H]1[C@H](C)N(C(=O)OCC(F)F)NN1c1ccc2c3c(ccc(N)c13)CC2
REMARK SMILES IDX 8 1 9 2 7 3 4 4 5 5 16 6 15 7 6 8 2 10 1 11 3 12 17 13 18 14
REMARK SMILES IDX 27 15 19 16 25 17 21 18 20 19 24 20 22 21 29 22 23 23 28 24
REMARK SMILES IDX 26 25 10 28 11 29 12 30 13 31 14 32
REMARK H PARENT 15 9 26 26 26 27
ROOT
ATOM      1  C   UNL     1      45.715 130.076  15.757  1.00  0.00     0.426 C 
ATOM      2  O   UNL     1      45.281 128.911  15.967  1.00  0.00    -0.223 OA
ENDROOT
BRANCH   1   3
ATOM      3  N   UNL     1      44.821 131.194  15.849  1.00  0.00    -0.220 N 
ATOM      4  C   UNL     1      43.683 133.186  15.277  1.00  0.00     0.144 C 
ATOM      5  C   UNL     1      44.257 131.874  14.685  1.00  0.00     0.131 C 
ATOM      6  N   UNL     1      44.114 133.121  16.676  1.00  0.00    -0.283 N 
ATOM      7  N   UNL     1      44.682 131.896  17.055  1.00  0.00    -0.139 NA
ATOM      8  C   UNL     1      43.275 130.955  13.940  1.00  0.00     0.035 C 
ATOM      9  H   UNL     1      43.975 131.384  17.633  1.00  0.00     0.175 HD
BRANCH   4  10
ATOM     10  C   UNL     1      42.142 133.402  15.154  1.00  0.00     0.104 C 
ATOM     11  C   UNL     1      41.792 134.740  14.494  1.00  0.00     0.027 C 
ATOM     12  Cl  UNL     1      41.304 133.292  16.734  1.00  0.00    -0.121 Cl
ENDBRANCH   4  10
BRANCH   6  13
ATOM     13  C   UNL     1      44.056 134.217  17.600  1.00  0.00     0.064 A 
ATOM     14  C   UNL     1      44.298 135.522  17.097  1.00  0.00     0.028 A 
ATOM     15  C   UNL     1      43.909 134.026  19.007  1.00  0.00     0.030 A 
ATOM     16  C   UNL     1      44.493 136.610  17.966  1.00  0.00     0.006 A 
ATOM     17  C   UNL     1      43.522 132.827  19.679  1.00  0.00     0.042 A 
ATOM     18  C   UNL     1      44.165 135.139  19.815  1.00  0.00    -0.008 A 
ATOM     19  C   UNL     1      44.448 136.381  19.337  1.00  0.00    -0.039 A 
ATOM     20  C   UNL     1      43.549 132.788  21.097  1.00  0.00     0.026 A 
ATOM     21  C   UNL     1      44.158 135.113  21.174  1.00  0.00    -0.039 A 
ATOM     22  C   UNL     1      44.661 137.343  20.462  1.00  0.00     0.041 C 
ATOM     23  C   UNL     1      43.873 133.931  21.852  1.00  0.00     0.006 A 
ATOM     24  C   UNL     1      44.473 136.466  21.730  1.00  0.00     0.041 C 
BRANCH  17  25
ATOM     25  N   UNL     1      42.979 131.700  18.983  1.00  0.00    -0.398 N 
ATOM     26  H   UNL     1      42.016 131.352  19.176  1.00  0.00     0.156 HD
ATOM     27  H   UNL     1      43.600 131.083  18.413  1.00  0.00     0.156 HD
ENDBRANCH  17  25
ENDBRANCH   6  13
ENDBRANCH   1   3
BRANCH   1  28
ATOM     28  O   UNL     1      47.064 130.280  15.452  1.00  0.00    -0.442 OA
BRANCH  28  29
ATOM     29  C   UNL     1      47.693 129.699  14.316  1.00  0.00     0.308 C 
BRANCH  29  30
ATOM     30  C   UNL     1      47.506 130.606  13.109  1.00  0.00     0.379 C 
ATOM     31  F   UNL     1      47.534 131.931  13.506  1.00  0.00    -0.207 F 
ATOM     32  F   UNL     1      46.290 130.337  12.507  1.00  0.00    -0.207 F 
ENDBRANCH  29  30
ENDBRANCH  28  29
ENDBRANCH   1  28
TORSDOF 7
ENDMDL
MODEL 6
REMARK VINA RESULT:      -7.1      1.637      2.711
REMARK SMILES C[C@H](Cl)[C@@H]1[C@H](C)N(C(=O)OCC(F)F)NN1c1ccc2c3c(ccc(N)c13)CC2
REMARK SMILES IDX 8 1 9 2 7 3 4 4 5 5 16 6 15 7 6 8 2 10 1 11 3 12 17 13 18 14
REMARK SMILES IDX 27 15 19 16 25 17 21 18 20 19 24 20 22 21 29 22 23 23 28 24
REMARK SMILES IDX 26 25 10 28 11 29 12 30 13 31 14 32
REMARK H PARENT 15 9 26 26 26 27
ROOT
ATOM      1  C   UNL     1      44.569 131.525  14.584  1.00  0.00     0.426 C 
ATOM      2  O   UNL     1      44.088 130.579  13.902  1.00  0.00    -0.223 OA
ENDROOT
BRANCH   1   3
ATOM      3  N   UNL     1      43.709 132.298  15.432  1.00  0.00    -0.220 N 
ATOM      4  C   UNL     1      42.052 132.825  17.034  1.00  0.00     0.144 C 
ATOM      5  C   UNL     1      43.171 131.807  16.699  1.00  0.00     0.131 C 
ATOM      6  N   UNL     1      42.032 133.681  15.845  1.00  0.00    -0.283 N 
ATOM      7  N   UNL     1      43.084 133.455  14.945  1.00  0.00    -0.139 NA
ATOM      8  C   UNL     1      44.292 131.633  17.737  1.00  0.00     0.035 C 
ATOM      9  H   UNL     1      43.764 134.243  15.049  1.00  0.00     0.175 HD
BRANCH   4  10
ATOM     10  C   UNL     1      42.223 133.656  18.344  1.00  0.00     0.104 C 
ATOM     11  C   UNL     1      42.166 132.781  19.601  1.00  0.00     0.027 C 
ATOM     12  Cl  UNL     1      41.010 134.968  18.489  1.00  0.00    -0.121 Cl
ENDBRANCH   4  10
BRANCH   6  13
ATOM     13  C   UNL     1      41.000 134.630  15.538  1.00  0.00     0.064 A 
ATOM     14  C   UNL     1      39.679 134.140  15.365  1.00  0.00     0.028 A 
ATOM     15  C   UNL     1      41.277 136.003  15.266  1.00  0.00     0.030 A 
ATOM     16  C   UNL     1      38.665 134.957  14.836  1.00  0.00     0.006 A 
ATOM     17  C   UNL     1      42.496 136.703  15.519  1.00  0.00     0.042 A 
ATOM     18  C   UNL     1      40.239 136.745  14.696  1.00  0.00    -0.008 A 
ATOM     19  C   UNL     1      38.984 136.264  14.480  1.00  0.00    -0.039 A 
ATOM     20  C   UNL     1      42.633 138.041  15.066  1.00  0.00     0.026 A 
ATOM     21  C   UNL     1      40.356 138.038  14.293  1.00  0.00    -0.039 A 
ATOM     22  C   UNL     1      38.114 137.314  13.866  1.00  0.00     0.041 C 
ATOM     23  C   UNL     1      41.564 138.713  14.445  1.00  0.00     0.006 A 
ATOM     24  C   UNL     1      39.064 138.535  13.725  1.00  0.00     0.041 C 
BRANCH  17  25
ATOM     25  N   UNL     1      43.541 136.154  16.328  1.00  0.00    -0.398 N 
ATOM     26  H   UNL     1      43.566 136.301  17.359  1.00  0.00     0.156 HD
ATOM     27  H   UNL     1      44.402 135.764  15.884  1.00  0.00     0.156 HD
ENDBRANCH  17  25
ENDBRANCH   6  13
ENDBRANCH   1   3
BRANCH   1  28
ATOM     28  O   UNL     1      45.937 131.810  14.526  1.00  0.00    -0.442 OA
BRANCH  28  29
ATOM     29  C   UNL     1      46.939 130.831  14.777  1.00  0.00     0.308 C 
BRANCH  29  30
ATOM     30  C   UNL     1      47.659 130.494  13.480  1.00  0.00     0.379 C 
ATOM     31  F   UNL     1      48.739 129.669  13.740  1.00  0.00    -0.207 F 
ATOM     32  F   UNL     1      48.109 131.656  12.880  1.00  0.00    -0.207 F 
ENDBRANCH  29  30
ENDBRANCH  28  29
ENDBRANCH   1  28
TORSDOF 7
ENDMDL
MODEL 7
REMARK VINA RESULT:      -7.1      1.451      2.379
REMARK SMILES C[C@H](Cl)[C@@H]1[C@H](C)N(C(=O)OCC(F)F)NN1c1ccc2c3c(ccc(N)c13)CC2
REMARK SMILES IDX 8 1 9 2 7 3 4 4 5 5 16 6 15 7 6 8 2 10 1 11 3 12 17 13 18 14
REMARK SMILES IDX 27 15 19 16 25 17 21 18 20 19 24 20 22 21 29 22 23 23 28 24
REMARK SMILES IDX 26 25 10 28 11 29 12 30 13 31 14 32
REMARK H PARENT 15 9 26 26 26 27
ROOT
ATOM      1  C   UNL     1      44.733 131.463  14.507  1.00  0.00     0.426 C 
ATOM      2  O   UNL     1      44.146 130.635  13.758  1.00  0.00    -0.223 OA
ENDROOT
BRANCH   1   3
ATOM      3  N   UNL     1      44.006 132.102  15.566  1.00  0.00    -0.220 N 
ATOM      4  C   UNL     1      42.634 132.379  17.472  1.00  0.00     0.144 C 
ATOM      5  C   UNL     1      43.714 131.461  16.846  1.00  0.00     0.131 C 
ATOM      6  N   UNL     1      42.376 133.345  16.400  1.00  0.00    -0.283 N 
ATOM      7  N   UNL     1      43.263 133.265  15.317  1.00  0.00    -0.139 NA
ATOM      8  C   UNL     1      45.004 131.247  17.655  1.00  0.00     0.035 C 
ATOM      9  H   UNL     1      43.922 134.076  15.387  1.00  0.00     0.175 HD
BRANCH   4  10
ATOM     10  C   UNL     1      43.000 133.086  18.814  1.00  0.00     0.104 C 
ATOM     11  C   UNL     1      41.759 133.447  19.639  1.00  0.00     0.027 C 
ATOM     12  Cl  UNL     1      43.988 134.561  18.568  1.00  0.00    -0.121 Cl
ENDBRANCH   4  10
BRANCH   6  13
ATOM     13  C   UNL     1      41.273 134.262  16.375  1.00  0.00     0.064 A 
ATOM     14  C   UNL     1      39.990 133.764  16.724  1.00  0.00     0.028 A 
ATOM     15  C   UNL     1      41.395 135.595  15.882  1.00  0.00     0.030 A 
ATOM     16  C   UNL     1      38.830 134.527  16.499  1.00  0.00     0.006 A 
ATOM     17  C   UNL     1      42.603 136.310  15.620  1.00  0.00     0.042 A 
ATOM     18  C   UNL     1      40.200 136.278  15.635  1.00  0.00    -0.008 A 
ATOM     19  C   UNL     1      38.965 135.785  15.921  1.00  0.00    -0.039 A 
ATOM     20  C   UNL     1      42.532 137.590  15.012  1.00  0.00     0.026 A 
ATOM     21  C   UNL     1      40.130 137.519  15.084  1.00  0.00    -0.039 A 
ATOM     22  C   UNL     1      37.903 136.768  15.542  1.00  0.00     0.041 C 
ATOM     23  C   UNL     1      41.293 138.198  14.735  1.00  0.00     0.006 A 
ATOM     24  C   UNL     1      38.706 137.959  14.953  1.00  0.00     0.041 C 
BRANCH  17  25
ATOM     25  N   UNL     1      43.881 135.845  16.068  1.00  0.00    -0.398 N 
ATOM     26  H   UNL     1      43.987 135.320  16.961  1.00  0.00     0.156 HD
ATOM     27  H   UNL     1      44.755 136.189  15.613  1.00  0.00     0.156 HD
ENDBRANCH  17  25
ENDBRANCH   6  13
ENDBRANCH   1   3
BRANCH   1  28
ATOM     28  O   UNL     1      46.088 131.747  14.317  1.00  0.00    -0.442 OA
BRANCH  28  29
ATOM     29  C   UNL     1      47.101 130.748  14.378  1.00  0.00     0.308 C 
BRANCH  29  30
ATOM     30  C   UNL     1      47.707 130.552  12.996  1.00  0.00     0.379 C 
ATOM     31  F   UNL     1      46.771 130.854  12.023  1.00  0.00    -0.207 F 
ATOM     32  F   UNL     1      48.111 129.239  12.846  1.00  0.00    -0.207 F 
ENDBRANCH  29  30
ENDBRANCH  28  29
ENDBRANCH   1  28
TORSDOF 7
ENDMDL
MODEL 8
REMARK VINA RESULT:      -7.0      1.291      1.447
REMARK SMILES C[C@H](Cl)[C@@H]1[C@H](C)N(C(=O)OCC(F)F)NN1c1ccc2c3c(ccc(N)c13)CC2
REMARK SMILES IDX 8 1 9 2 7 3 4 4 5 5 16 6 15 7 6 8 2 10 1 11 3 12 17 13 18 14
REMARK SMILES IDX 27 15 19 16 25 17 21 18 20 19 24 20 22 21 29 22 23 23 28 24
REMARK SMILES IDX 26 25 10 28 11 29 12 30 13 31 14 32
REMARK H PARENT 15 9 26 26 26 27
ROOT
ATOM      1  C   UNL     1      45.812 131.736  14.964  1.00  0.00     0.426 C 
ATOM      2  O   UNL     1      46.845 132.360  14.596  1.00  0.00    -0.223 OA
ENDROOT
BRANCH   1   3
ATOM      3  N   UNL     1      44.909 132.345  15.897  1.00  0.00    -0.220 N 
ATOM      4  C   UNL     1      43.081 132.614  17.373  1.00  0.00     0.144 C 
ATOM      5  C   UNL     1      44.135 131.591  16.881  1.00  0.00     0.131 C 
ATOM      6  N   UNL     1      43.329 133.770  16.505  1.00  0.00    -0.283 N 
ATOM      7  N   UNL     1      44.482 133.667  15.713  1.00  0.00    -0.139 NA
ATOM      8  C   UNL     1      45.059 130.973  17.944  1.00  0.00     0.035 C 
ATOM      9  H   UNL     1      45.210 134.291  16.131  1.00  0.00     0.175 HD
BRANCH   4  10
ATOM     10  C   UNL     1      43.126 133.003  18.883  1.00  0.00     0.104 C 
ATOM     11  C   UNL     1      44.488 133.569  19.299  1.00  0.00     0.027 C 
ATOM     12  Cl  UNL     1      42.709 131.632  19.959  1.00  0.00    -0.121 Cl
ENDBRANCH   4  10
BRANCH   6  13
ATOM     13  C   UNL     1      42.454 134.899  16.380  1.00  0.00     0.064 A 
ATOM     14  C   UNL     1      42.736 136.047  17.164  1.00  0.00     0.028 A 
ATOM     15  C   UNL     1      41.250 134.854  15.615  1.00  0.00     0.030 A 
ATOM     16  C   UNL     1      41.806 137.096  17.279  1.00  0.00     0.006 A 
ATOM     17  C   UNL     1      40.869 133.859  14.664  1.00  0.00     0.042 A 
ATOM     18  C   UNL     1      40.348 135.904  15.814  1.00  0.00    -0.008 A 
ATOM     19  C   UNL     1      40.593 136.983  16.605  1.00  0.00    -0.039 A 
ATOM     20  C   UNL     1      39.573 133.912  14.087  1.00  0.00     0.026 A 
ATOM     21  C   UNL     1      39.119 135.975  15.236  1.00  0.00    -0.039 A 
ATOM     22  C   UNL     1      39.430 137.923  16.593  1.00  0.00     0.041 C 
ATOM     23  C   UNL     1      38.690 134.968  14.376  1.00  0.00     0.006 A 
ATOM     24  C   UNL     1      38.407 137.222  15.658  1.00  0.00     0.041 C 
BRANCH  17  25
ATOM     25  N   UNL     1      41.790 132.882  14.167  1.00  0.00    -0.398 N 
ATOM     26  H   UNL     1      42.058 132.849  13.161  1.00  0.00     0.156 HD
ATOM     27  H   UNL     1      42.060 132.064  14.757  1.00  0.00     0.156 HD
ENDBRANCH  17  25
ENDBRANCH   6  13
ENDBRANCH   1   3
BRANCH   1  28
ATOM     28  O   UNL     1      45.540 130.463  14.453  1.00  0.00    -0.442 OA
BRANCH  28  29
ATOM     29  C   UNL     1      46.443 129.371  14.584  1.00  0.00     0.308 C 
BRANCH  29  30
ATOM     30  C   UNL     1      47.404 129.360  13.404  1.00  0.00     0.379 C 
ATOM     31  F   UNL     1      48.623 129.891  13.785  1.00  0.00    -0.207 F 
ATOM     32  F   UNL     1      46.882 130.114  12.370  1.00  0.00    -0.207 F 
ENDBRANCH  29  30
ENDBRANCH  28  29
ENDBRANCH   1  28
TORSDOF 7
ENDMDL
MODEL 9
REMARK VINA RESULT:      -7.0      3.901      6.909
REMARK SMILES C[C@H](Cl)[C@@H]1[C@H](C)N(C(=O)OCC(F)F)NN1c1ccc2c3c(ccc(N)c13)CC2
REMARK SMILES IDX 8 1 9 2 7 3 4 4 5 5 16 6 15 7 6 8 2 10 1 11 3 12 17 13 18 14
REMARK SMILES IDX 27 15 19 16 25 17 21 18 20 19 24 20 22 21 29 22 23 23 28 24
REMARK SMILES IDX 26 25 10 28 11 29 12 30 13 31 14 32
REMARK H PARENT 15 9 26 26 26 27
ROOT
ATOM      1  C   UNL     1      38.209 134.745  15.529  1.00  0.00     0.426 C 
ATOM      2  O   UNL     1      37.254 135.314  16.125  1.00  0.00    -0.223 OA
ENDROOT
BRANCH   1   3
ATOM      3  N   UNL     1      39.536 134.837  16.063  1.00  0.00    -0.220 N 
ATOM      4  C   UNL     1      41.846 135.319  16.214  1.00  0.00     0.144 C 
ATOM      5  C   UNL     1      40.504 135.851  15.651  1.00  0.00     0.131 C 
ATOM      6  N   UNL     1      41.468 134.013  16.761  1.00  0.00    -0.283 N 
ATOM      7  N   UNL     1      40.087 133.768  16.785  1.00  0.00    -0.139 NA
ATOM      8  C   UNL     1      40.058 137.249  16.110  1.00  0.00     0.035 C 
ATOM      9  H   UNL     1      39.766 133.865  17.777  1.00  0.00     0.175 HD
BRANCH   4  10
ATOM     10  C   UNL     1      42.567 136.206  17.277  1.00  0.00     0.104 C 
ATOM     11  C   UNL     1      44.069 135.914  17.356  1.00  0.00     0.027 C 
ATOM     12  Cl  UNL     1      41.852 136.038  18.912  1.00  0.00    -0.121 Cl
ENDBRANCH   4  10
BRANCH   6  13
ATOM     13  C   UNL     1      42.397 133.001  17.174  1.00  0.00     0.064 A 
ATOM     14  C   UNL     1      42.643 132.854  18.564  1.00  0.00     0.028 A 
ATOM     15  C   UNL     1      43.174 132.247  16.244  1.00  0.00     0.030 A 
ATOM     16  C   UNL     1      43.703 132.058  19.034  1.00  0.00     0.006 A 
ATOM     17  C   UNL     1      42.976 132.153  14.833  1.00  0.00     0.042 A 
ATOM     18  C   UNL     1      44.241 131.517  16.774  1.00  0.00    -0.008 A 
ATOM     19  C   UNL     1      44.512 131.415  18.103  1.00  0.00    -0.039 A 
ATOM     20  C   UNL     1      43.926 131.452  14.046  1.00  0.00     0.026 A 
ATOM     21  C   UNL     1      45.134 130.816  16.025  1.00  0.00    -0.039 A 
ATOM     22  C   UNL     1      45.715 130.555  18.333  1.00  0.00     0.041 C 
ATOM     23  C   UNL     1      45.014 130.785  14.638  1.00  0.00     0.006 A 
ATOM     24  C   UNL     1      46.151 130.152  16.898  1.00  0.00     0.041 C 
BRANCH  17  25
ATOM     25  N   UNL     1      41.785 132.624  14.193  1.00  0.00    -0.398 N 
ATOM     26  H   UNL     1      41.500 132.280  13.251  1.00  0.00     0.156 HD
ATOM     27  H   UNL     1      41.283 133.461  14.563  1.00  0.00     0.156 HD
ENDBRANCH  17  25
ENDBRANCH   6  13
ENDBRANCH   1   3
BRANCH   1  28
ATOM     28  O   UNL     1      37.972 134.015  14.360  1.00  0.00    -0.442 OA
BRANCH  28  29
ATOM     29  C   UNL     1      37.466 134.608  13.170  1.00  0.00     0.308 C 
BRANCH  29  30
ATOM     30  C   UNL     1      38.500 135.568  12.599  1.00  0.00     0.379 C 
ATOM     31  F   UNL     1      38.214 136.860  12.998  1.00  0.00    -0.207 F 
ATOM     32  F   UNL     1      38.483 135.504  11.218  1.00  0.00    -0.207 F 
ENDBRANCH  29  30
ENDBRANCH  28  29
ENDBRANCH   1  28
TORSDOF 7
ENDMDL


