MODEL 1
REMARK VINA RESULT:      -7.4      0.000      0.000
REMARK SMILES C#CCO[C@]1(O)O[C@H]1[C@H]1CC[C@@H]2C(=O)N(O)C(=O)c3ccc(N=[N+]=[N-])c1c32
REMARK SMILES IDX 5 1 7 2 8 3 4 4 3 5 2 6 1 7 6 8 9 10 26 11 10 12 22 13 27 14
REMARK SMILES IDX 11 15 21 16 19 17 12 18 20 19 17 20 13 21 15 22 18 23 14 24
REMARK SMILES IDX 23 25 24 26 25 27 16 28
REMARK H PARENT 6 9 16 29
ROOT
ATOM      1  C   UNL     1      45.996 129.889  15.791  1.00  0.00     0.310 C 
ATOM      2  O   UNL     1      44.966 129.637  16.720  1.00  0.00    -0.313 OA
ATOM      3  C   UNL     1      44.796 130.758  15.877  1.00  0.00     0.222 C 
ENDROOT
BRANCH   1   4
ATOM      4  O   UNL     1      46.050 128.896  14.791  1.00  0.00    -0.312 OA
BRANCH   4   5
ATOM      5  C   UNL     1      47.290 128.978  14.117  1.00  0.00     0.255 C 
BRANCH   5   6
ATOM      6  C   UNL     1      47.232 129.966  13.030  1.00  0.00    -0.078 C 
ATOM      7  C   UNL     1      47.194 130.776  12.139  1.00  0.00     0.006 C 
ENDBRANCH   5   6
ENDBRANCH   4   5
ENDBRANCH   1   4
BRANCH   1   8
ATOM      8  O   UNL     1      47.188 130.247  16.435  1.00  0.00    -0.341 OA
ATOM      9  H   UNL     1      47.317 131.211  16.243  1.00  0.00     0.216 HD
ENDBRANCH   1   8
BRANCH   3  10
ATOM     10  C   UNL     1      44.939 132.091  16.634  1.00  0.00     0.058 C 
ATOM     11  C   UNL     1      43.757 132.244  17.579  1.00  0.00    -0.028 A 
ATOM     12  C   UNL     1      45.074 133.276  15.635  1.00  0.00     0.012 C 
ATOM     13  C   UNL     1      43.822 131.753  18.903  1.00  0.00     0.041 A 
ATOM     14  C   UNL     1      42.551 132.801  17.092  1.00  0.00    -0.019 A 
ATOM     15  C   UNL     1      43.776 134.062  15.348  1.00  0.00     0.019 C 
ATOM     16  C   UNL     1      42.694 131.858  19.732  1.00  0.00     0.011 A 
ATOM     17  C   UNL     1      41.432 132.904  17.942  1.00  0.00     0.047 A 
ATOM     18  C   UNL     1      42.506 133.249  15.641  1.00  0.00     0.112 C 
ATOM     19  C   UNL     1      41.516 132.430  19.260  1.00  0.00     0.015 A 
ATOM     20  C   UNL     1      40.189 133.533  17.457  1.00  0.00     0.284 C 
ATOM     21  C   UNL     1      41.271 134.040  15.275  1.00  0.00     0.261 C 
ATOM     22  N   UNL     1      40.148 134.128  16.159  1.00  0.00    -0.151 N 
ATOM     23  O   UNL     1      39.162 133.565  18.188  1.00  0.00    -0.266 OA
ATOM     24  O   UNL     1      41.199 134.576  14.135  1.00  0.00    -0.271 OA
BRANCH  13  25
ATOM     25  N   UNL     1      45.032 131.141  19.379  1.00  0.00    -0.060 NA
BRANCH  25  26
ATOM     26  N   UNL     1      45.322 131.090  20.576  1.00  0.00     0.005 N 
ATOM     27  N   UNL     1      45.615 131.037  21.769  1.00  0.00    -0.003 NA
ENDBRANCH  25  26
ENDBRANCH  13  25
BRANCH  22  28
ATOM     28  O   UNL     1      39.020 134.758  15.747  1.00  0.00    -0.278 OA
ATOM     29  H   UNL     1      38.663 135.201  16.561  1.00  0.00     0.247 HD
ENDBRANCH  22  28
ENDBRANCH   3  10
TORSDOF 8
ENDMDL
MODEL 2
REMARK VINA RESULT:      -7.2      3.089      6.209
REMARK SMILES C#CCO[C@]1(O)O[C@H]1[C@H]1CC[C@@H]2C(=O)N(O)C(=O)c3ccc(N=[N+]=[N-])c1c32
REMARK SMILES IDX 5 1 7 2 8 3 4 4 3 5 2 6 1 7 6 8 9 10 26 11 10 12 22 13 27 14
REMARK SMILES IDX 11 15 21 16 19 17 12 18 20 19 17 20 13 21 15 22 18 23 14 24
REMARK SMILES IDX 23 25 24 26 25 27 16 28
REMARK H PARENT 6 9 16 29
ROOT
ATOM      1  C   UNL     1      41.174 133.363  14.082  1.00  0.00     0.310 C 
ATOM      2  O   UNL     1      41.727 132.072  13.958  1.00  0.00    -0.313 OA
ATOM      3  C   UNL     1      42.055 132.790  15.129  1.00  0.00     0.222 C 
ENDROOT
BRANCH   1   4
ATOM      4  O   UNL     1      39.776 133.314  14.263  1.00  0.00    -0.312 OA
BRANCH   4   5
ATOM      5  C   UNL     1      39.214 134.560  13.902  1.00  0.00     0.255 C 
BRANCH   5   6
ATOM      6  C   UNL     1      39.021 135.412  15.084  1.00  0.00    -0.078 C 
ATOM      7  C   UNL     1      38.866 136.118  16.047  1.00  0.00     0.006 C 
ENDBRANCH   5   6
ENDBRANCH   4   5
ENDBRANCH   1   4
BRANCH   1   8
ATOM      8  O   UNL     1      41.686 134.234  13.111  1.00  0.00    -0.341 OA
ATOM      9  H   UNL     1      41.169 135.075  13.208  1.00  0.00     0.216 HD
ENDBRANCH   1   8
BRANCH   3  10
ATOM     10  C   UNL     1      43.525 133.249  15.147  1.00  0.00     0.058 C 
ATOM     11  C   UNL     1      44.332 132.266  15.981  1.00  0.00    -0.028 A 
ATOM     12  C   UNL     1      43.635 134.713  15.661  1.00  0.00     0.012 C 
ATOM     13  C   UNL     1      44.935 131.136  15.384  1.00  0.00     0.041 A 
ATOM     14  C   UNL     1      44.397 132.441  17.384  1.00  0.00    -0.019 A 
ATOM     15  C   UNL     1      44.005 134.875  17.152  1.00  0.00     0.019 C 
ATOM     16  C   UNL     1      45.625 130.217  16.189  1.00  0.00     0.011 A 
ATOM     17  C   UNL     1      45.100 131.511  18.175  1.00  0.00     0.047 A 
ATOM     18  C   UNL     1      43.673 133.631  17.989  1.00  0.00     0.112 C 
ATOM     19  C   UNL     1      45.710 130.404  17.567  1.00  0.00     0.015 A 
ATOM     20  C   UNL     1      45.218 131.716  19.631  1.00  0.00     0.284 C 
ATOM     21  C   UNL     1      43.989 133.871  19.448  1.00  0.00     0.261 C 
ATOM     22  N   UNL     1      44.706 132.908  20.228  1.00  0.00    -0.151 N 
ATOM     23  O   UNL     1      45.785 130.853  20.354  1.00  0.00    -0.266 OA
ATOM     24  O   UNL     1      43.549 134.912  20.009  1.00  0.00    -0.271 OA
BRANCH  13  25
ATOM     25  N   UNL     1      44.823 130.933  13.965  1.00  0.00    -0.060 NA
BRANCH  25  26
ATOM     26  N   UNL     1      45.798 130.692  13.251  1.00  0.00     0.005 N 
ATOM     27  N   UNL     1      46.770 130.449  12.537  1.00  0.00    -0.003 NA
ENDBRANCH  25  26
ENDBRANCH  13  25
BRANCH  22  28
ATOM     28  O   UNL     1      44.875 133.116  21.558  1.00  0.00    -0.278 OA
ATOM     29  H   UNL     1      45.758 133.561  21.637  1.00  0.00     0.247 HD
ENDBRANCH  22  28
ENDBRANCH   3  10
TORSDOF 8
ENDMDL
MODEL 3
REMARK VINA RESULT:      -7.1      3.272      4.973
REMARK SMILES C#CCO[C@]1(O)O[C@H]1[C@H]1CC[C@@H]2C(=O)N(O)C(=O)c3ccc(N=[N+]=[N-])c1c32
REMARK SMILES IDX 5 1 7 2 8 3 4 4 3 5 2 6 1 7 6 8 9 10 26 11 10 12 22 13 27 14
REMARK SMILES IDX 11 15 21 16 19 17 12 18 20 19 17 20 13 21 15 22 18 23 14 24
REMARK SMILES IDX 23 25 24 26 25 27 16 28
REMARK H PARENT 6 9 16 29
ROOT
ATOM      1  C   UNL     1      45.601 131.136  15.502  1.00  0.00     0.310 C 
ATOM      2  O   UNL     1      45.688 132.523  15.265  1.00  0.00    -0.313 OA
ATOM      3  C   UNL     1      45.360 132.126  16.581  1.00  0.00     0.222 C 
ENDROOT
BRANCH   1   4
ATOM      4  O   UNL     1      46.863 130.513  15.416  1.00  0.00    -0.312 OA
BRANCH   4   5
ATOM      5  C   UNL     1      46.830 129.529  14.401  1.00  0.00     0.255 C 
BRANCH   5   6
ATOM      6  C   UNL     1      47.100 130.124  13.084  1.00  0.00    -0.078 C 
ATOM      7  C   UNL     1      47.319 130.620  12.008  1.00  0.00     0.006 C 
ENDBRANCH   5   6
ENDBRANCH   4   5
ENDBRANCH   1   4
BRANCH   1   8
ATOM      8  O   UNL     1      44.530 130.564  14.801  1.00  0.00    -0.341 OA
ATOM      9  H   UNL     1      43.868 131.293  14.686  1.00  0.00     0.216 HD
ENDBRANCH   1   8
BRANCH   3  10
ATOM     10  C   UNL     1      43.896 132.438  16.943  1.00  0.00     0.058 C 
ATOM     11  C   UNL     1      43.725 133.947  17.023  1.00  0.00    -0.028 A 
ATOM     12  C   UNL     1      43.490 131.711  18.257  1.00  0.00     0.012 C 
ATOM     13  C   UNL     1      43.358 134.694  15.881  1.00  0.00     0.041 A 
ATOM     14  C   UNL     1      44.029 134.613  18.234  1.00  0.00    -0.019 A 
ATOM     15  C   UNL     1      43.549 132.566  19.542  1.00  0.00     0.019 C 
ATOM     16  C   UNL     1      43.264 136.092  15.973  1.00  0.00     0.011 A 
ATOM     17  C   UNL     1      43.922 136.016  18.308  1.00  0.00     0.047 A 
ATOM     18  C   UNL     1      44.489 133.774  19.414  1.00  0.00     0.112 C 
ATOM     19  C   UNL     1      43.538 136.744  17.173  1.00  0.00     0.015 A 
ATOM     20  C   UNL     1      44.185 136.712  19.582  1.00  0.00     0.284 C 
ATOM     21  C   UNL     1      44.563 134.532  20.720  1.00  0.00     0.261 C 
ATOM     22  N   UNL     1      44.450 135.959  20.767  1.00  0.00    -0.151 N 
ATOM     23  O   UNL     1      44.160 137.972  19.639  1.00  0.00    -0.266 OA
ATOM     24  O   UNL     1      44.800 133.899  21.786  1.00  0.00    -0.271 OA
BRANCH  13  25
ATOM     25  N   UNL     1      43.100 134.020  14.638  1.00  0.00    -0.060 NA
BRANCH  25  26
ATOM     26  N   UNL     1      41.990 133.572  14.345  1.00  0.00     0.005 N 
ATOM     27  N   UNL     1      40.882 133.128  14.050  1.00  0.00    -0.003 NA
ENDBRANCH  25  26
ENDBRANCH  13  25
BRANCH  22  28
ATOM     28  O   UNL     1      44.629 136.606  21.945  1.00  0.00    -0.278 OA
ATOM     29  H   UNL     1      45.222 136.013  22.476  1.00  0.00     0.247 HD
ENDBRANCH  22  28
ENDBRANCH   3  10
TORSDOF 8
ENDMDL
MODEL 4
REMARK VINA RESULT:      -7.0      3.157      5.180
REMARK SMILES C#CCO[C@]1(O)O[C@H]1[C@H]1CC[C@@H]2C(=O)N(O)C(=O)c3ccc(N=[N+]=[N-])c1c32
REMARK SMILES IDX 5 1 7 2 8 3 4 4 3 5 2 6 1 7 6 8 9 10 26 11 10 12 22 13 27 14
REMARK SMILES IDX 11 15 21 16 19 17 12 18 20 19 17 20 13 21 15 22 18 23 14 24
REMARK SMILES IDX 23 25 24 26 25 27 16 28
REMARK H PARENT 6 9 16 29
ROOT
ATOM      1  C   UNL     1      44.133 131.055  14.562  1.00  0.00     0.310 C 
ATOM      2  O   UNL     1      44.764 132.273  14.887  1.00  0.00    -0.313 OA
ATOM      3  C   UNL     1      44.109 131.600  15.942  1.00  0.00     0.222 C 
ENDROOT
BRANCH   1   4
ATOM      4  O   UNL     1      45.072 130.052  14.240  1.00  0.00    -0.312 OA
BRANCH   4   5
ATOM      5  C   UNL     1      45.884 130.498  13.172  1.00  0.00     0.255 C 
BRANCH   5   6
ATOM      6  C   UNL     1      47.244 129.953  13.282  1.00  0.00    -0.078 C 
ATOM      7  C   UNL     1      48.361 129.508  13.363  1.00  0.00     0.006 C 
ENDBRANCH   5   6
ENDBRANCH   4   5
ENDBRANCH   1   4
BRANCH   1   8
ATOM      8  O   UNL     1      43.053 131.254  13.692  1.00  0.00    -0.341 OA
ATOM      9  H   UNL     1      43.132 132.192  13.380  1.00  0.00     0.216 HD
ENDBRANCH   1   8
BRANCH   3  10
ATOM     10  C   UNL     1      42.826 132.322  16.396  1.00  0.00     0.058 C 
ATOM     11  C   UNL     1      43.108 133.815  16.469  1.00  0.00    -0.028 A 
ATOM     12  C   UNL     1      42.314 131.735  17.742  1.00  0.00     0.012 C 
ATOM     13  C   UNL     1      42.901 134.646  15.345  1.00  0.00     0.041 A 
ATOM     14  C   UNL     1      43.673 134.353  17.650  1.00  0.00    -0.019 A 
ATOM     15  C   UNL     1      42.705 132.524  19.011  1.00  0.00     0.019 C 
ATOM     16  C   UNL     1      43.224 136.009  15.428  1.00  0.00     0.011 A 
ATOM     17  C   UNL     1      43.985 135.726  17.716  1.00  0.00     0.047 A 
ATOM     18  C   UNL     1      43.945 133.408  18.807  1.00  0.00     0.112 C 
ATOM     19  C   UNL     1      43.755 136.544  16.599  1.00  0.00     0.015 A 
ATOM     20  C   UNL     1      44.522 136.304  18.961  1.00  0.00     0.284 C 
ATOM     21  C   UNL     1      44.323 134.100  20.097  1.00  0.00     0.261 C 
ATOM     22  N   UNL     1      44.635 135.497  20.134  1.00  0.00    -0.151 N 
ATOM     23  O   UNL     1      44.870 137.516  19.006  1.00  0.00    -0.266 OA
ATOM     24  O   UNL     1      44.435 133.417  21.152  1.00  0.00    -0.271 OA
BRANCH  13  25
ATOM     25  N   UNL     1      42.376 134.086  14.130  1.00  0.00    -0.060 NA
BRANCH  25  26
ATOM     26  N   UNL     1      41.256 134.367  13.700  1.00  0.00     0.005 N 
ATOM     27  N   UNL     1      40.139 134.650  13.269  1.00  0.00    -0.003 NA
ENDBRANCH  25  26
ENDBRANCH  13  25
BRANCH  22  28
ATOM     28  O   UNL     1      45.071 136.054  21.291  1.00  0.00    -0.278 OA
ATOM     29  H   UNL     1      44.386 136.734  21.522  1.00  0.00     0.247 HD
ENDBRANCH  22  28
ENDBRANCH   3  10
TORSDOF 8
ENDMDL
MODEL 5
REMARK VINA RESULT:      -6.9      3.557      5.178
REMARK SMILES C#CCO[C@]1(O)O[C@H]1[C@H]1CC[C@@H]2C(=O)N(O)C(=O)c3ccc(N=[N+]=[N-])c1c32
REMARK SMILES IDX 5 1 7 2 8 3 4 4 3 5 2 6 1 7 6 8 9 10 26 11 10 12 22 13 27 14
REMARK SMILES IDX 11 15 21 16 19 17 12 18 20 19 17 20 13 21 15 22 18 23 14 24
REMARK SMILES IDX 23 25 24 26 25 27 16 28
REMARK H PARENT 6 9 16 29
ROOT
ATOM      1  C   UNL     1      45.292 131.584  15.838  1.00  0.00     0.310 C 
ATOM      2  O   UNL     1      45.068 132.725  15.041  1.00  0.00    -0.313 OA
ATOM      3  C   UNL     1      45.066 132.921  16.440  1.00  0.00     0.222 C 
ENDROOT
BRANCH   1   4
ATOM      4  O   UNL     1      46.614 131.108  15.706  1.00  0.00    -0.312 OA
BRANCH   4   5
ATOM      5  C   UNL     1      46.615 129.948  14.898  1.00  0.00     0.255 C 
BRANCH   5   6
ATOM      6  C   UNL     1      46.903 130.285  13.497  1.00  0.00    -0.078 C 
ATOM      7  C   UNL     1      47.148 130.554  12.348  1.00  0.00     0.006 C 
ENDBRANCH   5   6
ENDBRANCH   4   5
ENDBRANCH   1   4
BRANCH   1   8
ATOM      8  O   UNL     1      44.242 130.663  15.720  1.00  0.00    -0.341 OA
ATOM      9  H   UNL     1      43.959 130.703  14.771  1.00  0.00     0.216 HD
ENDBRANCH   1   8
BRANCH   3  10
ATOM     10  C   UNL     1      43.660 133.222  16.991  1.00  0.00     0.058 C 
ATOM     11  C   UNL     1      43.286 134.649  16.620  1.00  0.00    -0.028 A 
ATOM     12  C   UNL     1      43.605 132.960  18.523  1.00  0.00     0.012 C 
ATOM     13  C   UNL     1      42.617 134.929  15.407  1.00  0.00     0.041 A 
ATOM     14  C   UNL     1      43.699 135.711  17.459  1.00  0.00    -0.019 A 
ATOM     15  C   UNL     1      43.765 134.204  19.423  1.00  0.00     0.019 C 
ATOM     16  C   UNL     1      42.337 136.261  15.067  1.00  0.00     0.011 A 
ATOM     17  C   UNL     1      43.403 137.042  17.103  1.00  0.00     0.047 A 
ATOM     18  C   UNL     1      44.479 135.366  18.716  1.00  0.00     0.112 C 
ATOM     19  C   UNL     1      42.721 137.304  15.906  1.00  0.00     0.015 A 
ATOM     20  C   UNL     1      43.782 138.150  18.000  1.00  0.00     0.284 C 
ATOM     21  C   UNL     1      44.672 136.528  19.664  1.00  0.00     0.261 C 
ATOM     22  N   UNL     1      44.361 137.871  19.276  1.00  0.00    -0.151 N 
ATOM     23  O   UNL     1      43.583 139.347  17.656  1.00  0.00    -0.266 OA
ATOM     24  O   UNL     1      45.184 136.319  20.798  1.00  0.00    -0.271 OA
BRANCH  13  25
ATOM     25  N   UNL     1      42.245 133.852  14.532  1.00  0.00    -0.060 NA
BRANCH  25  26
ATOM     26  N   UNL     1      41.070 133.566  14.294  1.00  0.00     0.005 N 
ATOM     27  N   UNL     1      39.897 133.280  14.060  1.00  0.00    -0.003 NA
ENDBRANCH  25  26
ENDBRANCH  13  25
BRANCH  22  28
ATOM     28  O   UNL     1      44.648 138.894  20.118  1.00  0.00    -0.278 OA
ATOM     29  H   UNL     1      45.637 138.886  20.203  1.00  0.00     0.247 HD
ENDBRANCH  22  28
ENDBRANCH   3  10
TORSDOF 8
ENDMDL
MODEL 6
REMARK VINA RESULT:      -6.9      3.196      6.308
REMARK SMILES C#CCO[C@]1(O)O[C@H]1[C@H]1CC[C@@H]2C(=O)N(O)C(=O)c3ccc(N=[N+]=[N-])c1c32
REMARK SMILES IDX 5 1 7 2 8 3 4 4 3 5 2 6 1 7 6 8 9 10 26 11 10 12 22 13 27 14
REMARK SMILES IDX 11 15 21 16 19 17 12 18 20 19 17 20 13 21 15 22 18 23 14 24
REMARK SMILES IDX 23 25 24 26 25 27 16 28
REMARK H PARENT 6 9 16 29
ROOT
ATOM      1  C   UNL     1      41.339 133.689  14.836  1.00  0.00     0.310 C 
ATOM      2  O   UNL     1      41.927 132.419  15.007  1.00  0.00    -0.313 OA
ATOM      3  C   UNL     1      42.071 133.330  16.076  1.00  0.00     0.222 C 
ENDROOT
BRANCH   1   4
ATOM      4  O   UNL     1      39.931 133.614  14.827  1.00  0.00    -0.312 OA
BRANCH   4   5
ATOM      5  C   UNL     1      39.424 134.463  13.816  1.00  0.00     0.255 C 
BRANCH   5   6
ATOM      6  C   UNL     1      37.986 134.700  14.003  1.00  0.00    -0.078 C 
ATOM      7  C   UNL     1      36.806 134.888  14.162  1.00  0.00     0.006 C 
ENDBRANCH   5   6
ENDBRANCH   4   5
ENDBRANCH   1   4
BRANCH   1   8
ATOM      8  O   UNL     1      41.971 134.410  13.813  1.00  0.00    -0.341 OA
ATOM      9  H   UNL     1      41.954 133.817  13.019  1.00  0.00     0.216 HD
ENDBRANCH   1   8
BRANCH   3  10
ATOM     10  C   UNL     1      43.515 133.845  16.221  1.00  0.00     0.058 C 
ATOM     11  C   UNL     1      44.345 132.777  16.916  1.00  0.00    -0.028 A 
ATOM     12  C   UNL     1      43.537 135.211  16.966  1.00  0.00     0.012 C 
ATOM     13  C   UNL     1      45.020 131.786  16.169  1.00  0.00     0.041 A 
ATOM     14  C   UNL     1      44.360 132.727  18.330  1.00  0.00    -0.019 A 
ATOM     15  C   UNL     1      43.855 135.147  18.475  1.00  0.00     0.019 C 
ATOM     16  C   UNL     1      45.732 130.780  16.842  1.00  0.00     0.011 A 
ATOM     17  C   UNL     1      45.086 131.713  18.988  1.00  0.00     0.047 A 
ATOM     18  C   UNL     1      43.561 133.770  19.091  1.00  0.00     0.112 C 
ATOM     19  C   UNL     1      45.767 130.747  18.234  1.00  0.00     0.015 A 
ATOM     20  C   UNL     1      45.150 131.686  20.461  1.00  0.00     0.284 C 
ATOM     21  C   UNL     1      43.821 133.786  20.580  1.00  0.00     0.261 C 
ATOM     22  N   UNL     1      44.563 132.743  21.222  1.00  0.00    -0.151 N 
ATOM     23  O   UNL     1      45.738 130.743  21.058  1.00  0.00    -0.266 OA
ATOM     24  O   UNL     1      43.315 134.703  21.283  1.00  0.00    -0.271 OA
BRANCH  13  25
ATOM     25  N   UNL     1      44.961 131.810  14.733  1.00  0.00    -0.060 NA
BRANCH  25  26
ATOM     26  N   UNL     1      45.518 130.963  14.032  1.00  0.00     0.005 N 
ATOM     27  N   UNL     1      46.072 130.117  13.332  1.00  0.00    -0.003 NA
ENDBRANCH  25  26
ENDBRANCH  13  25
BRANCH  22  28
ATOM     28  O   UNL     1      44.682 132.741  22.573  1.00  0.00    -0.278 OA
ATOM     29  H   UNL     1      43.768 132.926  22.911  1.00  0.00     0.247 HD
ENDBRANCH  22  28
ENDBRANCH   3  10
TORSDOF 8
ENDMDL
MODEL 7
REMARK VINA RESULT:      -6.9      3.190      4.875
REMARK SMILES C#CCO[C@]1(O)O[C@H]1[C@H]1CC[C@@H]2C(=O)N(O)C(=O)c3ccc(N=[N+]=[N-])c1c32
REMARK SMILES IDX 5 1 7 2 8 3 4 4 3 5 2 6 1 7 6 8 9 10 26 11 10 12 22 13 27 14
REMARK SMILES IDX 11 15 21 16 19 17 12 18 20 19 17 20 13 21 15 22 18 23 14 24
REMARK SMILES IDX 23 25 24 26 25 27 16 28
REMARK H PARENT 6 9 16 29
ROOT
ATOM      1  C   UNL     1      45.202 132.156  15.390  1.00  0.00     0.310 C 
ATOM      2  O   UNL     1      44.691 133.454  15.596  1.00  0.00    -0.313 OA
ATOM      3  C   UNL     1      45.051 132.726  16.751  1.00  0.00     0.222 C 
ENDROOT
BRANCH   1   4
ATOM      4  O   UNL     1      46.470 132.188  14.772  1.00  0.00    -0.312 OA
BRANCH   4   5
ATOM      5  C   UNL     1      46.889 130.867  14.496  1.00  0.00     0.255 C 
BRANCH   5   6
ATOM      6  C   UNL     1      47.116 130.677  13.057  1.00  0.00    -0.078 C 
ATOM      7  C   UNL     1      47.302 130.512  11.878  1.00  0.00     0.006 C 
ENDBRANCH   5   6
ENDBRANCH   4   5
ENDBRANCH   1   4
BRANCH   1   8
ATOM      8  O   UNL     1      44.227 131.301  14.857  1.00  0.00    -0.341 OA
ATOM      9  H   UNL     1      43.683 131.003  15.630  1.00  0.00     0.216 HD
ENDBRANCH   1   8
BRANCH   3  10
ATOM     10  C   UNL     1      43.827 132.282  17.573  1.00  0.00     0.058 C 
ATOM     11  C   UNL     1      42.932 133.489  17.805  1.00  0.00    -0.028 A 
ATOM     12  C   UNL     1      44.275 131.596  18.896  1.00  0.00     0.012 C 
ATOM     13  C   UNL     1      41.907 133.816  16.889  1.00  0.00     0.041 A 
ATOM     14  C   UNL     1      43.195 134.343  18.903  1.00  0.00    -0.019 A 
ATOM     15  C   UNL     1      44.266 132.493  20.153  1.00  0.00     0.019 C 
ATOM     16  C   UNL     1      41.135 134.969  17.101  1.00  0.00     0.011 A 
ATOM     17  C   UNL     1      42.405 135.493  19.103  1.00  0.00     0.047 A 
ATOM     18  C   UNL     1      44.353 133.990  19.820  1.00  0.00     0.112 C 
ATOM     19  C   UNL     1      41.378 135.794  18.196  1.00  0.00     0.015 A 
ATOM     20  C   UNL     1      42.638 136.357  20.275  1.00  0.00     0.284 C 
ATOM     21  C   UNL     1      44.414 134.815  21.086  1.00  0.00     0.261 C 
ATOM     22  N   UNL     1      43.598 135.978  21.262  1.00  0.00    -0.151 N 
ATOM     23  O   UNL     1      41.983 137.424  20.422  1.00  0.00    -0.266 OA
ATOM     24  O   UNL     1      45.252 134.511  21.978  1.00  0.00    -0.271 OA
BRANCH  13  25
ATOM     25  N   UNL     1      41.675 132.975  15.747  1.00  0.00    -0.060 NA
BRANCH  25  26
ATOM     26  N   UNL     1      41.454 133.430  14.623  1.00  0.00     0.005 N 
ATOM     27  N   UNL     1      41.230 133.883  13.502  1.00  0.00    -0.003 NA
ENDBRANCH  25  26
ENDBRANCH  13  25
BRANCH  22  28
ATOM     28  O   UNL     1      43.761 136.748  22.367  1.00  0.00    -0.278 OA
ATOM     29  H   UNL     1      42.860 137.120  22.554  1.00  0.00     0.247 HD
ENDBRANCH  22  28
ENDBRANCH   3  10
TORSDOF 8
ENDMDL
MODEL 8
REMARK VINA RESULT:      -6.8      3.353      5.209
REMARK SMILES C#CCO[C@]1(O)O[C@H]1[C@H]1CC[C@@H]2C(=O)N(O)C(=O)c3ccc(N=[N+]=[N-])c1c32
REMARK SMILES IDX 5 1 7 2 8 3 4 4 3 5 2 6 1 7 6 8 9 10 26 11 10 12 22 13 27 14
REMARK SMILES IDX 11 15 21 16 19 17 12 18 20 19 17 20 13 21 15 22 18 23 14 24
REMARK SMILES IDX 23 25 24 26 25 27 16 28
REMARK H PARENT 6 9 16 29
ROOT
ATOM      1  C   UNL     1      45.159 131.412  15.438  1.00  0.00     0.310 C 
ATOM      2  O   UNL     1      45.613 132.747  15.439  1.00  0.00    -0.313 OA
ATOM      3  C   UNL     1      45.089 132.257  16.655  1.00  0.00     0.222 C 
ENDROOT
BRANCH   1   4
ATOM      4  O   UNL     1      46.225 130.499  15.298  1.00  0.00    -0.312 OA
BRANCH   4   5
ATOM      5  C   UNL     1      46.005 129.694  14.158  1.00  0.00     0.255 C 
BRANCH   5   6
ATOM      6  C   UNL     1      46.721 130.230  12.991  1.00  0.00    -0.078 C 
ATOM      7  C   UNL     1      47.306 130.678  12.038  1.00  0.00     0.006 C 
ENDBRANCH   5   6
ENDBRANCH   4   5
ENDBRANCH   1   4
BRANCH   1   8
ATOM      8  O   UNL     1      44.039 131.255  14.609  1.00  0.00    -0.341 OA
ATOM      9  H   UNL     1      43.883 130.277  14.555  1.00  0.00     0.216 HD
ENDBRANCH   1   8
BRANCH   3  10
ATOM     10  C   UNL     1      43.727 132.884  17.006  1.00  0.00     0.058 C 
ATOM     11  C   UNL     1      43.968 134.158  17.801  1.00  0.00    -0.028 A 
ATOM     12  C   UNL     1      42.830 131.861  17.758  1.00  0.00     0.012 C 
ATOM     13  C   UNL     1      44.112 135.402  17.147  1.00  0.00     0.041 A 
ATOM     14  C   UNL     1      44.142 134.074  19.203  1.00  0.00    -0.019 A 
ATOM     15  C   UNL     1      42.811 131.988  19.297  1.00  0.00     0.019 C 
ATOM     16  C   UNL     1      44.390 136.551  17.905  1.00  0.00     0.011 A 
ATOM     17  C   UNL     1      44.415 135.239  19.948  1.00  0.00     0.047 A 
ATOM     18  C   UNL     1      44.051 132.704  19.853  1.00  0.00     0.112 C 
ATOM     19  C   UNL     1      44.536 136.471  19.288  1.00  0.00     0.015 A 
ATOM     20  C   UNL     1      44.544 135.167  21.415  1.00  0.00     0.284 C 
ATOM     21  C   UNL     1      44.014 132.737  21.365  1.00  0.00     0.261 C 
ATOM     22  N   UNL     1      44.295 133.936  22.095  1.00  0.00    -0.151 N 
ATOM     23  O   UNL     1      44.857 136.192  22.080  1.00  0.00    -0.266 OA
ATOM     24  O   UNL     1      43.800 131.667  21.998  1.00  0.00    -0.271 OA
BRANCH  13  25
ATOM     25  N   UNL     1      43.985 135.477  15.718  1.00  0.00    -0.060 NA
BRANCH  25  26
ATOM     26  N   UNL     1      42.954 135.859  15.162  1.00  0.00     0.005 N 
ATOM     27  N   UNL     1      41.926 136.241  14.605  1.00  0.00    -0.003 NA
ENDBRANCH  25  26
ENDBRANCH  13  25
BRANCH  22  28
ATOM     28  O   UNL     1      44.354 133.896  23.449  1.00  0.00    -0.278 OA
ATOM     29  H   UNL     1      44.783 134.751  23.712  1.00  0.00     0.247 HD
ENDBRANCH  22  28
ENDBRANCH   3  10
TORSDOF 8
ENDMDL
MODEL 9
REMARK VINA RESULT:      -6.8      1.833      2.422
REMARK SMILES C#CCO[C@]1(O)O[C@H]1[C@H]1CC[C@@H]2C(=O)N(O)C(=O)c3ccc(N=[N+]=[N-])c1c32
REMARK SMILES IDX 5 1 7 2 8 3 4 4 3 5 2 6 1 7 6 8 9 10 26 11 10 12 22 13 27 14
REMARK SMILES IDX 11 15 21 16 19 17 12 18 20 19 17 20 13 21 15 22 18 23 14 24
REMARK SMILES IDX 23 25 24 26 25 27 16 28
REMARK H PARENT 6 9 16 29
ROOT
ATOM      1  C   UNL     1      44.531 131.841  15.148  1.00  0.00     0.310 C 
ATOM      2  O   UNL     1      43.734 131.542  16.271  1.00  0.00    -0.313 OA
ATOM      3  C   UNL     1      43.156 132.379  15.292  1.00  0.00     0.222 C 
ENDROOT
BRANCH   1   4
ATOM      4  O   UNL     1      44.739 130.704  14.340  1.00  0.00    -0.312 OA
BRANCH   4   5
ATOM      5  C   UNL     1      46.090 130.301  14.438  1.00  0.00     0.255 C 
BRANCH   5   6
ATOM      6  C   UNL     1      46.774 130.431  13.144  1.00  0.00    -0.078 C 
ATOM      7  C   UNL     1      47.337 130.547  12.085  1.00  0.00     0.006 C 
ENDBRANCH   5   6
ENDBRANCH   4   5
ENDBRANCH   1   4
BRANCH   1   8
ATOM      8  O   UNL     1      45.645 132.614  15.502  1.00  0.00    -0.341 OA
ATOM      9  H   UNL     1      45.326 133.233  16.208  1.00  0.00     0.216 HD
ENDBRANCH   1   8
BRANCH   3  10
ATOM     10  C   UNL     1      43.011 133.835  15.771  1.00  0.00     0.058 C 
ATOM     11  C   UNL     1      41.904 133.898  16.811  1.00  0.00    -0.028 A 
ATOM     12  C   UNL     1      42.765 134.787  14.566  1.00  0.00     0.012 C 
ATOM     13  C   UNL     1      42.189 133.719  18.184  1.00  0.00     0.041 A 
ATOM     14  C   UNL     1      40.563 134.044  16.384  1.00  0.00    -0.019 A 
ATOM     15  C   UNL     1      41.293 135.171  14.303  1.00  0.00     0.019 C 
ATOM     16  C   UNL     1      41.138 133.725  19.113  1.00  0.00     0.011 A 
ATOM     17  C   UNL     1      39.520 134.054  17.332  1.00  0.00     0.047 A 
ATOM     18  C   UNL     1      40.297 134.160  14.892  1.00  0.00     0.112 C 
ATOM     19  C   UNL     1      39.820 133.895  18.693  1.00  0.00     0.015 A 
ATOM     20  C   UNL     1      38.126 134.260  16.899  1.00  0.00     0.284 C 
ATOM     21  C   UNL     1      38.877 134.546  14.544  1.00  0.00     0.261 C 
ATOM     22  N   UNL     1      37.838 134.549  15.529  1.00  0.00    -0.151 N 
ATOM     23  O   UNL     1      37.182 134.200  17.733  1.00  0.00    -0.266 OA
ATOM     24  O   UNL     1      38.587 134.804  13.344  1.00  0.00    -0.271 OA
BRANCH  13  25
ATOM     25  N   UNL     1      43.547 133.519  18.610  1.00  0.00    -0.060 NA
BRANCH  25  26
ATOM     26  N   UNL     1      43.876 132.607  19.371  1.00  0.00     0.005 N 
ATOM     27  N   UNL     1      44.206 131.696  20.128  1.00  0.00    -0.003 NA
ENDBRANCH  25  26
ENDBRANCH  13  25
BRANCH  22  28
ATOM     28  O   UNL     1      36.560 134.798  15.153  1.00  0.00    -0.278 OA
ATOM     29  H   UNL     1      36.484 135.788  15.145  1.00  0.00     0.247 HD
ENDBRANCH  22  28
ENDBRANCH   3  10
TORSDOF 8
ENDMDL


