REMARK SMILES CC/C=C(/O)OC1=NC(=O)c2ccc(-n3cc(CCc4ccc(F)cc4C)n[nH+]3)c3cccc1c23
REMARK SMILES IDX 7 1 8 2 9 3 10 4 11 5 12 6 13 7 14 8 30 9 31 10 32 11 33 12
REMARK SMILES IDX 34 13 35 14 6 15 4 16 5 17 3 19 2 20 1 21 15 22 16 23 29 24
REMARK SMILES IDX 17 25 28 26 18 28 19 29 20 30 21 31 26 32 22 33 25 34 23 35
REMARK SMILES IDX 27 36 24 37
REMARK H PARENT 5 18 29 27
ROOT
ATOM      1  C   UNL     1      -0.913  -2.434  -2.728  1.00  0.00     0.234 C 
ATOM      2  N   UNL     1      -1.629  -3.448  -2.333  1.00  0.00    -0.172 NA
ATOM      3  C   UNL     1      -2.178  -3.529  -1.013  1.00  0.00     0.280 C 
ATOM      4  O   UNL     1      -2.867  -4.532  -0.686  1.00  0.00    -0.267 OA
ATOM      5  C   UNL     1      -1.924  -2.433  -0.057  1.00  0.00     0.051 A 
ATOM      6  C   UNL     1      -2.447  -2.458   1.242  1.00  0.00     0.017 A 
ATOM      7  C   UNL     1      -2.180  -1.414   2.127  1.00  0.00     0.034 A 
ATOM      8  C   UNL     1      -1.384  -0.328   1.740  1.00  0.00     0.115 A 
ATOM      9  C   UNL     1      -0.880  -0.269   0.416  1.00  0.00     0.013 A 
ATOM     10  C   UNL     1      -0.149   0.840  -0.052  1.00  0.00     0.011 A 
ATOM     11  C   UNL     1       0.348   0.866  -1.355  1.00  0.00     0.002 A 
ATOM     12  C   UNL     1       0.114  -0.200  -2.222  1.00  0.00     0.014 A 
ATOM     13  C   UNL     1      -0.639  -1.305  -1.799  1.00  0.00     0.046 A 
ATOM     14  C   UNL     1      -1.145  -1.339  -0.479  1.00  0.00     0.009 A 
ENDROOT
BRANCH   1  15
ATOM     15  O   UNL     1      -0.392  -2.386  -4.030  1.00  0.00    -0.407 OA
BRANCH  15  16
ATOM     16  C   UNL     1      -0.538  -3.378  -5.010  1.00  0.00     0.279 C 
BRANCH  16  17
ATOM     17  O   UNL     1      -1.256  -4.545  -4.742  1.00  0.00    -0.481 OA
ATOM     18  H   UNL     1      -1.375  -5.276  -5.434  1.00  0.00     0.296 HD
ENDBRANCH  16  17
BRANCH  16  19
ATOM     19  C   UNL     1       0.014  -3.201  -6.216  1.00  0.00     0.061 C 
BRANCH  19  20
ATOM     20  C   UNL     1       0.791  -1.966  -6.579  1.00  0.00     0.031 C 
ATOM     21  C   UNL     1       2.171  -1.963  -5.926  1.00  0.00     0.008 C 
ENDBRANCH  19  20
ENDBRANCH  16  19
ENDBRANCH  15  16
ENDBRANCH   1  15
BRANCH   8  22
ATOM     22  N   UNL     1      -1.082   0.684   2.715  1.00  0.00    -0.104 N 
ATOM     23  C   UNL     1       0.138   1.087   3.114  1.00  0.00     0.190 A 
ATOM     24  N   UNL     1      -1.980   1.304   3.465  1.00  0.00    -0.012 N 
ATOM     25  C   UNL     1      -0.073   1.999   4.128  1.00  0.00     0.133 A 
ATOM     26  N   UNL     1      -1.401   2.126   4.327  1.00  0.00     0.020 NA
ATOM     27  H   UNL     1      -3.013   1.172   3.387  1.00  0.00     0.527 HD
BRANCH  25  28
ATOM     28  C   UNL     1       0.976   2.784   4.854  1.00  0.00     0.069 C 
BRANCH  28  29
ATOM     29  C   UNL     1       1.263   4.127   4.167  1.00  0.00     0.042 C 
BRANCH  29  30
ATOM     30  C   UNL     1       1.868   3.947   2.787  1.00  0.00    -0.044 A 
ATOM     31  C   UNL     1       3.197   3.497   2.697  1.00  0.00     0.007 A 
ATOM     32  C   UNL     1       1.139   4.192   1.592  1.00  0.00    -0.045 A 
ATOM     33  C   UNL     1       3.799   3.290   1.455  1.00  0.00     0.039 A 
ATOM     34  C   UNL     1       1.768   3.991   0.350  1.00  0.00     0.043 A 
ATOM     35  C   UNL     1       3.085   3.536   0.283  1.00  0.00     0.123 A 
ATOM     36  C   UNL     1      -0.287   4.677   1.613  1.00  0.00     0.045 C 
ATOM     37  F   UNL     1       3.672   3.334  -0.922  1.00  0.00    -0.207 F 
ENDBRANCH  29  30
ENDBRANCH  28  29
ENDBRANCH  25  28
ENDBRANCH   8  22
TORSDOF 9


