MODEL 1
REMARK VINA RESULT:      -6.7      0.000      0.000
REMARK SMILES C#Cc1ccc(-n2cc(CCCCN(C)[C@@H](C)C#N)n[nH+]2)cc(N)ccc2ccccc12
REMARK SMILES IDX 11 1 10 2 9 3 7 4 8 5 21 6 20 7 6 9 3 10 4 11 32 12 5 13
REMARK SMILES IDX 31 14 27 15 30 16 26 17 28 18 22 19 29 20 25 21 23 22 2 23
REMARK SMILES IDX 1 24 24 25 12 28 13 29 14 30 15 31 16 32 17 33 18 34 19 35
REMARK H PARENT 21 8 24 26 24 27
ROOT
ATOM      1  C   UNL     1      42.845 131.814  14.246  1.00  0.00     0.008 C 
ENDROOT
BRANCH   1   2
ATOM      2  C   UNL     1      43.594 132.713  15.244  1.00  0.00     0.065 C 
BRANCH   2   3
ATOM      3  C   UNL     1      43.175 132.527  16.679  1.00  0.00     0.132 A 
ATOM      4  N   UNL     1      43.139 132.322  18.856  1.00  0.00    -0.104 N 
ATOM      5  C   UNL     1      43.952 132.604  17.821  1.00  0.00     0.190 A 
ATOM      6  N   UNL     1      41.930 132.097  18.365  1.00  0.00    -0.012 N 
ATOM      7  N   UNL     1      41.915 132.215  17.047  1.00  0.00     0.020 NA
ATOM      8  H   UNL     1      41.087 131.857  18.933  1.00  0.00     0.527 HD
BRANCH   4   9
ATOM      9  C   UNL     1      43.514 132.208  20.242  1.00  0.00     0.109 A 
ATOM     10  C   UNL     1      44.095 135.197  19.976  1.00  0.00     0.032 A 
ATOM     11  C   UNL     1      44.998 134.194  20.398  1.00  0.00     0.020 A 
ATOM     12  C   UNL     1      42.684 135.139  20.169  1.00  0.00    -0.003 A 
ATOM     13  C   UNL     1      44.661 132.868  20.718  1.00  0.00     0.034 A 
ATOM     14  C   UNL     1      41.837 135.653  19.162  1.00  0.00     0.010 A 
ATOM     15  C   UNL     1      42.083 134.470  21.279  1.00  0.00    -0.017 A 
ATOM     16  C   UNL     1      40.466 135.389  19.177  1.00  0.00     0.001 A 
ATOM     17  C   UNL     1      42.808 134.187  22.453  1.00  0.00     0.011 A 
ATOM     18  C   UNL     1      40.710 134.159  21.240  1.00  0.00     0.009 A 
ATOM     19  C   UNL     1      42.712 131.448  21.115  1.00  0.00     0.058 A 
ATOM     20  C   UNL     1      39.911 134.616  20.193  1.00  0.00     0.001 A 
ATOM     21  C   UNL     1      42.788 132.947  23.111  1.00  0.00     0.026 A 
ATOM     22  C   UNL     1      42.546 131.697  22.496  1.00  0.00     0.034 A 
BRANCH  10  23
ATOM     23  C   UNL     1      44.673 136.345  19.317  1.00  0.00    -0.070 C 
ATOM     24  C   UNL     1      45.155 137.304  18.768  1.00  0.00     0.010 C 
ENDBRANCH  10  23
BRANCH  22  25
ATOM     25  N   UNL     1      42.105 130.616  23.325  1.00  0.00    -0.399 N 
ATOM     26  H   UNL     1      42.353 130.581  24.340  1.00  0.00     0.156 HD
ATOM     27  H   UNL     1      41.522 129.843  22.934  1.00  0.00     0.156 HD
ENDBRANCH  22  25
ENDBRANCH   4   9
ENDBRANCH   2   3
ENDBRANCH   1   2
BRANCH   1  28
ATOM     28  C   UNL     1      43.784 130.813  13.550  1.00  0.00     0.016 C 
BRANCH  28  29
ATOM     29  C   UNL     1      45.251 131.069  13.914  1.00  0.00     0.085 C 
BRANCH  29  30
ATOM     30  N   UNL     1      46.137 130.061  13.283  1.00  0.00    -0.291 NA
ATOM     31  C   UNL     1      46.902 130.652  12.164  1.00  0.00     0.106 C 
BRANCH  30  32
ATOM     32  C   UNL     1      46.991 129.367  14.285  1.00  0.00     0.157 C 
ATOM     33  C   UNL     1      48.478 129.456  13.923  1.00  0.00     0.041 C 
BRANCH  32  34
ATOM     34  C   UNL     1      46.765 129.860  15.661  1.00  0.00     0.081 C 
ATOM     35  N   UNL     1      46.590 130.246  16.737  1.00  0.00    -0.197 NA
ENDBRANCH  32  34
ENDBRANCH  30  32
ENDBRANCH  29  30
ENDBRANCH  28  29
ENDBRANCH   1  28
TORSDOF 10
ENDMDL
MODEL 2
REMARK VINA RESULT:      -6.3      1.731      2.443
REMARK SMILES C#Cc1ccc(-n2cc(CCCCN(C)[C@@H](C)C#N)n[nH+]2)cc(N)ccc2ccccc12
REMARK SMILES IDX 11 1 10 2 9 3 7 4 8 5 21 6 20 7 6 9 3 10 4 11 32 12 5 13
REMARK SMILES IDX 31 14 27 15 30 16 26 17 28 18 22 19 29 20 25 21 23 22 2 23
REMARK SMILES IDX 1 24 24 25 12 28 13 29 14 30 15 31 16 32 17 33 18 34 19 35
REMARK H PARENT 21 8 24 26 24 27
ROOT
ATOM      1  C   UNL     1      45.144 132.860  15.766  1.00  0.00     0.008 C 
ENDROOT
BRANCH   1   2
ATOM      2  C   UNL     1      44.407 133.914  16.609  1.00  0.00     0.065 C 
BRANCH   2   3
ATOM      3  C   UNL     1      43.896 133.403  17.930  1.00  0.00     0.132 A 
ATOM      4  N   UNL     1      43.663 132.378  19.848  1.00  0.00    -0.104 N 
ATOM      5  C   UNL     1      44.541 132.599  18.853  1.00  0.00     0.190 A 
ATOM      6  N   UNL     1      42.547 133.025  19.548  1.00  0.00    -0.012 N 
ATOM      7  N   UNL     1      42.654 133.660  18.392  1.00  0.00     0.020 NA
ATOM      8  H   UNL     1      41.687 133.042  20.140  1.00  0.00     0.527 HD
BRANCH   4   9
ATOM      9  C   UNL     1      43.858 131.535  21.000  1.00  0.00     0.109 A 
ATOM     10  C   UNL     1      45.698 133.797  21.917  1.00  0.00     0.032 A 
ATOM     11  C   UNL     1      46.045 132.435  21.762  1.00  0.00     0.020 A 
ATOM     12  C   UNL     1      44.394 134.260  22.256  1.00  0.00    -0.003 A 
ATOM     13  C   UNL     1      45.144 131.379  21.548  1.00  0.00     0.034 A 
ATOM     14  C   UNL     1      43.923 135.459  21.673  1.00  0.00     0.010 A 
ATOM     15  C   UNL     1      43.489 133.500  23.060  1.00  0.00    -0.017 A 
ATOM     16  C   UNL     1      42.576 135.817  21.760  1.00  0.00     0.001 A 
ATOM     17  C   UNL     1      43.938 132.468  23.903  1.00  0.00     0.011 A 
ATOM     18  C   UNL     1      42.124 133.845  23.079  1.00  0.00     0.009 A 
ATOM     19  C   UNL     1      42.749 130.889  21.580  1.00  0.00     0.058 A 
ATOM     20  C   UNL     1      41.674 134.995  22.431  1.00  0.00     0.001 A 
ATOM     21  C   UNL     1      43.338 131.202  23.987  1.00  0.00     0.026 A 
ATOM     22  C   UNL     1      42.617 130.567  22.950  1.00  0.00     0.034 A 
BRANCH  10  23
ATOM     23  C   UNL     1      46.761 134.756  21.720  1.00  0.00    -0.070 C 
ATOM     24  C   UNL     1      47.647 135.557  21.557  1.00  0.00     0.010 C 
ENDBRANCH  10  23
BRANCH  22  25
ATOM     25  N   UNL     1      41.695 129.531  23.309  1.00  0.00    -0.399 N 
ATOM     26  H   UNL     1      42.016 128.684  23.830  1.00  0.00     0.156 HD
ATOM     27  H   UNL     1      40.683 129.604  23.062  1.00  0.00     0.156 HD
ENDBRANCH  22  25
ENDBRANCH   4   9
ENDBRANCH   2   3
ENDBRANCH   1   2
BRANCH   1  28
ATOM     28  C   UNL     1      44.185 132.072  14.856  1.00  0.00     0.016 C 
BRANCH  28  29
ATOM     29  C   UNL     1      44.628 130.613  14.699  1.00  0.00     0.085 C 
BRANCH  29  30
ATOM     30  N   UNL     1      46.103 130.494  14.798  1.00  0.00    -0.291 NA
ATOM     31  C   UNL     1      46.502 129.885  16.085  1.00  0.00     0.106 C 
BRANCH  30  32
ATOM     32  C   UNL     1      46.686 129.811  13.611  1.00  0.00     0.157 C 
ATOM     33  C   UNL     1      46.446 130.607  12.323  1.00  0.00     0.041 C 
BRANCH  32  34
ATOM     34  C   UNL     1      48.125 129.517  13.775  1.00  0.00     0.081 C 
ATOM     35  N   UNL     1      49.252 129.289  13.902  1.00  0.00    -0.197 NA
ENDBRANCH  32  34
ENDBRANCH  30  32
ENDBRANCH  29  30
ENDBRANCH  28  29
ENDBRANCH   1  28
TORSDOF 10
ENDMDL
MODEL 3
REMARK VINA RESULT:      -6.1      2.876      4.877
REMARK SMILES C#Cc1ccc(-n2cc(CCCCN(C)[C@@H](C)C#N)n[nH+]2)cc(N)ccc2ccccc12
REMARK SMILES IDX 11 1 10 2 9 3 7 4 8 5 21 6 20 7 6 9 3 10 4 11 32 12 5 13
REMARK SMILES IDX 31 14 27 15 30 16 26 17 28 18 22 19 29 20 25 21 23 22 2 23
REMARK SMILES IDX 1 24 24 25 12 28 13 29 14 30 15 31 16 32 17 33 18 34 19 35
REMARK H PARENT 21 8 24 26 24 27
ROOT
ATOM      1  C   UNL     1      45.100 130.754  17.852  1.00  0.00     0.008 C 
ENDROOT
BRANCH   1   2
ATOM      2  C   UNL     1      43.734 130.941  17.171  1.00  0.00     0.065 C 
BRANCH   2   3
ATOM      3  C   UNL     1      43.559 132.273  16.491  1.00  0.00     0.132 A 
ATOM      4  N   UNL     1      43.364 134.406  16.047  1.00  0.00    -0.104 N 
ATOM      5  C   UNL     1      43.635 133.541  17.041  1.00  0.00     0.190 A 
ATOM      6  N   UNL     1      43.146 133.699  14.949  1.00  0.00    -0.012 N 
ATOM      7  N   UNL     1      43.258 132.401  15.181  1.00  0.00     0.020 NA
ATOM      8  H   UNL     1      42.916 134.101  14.013  1.00  0.00     0.527 HD
BRANCH   4   9
ATOM      9  C   UNL     1      43.254 135.838  16.156  1.00  0.00     0.109 A 
ATOM     10  C   UNL     1      40.346 135.331  15.364  1.00  0.00     0.032 A 
ATOM     11  C   UNL     1      41.267 136.177  14.704  1.00  0.00     0.020 A 
ATOM     12  C   UNL     1      40.373 135.049  16.761  1.00  0.00    -0.003 A 
ATOM     13  C   UNL     1      42.524 136.563  15.197  1.00  0.00     0.034 A 
ATOM     14  C   UNL     1      40.028 133.751  17.201  1.00  0.00     0.010 A 
ATOM     15  C   UNL     1      40.856 135.983  17.728  1.00  0.00    -0.017 A 
ATOM     16  C   UNL     1      40.288 133.347  18.512  1.00  0.00     0.001 A 
ATOM     17  C   UNL     1      40.946 137.359  17.447  1.00  0.00     0.011 A 
ATOM     18  C   UNL     1      41.171 135.535  19.026  1.00  0.00     0.009 A 
ATOM     19  C   UNL     1      43.865 136.498  17.240  1.00  0.00     0.058 A 
ATOM     20  C   UNL     1      40.888 134.225  19.410  1.00  0.00     0.001 A 
ATOM     21  C   UNL     1      42.064 138.153  17.747  1.00  0.00     0.026 A 
ATOM     22  C   UNL     1      43.397 137.690  17.839  1.00  0.00     0.034 A 
BRANCH  10  23
ATOM     23  C   UNL     1      39.318 134.737  14.542  1.00  0.00    -0.070 C 
ATOM     24  C   UNL     1      38.460 134.243  13.853  1.00  0.00     0.010 C 
ENDBRANCH  10  23
BRANCH  22  25
ATOM     25  N   UNL     1      44.332 138.478  18.585  1.00  0.00    -0.399 N 
ATOM     26  H   UNL     1      44.058 139.405  18.980  1.00  0.00     0.156 HD
ATOM     27  H   UNL     1      45.305 138.139  18.753  1.00  0.00     0.156 HD
ENDBRANCH  22  25
ENDBRANCH   4   9
ENDBRANCH   2   3
ENDBRANCH   1   2
BRANCH   1  28
ATOM     28  C   UNL     1      46.245 130.640  16.830  1.00  0.00     0.016 C 
BRANCH  28  29
ATOM     29  C   UNL     1      45.823 129.831  15.597  1.00  0.00     0.085 C 
BRANCH  29  30
ATOM     30  N   UNL     1      46.033 130.612  14.354  1.00  0.00    -0.291 NA
ATOM     31  C   UNL     1      46.659 131.919  14.648  1.00  0.00     0.106 C 
BRANCH  30  32
ATOM     32  C   UNL     1      46.758 129.825  13.320  1.00  0.00     0.157 C 
ATOM     33  C   UNL     1      46.722 130.516  11.952  1.00  0.00     0.041 C 
BRANCH  32  34
ATOM     34  C   UNL     1      48.151 129.524  13.709  1.00  0.00     0.081 C 
ATOM     35  N   UNL     1      49.243 129.290  14.014  1.00  0.00    -0.197 NA
ENDBRANCH  32  34
ENDBRANCH  30  32
ENDBRANCH  29  30
ENDBRANCH  28  29
ENDBRANCH   1  28
TORSDOF 10
ENDMDL
MODEL 4
REMARK VINA RESULT:      -6.1      4.217      6.922
REMARK SMILES C#Cc1ccc(-n2cc(CCCCN(C)[C@@H](C)C#N)n[nH+]2)cc(N)ccc2ccccc12
REMARK SMILES IDX 11 1 10 2 9 3 7 4 8 5 21 6 20 7 6 9 3 10 4 11 32 12 5 13
REMARK SMILES IDX 31 14 27 15 30 16 26 17 28 18 22 19 29 20 25 21 23 22 2 23
REMARK SMILES IDX 1 24 24 25 12 28 13 29 14 30 15 31 16 32 17 33 18 34 19 35
REMARK H PARENT 21 8 24 26 24 27
ROOT
ATOM      1  C   UNL     1      44.754 133.616  15.881  1.00  0.00     0.008 C 
ENDROOT
BRANCH   1   2
ATOM      2  C   UNL     1      43.712 134.479  16.610  1.00  0.00     0.065 C 
BRANCH   2   3
ATOM      3  C   UNL     1      42.607 134.994  15.726  1.00  0.00     0.132 A 
ATOM      4  N   UNL     1      40.821 135.190  14.479  1.00  0.00    -0.104 N 
ATOM      5  C   UNL     1      41.484 134.327  15.271  1.00  0.00     0.190 A 
ATOM      6  N   UNL     1      41.503 136.325  14.465  1.00  0.00    -0.012 N 
ATOM      7  N   UNL     1      42.592 136.242  15.213  1.00  0.00     0.020 NA
ATOM      8  H   UNL     1      41.228 137.183  13.937  1.00  0.00     0.527 HD
BRANCH   4   9
ATOM      9  C   UNL     1      39.627 134.921  13.718  1.00  0.00     0.109 A 
ATOM     10  C   UNL     1      38.289 134.925  16.466  1.00  0.00     0.032 A 
ATOM     11  C   UNL     1      38.261 133.881  15.513  1.00  0.00     0.020 A 
ATOM     12  C   UNL     1      38.399 136.307  16.139  1.00  0.00    -0.003 A 
ATOM     13  C   UNL     1      38.696 133.974  14.181  1.00  0.00     0.034 A 
ATOM     14  C   UNL     1      39.157 137.150  16.983  1.00  0.00     0.010 A 
ATOM     15  C   UNL     1      37.885 136.857  14.924  1.00  0.00    -0.017 A 
ATOM     16  C   UNL     1      39.514 138.437  16.578  1.00  0.00     0.001 A 
ATOM     17  C   UNL     1      36.894 136.196  14.174  1.00  0.00     0.011 A 
ATOM     18  C   UNL     1      38.312 138.132  14.506  1.00  0.00     0.009 A 
ATOM     19  C   UNL     1      39.395 135.629  12.523  1.00  0.00     0.058 A 
ATOM     20  C   UNL     1      39.122 138.913  15.329  1.00  0.00     0.001 A 
ATOM     21  C   UNL     1      36.943 136.025  12.782  1.00  0.00     0.026 A 
ATOM     22  C   UNL     1      38.123 135.960  12.005  1.00  0.00     0.034 A 
BRANCH  10  23
ATOM     23  C   UNL     1      38.187 134.532  17.852  1.00  0.00    -0.070 C 
ATOM     24  C   UNL     1      38.101 134.203  19.009  1.00  0.00     0.010 C 
ENDBRANCH  10  23
BRANCH  22  25
ATOM     25  N   UNL     1      38.022 136.248  10.606  1.00  0.00    -0.399 N 
ATOM     26  H   UNL     1      37.264 135.824  10.023  1.00  0.00     0.156 HD
ATOM     27  H   UNL     1      38.700 136.891  10.140  1.00  0.00     0.156 HD
ENDBRANCH  22  25
ENDBRANCH   4   9
ENDBRANCH   2   3
ENDBRANCH   1   2
BRANCH   1  28
ATOM     28  C   UNL     1      44.946 132.245  16.555  1.00  0.00     0.016 C 
BRANCH  28  29
ATOM     29  C   UNL     1      46.089 131.454  15.909  1.00  0.00     0.085 C 
BRANCH  29  30
ATOM     30  N   UNL     1      45.971 131.464  14.431  1.00  0.00    -0.291 NA
ATOM     31  C   UNL     1      47.303 131.421  13.790  1.00  0.00     0.106 C 
BRANCH  30  32
ATOM     32  C   UNL     1      45.041 130.410  13.941  1.00  0.00     0.157 C 
ATOM     33  C   UNL     1      44.991 129.210  14.895  1.00  0.00     0.041 C 
BRANCH  32  34
ATOM     34  C   UNL     1      43.679 130.926  13.690  1.00  0.00     0.081 C 
ATOM     35  N   UNL     1      42.614 131.332  13.493  1.00  0.00    -0.197 NA
ENDBRANCH  32  34
ENDBRANCH  30  32
ENDBRANCH  29  30
ENDBRANCH  28  29
ENDBRANCH   1  28
TORSDOF 10
ENDMDL
MODEL 5
REMARK VINA RESULT:      -5.9      3.171      5.558
REMARK SMILES C#Cc1ccc(-n2cc(CCCCN(C)[C@@H](C)C#N)n[nH+]2)cc(N)ccc2ccccc12
REMARK SMILES IDX 11 1 10 2 9 3 7 4 8 5 21 6 20 7 6 9 3 10 4 11 32 12 5 13
REMARK SMILES IDX 31 14 27 15 30 16 26 17 28 18 22 19 29 20 25 21 23 22 2 23
REMARK SMILES IDX 1 24 24 25 12 28 13 29 14 30 15 31 16 32 17 33 18 34 19 35
REMARK H PARENT 21 8 24 26 24 27
ROOT
ATOM      1  C   UNL     1      43.789 131.168  16.977  1.00  0.00     0.008 C 
ENDROOT
BRANCH   1   2
ATOM      2  C   UNL     1      42.549 131.969  17.408  1.00  0.00     0.065 C 
BRANCH   2   3
ATOM      3  C   UNL     1      42.250 133.162  16.539  1.00  0.00     0.132 A 
ATOM      4  N   UNL     1      42.012 135.185  15.742  1.00  0.00    -0.104 N 
ATOM      5  C   UNL     1      42.496 134.499  16.794  1.00  0.00     0.190 A 
ATOM      6  N   UNL     1      41.509 134.306  14.889  1.00  0.00    -0.012 N 
ATOM      7  N   UNL     1      41.638 133.068  15.340  1.00  0.00     0.020 NA
ATOM      8  H   UNL     1      41.066 134.544  13.974  1.00  0.00     0.527 HD
BRANCH   4   9
ATOM      9  C   UNL     1      41.974 136.617  15.589  1.00  0.00     0.109 A 
ATOM     10  C   UNL     1      38.948 136.187  15.551  1.00  0.00     0.032 A 
ATOM     11  C   UNL     1      39.724 136.827  14.557  1.00  0.00     0.020 A 
ATOM     12  C   UNL     1      39.278 136.167  16.937  1.00  0.00    -0.003 A 
ATOM     13  C   UNL     1      41.071 137.204  14.684  1.00  0.00     0.034 A 
ATOM     14  C   UNL     1      39.000 135.001  17.686  1.00  0.00     0.010 A 
ATOM     15  C   UNL     1      39.994 137.225  17.576  1.00  0.00    -0.017 A 
ATOM     16  C   UNL     1      39.533 134.828  18.965  1.00  0.00     0.001 A 
ATOM     17  C   UNL     1      40.061 138.515  17.018  1.00  0.00     0.011 A 
ATOM     18  C   UNL     1      40.576 137.002  18.839  1.00  0.00     0.009 A 
ATOM     19  C   UNL     1      42.832 137.418  16.366  1.00  0.00     0.058 A 
ATOM     20  C   UNL     1      40.346 135.810  19.524  1.00  0.00     0.001 A 
ATOM     21  C   UNL     1      41.242 139.266  16.911  1.00  0.00     0.026 A 
ATOM     22  C   UNL     1      42.547 138.731  16.805  1.00  0.00     0.034 A 
BRANCH  10  23
ATOM     23  C   UNL     1      37.744 135.529  15.099  1.00  0.00    -0.070 C 
ATOM     24  C   UNL     1      36.738 134.980  14.724  1.00  0.00     0.010 C 
ENDBRANCH  10  23
BRANCH  22  25
ATOM     25  N   UNL     1      43.649 139.572  17.165  1.00  0.00    -0.399 N 
ATOM     26  H   UNL     1      44.341 139.886  16.448  1.00  0.00     0.156 HD
ATOM     27  H   UNL     1      43.780 139.893  18.150  1.00  0.00     0.156 HD
ENDBRANCH  22  25
ENDBRANCH   4   9
ENDBRANCH   2   3
ENDBRANCH   1   2
BRANCH   1  28
ATOM     28  C   UNL     1      44.830 132.052  16.265  1.00  0.00     0.016 C 
BRANCH  28  29
ATOM     29  C   UNL     1      45.218 131.475  14.898  1.00  0.00     0.085 C 
BRANCH  29  30
ATOM     30  N   UNL     1      46.504 130.740  14.979  1.00  0.00    -0.291 NA
ATOM     31  C   UNL     1      46.611 129.996  16.253  1.00  0.00     0.106 C 
BRANCH  30  32
ATOM     32  C   UNL     1      46.737 129.895  13.776  1.00  0.00     0.157 C 
ATOM     33  C   UNL     1      46.277 130.597  12.492  1.00  0.00     0.041 C 
BRANCH  32  34
ATOM     34  C   UNL     1      48.144 129.463  13.651  1.00  0.00     0.081 C 
ATOM     35  N   UNL     1      49.247 129.124  13.555  1.00  0.00    -0.197 NA
ENDBRANCH  32  34
ENDBRANCH  30  32
ENDBRANCH  29  30
ENDBRANCH  28  29
ENDBRANCH   1  28
TORSDOF 10
ENDMDL
MODEL 6
REMARK VINA RESULT:      -5.7      1.851      2.809
REMARK SMILES C#Cc1ccc(-n2cc(CCCCN(C)[C@@H](C)C#N)n[nH+]2)cc(N)ccc2ccccc12
REMARK SMILES IDX 11 1 10 2 9 3 7 4 8 5 21 6 20 7 6 9 3 10 4 11 32 12 5 13
REMARK SMILES IDX 31 14 27 15 30 16 26 17 28 18 22 19 29 20 25 21 23 22 2 23
REMARK SMILES IDX 1 24 24 25 12 28 13 29 14 30 15 31 16 32 17 33 18 34 19 35
REMARK H PARENT 21 8 24 26 24 27
ROOT
ATOM      1  C   UNL     1      43.805 133.098  16.857  1.00  0.00     0.008 C 
ENDROOT
BRANCH   1   2
ATOM      2  C   UNL     1      43.735 131.703  17.501  1.00  0.00     0.065 C 
BRANCH   2   3
ATOM      3  C   UNL     1      44.049 131.685  18.974  1.00  0.00     0.132 A 
ATOM      4  N   UNL     1      43.975 131.898  21.149  1.00  0.00    -0.104 N 
ATOM      5  C   UNL     1      43.236 132.044  20.034  1.00  0.00     0.190 A 
ATOM      6  N   UNL     1      45.171 131.463  20.783  1.00  0.00    -0.012 N 
ATOM      7  N   UNL     1      45.250 131.320  19.469  1.00  0.00     0.020 NA
ATOM      8  H   UNL     1      45.958 131.253  21.436  1.00  0.00     0.527 HD
BRANCH   4   9
ATOM      9  C   UNL     1      43.579 132.223  22.496  1.00  0.00     0.109 A 
ATOM     10  C   UNL     1      45.897 134.207  22.335  1.00  0.00     0.032 A 
ATOM     11  C   UNL     1      45.721 133.189  23.300  1.00  0.00     0.020 A 
ATOM     12  C   UNL     1      44.829 134.877  21.670  1.00  0.00    -0.003 A 
ATOM     13  C   UNL     1      44.555 132.429  23.487  1.00  0.00     0.034 A 
ATOM     14  C   UNL     1      44.990 135.239  20.314  1.00  0.00     0.010 A 
ATOM     15  C   UNL     1      43.552 135.084  22.276  1.00  0.00    -0.017 A 
ATOM     16  C   UNL     1      43.899 135.652  19.548  1.00  0.00     0.001 A 
ATOM     17  C   UNL     1      43.378 135.030  23.672  1.00  0.00     0.011 A 
ATOM     18  C   UNL     1      42.453 135.439  21.470  1.00  0.00     0.009 A 
ATOM     19  C   UNL     1      42.210 132.350  22.802  1.00  0.00     0.058 A 
ATOM     20  C   UNL     1      42.629 135.718  20.116  1.00  0.00     0.001 A 
ATOM     21  C   UNL     1      42.336 134.337  24.309  1.00  0.00     0.026 A 
ATOM     22  C   UNL     1      41.670 133.202  23.792  1.00  0.00     0.034 A 
BRANCH  10  23
ATOM     23  C   UNL     1      47.260 134.577  22.033  1.00  0.00    -0.070 C 
ATOM     24  C   UNL     1      48.398 134.886  21.781  1.00  0.00     0.010 C 
ENDBRANCH  10  23
BRANCH  22  25
ATOM     25  N   UNL     1      40.369 132.895  24.305  1.00  0.00    -0.399 N 
ATOM     26  H   UNL     1      39.674 133.653  24.494  1.00  0.00     0.156 HD
ATOM     27  H   UNL     1      40.086 131.909  24.495  1.00  0.00     0.156 HD
ENDBRANCH  22  25
ENDBRANCH   4   9
ENDBRANCH   2   3
ENDBRANCH   1   2
BRANCH   1  28
ATOM     28  C   UNL     1      44.047 133.024  15.339  1.00  0.00     0.016 C 
BRANCH  28  29
ATOM     29  C   UNL     1      44.234 131.576  14.868  1.00  0.00     0.085 C 
BRANCH  29  30
ATOM     30  N   UNL     1      45.532 131.410  14.170  1.00  0.00    -0.291 NA
ATOM     31  C   UNL     1      46.631 132.035  14.938  1.00  0.00     0.106 C 
BRANCH  30  32
ATOM     32  C   UNL     1      45.791 129.989  13.811  1.00  0.00     0.157 C 
ATOM     33  C   UNL     1      47.265 129.752  13.459  1.00  0.00     0.041 C 
BRANCH  32  34
ATOM     34  C   UNL     1      45.355 129.049  14.864  1.00  0.00     0.081 C 
ATOM     35  N   UNL     1      45.012 128.314  15.689  1.00  0.00    -0.197 NA
ENDBRANCH  32  34
ENDBRANCH  30  32
ENDBRANCH  29  30
ENDBRANCH  28  29
ENDBRANCH   1  28
TORSDOF 10
ENDMDL
MODEL 7
REMARK VINA RESULT:      -5.7      2.263      4.410
REMARK SMILES C#Cc1ccc(-n2cc(CCCCN(C)[C@@H](C)C#N)n[nH+]2)cc(N)ccc2ccccc12
REMARK SMILES IDX 11 1 10 2 9 3 7 4 8 5 21 6 20 7 6 9 3 10 4 11 32 12 5 13
REMARK SMILES IDX 31 14 27 15 30 16 26 17 28 18 22 19 29 20 25 21 23 22 2 23
REMARK SMILES IDX 1 24 24 25 12 28 13 29 14 30 15 31 16 32 17 33 18 34 19 35
REMARK H PARENT 21 8 24 26 24 27
ROOT
ATOM      1  C   UNL     1      45.342 130.731  17.897  1.00  0.00     0.008 C 
ENDROOT
BRANCH   1   2
ATOM      2  C   UNL     1      44.572 131.500  18.984  1.00  0.00     0.065 C 
BRANCH   2   3
ATOM      3  C   UNL     1      43.319 132.176  18.493  1.00  0.00     0.132 A 
ATOM      4  N   UNL     1      41.538 133.429  18.296  1.00  0.00    -0.104 N 
ATOM      5  C   UNL     1      42.597 133.194  19.091  1.00  0.00     0.190 A 
ATOM      6  N   UNL     1      41.620 132.604  17.264  1.00  0.00    -0.012 N 
ATOM      7  N   UNL     1      42.691 131.830  17.351  1.00  0.00     0.020 NA
ATOM      8  H   UNL     1      40.937 132.560  16.476  1.00  0.00     0.527 HD
BRANCH   4   9
ATOM      9  C   UNL     1      40.461 134.354  18.544  1.00  0.00     0.109 A 
ATOM     10  C   UNL     1      42.637 136.463  18.146  1.00  0.00     0.032 A 
ATOM     11  C   UNL     1      41.804 136.311  19.278  1.00  0.00     0.020 A 
ATOM     12  C   UNL     1      42.261 136.106  16.819  1.00  0.00    -0.003 A 
ATOM     13  C   UNL     1      40.674 135.480  19.359  1.00  0.00     0.034 A 
ATOM     14  C   UNL     1      43.238 135.557  15.958  1.00  0.00     0.010 A 
ATOM     15  C   UNL     1      40.910 136.159  16.358  1.00  0.00    -0.017 A 
ATOM     16  C   UNL     1      42.873 134.953  14.753  1.00  0.00     0.001 A 
ATOM     17  C   UNL     1      39.936 136.938  17.011  1.00  0.00     0.011 A 
ATOM     18  C   UNL     1      40.556 135.487  15.172  1.00  0.00     0.009 A 
ATOM     19  C   UNL     1      39.205 134.129  17.948  1.00  0.00     0.058 A 
ATOM     20  C   UNL     1      41.534 134.888  14.379  1.00  0.00     0.001 A 
ATOM     21  C   UNL     1      38.646 136.483  17.328  1.00  0.00     0.026 A 
ATOM     22  C   UNL     1      38.289 135.136  17.569  1.00  0.00     0.034 A 
BRANCH  10  23
ATOM     23  C   UNL     1      43.945 137.027  18.384  1.00  0.00    -0.070 C 
ATOM     24  C   UNL     1      45.038 137.499  18.581  1.00  0.00     0.010 C 
ENDBRANCH  10  23
BRANCH  22  25
ATOM     25  N   UNL     1      36.912 134.771  17.421  1.00  0.00    -0.399 N 
ATOM     26  H   UNL     1      36.519 133.943  17.924  1.00  0.00     0.156 HD
ATOM     27  H   UNL     1      36.272 135.326  16.813  1.00  0.00     0.156 HD
ENDBRANCH  22  25
ENDBRANCH   4   9
ENDBRANCH   2   3
ENDBRANCH   1   2
BRANCH   1  28
ATOM     28  C   UNL     1      45.775 131.645  16.737  1.00  0.00     0.016 C 
BRANCH  28  29
ATOM     29  C   UNL     1      46.652 130.896  15.726  1.00  0.00     0.085 C 
BRANCH  29  30
ATOM     30  N   UNL     1      46.218 131.179  14.336  1.00  0.00    -0.291 NA
ATOM     31  C   UNL     1      47.373 131.204  13.414  1.00  0.00     0.106 C 
BRANCH  30  32
ATOM     32  C   UNL     1      45.127 130.266  13.899  1.00  0.00     0.157 C 
ATOM     33  C   UNL     1      45.022 129.033  14.806  1.00  0.00     0.041 C 
BRANCH  32  34
ATOM     34  C   UNL     1      43.820 130.948  13.804  1.00  0.00     0.081 C 
ATOM     35  N   UNL     1      42.797 131.485  13.728  1.00  0.00    -0.197 NA
ENDBRANCH  32  34
ENDBRANCH  30  32
ENDBRANCH  29  30
ENDBRANCH  28  29
ENDBRANCH   1  28
TORSDOF 10
ENDMDL
MODEL 8
REMARK VINA RESULT:      -5.7      3.562      6.040
REMARK SMILES C#Cc1ccc(-n2cc(CCCCN(C)[C@@H](C)C#N)n[nH+]2)cc(N)ccc2ccccc12
REMARK SMILES IDX 11 1 10 2 9 3 7 4 8 5 21 6 20 7 6 9 3 10 4 11 32 12 5 13
REMARK SMILES IDX 31 14 27 15 30 16 26 17 28 18 22 19 29 20 25 21 23 22 2 23
REMARK SMILES IDX 1 24 24 25 12 28 13 29 14 30 15 31 16 32 17 33 18 34 19 35
REMARK H PARENT 21 8 24 26 24 27
ROOT
ATOM      1  C   UNL     1      44.252 131.837  17.043  1.00  0.00     0.008 C 
ENDROOT
BRANCH   1   2
ATOM      2  C   UNL     1      44.225 133.337  16.708  1.00  0.00     0.065 C 
BRANCH   2   3
ATOM      3  C   UNL     1      42.996 133.781  15.959  1.00  0.00     0.132 A 
ATOM      4  N   UNL     1      40.943 134.095  15.271  1.00  0.00    -0.104 N 
ATOM      5  C   UNL     1      41.667 133.527  16.252  1.00  0.00     0.190 A 
ATOM      6  N   UNL     1      41.790 134.673  14.432  1.00  0.00    -0.012 N 
ATOM      7  N   UNL     1      43.044 134.504  14.820  1.00  0.00     0.020 NA
ATOM      8  H   UNL     1      41.517 135.199  13.572  1.00  0.00     0.527 HD
BRANCH   4   9
ATOM      9  C   UNL     1      39.513 134.033  15.106  1.00  0.00     0.109 A 
ATOM     10  C   UNL     1      39.495 135.841  17.570  1.00  0.00     0.032 A 
ATOM     11  C   UNL     1      38.839 134.596  17.429  1.00  0.00     0.020 A 
ATOM     12  C   UNL     1      39.758 136.736  16.493  1.00  0.00    -0.003 A 
ATOM     13  C   UNL     1      38.681 133.883  16.230  1.00  0.00     0.034 A 
ATOM     14  C   UNL     1      40.965 137.470  16.495  1.00  0.00     0.010 A 
ATOM     15  C   UNL     1      38.914 136.830  15.343  1.00  0.00    -0.017 A 
ATOM     16  C   UNL     1      41.392 138.151  15.354  1.00  0.00     0.001 A 
ATOM     17  C   UNL     1      37.581 136.379  15.365  1.00  0.00     0.011 A 
ATOM     18  C   UNL     1      39.394 137.468  14.183  1.00  0.00     0.009 A 
ATOM     19  C   UNL     1      38.961 134.143  13.815  1.00  0.00     0.058 A 
ATOM     20  C   UNL     1      40.626 138.121  14.192  1.00  0.00     0.001 A 
ATOM     21  C   UNL     1      37.000 135.591  14.359  1.00  0.00     0.026 A 
ATOM     22  C   UNL     1      37.696 134.697  13.513  1.00  0.00     0.034 A 
BRANCH  10  23
ATOM     23  C   UNL     1      39.903 136.203  18.907  1.00  0.00    -0.070 C 
ATOM     24  C   UNL     1      40.246 136.505  20.023  1.00  0.00     0.010 C 
ENDBRANCH  10  23
BRANCH  22  25
ATOM     25  N   UNL     1      37.081 134.329  12.274  1.00  0.00    -0.399 N 
ATOM     26  H   UNL     1      37.499 134.617  11.360  1.00  0.00     0.156 HD
ATOM     27  H   UNL     1      36.204 133.761  12.257  1.00  0.00     0.156 HD
ENDBRANCH  22  25
ENDBRANCH   4   9
ENDBRANCH   2   3
ENDBRANCH   1   2
BRANCH   1  28
ATOM     28  C   UNL     1      45.661 131.357  17.435  1.00  0.00     0.016 C 
BRANCH  28  29
ATOM     29  C   UNL     1      46.319 130.555  16.305  1.00  0.00     0.085 C 
BRANCH  29  30
ATOM     30  N   UNL     1      45.935 131.097  14.979  1.00  0.00    -0.291 NA
ATOM     31  C   UNL     1      47.125 131.548  14.225  1.00  0.00     0.106 C 
BRANCH  30  32
ATOM     32  C   UNL     1      45.075 130.149  14.220  1.00  0.00     0.157 C 
ATOM     33  C   UNL     1      44.795 128.872  15.020  1.00  0.00     0.041 C 
BRANCH  32  34
ATOM     34  C   UNL     1      43.808 130.766  13.773  1.00  0.00     0.081 C 
ATOM     35  N   UNL     1      42.816 131.248  13.425  1.00  0.00    -0.197 NA
ENDBRANCH  32  34
ENDBRANCH  30  32
ENDBRANCH  29  30
ENDBRANCH  28  29
ENDBRANCH   1  28
TORSDOF 10
ENDMDL
MODEL 9
REMARK VINA RESULT:      -5.7      2.740      3.921
REMARK SMILES C#Cc1ccc(-n2cc(CCCCN(C)[C@@H](C)C#N)n[nH+]2)cc(N)ccc2ccccc12
REMARK SMILES IDX 11 1 10 2 9 3 7 4 8 5 21 6 20 7 6 9 3 10 4 11 32 12 5 13
REMARK SMILES IDX 31 14 27 15 30 16 26 17 28 18 22 19 29 20 25 21 23 22 2 23
REMARK SMILES IDX 1 24 24 25 12 28 13 29 14 30 15 31 16 32 17 33 18 34 19 35
REMARK H PARENT 21 8 24 26 24 27
ROOT
ATOM      1  C   UNL     1      43.974 132.680  15.552  1.00  0.00     0.008 C 
ENDROOT
BRANCH   1   2
ATOM      2  C   UNL     1      44.551 134.072  15.858  1.00  0.00     0.065 C 
BRANCH   2   3
ATOM      3  C   UNL     1      43.777 134.851  16.888  1.00  0.00     0.132 A 
ATOM      4  N   UNL     1      43.039 135.739  18.746  1.00  0.00    -0.104 N 
ATOM      5  C   UNL     1      44.032 134.983  18.242  1.00  0.00     0.190 A 
ATOM      6  N   UNL     1      42.230 136.056  17.746  1.00  0.00    -0.012 N 
ATOM      7  N   UNL     1      42.649 135.536  16.603  1.00  0.00     0.020 NA
ATOM      8  H   UNL     1      41.371 136.643  17.834  1.00  0.00     0.527 HD
BRANCH   4   9
ATOM      9  C   UNL     1      42.836 136.086  20.129  1.00  0.00     0.109 A 
ATOM     10  C   UNL     1      45.217 137.942  19.657  1.00  0.00     0.032 A 
ATOM     11  C   UNL     1      45.112 136.936  20.645  1.00  0.00     0.020 A 
ATOM     12  C   UNL     1      44.110 138.667  19.129  1.00  0.00    -0.003 A 
ATOM     13  C   UNL     1      43.940 136.240  20.986  1.00  0.00     0.034 A 
ATOM     14  C   UNL     1      44.115 139.018  17.760  1.00  0.00     0.010 A 
ATOM     15  C   UNL     1      42.933 138.944  19.892  1.00  0.00    -0.017 A 
ATOM     16  C   UNL     1      42.958 139.489  17.137  1.00  0.00     0.001 A 
ATOM     17  C   UNL     1      42.937 138.901  21.298  1.00  0.00     0.011 A 
ATOM     18  C   UNL     1      41.761 139.357  19.229  1.00  0.00     0.009 A 
ATOM     19  C   UNL     1      41.526 136.287  20.606  1.00  0.00     0.058 A 
ATOM     20  C   UNL     1      41.777 139.624  17.861  1.00  0.00     0.001 A 
ATOM     21  C   UNL     1      41.950 138.266  22.069  1.00  0.00     0.026 A 
ATOM     22  C   UNL     1      41.164 137.168  21.651  1.00  0.00     0.034 A 
BRANCH  10  23
ATOM     23  C   UNL     1      46.548 138.237  19.181  1.00  0.00    -0.070 C 
ATOM     24  C   UNL     1      47.659 138.483  18.781  1.00  0.00     0.010 C 
ENDBRANCH  10  23
BRANCH  22  25
ATOM     25  N   UNL     1      39.924 136.932  22.328  1.00  0.00    -0.399 N 
ATOM     26  H   UNL     1      39.019 137.260  21.921  1.00  0.00     0.156 HD
ATOM     27  H   UNL     1      39.899 136.424  23.240  1.00  0.00     0.156 HD
ENDBRANCH  22  25
ENDBRANCH   4   9
ENDBRANCH   2   3
ENDBRANCH   1   2
BRANCH   1  28
ATOM     28  C   UNL     1      44.757 131.560  16.261  1.00  0.00     0.016 C 
BRANCH  28  29
ATOM     29  C   UNL     1      46.084 131.264  15.551  1.00  0.00     0.085 C 
BRANCH  29  30
ATOM     30  N   UNL     1      46.244 129.808  15.316  1.00  0.00    -0.291 NA
ATOM     31  C   UNL     1      45.070 129.058  15.811  1.00  0.00     0.106 C 
BRANCH  30  32
ATOM     32  C   UNL     1      46.585 129.510  13.898  1.00  0.00     0.157 C 
ATOM     33  C   UNL     1      46.012 130.564  12.943  1.00  0.00     0.041 C 
BRANCH  32  34
ATOM     34  C   UNL     1      48.040 129.358  13.685  1.00  0.00     0.081 C 
ATOM     35  N   UNL     1      49.179 129.241  13.519  1.00  0.00    -0.197 NA
ENDBRANCH  32  34
ENDBRANCH  30  32
ENDBRANCH  29  30
ENDBRANCH  28  29
ENDBRANCH   1  28
TORSDOF 10
ENDMDL


