MODEL 1
REMARK VINA RESULT:      -7.2      0.000      0.000
REMARK SMILES C=C(C)C(OC(=O)[C@H]1C[C@@H]2C[C@@H]2C1)=[N+]1C[C@@H]2CC[C@H](Oc3ccc4c5c(ccc(N=[N+]=[N-])c35)CC4)[C@@H]2C1
REMARK SMILES IDX 14 1 37 2 36 3 19 4 18 5 17 6 16 7 15 8 4 9 2 10 1 11 3 12
REMARK SMILES IDX 5 13 6 14 7 15 8 16 9 17 13 18 10 19 12 20 11 21 20 22 21 23
REMARK SMILES IDX 22 24 33 25 23 26 29 27 25 28 24 29 28 30 26 31 35 32 27 33
REMARK SMILES IDX 34 34 30 35 31 36 32 37
REMARK H PARENT
ROOT
ATOM      1  N   UNL     1      43.016 132.745  17.814  1.00  0.00    -0.197 N 
ATOM      2  C   UNL     1      43.475 133.925  18.530  1.00  0.00     0.362 C 
ATOM      3  C   UNL     1      44.211 133.405  19.773  1.00  0.00     0.105 C 
ATOM      4  C   UNL     1      43.964 134.168  21.101  1.00  0.00     0.183 C 
ATOM      5  C   UNL     1      43.155 133.218  21.988  1.00  0.00     0.046 C 
ATOM      6  C   UNL     1      42.636 132.118  21.078  1.00  0.00     0.014 C 
ATOM      7  C   UNL     1      43.687 131.990  19.978  1.00  0.00     0.068 C 
ATOM      8  C   UNL     1      43.113 131.539  18.631  1.00  0.00     0.358 C 
ENDROOT
BRANCH   1   9
ATOM      9  C   UNL     1      42.667 132.765  16.549  1.00  0.00     0.372 C 
BRANCH   9  10
ATOM     10  C   UNL     1      41.832 133.844  15.982  1.00  0.00     0.054 C 
ATOM     11  C   UNL     1      40.519 133.875  16.217  1.00  0.00     0.023 C 
ATOM     12  C   UNL     1      42.508 135.023  15.347  1.00  0.00     0.055 C 
ENDBRANCH   9  10
BRANCH   9  13
ATOM     13  O   UNL     1      43.012 131.708  15.699  1.00  0.00    -0.371 OA
BRANCH  13  14
ATOM     14  C   UNL     1      44.228 131.641  15.008  1.00  0.00     0.318 C 
ATOM     15  O   UNL     1      44.948 132.669  14.877  1.00  0.00    -0.251 OA
BRANCH  14  16
ATOM     16  C   UNL     1      44.702 130.323  14.450  1.00  0.00     0.100 C 
ATOM     17  C   UNL     1      45.528 130.546  13.186  1.00  0.00     0.019 C 
ATOM     18  C   UNL     1      45.640 129.610  15.423  1.00  0.00     0.019 C 
ATOM     19  C   UNL     1      46.987 130.592  13.621  1.00  0.00    -0.007 C 
ATOM     20  C   UNL     1      47.058 130.006  15.022  1.00  0.00    -0.007 C 
ATOM     21  C   UNL     1      47.680 129.255  13.850  1.00  0.00     0.007 C 
ENDBRANCH  14  16
ENDBRANCH  13  14
ENDBRANCH   9  13
ENDBRANCH   1   9
BRANCH   4  22
ATOM     22  O   UNL     1      43.237 135.387  20.925  1.00  0.00    -0.489 OA
BRANCH  22  23
ATOM     23  C   UNL     1      43.588 136.440  20.067  1.00  0.00     0.128 A 
ATOM     24  C   UNL     1      44.908 136.973  20.037  1.00  0.00     0.047 A 
ATOM     25  C   UNL     1      42.607 136.977  19.193  1.00  0.00     0.034 A 
ATOM     26  C   UNL     1      45.246 138.024  19.160  1.00  0.00     0.008 A 
ATOM     27  C   UNL     1      41.270 136.510  19.065  1.00  0.00     0.049 A 
ATOM     28  C   UNL     1      43.001 138.020  18.353  1.00  0.00    -0.008 A 
ATOM     29  C   UNL     1      44.259 138.534  18.320  1.00  0.00    -0.039 A 
ATOM     30  C   UNL     1      40.420 137.105  18.089  1.00  0.00     0.011 A 
ATOM     31  C   UNL     1      42.193 138.595  17.423  1.00  0.00    -0.039 A 
ATOM     32  C   UNL     1      44.368 139.590  17.265  1.00  0.00     0.041 C 
ATOM     33  C   UNL     1      40.883 138.148  17.262  1.00  0.00     0.005 A 
ATOM     34  C   UNL     1      42.946 139.624  16.638  1.00  0.00     0.041 C 
BRANCH  27  35
ATOM     35  N   UNL     1      40.785 135.459  19.912  1.00  0.00    -0.060 NA
BRANCH  35  36
ATOM     36  N   UNL     1      39.700 134.904  19.724  1.00  0.00     0.005 N 
ATOM     37  N   UNL     1      38.619 134.348  19.540  1.00  0.00    -0.003 NA
ENDBRANCH  35  36
ENDBRANCH  27  35
ENDBRANCH  22  23
ENDBRANCH   4  22
TORSDOF 9
ENDMDL
MODEL 2
REMARK VINA RESULT:      -6.9      3.029      6.105
REMARK SMILES C=C(C)C(OC(=O)[C@H]1C[C@@H]2C[C@@H]2C1)=[N+]1C[C@@H]2CC[C@H](Oc3ccc4c5c(ccc(N=[N+]=[N-])c35)CC4)[C@@H]2C1
REMARK SMILES IDX 14 1 37 2 36 3 19 4 18 5 17 6 16 7 15 8 4 9 2 10 1 11 3 12
REMARK SMILES IDX 5 13 6 14 7 15 8 16 9 17 13 18 10 19 12 20 11 21 20 22 21 23
REMARK SMILES IDX 22 24 33 25 23 26 29 27 25 28 24 29 28 30 26 31 35 32 27 33
REMARK SMILES IDX 34 34 30 35 31 36 32 37
REMARK H PARENT
ROOT
ATOM      1  N   UNL     1      44.605 131.896  16.471  1.00  0.00    -0.197 N 
ATOM      2  C   UNL     1      43.214 131.808  16.056  1.00  0.00     0.362 C 
ATOM      3  C   UNL     1      42.977 133.000  15.117  1.00  0.00     0.105 C 
ATOM      4  C   UNL     1      41.634 133.757  15.277  1.00  0.00     0.183 C 
ATOM      5  C   UNL     1      41.989 135.127  15.860  1.00  0.00     0.046 C 
ATOM      6  C   UNL     1      43.417 135.021  16.366  1.00  0.00     0.014 C 
ATOM      7  C   UNL     1      44.081 133.993  15.455  1.00  0.00     0.068 C 
ATOM      8  C   UNL     1      45.192 133.191  16.142  1.00  0.00     0.358 C 
ENDROOT
BRANCH   1   9
ATOM      9  C   UNL     1      45.268 130.881  16.976  1.00  0.00     0.372 C 
BRANCH   9  10
ATOM     10  C   UNL     1      45.807 129.797  16.129  1.00  0.00     0.054 C 
ATOM     11  C   UNL     1      45.057 128.733  15.836  1.00  0.00     0.023 C 
ATOM     12  C   UNL     1      47.107 130.019  15.413  1.00  0.00     0.055 C 
ENDBRANCH   9  10
BRANCH   9  13
ATOM     13  O   UNL     1      45.419 130.748  18.360  1.00  0.00    -0.371 OA
BRANCH  13  14
ATOM     14  C   UNL     1      44.683 131.493  19.290  1.00  0.00     0.318 C 
ATOM     15  O   UNL     1      43.453 131.269  19.461  1.00  0.00    -0.251 OA
BRANCH  14  16
ATOM     16  C   UNL     1      45.372 132.545  20.122  1.00  0.00     0.100 C 
ATOM     17  C   UNL     1      44.418 133.700  20.416  1.00  0.00     0.019 C 
ATOM     18  C   UNL     1      45.774 131.997  21.491  1.00  0.00     0.019 C 
ATOM     19  C   UNL     1      43.786 133.411  21.772  1.00  0.00    -0.007 C 
ATOM     20  C   UNL     1      44.634 132.344  22.446  1.00  0.00    -0.007 C 
ATOM     21  C   UNL     1      44.608 133.761  23.005  1.00  0.00     0.007 C 
ENDBRANCH  14  16
ENDBRANCH  13  14
ENDBRANCH   9  13
ENDBRANCH   1   9
BRANCH   4  22
ATOM     22  O   UNL     1      40.712 133.096  16.148  1.00  0.00    -0.489 OA
BRANCH  22  23
ATOM     23  C   UNL     1      40.160 133.629  17.324  1.00  0.00     0.128 A 
ATOM     24  C   UNL     1      40.865 133.598  18.561  1.00  0.00     0.047 A 
ATOM     25  C   UNL     1      38.876 134.230  17.274  1.00  0.00     0.034 A 
ATOM     26  C   UNL     1      40.300 134.149  19.730  1.00  0.00     0.008 A 
ATOM     27  C   UNL     1      38.083 134.391  16.105  1.00  0.00     0.049 A 
ATOM     28  C   UNL     1      38.369 134.752  18.466  1.00  0.00    -0.008 A 
ATOM     29  C   UNL     1      39.034 134.725  19.652  1.00  0.00    -0.039 A 
ATOM     30  C   UNL     1      36.841 135.083  16.202  1.00  0.00     0.011 A 
ATOM     31  C   UNL     1      37.182 135.409  18.565  1.00  0.00    -0.039 A 
ATOM     32  C   UNL     1      38.247 135.426  20.713  1.00  0.00     0.041 C 
ATOM     33  C   UNL     1      36.390 135.597  17.435  1.00  0.00     0.005 A 
ATOM     34  C   UNL     1      36.974 135.908  19.961  1.00  0.00     0.041 C 
BRANCH  27  35
ATOM     35  N   UNL     1      38.526 133.859  14.850  1.00  0.00    -0.060 NA
BRANCH  35  36
ATOM     36  N   UNL     1      37.958 134.112  13.785  1.00  0.00     0.005 N 
ATOM     37  N   UNL     1      37.389 134.365  12.725  1.00  0.00    -0.003 NA
ENDBRANCH  35  36
ENDBRANCH  27  35
ENDBRANCH  22  23
ENDBRANCH   4  22
TORSDOF 9
ENDMDL
MODEL 3
REMARK VINA RESULT:      -6.8      2.676      7.414
REMARK SMILES C=C(C)C(OC(=O)[C@H]1C[C@@H]2C[C@@H]2C1)=[N+]1C[C@@H]2CC[C@H](Oc3ccc4c5c(ccc(N=[N+]=[N-])c35)CC4)[C@@H]2C1
REMARK SMILES IDX 14 1 37 2 36 3 19 4 18 5 17 6 16 7 15 8 4 9 2 10 1 11 3 12
REMARK SMILES IDX 5 13 6 14 7 15 8 16 9 17 13 18 10 19 12 20 11 21 20 22 21 23
REMARK SMILES IDX 22 24 33 25 23 26 29 27 25 28 24 29 28 30 26 31 35 32 27 33
REMARK SMILES IDX 34 34 30 35 31 36 32 37
REMARK H PARENT
ROOT
ATOM      1  N   UNL     1      39.786 137.424  17.684  1.00  0.00    -0.197 N 
ATOM      2  C   UNL     1      40.815 136.460  18.043  1.00  0.00     0.362 C 
ATOM      3  C   UNL     1      42.115 136.973  17.404  1.00  0.00     0.105 C 
ATOM      4  C   UNL     1      43.036 135.911  16.750  1.00  0.00     0.183 C 
ATOM      5  C   UNL     1      42.965 136.164  15.242  1.00  0.00     0.046 C 
ATOM      6  C   UNL     1      41.770 137.074  15.014  1.00  0.00     0.014 C 
ATOM      7  C   UNL     1      41.663 137.906  16.289  1.00  0.00     0.068 C 
ATOM      8  C   UNL     1      40.229 138.328  16.627  1.00  0.00     0.358 C 
ENDROOT
BRANCH   1   9
ATOM      9  C   UNL     1      38.645 137.525  18.325  1.00  0.00     0.372 C 
BRANCH   9  10
ATOM     10  C   UNL     1      38.475 138.421  19.487  1.00  0.00     0.054 C 
ATOM     11  C   UNL     1      37.373 139.163  19.612  1.00  0.00     0.023 C 
ATOM     12  C   UNL     1      39.437 138.308  20.633  1.00  0.00     0.055 C 
ENDBRANCH   9  10
BRANCH   9  13
ATOM     13  O   UNL     1      37.558 136.716  17.976  1.00  0.00    -0.371 OA
BRANCH  13  14
ATOM     14  C   UNL     1      37.462 135.363  18.326  1.00  0.00     0.318 C 
ATOM     15  O   UNL     1      37.474 135.013  19.539  1.00  0.00    -0.251 OA
BRANCH  14  16
ATOM     16  C   UNL     1      37.303 134.319  17.250  1.00  0.00     0.100 C 
ATOM     17  C   UNL     1      37.002 134.979  15.908  1.00  0.00     0.019 C 
ATOM     18  C   UNL     1      38.600 133.539  17.035  1.00  0.00     0.019 C 
ATOM     19  C   UNL     1      38.338 135.141  15.192  1.00  0.00    -0.007 C 
ATOM     20  C   UNL     1      39.339 134.240  15.897  1.00  0.00    -0.007 C 
ATOM     21  C   UNL     1      38.890 133.915  14.478  1.00  0.00     0.007 C 
ENDBRANCH  14  16
ENDBRANCH  13  14
ENDBRANCH   9  13
ENDBRANCH   1   9
BRANCH   4  22
ATOM     22  O   UNL     1      42.634 134.567  17.024  1.00  0.00    -0.489 OA
BRANCH  22  23
ATOM     23  C   UNL     1      43.213 133.406  16.489  1.00  0.00     0.128 A 
ATOM     24  C   UNL     1      43.076 133.068  15.112  1.00  0.00     0.047 A 
ATOM     25  C   UNL     1      43.971 132.557  17.336  1.00  0.00     0.034 A 
ATOM     26  C   UNL     1      43.675 131.904  14.588  1.00  0.00     0.008 A 
ATOM     27  C   UNL     1      44.248 132.794  18.711  1.00  0.00     0.049 A 
ATOM     28  C   UNL     1      44.534 131.416  16.760  1.00  0.00    -0.008 A 
ATOM     29  C   UNL     1      44.406 131.086  15.447  1.00  0.00    -0.039 A 
ATOM     30  C   UNL     1      45.087 131.883  19.414  1.00  0.00     0.011 A 
ATOM     31  C   UNL     1      45.332 130.541  17.428  1.00  0.00    -0.039 A 
ATOM     32  C   UNL     1      45.184 129.846  15.138  1.00  0.00     0.041 C 
ATOM     33  C   UNL     1      45.635 130.755  18.771  1.00  0.00     0.005 A 
ATOM     34  C   UNL     1      45.832 129.476  16.502  1.00  0.00     0.041 C 
BRANCH  27  35
ATOM     35  N   UNL     1      43.683 133.931  19.378  1.00  0.00    -0.060 NA
BRANCH  35  36
ATOM     36  N   UNL     1      44.378 134.816  19.881  1.00  0.00     0.005 N 
ATOM     37  N   UNL     1      45.069 135.699  20.386  1.00  0.00    -0.003 NA
ENDBRANCH  35  36
ENDBRANCH  27  35
ENDBRANCH  22  23
ENDBRANCH   4  22
TORSDOF 9
ENDMDL
MODEL 4
REMARK VINA RESULT:      -6.7      1.933      6.806
REMARK SMILES C=C(C)C(OC(=O)[C@H]1C[C@@H]2C[C@@H]2C1)=[N+]1C[C@@H]2CC[C@H](Oc3ccc4c5c(ccc(N=[N+]=[N-])c35)CC4)[C@@H]2C1
REMARK SMILES IDX 14 1 37 2 36 3 19 4 18 5 17 6 16 7 15 8 4 9 2 10 1 11 3 12
REMARK SMILES IDX 5 13 6 14 7 15 8 16 9 17 13 18 10 19 12 20 11 21 20 22 21 23
REMARK SMILES IDX 22 24 33 25 23 26 29 27 25 28 24 29 28 30 26 31 35 32 27 33
REMARK SMILES IDX 34 34 30 35 31 36 32 37
REMARK H PARENT
ROOT
ATOM      1  N   UNL     1      43.729 135.103  21.775  1.00  0.00    -0.197 N 
ATOM      2  C   UNL     1      43.164 134.191  20.792  1.00  0.00     0.362 C 
ATOM      3  C   UNL     1      43.359 132.780  21.365  1.00  0.00     0.105 C 
ATOM      4  C   UNL     1      43.801 131.678  20.368  1.00  0.00     0.183 C 
ATOM      5  C   UNL     1      45.241 131.320  20.744  1.00  0.00     0.046 C 
ATOM      6  C   UNL     1      45.732 132.427  21.662  1.00  0.00     0.014 C 
ATOM      7  C   UNL     1      44.482 132.921  22.385  1.00  0.00     0.068 C 
ATOM      8  C   UNL     1      44.539 134.404  22.767  1.00  0.00     0.358 C 
ENDROOT
BRANCH   1   9
ATOM      9  C   UNL     1      43.438 136.383  21.815  1.00  0.00     0.372 C 
BRANCH   9  10
ATOM     10  C   UNL     1      42.272 136.900  22.561  1.00  0.00     0.054 C 
ATOM     11  C   UNL     1      42.000 138.206  22.568  1.00  0.00     0.023 C 
ATOM     12  C   UNL     1      41.273 135.922  23.106  1.00  0.00     0.055 C 
ENDBRANCH   9  10
BRANCH   9  13
ATOM     13  O   UNL     1      44.186 137.306  21.075  1.00  0.00    -0.371 OA
BRANCH  13  14
ATOM     14  C   UNL     1      45.214 136.937  20.199  1.00  0.00     0.318 C 
ATOM     15  O   UNL     1      46.241 136.343  20.630  1.00  0.00    -0.251 OA
BRANCH  14  16
ATOM     16  C   UNL     1      45.079 137.216  18.723  1.00  0.00     0.100 C 
ATOM     17  C   UNL     1      44.296 136.098  18.040  1.00  0.00     0.019 C 
ATOM     18  C   UNL     1      44.271 138.488  18.469  1.00  0.00     0.019 C 
ATOM     19  C   UNL     1      42.841 136.548  17.995  1.00  0.00    -0.007 C 
ATOM     20  C   UNL     1      42.824 138.045  18.264  1.00  0.00    -0.007 C 
ATOM     21  C   UNL     1      42.453 137.515  16.884  1.00  0.00     0.007 C 
ENDBRANCH  14  16
ENDBRANCH  13  14
ENDBRANCH   9  13
ENDBRANCH   1   9
BRANCH   4  22
ATOM     22  O   UNL     1      43.759 132.101  19.003  1.00  0.00    -0.489 OA
BRANCH  22  23
ATOM     23  C   UNL     1      44.460 131.517  17.936  1.00  0.00     0.128 A 
ATOM     24  C   UNL     1      45.615 130.711  18.151  1.00  0.00     0.047 A 
ATOM     25  C   UNL     1      43.997 131.720  16.610  1.00  0.00     0.034 A 
ATOM     26  C   UNL     1      46.300 130.123  17.069  1.00  0.00     0.008 A 
ATOM     27  C   UNL     1      42.829 132.444  16.244  1.00  0.00     0.049 A 
ATOM     28  C   UNL     1      44.722 131.116  15.581  1.00  0.00    -0.008 A 
ATOM     29  C   UNL     1      45.825 130.347  15.778  1.00  0.00    -0.039 A 
ATOM     30  C   UNL     1      42.452 132.501  14.872  1.00  0.00     0.011 A 
ATOM     31  C   UNL     1      44.369 131.171  14.269  1.00  0.00    -0.039 A 
ATOM     32  C   UNL     1      46.322 129.796  14.478  1.00  0.00     0.041 C 
ATOM     33  C   UNL     1      43.222 131.858  13.881  1.00  0.00     0.005 A 
ATOM     34  C   UNL     1      45.311 130.355  13.438  1.00  0.00     0.041 C 
BRANCH  27  35
ATOM     35  N   UNL     1      42.048 133.113  17.244  1.00  0.00    -0.060 NA
BRANCH  35  36
ATOM     36  N   UNL     1      40.815 133.080  17.253  1.00  0.00     0.005 N 
ATOM     37  N   UNL     1      39.587 133.051  17.262  1.00  0.00    -0.003 NA
ENDBRANCH  35  36
ENDBRANCH  27  35
ENDBRANCH  22  23
ENDBRANCH   4  22
TORSDOF 9
ENDMDL
MODEL 5
REMARK VINA RESULT:      -6.5      2.965      6.597
REMARK SMILES C=C(C)C(OC(=O)[C@H]1C[C@@H]2C[C@@H]2C1)=[N+]1C[C@@H]2CC[C@H](Oc3ccc4c5c(ccc(N=[N+]=[N-])c35)CC4)[C@@H]2C1
REMARK SMILES IDX 14 1 37 2 36 3 19 4 18 5 17 6 16 7 15 8 4 9 2 10 1 11 3 12
REMARK SMILES IDX 5 13 6 14 7 15 8 16 9 17 13 18 10 19 12 20 11 21 20 22 21 23
REMARK SMILES IDX 22 24 33 25 23 26 29 27 25 28 24 29 28 30 26 31 35 32 27 33
REMARK SMILES IDX 34 34 30 35 31 36 32 37
REMARK H PARENT
ROOT
ATOM      1  N   UNL     1      45.748 135.051  20.998  1.00  0.00    -0.197 N 
ATOM      2  C   UNL     1      44.585 134.456  20.359  1.00  0.00     0.362 C 
ATOM      3  C   UNL     1      44.343 133.123  21.082  1.00  0.00     0.105 C 
ATOM      4  C   UNL     1      43.957 131.910  20.196  1.00  0.00     0.183 C 
ATOM      5  C   UNL     1      45.158 130.961  20.234  1.00  0.00     0.046 C 
ATOM      6  C   UNL     1      46.319 131.762  20.799  1.00  0.00     0.014 C 
ATOM      7  C   UNL     1      45.675 132.781  21.735  1.00  0.00     0.068 C 
ATOM      8  C   UNL     1      46.457 134.095  21.842  1.00  0.00     0.358 C 
ENDROOT
BRANCH   1   9
ATOM      9  C   UNL     1      46.043 136.328  20.905  1.00  0.00     0.372 C 
BRANCH   9  10
ATOM     10  C   UNL     1      46.297 137.163  22.097  1.00  0.00     0.054 C 
ATOM     11  C   UNL     1      47.513 137.659  22.327  1.00  0.00     0.023 C 
ATOM     12  C   UNL     1      45.127 137.638  22.907  1.00  0.00     0.055 C 
ENDBRANCH   9  10
BRANCH   9  13
ATOM     13  O   UNL     1      46.047 136.968  19.661  1.00  0.00    -0.371 OA
BRANCH  13  14
ATOM     14  C   UNL     1      44.900 137.522  19.078  1.00  0.00     0.318 C 
ATOM     15  O   UNL     1      44.787 138.773  18.949  1.00  0.00    -0.251 OA
BRANCH  14  16
ATOM     16  C   UNL     1      43.808 136.619  18.563  1.00  0.00     0.100 C 
ATOM     17  C   UNL     1      42.440 137.260  18.781  1.00  0.00     0.019 C 
ATOM     18  C   UNL     1      43.921 136.413  17.053  1.00  0.00     0.019 C 
ATOM     19  C   UNL     1      42.090 137.989  17.489  1.00  0.00    -0.007 C 
ATOM     20  C   UNL     1      43.017 137.459  16.407  1.00  0.00    -0.007 C 
ATOM     21  C   UNL     1      41.527 137.147  16.353  1.00  0.00     0.007 C 
ENDBRANCH  14  16
ENDBRANCH  13  14
ENDBRANCH   9  13
ENDBRANCH   1   9
BRANCH   4  22
ATOM     22  O   UNL     1      43.678 132.266  18.840  1.00  0.00    -0.489 OA
BRANCH  22  23
ATOM     23  C   UNL     1      42.474 132.807  18.360  1.00  0.00     0.128 A 
ATOM     24  C   UNL     1      41.453 133.261  19.242  1.00  0.00     0.047 A 
ATOM     25  C   UNL     1      42.278 132.921  16.959  1.00  0.00     0.034 A 
ATOM     26  C   UNL     1      40.255 133.812  18.742  1.00  0.00     0.008 A 
ATOM     27  C   UNL     1      43.226 132.570  15.959  1.00  0.00     0.049 A 
ATOM     28  C   UNL     1      41.069 133.469  16.526  1.00  0.00    -0.008 A 
ATOM     29  C   UNL     1      40.088 133.903  17.362  1.00  0.00    -0.039 A 
ATOM     30  C   UNL     1      42.911 132.810  14.591  1.00  0.00     0.011 A 
ATOM     31  C   UNL     1      40.760 133.696  15.221  1.00  0.00    -0.039 A 
ATOM     32  C   UNL     1      38.957 134.497  16.583  1.00  0.00     0.041 C 
ATOM     33  C   UNL     1      41.675 133.378  14.220  1.00  0.00     0.005 A 
ATOM     34  C   UNL     1      39.425 134.364  15.107  1.00  0.00     0.041 C 
BRANCH  27  35
ATOM     35  N   UNL     1      44.480 131.978  16.326  1.00  0.00    -0.060 NA
BRANCH  35  36
ATOM     36  N   UNL     1      45.473 132.024  15.597  1.00  0.00     0.005 N 
ATOM     37  N   UNL     1      46.466 132.070  14.873  1.00  0.00    -0.003 NA
ENDBRANCH  35  36
ENDBRANCH  27  35
ENDBRANCH  22  23
ENDBRANCH   4  22
TORSDOF 9
ENDMDL
MODEL 6
REMARK VINA RESULT:      -6.4      1.908      3.629
REMARK SMILES C=C(C)C(OC(=O)[C@H]1C[C@@H]2C[C@@H]2C1)=[N+]1C[C@@H]2CC[C@H](Oc3ccc4c5c(ccc(N=[N+]=[N-])c35)CC4)[C@@H]2C1
REMARK SMILES IDX 14 1 37 2 36 3 19 4 18 5 17 6 16 7 15 8 4 9 2 10 1 11 3 12
REMARK SMILES IDX 5 13 6 14 7 15 8 16 9 17 13 18 10 19 12 20 11 21 20 22 21 23
REMARK SMILES IDX 22 24 33 25 23 26 29 27 25 28 24 29 28 30 26 31 35 32 27 33
REMARK SMILES IDX 34 34 30 35 31 36 32 37
REMARK H PARENT
ROOT
ATOM      1  N   UNL     1      41.113 133.820  16.776  1.00  0.00    -0.197 N 
ATOM      2  C   UNL     1      41.023 133.781  18.227  1.00  0.00     0.362 C 
ATOM      3  C   UNL     1      39.524 133.694  18.554  1.00  0.00     0.105 C 
ATOM      4  C   UNL     1      39.019 134.554  19.742  1.00  0.00     0.183 C 
ATOM      5  C   UNL     1      38.152 135.655  19.127  1.00  0.00     0.046 C 
ATOM      6  C   UNL     1      38.455 135.658  17.638  1.00  0.00     0.014 C 
ATOM      7  C   UNL     1      38.819 134.213  17.308  1.00  0.00     0.068 C 
ATOM      8  C   UNL     1      39.819 134.081  16.154  1.00  0.00     0.358 C 
ENDROOT
BRANCH   1   9
ATOM      9  C   UNL     1      42.215 133.539  16.119  1.00  0.00     0.372 C 
BRANCH   9  10
ATOM     10  C   UNL     1      43.112 134.595  15.606  1.00  0.00     0.054 C 
ATOM     11  C   UNL     1      42.816 135.243  14.479  1.00  0.00     0.023 C 
ATOM     12  C   UNL     1      44.224 135.087  16.484  1.00  0.00     0.055 C 
ENDBRANCH   9  10
BRANCH   9  13
ATOM     13  O   UNL     1      42.539 132.215  15.808  1.00  0.00    -0.371 OA
BRANCH  13  14
ATOM     14  C   UNL     1      43.832 131.690  15.931  1.00  0.00     0.318 C 
ATOM     15  O   UNL     1      44.228 131.212  17.030  1.00  0.00    -0.251 OA
BRANCH  14  16
ATOM     16  C   UNL     1      44.746 131.657  14.732  1.00  0.00     0.100 C 
ATOM     17  C   UNL     1      46.203 131.777  15.170  1.00  0.00     0.019 C 
ATOM     18  C   UNL     1      44.654 130.320  13.997  1.00  0.00     0.019 C 
ATOM     19  C   UNL     1      46.739 130.355  15.293  1.00  0.00    -0.007 C 
ATOM     20  C   UNL     1      45.770 129.443  14.559  1.00  0.00    -0.007 C 
ATOM     21  C   UNL     1      47.171 129.668  14.005  1.00  0.00     0.007 C 
ENDBRANCH  14  16
ENDBRANCH  13  14
ENDBRANCH   9  13
ENDBRANCH   1   9
BRANCH   4  22
ATOM     22  O   UNL     1      40.075 135.149  20.499  1.00  0.00    -0.489 OA
BRANCH  22  23
ATOM     23  C   UNL     1      41.099 135.963  19.989  1.00  0.00     0.128 A 
ATOM     24  C   UNL     1      40.816 137.111  19.196  1.00  0.00     0.047 A 
ATOM     25  C   UNL     1      42.449 135.645  20.287  1.00  0.00     0.034 A 
ATOM     26  C   UNL     1      41.856 137.925  18.701  1.00  0.00     0.008 A 
ATOM     27  C   UNL     1      42.883 134.572  21.114  1.00  0.00     0.049 A 
ATOM     28  C   UNL     1      43.434 136.485  19.764  1.00  0.00    -0.008 A 
ATOM     29  C   UNL     1      43.172 137.582  19.005  1.00  0.00    -0.039 A 
ATOM     30  C   UNL     1      44.274 134.422  21.380  1.00  0.00     0.011 A 
ATOM     31  C   UNL     1      44.764 136.344  20.010  1.00  0.00    -0.039 A 
ATOM     32  C   UNL     1      44.440 138.301  18.664  1.00  0.00     0.041 C 
ATOM     33  C   UNL     1      45.218 135.313  20.830  1.00  0.00     0.005 A 
ATOM     34  C   UNL     1      45.537 137.453  19.367  1.00  0.00     0.041 C 
BRANCH  27  35
ATOM     35  N   UNL     1      41.931 133.653  21.666  1.00  0.00    -0.060 NA
BRANCH  35  36
ATOM     36  N   UNL     1      42.239 132.805  22.508  1.00  0.00     0.005 N 
ATOM     37  N   UNL     1      42.549 131.960  23.344  1.00  0.00    -0.003 NA
ENDBRANCH  35  36
ENDBRANCH  27  35
ENDBRANCH  22  23
ENDBRANCH   4  22
TORSDOF 9
ENDMDL
MODEL 7
REMARK VINA RESULT:      -6.4      1.962      4.378
REMARK SMILES C=C(C)C(OC(=O)[C@H]1C[C@@H]2C[C@@H]2C1)=[N+]1C[C@@H]2CC[C@H](Oc3ccc4c5c(ccc(N=[N+]=[N-])c35)CC4)[C@@H]2C1
REMARK SMILES IDX 14 1 37 2 36 3 19 4 18 5 17 6 16 7 15 8 4 9 2 10 1 11 3 12
REMARK SMILES IDX 5 13 6 14 7 15 8 16 9 17 13 18 10 19 12 20 11 21 20 22 21 23
REMARK SMILES IDX 22 24 33 25 23 26 29 27 25 28 24 29 28 30 26 31 35 32 27 33
REMARK SMILES IDX 34 34 30 35 31 36 32 37
REMARK H PARENT
ROOT
ATOM      1  N   UNL     1      44.442 132.462  17.082  1.00  0.00    -0.197 N 
ATOM      2  C   UNL     1      44.047 133.628  17.858  1.00  0.00     0.362 C 
ATOM      3  C   UNL     1      44.503 133.350  19.298  1.00  0.00     0.105 C 
ATOM      4  C   UNL     1      43.523 133.755  20.430  1.00  0.00     0.183 C 
ATOM      5  C   UNL     1      43.013 132.444  21.034  1.00  0.00     0.046 C 
ATOM      6  C   UNL     1      43.383 131.346  20.053  1.00  0.00     0.014 C 
ATOM      7  C   UNL     1      44.661 131.838  19.377  1.00  0.00     0.068 C 
ATOM      8  C   UNL     1      44.823 131.341  17.936  1.00  0.00     0.358 C 
ENDROOT
BRANCH   1   9
ATOM      9  C   UNL     1      44.547 132.474  15.774  1.00  0.00     0.372 C 
BRANCH   9  10
ATOM     10  C   UNL     1      45.321 131.453  15.040  1.00  0.00     0.054 C 
ATOM     11  C   UNL     1      46.632 131.611  14.843  1.00  0.00     0.023 C 
ATOM     12  C   UNL     1      44.670 130.137  14.731  1.00  0.00     0.055 C 
ENDBRANCH   9  10
BRANCH   9  13
ATOM     13  O   UNL     1      43.989 133.516  15.025  1.00  0.00    -0.371 OA
BRANCH  13  14
ATOM     14  C   UNL     1      42.609 133.721  14.902  1.00  0.00     0.318 C 
ATOM     15  O   UNL     1      41.803 132.758  15.027  1.00  0.00    -0.251 OA
BRANCH  14  16
ATOM     16  C   UNL     1      42.076 135.111  14.658  1.00  0.00     0.100 C 
ATOM     17  C   UNL     1      40.953 135.431  15.641  1.00  0.00     0.019 C 
ATOM     18  C   UNL     1      43.148 136.171  14.911  1.00  0.00     0.019 C 
ATOM     19  C   UNL     1      41.595 136.163  16.813  1.00  0.00    -0.007 C 
ATOM     20  C   UNL     1      42.970 136.626  16.357  1.00  0.00    -0.007 C 
ATOM     21  C   UNL     1      41.874 137.649  16.630  1.00  0.00     0.007 C 
ENDBRANCH  14  16
ENDBRANCH  13  14
ENDBRANCH   9  13
ENDBRANCH   1   9
BRANCH   4  22
ATOM     22  O   UNL     1      42.412 134.527  19.967  1.00  0.00    -0.489 OA
BRANCH  22  23
ATOM     23  C   UNL     1      41.998 135.767  20.479  1.00  0.00     0.128 A 
ATOM     24  C   UNL     1      42.912 136.658  21.111  1.00  0.00     0.047 A 
ATOM     25  C   UNL     1      40.638 136.150  20.348  1.00  0.00     0.034 A 
ATOM     26  C   UNL     1      42.481 137.905  21.609  1.00  0.00     0.008 A 
ATOM     27  C   UNL     1      39.627 135.397  19.689  1.00  0.00     0.049 A 
ATOM     28  C   UNL     1      40.272 137.393  20.866  1.00  0.00    -0.008 A 
ATOM     29  C   UNL     1      41.138 138.249  21.472  1.00  0.00    -0.039 A 
ATOM     30  C   UNL     1      38.318 135.948  19.575  1.00  0.00     0.011 A 
ATOM     31  C   UNL     1      39.023 137.922  20.765  1.00  0.00    -0.039 A 
ATOM     32  C   UNL     1      40.443 139.519  21.851  1.00  0.00     0.041 C 
ATOM     33  C   UNL     1      38.016 137.217  20.111  1.00  0.00     0.005 A 
ATOM     34  C   UNL     1      38.987 139.299  21.353  1.00  0.00     0.041 C 
BRANCH  27  35
ATOM     35  N   UNL     1      39.922 134.100  19.154  1.00  0.00    -0.060 NA
BRANCH  35  36
ATOM     36  N   UNL     1      39.257 133.589  18.250  1.00  0.00     0.005 N 
ATOM     37  N   UNL     1      38.594 133.083  17.347  1.00  0.00    -0.003 NA
ENDBRANCH  35  36
ENDBRANCH  27  35
ENDBRANCH  22  23
ENDBRANCH   4  22
TORSDOF 9
ENDMDL
MODEL 8
REMARK VINA RESULT:      -6.4      2.167      7.241
REMARK SMILES C=C(C)C(OC(=O)[C@H]1C[C@@H]2C[C@@H]2C1)=[N+]1C[C@@H]2CC[C@H](Oc3ccc4c5c(ccc(N=[N+]=[N-])c35)CC4)[C@@H]2C1
REMARK SMILES IDX 14 1 37 2 36 3 19 4 18 5 17 6 16 7 15 8 4 9 2 10 1 11 3 12
REMARK SMILES IDX 5 13 6 14 7 15 8 16 9 17 13 18 10 19 12 20 11 21 20 22 21 23
REMARK SMILES IDX 22 24 33 25 23 26 29 27 25 28 24 29 28 30 26 31 35 32 27 33
REMARK SMILES IDX 34 34 30 35 31 36 32 37
REMARK H PARENT
ROOT
ATOM      1  N   UNL     1      40.770 136.246  19.515  1.00  0.00    -0.197 N 
ATOM      2  C   UNL     1      41.017 135.211  18.524  1.00  0.00     0.362 C 
ATOM      3  C   UNL     1      40.727 133.876  19.227  1.00  0.00     0.105 C 
ATOM      4  C   UNL     1      41.706 132.709  18.938  1.00  0.00     0.183 C 
ATOM      5  C   UNL     1      42.479 132.476  20.238  1.00  0.00     0.046 C 
ATOM      6  C   UNL     1      42.229 133.694  21.110  1.00  0.00     0.014 C 
ATOM      7  C   UNL     1      40.839 134.182  20.714  1.00  0.00     0.068 C 
ATOM      8  C   UNL     1      40.655 135.696  20.862  1.00  0.00     0.358 C 
ENDROOT
BRANCH   1   9
ATOM      9  C   UNL     1      40.566 137.505  19.201  1.00  0.00     0.372 C 
BRANCH   9  10
ATOM     10  C   UNL     1      39.210 138.044  18.968  1.00  0.00     0.054 C 
ATOM     11  C   UNL     1      39.020 139.357  18.832  1.00  0.00     0.023 C 
ATOM     12  C   UNL     1      38.098 137.088  18.652  1.00  0.00     0.055 C 
ENDBRANCH   9  10
BRANCH   9  13
ATOM     13  O   UNL     1      41.644 138.371  18.994  1.00  0.00    -0.371 OA
BRANCH  13  14
ATOM     14  C   UNL     1      42.655 138.583  19.941  1.00  0.00     0.318 C 
ATOM     15  O   UNL     1      42.458 139.341  20.930  1.00  0.00    -0.251 OA
BRANCH  14  16
ATOM     16  C   UNL     1      43.976 137.869  19.801  1.00  0.00     0.100 C 
ATOM     17  C   UNL     1      44.512 138.017  18.380  1.00  0.00     0.019 C 
ATOM     18  C   UNL     1      45.043 138.491  20.701  1.00  0.00     0.019 C 
ATOM     19  C   UNL     1      45.454 139.214  18.391  1.00  0.00    -0.007 C 
ATOM     20  C   UNL     1      45.787 139.512  19.845  1.00  0.00    -0.007 C 
ATOM     21  C   UNL     1      46.866 138.976  18.911  1.00  0.00     0.007 C 
ENDBRANCH  14  16
ENDBRANCH  13  14
ENDBRANCH   9  13
ENDBRANCH   1   9
BRANCH   4  22
ATOM     22  O   UNL     1      42.629 132.993  17.882  1.00  0.00    -0.489 OA
BRANCH  22  23
ATOM     23  C   UNL     1      43.704 132.182  17.486  1.00  0.00     0.128 A 
ATOM     24  C   UNL     1      44.676 131.721  18.418  1.00  0.00     0.047 A 
ATOM     25  C   UNL     1      43.814 131.797  16.125  1.00  0.00     0.034 A 
ATOM     26  C   UNL     1      45.744 130.897  18.004  1.00  0.00     0.008 A 
ATOM     27  C   UNL     1      42.890 132.125  15.095  1.00  0.00     0.049 A 
ATOM     28  C   UNL     1      44.896 130.985  15.776  1.00  0.00    -0.008 A 
ATOM     29  C   UNL     1      45.829 130.543  16.660  1.00  0.00    -0.039 A 
ATOM     30  C   UNL     1      43.099 131.603  13.786  1.00  0.00     0.011 A 
ATOM     31  C   UNL     1      45.103 130.488  14.527  1.00  0.00    -0.039 A 
ATOM     32  C   UNL     1      46.811 129.640  15.980  1.00  0.00     0.041 C 
ATOM     33  C   UNL     1      44.206 130.779  13.501  1.00  0.00     0.005 A 
ATOM     34  C   UNL     1      46.303 129.594  14.511  1.00  0.00     0.041 C 
BRANCH  27  35
ATOM     35  N   UNL     1      41.769 132.975  15.372  1.00  0.00    -0.060 NA
BRANCH  35  36
ATOM     36  N   UNL     1      41.258 133.699  14.513  1.00  0.00     0.005 N 
ATOM     37  N   UNL     1      40.749 134.417  13.656  1.00  0.00    -0.003 NA
ENDBRANCH  35  36
ENDBRANCH  27  35
ENDBRANCH  22  23
ENDBRANCH   4  22
TORSDOF 9
ENDMDL
MODEL 9
REMARK VINA RESULT:      -6.3      2.353      4.704
REMARK SMILES C=C(C)C(OC(=O)[C@H]1C[C@@H]2C[C@@H]2C1)=[N+]1C[C@@H]2CC[C@H](Oc3ccc4c5c(ccc(N=[N+]=[N-])c35)CC4)[C@@H]2C1
REMARK SMILES IDX 14 1 37 2 36 3 19 4 18 5 17 6 16 7 15 8 4 9 2 10 1 11 3 12
REMARK SMILES IDX 5 13 6 14 7 15 8 16 9 17 13 18 10 19 12 20 11 21 20 22 21 23
REMARK SMILES IDX 22 24 33 25 23 26 29 27 25 28 24 29 28 30 26 31 35 32 27 33
REMARK SMILES IDX 34 34 30 35 31 36 32 37
REMARK H PARENT
ROOT
ATOM      1  N   UNL     1      43.587 132.194  19.197  1.00  0.00    -0.197 N 
ATOM      2  C   UNL     1      44.514 133.137  19.804  1.00  0.00     0.362 C 
ATOM      3  C   UNL     1      44.629 132.726  21.279  1.00  0.00     0.105 C 
ATOM      4  C   UNL     1      44.653 133.873  22.322  1.00  0.00     0.183 C 
ATOM      5  C   UNL     1      43.325 133.782  23.079  1.00  0.00     0.046 C 
ATOM      6  C   UNL     1      42.425 132.874  22.259  1.00  0.00     0.014 C 
ATOM      7  C   UNL     1      43.376 131.907  21.558  1.00  0.00     0.068 C 
ATOM      8  C   UNL     1      42.862 131.419  20.200  1.00  0.00     0.358 C 
ENDROOT
BRANCH   1   9
ATOM      9  C   UNL     1      43.509 131.998  17.901  1.00  0.00     0.372 C 
BRANCH   9  10
ATOM     10  C   UNL     1      44.624 131.411  17.129  1.00  0.00     0.054 C 
ATOM     11  C   UNL     1      45.567 130.695  17.743  1.00  0.00     0.023 C 
ATOM     12  C   UNL     1      44.552 131.429  15.631  1.00  0.00     0.055 C 
ENDBRANCH   9  10
BRANCH   9  13
ATOM     13  O   UNL     1      42.385 132.419  17.184  1.00  0.00    -0.371 OA
BRANCH  13  14
ATOM     14  C   UNL     1      42.223 133.724  16.703  1.00  0.00     0.318 C 
ATOM     15  O   UNL     1      42.506 134.716  17.431  1.00  0.00    -0.251 OA
BRANCH  14  16
ATOM     16  C   UNL     1      41.744 133.950  15.291  1.00  0.00     0.100 C 
ATOM     17  C   UNL     1      40.223 134.067  15.258  1.00  0.00     0.019 C 
ATOM     18  C   UNL     1      42.262 135.275  14.732  1.00  0.00     0.019 C 
ATOM     19  C   UNL     1      39.897 135.554  15.330  1.00  0.00    -0.007 C 
ATOM     20  C   UNL     1      41.174 136.311  15.001  1.00  0.00    -0.007 C 
ATOM     21  C   UNL     1      39.998 136.346  14.033  1.00  0.00     0.007 C 
ENDBRANCH  14  16
ENDBRANCH  13  14
ENDBRANCH   9  13
ENDBRANCH   1   9
BRANCH   4  22
ATOM     22  O   UNL     1      44.775 135.170  21.734  1.00  0.00    -0.489 OA
BRANCH  22  23
ATOM     23  C   UNL     1      45.974 135.801  21.368  1.00  0.00     0.128 A 
ATOM     24  C   UNL     1      47.233 135.360  21.866  1.00  0.00     0.047 A 
ATOM     25  C   UNL     1      45.932 136.894  20.465  1.00  0.00     0.034 A 
ATOM     26  C   UNL     1      48.430 135.998  21.478  1.00  0.00     0.008 A 
ATOM     27  C   UNL     1      44.763 137.406  19.838  1.00  0.00     0.049 A 
ATOM     28  C   UNL     1      47.150 137.488  20.124  1.00  0.00    -0.008 A 
ATOM     29  C   UNL     1      48.356 137.074  20.596  1.00  0.00    -0.039 A 
ATOM     30  C   UNL     1      44.890 138.466  18.896  1.00  0.00     0.011 A 
ATOM     31  C   UNL     1      47.277 138.504  19.229  1.00  0.00    -0.039 A 
ATOM     32  C   UNL     1      49.463 137.874  19.985  1.00  0.00     0.041 C 
ATOM     33  C   UNL     1      46.152 139.015  18.586  1.00  0.00     0.005 A 
ATOM     34  C   UNL     1      48.720 138.853  19.033  1.00  0.00     0.041 C 
BRANCH  27  35
ATOM     35  N   UNL     1      43.474 136.864  20.158  1.00  0.00    -0.060 NA
BRANCH  35  36
ATOM     36  N   UNL     1      42.544 137.563  20.565  1.00  0.00     0.005 N 
ATOM     37  N   UNL     1      41.616 138.262  20.968  1.00  0.00    -0.003 NA
ENDBRANCH  35  36
ENDBRANCH  27  35
ENDBRANCH  22  23
ENDBRANCH   4  22
TORSDOF 9
ENDMDL


