REMARK SMILES C=C(C)/C(O)=[N+]1/C[C@@H]2CC[C@H](Oc3ccc4c5c(ccc(N=[N+]=[N-])c35)CC4)[C@@H]2C1
REMARK SMILES IDX 12 1 11 2 6 3 29 4 7 5 28 6 8 7 9 8 10 9 4 10 5 11 2 13 1 14
REMARK SMILES IDX 3 15 13 16 14 17 25 18 15 19 21 20 17 21 16 22 20 23 18 24
REMARK SMILES IDX 27 25 19 26 26 27 22 28 23 29 24 30
REMARK H PARENT 5 12
ROOT
ATOM      1  O   UNL     1      -0.499  -0.465   1.234  1.00  0.00    -0.489 OA
ENDROOT
BRANCH   1   2
ATOM      2  C   UNL     1      -1.396  -1.339   0.545  1.00  0.00     0.183 C 
ATOM      3  N   UNL     1      -1.355   0.079  -2.795  1.00  0.00    -0.198 N 
ATOM      4  C   UNL     1      -0.581  -0.126  -1.577  1.00  0.00     0.362 C 
ATOM      5  C   UNL     1      -2.443  -0.882  -2.918  1.00  0.00     0.358 C 
ATOM      6  C   UNL     1      -1.091  -1.435  -0.956  1.00  0.00     0.105 C 
ATOM      7  C   UNL     1      -2.424  -1.725  -1.636  1.00  0.00     0.068 C 
ATOM      8  C   UNL     1      -3.522  -1.354  -0.620  1.00  0.00     0.014 C 
ATOM      9  C   UNL     1      -2.817  -0.806   0.616  1.00  0.00     0.046 C 
BRANCH   3  10
ATOM     10  C   UNL     1      -1.067   0.979  -3.710  1.00  0.00     0.362 C 
BRANCH  10  11
ATOM     11  O   UNL     1      -1.786   1.048  -4.909  1.00  0.00    -0.460 OA
ATOM     12  H   UNL     1      -2.552   0.428  -5.139  1.00  0.00     0.300 HD
ENDBRANCH  10  11
BRANCH  10  13
ATOM     13  C   UNL     1       0.043   1.946  -3.540  1.00  0.00     0.053 C 
ATOM     14  C   UNL     1       1.003   2.011  -4.465  1.00  0.00     0.023 C 
ATOM     15  C   UNL     1       0.081   2.878  -2.361  1.00  0.00     0.055 C 
ENDBRANCH  10  13
ENDBRANCH   3  10
ENDBRANCH   1   2
BRANCH   1  16
ATOM     16  C   UNL     1       0.886  -0.661   1.355  1.00  0.00     0.128 A 
ATOM     17  C   UNL     1       1.466  -1.955   1.226  1.00  0.00     0.047 A 
ATOM     18  C   UNL     1       1.730   0.452   1.608  1.00  0.00     0.034 A 
ATOM     19  C   UNL     1       2.856  -2.142   1.351  1.00  0.00     0.008 A 
ATOM     20  C   UNL     1       1.305   1.804   1.722  1.00  0.00     0.049 A 
ATOM     21  C   UNL     1       3.098   0.202   1.724  1.00  0.00    -0.008 A 
ATOM     22  C   UNL     1       3.657  -1.030   1.605  1.00  0.00    -0.039 A 
ATOM     23  C   UNL     1       2.278   2.817   1.957  1.00  0.00     0.011 A 
ATOM     24  C   UNL     1       4.030   1.165   1.947  1.00  0.00    -0.039 A 
ATOM     25  C   UNL     1       5.142  -0.950   1.771  1.00  0.00     0.041 C 
ATOM     26  C   UNL     1       3.645   2.498   2.072  1.00  0.00     0.005 A 
ATOM     27  C   UNL     1       5.400   0.566   2.002  1.00  0.00     0.041 C 
BRANCH  20  28
ATOM     28  N   UNL     1      -0.085   2.138   1.584  1.00  0.00    -0.060 NA
BRANCH  28  29
ATOM     29  N   UNL     1      -0.498   3.297   1.653  1.00  0.00     0.005 N 
ATOM     30  N   UNL     1      -0.914   4.452   1.721  1.00  0.00    -0.003 NA
ENDBRANCH  28  29
ENDBRANCH  20  28
ENDBRANCH   1  16
TORSDOF 7


