REMARK SMILES Cc1nnn(C/C([O-])=N/c2cccc(C#N)c2C)c1-c1cc2ccccc2c2ccccc12
REMARK SMILES IDX 9 1 10 2 12 3 13 4 11 5 14 6 17 7 18 8 15 9 16 10 7 11 8 12
REMARK SMILES IDX 6 13 5 14 4 15 19 16 3 17 2 18 1 19 20 20 21 21 33 22 22 23
REMARK SMILES IDX 32 24 28 25 23 26 27 27 31 28 29 29 24 30 26 31 30 32 25 33
REMARK H PARENT
ROOT
ATOM      1  N   UNL     1       1.611   1.785   0.991  1.00  0.00    -0.267 NA
ENDROOT
BRANCH   1   2
ATOM      2  C   UNL     1       0.615   2.807   1.190  1.00  0.00     0.066 A 
ATOM      3  C   UNL     1      -0.591   4.364   2.623  1.00  0.00     0.004 A 
ATOM      4  C   UNL     1      -1.367   4.773   1.542  1.00  0.00     0.020 A 
ATOM      5  C   UNL     1       0.402   3.401   2.450  1.00  0.00     0.028 A 
ATOM      6  C   UNL     1      -1.141   4.241   0.269  1.00  0.00     0.057 A 
ATOM      7  C   UNL     1      -0.143   3.255   0.078  1.00  0.00    -0.008 A 
ATOM      8  C   UNL     1       0.152   2.741  -1.313  1.00  0.00     0.048 C 
BRANCH   6   9
ATOM      9  C   UNL     1      -1.940   4.729  -0.830  1.00  0.00     0.099 C 
ATOM     10  N   UNL     1      -2.580   5.119  -1.712  1.00  0.00    -0.192 NA
ENDBRANCH   6   9
ENDBRANCH   1   2
BRANCH   1  11
ATOM     11  C   UNL     1       2.060   0.919   1.853  1.00  0.00    -0.014 C 
ATOM     12  O   UNL     1       1.580   0.868   3.158  1.00  0.00    -0.860 OA
BRANCH  11  13
ATOM     13  C   UNL     1       3.060  -0.103   1.412  1.00  0.00     0.186 C 
BRANCH  13  14
ATOM     14  N   UNL     1       2.556  -1.447   1.694  1.00  0.00    -0.240 N 
ATOM     15  N   UNL     1       3.039  -2.239   2.639  1.00  0.00    -0.066 NA
ATOM     16  C   UNL     1       1.501  -2.067   1.132  1.00  0.00     0.092 A 
ATOM     17  N   UNL     1       2.337  -3.363   2.709  1.00  0.00    -0.135 NA
ATOM     18  C   UNL     1       1.375  -3.283   1.768  1.00  0.00     0.088 A 
ATOM     19  C   UNL     1       0.300  -4.299   1.565  1.00  0.00     0.071 C 
BRANCH  16  20
ATOM     20  C   UNL     1       0.619  -1.506   0.089  1.00  0.00     0.010 A 
ATOM     21  C   UNL     1       1.007  -1.661  -1.240  1.00  0.00     0.019 A 
ATOM     22  C   UNL     1      -0.576  -0.819   0.402  1.00  0.00    -0.008 A 
ATOM     23  C   UNL     1       0.220  -1.167  -2.282  1.00  0.00    -0.017 A 
ATOM     24  C   UNL     1      -0.969  -0.637   1.746  1.00  0.00     0.009 A 
ATOM     25  C   UNL     1      -1.385  -0.281  -0.644  1.00  0.00    -0.010 A 
ATOM     26  C   UNL     1       0.643  -1.355  -3.608  1.00  0.00     0.009 A 
ATOM     27  C   UNL     1      -0.993  -0.479  -2.005  1.00  0.00    -0.010 A 
ATOM     28  C   UNL     1      -2.111   0.093   2.063  1.00  0.00     0.001 A 
ATOM     29  C   UNL     1      -2.540   0.458  -0.285  1.00  0.00     0.009 A 
ATOM     30  C   UNL     1      -0.123  -0.877  -4.668  1.00  0.00     0.001 A 
ATOM     31  C   UNL     1      -1.756  -0.015  -3.106  1.00  0.00     0.009 A 
ATOM     32  C   UNL     1      -2.888   0.643   1.053  1.00  0.00     0.001 A 
ATOM     33  C   UNL     1      -1.319  -0.213  -4.417  1.00  0.00     0.001 A 
ENDBRANCH  16  20
ENDBRANCH  13  14
ENDBRANCH  11  13
ENDBRANCH   1  11
TORSDOF 6


