MODEL 1
REMARK VINA RESULT:      -7.5      0.000      0.000
REMARK SMILES Cc1cc(-n2cc(C[C@@H](C)NC(=O)[C@H](C)C#N)[nH+]n2)[nH+]c2ccc3ccccc3c12
REMARK SMILES IDX 9 1 10 2 8 3 7 4 5 5 6 6 19 7 18 8 4 10 2 11 3 12 30 13
REMARK SMILES IDX 29 14 21 15 20 16 28 17 24 18 22 19 27 20 23 21 25 22 26 23
REMARK SMILES IDX 1 24 11 26 12 27 13 29 14 30 15 31 16 32 17 33
REMARK H PARENT 18 9 20 25 11 28
ROOT
ATOM      1  C   UNL     1      38.029 136.056  16.181  1.00  0.00     0.087 C 
ATOM      2  C   UNL     1      37.159 137.319  16.248  1.00  0.00     0.031 C 
ENDROOT
BRANCH   1   3
ATOM      3  C   UNL     1      39.198 136.125  17.183  1.00  0.00     0.110 C 
BRANCH   3   4
ATOM      4  C   UNL     1      40.015 134.866  17.177  1.00  0.00     0.167 A 
ATOM      5  N   UNL     1      41.459 133.311  16.649  1.00  0.00    -0.065 N 
ATOM      6  C   UNL     1      41.088 134.577  16.360  1.00  0.00     0.285 A 
ATOM      7  N   UNL     1      40.643 132.846  17.587  1.00  0.00     0.097 NA
ATOM      8  N   UNL     1      39.761 133.774  17.919  1.00  0.00    -0.147 N 
ATOM      9  H   UNL     1      39.000 133.651  18.623  1.00  0.00     0.342 HD
BRANCH   5  10
ATOM     10  C   UNL     1      42.520 132.547  16.045  1.00  0.00     0.308 A 
ATOM     11  C   UNL     1      43.526 131.547  14.069  1.00  0.00    -0.031 A 
ATOM     12  C   UNL     1      42.506 132.297  14.671  1.00  0.00     0.105 A 
ATOM     13  C   UNL     1      44.658 131.155  14.848  1.00  0.00     0.032 A 
ATOM     14  C   UNL     1      45.865 130.582  14.324  1.00  0.00    -0.007 A 
ATOM     15  C   UNL     1      44.549 131.310  16.261  1.00  0.00     0.133 A 
ATOM     16  N   UNL     1      43.511 132.006  16.807  1.00  0.00    -0.238 N 
ATOM     17  C   UNL     1      46.259 130.701  12.970  1.00  0.00     0.009 A 
ATOM     18  C   UNL     1      46.779 129.953  15.216  1.00  0.00    -0.017 A 
ATOM     19  C   UNL     1      45.497 130.726  17.110  1.00  0.00     0.053 A 
ATOM     20  C   UNL     1      47.417 130.077  12.496  1.00  0.00     0.001 A 
ATOM     21  C   UNL     1      46.567 130.009  16.595  1.00  0.00     0.013 A 
ATOM     22  C   UNL     1      47.932 129.317  14.725  1.00  0.00     0.009 A 
ATOM     23  C   UNL     1      48.235 129.363  13.366  1.00  0.00     0.001 A 
ATOM     24  C   UNL     1      43.263 131.082  12.657  1.00  0.00     0.045 C 
ATOM     25  H   UNL     1      43.471 132.115  17.845  1.00  0.00     0.312 HD
ENDBRANCH   5  10
ENDBRANCH   3   4
ENDBRANCH   1   3
BRANCH   1  26
ATOM     26  N   UNL     1      38.548 135.891  14.819  1.00  0.00    -0.352 N 
ATOM     27  C   UNL     1      37.724 135.439  13.733  1.00  0.00     0.237 C 
ATOM     28  H   UNL     1      39.553 136.109  14.628  1.00  0.00     0.163 HD
ATOM     29  O   UNL     1      36.516 135.137  13.937  1.00  0.00    -0.274 OA
BRANCH  27  30
ATOM     30  C   UNL     1      38.291 135.342  12.342  1.00  0.00     0.178 C 
ATOM     31  C   UNL     1      38.903 136.678  11.916  1.00  0.00     0.034 C 
BRANCH  30  32
ATOM     32  C   UNL     1      37.240 134.937  11.398  1.00  0.00     0.075 C 
ATOM     33  N   UNL     1      36.413 134.618  10.654  1.00  0.00    -0.197 NA
ENDBRANCH  30  32
ENDBRANCH  27  30
ENDBRANCH   1  26
TORSDOF 6
ENDMDL
MODEL 2
REMARK VINA RESULT:      -7.2      2.007      2.609
REMARK SMILES Cc1cc(-n2cc(C[C@@H](C)NC(=O)[C@H](C)C#N)[nH+]n2)[nH+]c2ccc3ccccc3c12
REMARK SMILES IDX 9 1 10 2 8 3 7 4 5 5 6 6 19 7 18 8 4 10 2 11 3 12 30 13
REMARK SMILES IDX 29 14 21 15 20 16 28 17 24 18 22 19 27 20 23 21 25 22 26 23
REMARK SMILES IDX 1 24 11 26 12 27 13 29 14 30 15 31 16 32 17 33
REMARK H PARENT 18 9 20 25 11 28
ROOT
ATOM      1  C   UNL     1      40.348 136.668  19.427  1.00  0.00     0.087 C 
ATOM      2  C   UNL     1      40.688 138.138  19.702  1.00  0.00     0.031 C 
ENDROOT
BRANCH   1   3
ATOM      3  C   UNL     1      41.261 135.718  20.228  1.00  0.00     0.110 C 
BRANCH   3   4
ATOM      4  C   UNL     1      41.570 134.463  19.466  1.00  0.00     0.167 A 
ATOM      5  N   UNL     1      42.455 133.018  18.085  1.00  0.00    -0.065 N 
ATOM      6  C   UNL     1      42.617 134.259  18.593  1.00  0.00     0.285 A 
ATOM      7  N   UNL     1      41.355 132.497  18.613  1.00  0.00     0.097 NA
ATOM      8  N   UNL     1      40.804 133.358  19.452  1.00  0.00    -0.147 N 
ATOM      9  H   UNL     1      39.921 133.193  19.984  1.00  0.00     0.342 HD
BRANCH   5  10
ATOM     10  C   UNL     1      43.282 132.352  17.111  1.00  0.00     0.308 A 
ATOM     11  C   UNL     1      43.702 131.704  14.804  1.00  0.00    -0.031 A 
ATOM     12  C   UNL     1      42.914 132.355  15.763  1.00  0.00     0.105 A 
ATOM     13  C   UNL     1      44.962 131.152  15.193  1.00  0.00     0.032 A 
ATOM     14  C   UNL     1      45.962 130.657  14.290  1.00  0.00    -0.007 A 
ATOM     15  C   UNL     1      45.214 131.052  16.592  1.00  0.00     0.133 A 
ATOM     16  N   UNL     1      44.391 131.661  17.494  1.00  0.00    -0.238 N 
ATOM     17  C   UNL     1      46.020 131.010  12.921  1.00  0.00     0.009 A 
ATOM     18  C   UNL     1      47.024 129.857  14.802  1.00  0.00    -0.017 A 
ATOM     19  C   UNL     1      46.300 130.303  17.062  1.00  0.00     0.053 A 
ATOM     20  C   UNL     1      46.981 130.457  12.071  1.00  0.00     0.001 A 
ATOM     21  C   UNL     1      47.161 129.668  16.178  1.00  0.00     0.013 A 
ATOM     22  C   UNL     1      47.975 129.296  13.934  1.00  0.00     0.009 A 
ATOM     23  C   UNL     1      47.938 129.580  12.571  1.00  0.00     0.001 A 
ATOM     24  C   UNL     1      43.070 131.508  13.447  1.00  0.00     0.045 C 
ATOM     25  H   UNL     1      44.614 131.581  18.511  1.00  0.00     0.312 HD
ENDBRANCH   5  10
ENDBRANCH   3   4
ENDBRANCH   1   3
BRANCH   1  26
ATOM     26  N   UNL     1      40.482 136.394  17.992  1.00  0.00    -0.352 N 
ATOM     27  C   UNL     1      39.355 136.061  17.165  1.00  0.00     0.237 C 
ATOM     28  H   UNL     1      41.428 136.444  17.550  1.00  0.00     0.163 HD
ATOM     29  O   UNL     1      38.204 135.962  17.674  1.00  0.00    -0.274 OA
BRANCH  27  30
ATOM     30  C   UNL     1      39.537 135.847  15.687  1.00  0.00     0.178 C 
ATOM     31  C   UNL     1      38.681 136.834  14.891  1.00  0.00     0.034 C 
BRANCH  30  32
ATOM     32  C   UNL     1      39.186 134.464  15.332  1.00  0.00     0.075 C 
ATOM     33  N   UNL     1      38.910 133.376  15.054  1.00  0.00    -0.197 NA
ENDBRANCH  30  32
ENDBRANCH  27  30
ENDBRANCH   1  26
TORSDOF 6
ENDMDL
MODEL 3
REMARK VINA RESULT:      -7.1      4.010      5.738
REMARK SMILES Cc1cc(-n2cc(C[C@@H](C)NC(=O)[C@H](C)C#N)[nH+]n2)[nH+]c2ccc3ccccc3c12
REMARK SMILES IDX 9 1 10 2 8 3 7 4 5 5 6 6 19 7 18 8 4 10 2 11 3 12 30 13
REMARK SMILES IDX 29 14 21 15 20 16 28 17 24 18 22 19 27 20 23 21 25 22 26 23
REMARK SMILES IDX 1 24 11 26 12 27 13 29 14 30 15 31 16 32 17 33
REMARK H PARENT 18 9 20 25 11 28
ROOT
ATOM      1  C   UNL     1      40.798 136.814  20.425  1.00  0.00     0.087 C 
ATOM      2  C   UNL     1      39.858 137.823  21.098  1.00  0.00     0.031 C 
ENDROOT
BRANCH   1   3
ATOM      3  C   UNL     1      40.045 135.535  20.006  1.00  0.00     0.110 C 
BRANCH   3   4
ATOM      4  C   UNL     1      40.987 134.420  19.660  1.00  0.00     0.167 A 
ATOM      5  N   UNL     1      42.300 133.051  18.572  1.00  0.00    -0.065 N 
ATOM      6  C   UNL     1      41.617 134.210  18.452  1.00  0.00     0.285 A 
ATOM      7  N   UNL     1      42.084 132.570  19.790  1.00  0.00     0.097 NA
ATOM      8  N   UNL     1      41.291 133.386  20.464  1.00  0.00    -0.147 N 
ATOM      9  H   UNL     1      40.958 133.224  21.440  1.00  0.00     0.342 HD
BRANCH   5  10
ATOM     10  C   UNL     1      43.101 132.394  17.570  1.00  0.00     0.308 A 
ATOM     11  C   UNL     1      43.466 131.779  15.246  1.00  0.00    -0.031 A 
ATOM     12  C   UNL     1      42.704 132.421  16.231  1.00  0.00     0.105 A 
ATOM     13  C   UNL     1      44.730 131.213  15.598  1.00  0.00     0.032 A 
ATOM     14  C   UNL     1      45.707 130.726  14.667  1.00  0.00    -0.007 A 
ATOM     15  C   UNL     1      45.012 131.090  16.990  1.00  0.00     0.133 A 
ATOM     16  N   UNL     1      44.213 131.690  17.918  1.00  0.00    -0.238 N 
ATOM     17  C   UNL     1      45.737 131.099  13.302  1.00  0.00     0.009 A 
ATOM     18  C   UNL     1      46.774 129.911  15.143  1.00  0.00    -0.017 A 
ATOM     19  C   UNL     1      46.103 130.327  17.424  1.00  0.00     0.053 A 
ATOM     20  C   UNL     1      46.675 130.553  12.423  1.00  0.00     0.001 A 
ATOM     21  C   UNL     1      46.939 129.700  16.513  1.00  0.00     0.013 A 
ATOM     22  C   UNL     1      47.702 129.356  14.246  1.00  0.00     0.009 A 
ATOM     23  C   UNL     1      47.638 129.662  12.888  1.00  0.00     0.001 A 
ATOM     24  C   UNL     1      42.803 131.608  13.900  1.00  0.00     0.045 C 
ATOM     25  H   UNL     1      44.457 131.594  18.929  1.00  0.00     0.312 HD
ENDBRANCH   5  10
ENDBRANCH   3   4
ENDBRANCH   1   3
BRANCH   1  26
ATOM     26  N   UNL     1      41.889 136.472  21.344  1.00  0.00    -0.352 N 
ATOM     27  C   UNL     1      43.269 136.705  21.018  1.00  0.00     0.237 C 
ATOM     28  H   UNL     1      41.659 136.043  22.270  1.00  0.00     0.163 HD
ATOM     29  O   UNL     1      43.581 137.191  19.896  1.00  0.00    -0.274 OA
BRANCH  27  30
ATOM     30  C   UNL     1      44.346 136.390  22.020  1.00  0.00     0.178 C 
ATOM     31  C   UNL     1      45.714 136.828  21.494  1.00  0.00     0.034 C 
BRANCH  30  32
ATOM     32  C   UNL     1      44.350 134.950  22.318  1.00  0.00     0.075 C 
ATOM     33  N   UNL     1      44.352 133.817  22.551  1.00  0.00    -0.197 NA
ENDBRANCH  30  32
ENDBRANCH  27  30
ENDBRANCH   1  26
TORSDOF 6
ENDMDL
MODEL 4
REMARK VINA RESULT:      -7.0      3.200      4.577
REMARK SMILES Cc1cc(-n2cc(C[C@@H](C)NC(=O)[C@H](C)C#N)[nH+]n2)[nH+]c2ccc3ccccc3c12
REMARK SMILES IDX 9 1 10 2 8 3 7 4 5 5 6 6 19 7 18 8 4 10 2 11 3 12 30 13
REMARK SMILES IDX 29 14 21 15 20 16 28 17 24 18 22 19 27 20 23 21 25 22 26 23
REMARK SMILES IDX 1 24 11 26 12 27 13 29 14 30 15 31 16 32 17 33
REMARK H PARENT 18 9 20 25 11 28
ROOT
ATOM      1  C   UNL     1      40.308 138.184  17.249  1.00  0.00     0.087 C 
ATOM      2  C   UNL     1      39.464 139.436  16.974  1.00  0.00     0.031 C 
ENDROOT
BRANCH   1   3
ATOM      3  C   UNL     1      39.527 137.150  18.083  1.00  0.00     0.110 C 
BRANCH   3   4
ATOM      4  C   UNL     1      40.132 135.780  17.985  1.00  0.00     0.167 A 
ATOM      5  N   UNL     1      41.327 134.060  17.359  1.00  0.00    -0.065 N 
ATOM      6  C   UNL     1      41.175 135.389  17.174  1.00  0.00     0.285 A 
ATOM      7  N   UNL     1      40.411 133.658  18.230  1.00  0.00     0.097 NA
ATOM      8  N   UNL     1      39.677 134.686  18.621  1.00  0.00    -0.147 N 
ATOM      9  H   UNL     1      38.878 134.629  19.291  1.00  0.00     0.342 HD
BRANCH   5  10
ATOM     10  C   UNL     1      42.275 133.186  16.716  1.00  0.00     0.308 A 
ATOM     11  C   UNL     1      43.044 132.025  14.722  1.00  0.00    -0.031 A 
ATOM     12  C   UNL     1      42.136 132.881  15.360  1.00  0.00     0.105 A 
ATOM     13  C   UNL     1      44.198 131.574  15.434  1.00  0.00     0.032 A 
ATOM     14  C   UNL     1      45.312 130.882  14.851  1.00  0.00    -0.007 A 
ATOM     15  C   UNL     1      44.211 131.796  16.842  1.00  0.00     0.133 A 
ATOM     16  N   UNL     1      43.276 132.598  17.429  1.00  0.00    -0.238 N 
ATOM     17  C   UNL     1      45.610 130.911  13.468  1.00  0.00     0.009 A 
ATOM     18  C   UNL     1      46.240 130.218  15.704  1.00  0.00    -0.017 A 
ATOM     19  C   UNL     1      45.172 131.172  17.647  1.00  0.00     0.053 A 
ATOM     20  C   UNL     1      46.675 130.175  12.942  1.00  0.00     0.001 A 
ATOM     21  C   UNL     1      46.139 130.349  17.090  1.00  0.00     0.013 A 
ATOM     22  C   UNL     1      47.297 129.469  15.160  1.00  0.00     0.009 A 
ATOM     23  C   UNL     1      47.499 129.433  13.782  1.00  0.00     0.001 A 
ATOM     24  C   UNL     1      42.638 131.524  13.356  1.00  0.00     0.045 C 
ATOM     25  H   UNL     1      43.324 132.754  18.460  1.00  0.00     0.312 HD
ENDBRANCH   5  10
ENDBRANCH   3   4
ENDBRANCH   1   3
BRANCH   1  26
ATOM     26  N   UNL     1      41.537 138.567  17.954  1.00  0.00    -0.352 N 
ATOM     27  C   UNL     1      42.757 138.871  17.259  1.00  0.00     0.237 C 
ATOM     28  H   UNL     1      41.529 138.623  18.998  1.00  0.00     0.163 HD
ATOM     29  O   UNL     1      42.809 138.782  16.001  1.00  0.00    -0.274 OA
BRANCH  27  30
ATOM     30  C   UNL     1      43.974 139.315  18.026  1.00  0.00     0.178 C 
ATOM     31  C   UNL     1      45.110 138.303  17.866  1.00  0.00     0.034 C 
BRANCH  30  32
ATOM     32  C   UNL     1      43.637 139.486  19.446  1.00  0.00     0.075 C 
ATOM     33  N   UNL     1      43.372 139.619  20.565  1.00  0.00    -0.197 NA
ENDBRANCH  30  32
ENDBRANCH  27  30
ENDBRANCH   1  26
TORSDOF 6
ENDMDL
MODEL 5
REMARK VINA RESULT:      -6.9      3.289      4.630
REMARK SMILES Cc1cc(-n2cc(C[C@@H](C)NC(=O)[C@H](C)C#N)[nH+]n2)[nH+]c2ccc3ccccc3c12
REMARK SMILES IDX 9 1 10 2 8 3 7 4 5 5 6 6 19 7 18 8 4 10 2 11 3 12 30 13
REMARK SMILES IDX 29 14 21 15 20 16 28 17 24 18 22 19 27 20 23 21 25 22 26 23
REMARK SMILES IDX 1 24 11 26 12 27 13 29 14 30 15 31 16 32 17 33
REMARK H PARENT 18 9 20 25 11 28
ROOT
ATOM      1  C   UNL     1      40.509 135.894  20.445  1.00  0.00     0.087 C 
ATOM      2  C   UNL     1      40.800 134.529  21.083  1.00  0.00     0.031 C 
ENDROOT
BRANCH   1   3
ATOM      3  C   UNL     1      39.793 135.740  19.088  1.00  0.00     0.110 C 
BRANCH   3   4
ATOM      4  C   UNL     1      40.247 134.514  18.351  1.00  0.00     0.167 A 
ATOM      5  N   UNL     1      41.438 133.079  17.211  1.00  0.00    -0.065 N 
ATOM      6  C   UNL     1      41.512 134.257  17.867  1.00  0.00     0.285 A 
ATOM      7  N   UNL     1      40.186 132.646  17.279  1.00  0.00     0.097 NA
ATOM      8  N   UNL     1      39.448 133.503  17.967  1.00  0.00    -0.147 N 
ATOM      9  H   UNL     1      38.426 133.399  18.149  1.00  0.00     0.342 HD
BRANCH   5  10
ATOM     10  C   UNL     1      42.496 132.395  16.511  1.00  0.00     0.308 A 
ATOM     11  C   UNL     1      43.438 131.555  14.431  1.00  0.00    -0.031 A 
ATOM     12  C   UNL     1      42.422 132.226  15.126  1.00  0.00     0.105 A 
ATOM     13  C   UNL     1      44.621 131.164  15.130  1.00  0.00     0.032 A 
ATOM     14  C   UNL     1      45.822 130.673  14.514  1.00  0.00    -0.007 A 
ATOM     15  C   UNL     1      44.578 131.232  16.553  1.00  0.00     0.133 A 
ATOM     16  N   UNL     1      43.543 131.851  17.190  1.00  0.00    -0.238 N 
ATOM     17  C   UNL     1      46.143 130.887  13.153  1.00  0.00     0.009 A 
ATOM     18  C   UNL     1      46.803 130.030  15.322  1.00  0.00    -0.017 A 
ATOM     19  C   UNL     1      45.589 130.638  17.319  1.00  0.00     0.053 A 
ATOM     20  C   UNL     1      47.297 130.341  12.587  1.00  0.00     0.001 A 
ATOM     21  C   UNL     1      46.658 129.996  16.710  1.00  0.00     0.013 A 
ATOM     22  C   UNL     1      47.952 129.472  14.738  1.00  0.00     0.009 A 
ATOM     23  C   UNL     1      48.185 129.611  13.372  1.00  0.00     0.001 A 
ATOM     24  C   UNL     1      43.122 131.164  13.008  1.00  0.00     0.045 C 
ATOM     25  H   UNL     1      43.551 131.898  18.233  1.00  0.00     0.312 HD
ENDBRANCH   5  10
ENDBRANCH   3   4
ENDBRANCH   1   3
BRANCH   1  26
ATOM     26  N   UNL     1      41.766 136.629  20.265  1.00  0.00    -0.352 N 
ATOM     27  C   UNL     1      41.850 137.823  19.471  1.00  0.00     0.237 C 
ATOM     28  H   UNL     1      42.634 136.275  20.730  1.00  0.00     0.163 HD
ATOM     29  O   UNL     1      40.828 138.258  18.872  1.00  0.00    -0.274 OA
BRANCH  27  30
ATOM     30  C   UNL     1      43.151 138.572  19.367  1.00  0.00     0.178 C 
ATOM     31  C   UNL     1      43.079 139.622  18.256  1.00  0.00     0.034 C 
BRANCH  30  32
ATOM     32  C   UNL     1      44.252 137.633  19.112  1.00  0.00     0.075 C 
ATOM     33  N   UNL     1      45.119 136.892  18.912  1.00  0.00    -0.197 NA
ENDBRANCH  30  32
ENDBRANCH  27  30
ENDBRANCH   1  26
TORSDOF 6
ENDMDL
MODEL 6
REMARK VINA RESULT:      -6.8      2.183      2.672
REMARK SMILES Cc1cc(-n2cc(C[C@@H](C)NC(=O)[C@H](C)C#N)[nH+]n2)[nH+]c2ccc3ccccc3c12
REMARK SMILES IDX 9 1 10 2 8 3 7 4 5 5 6 6 19 7 18 8 4 10 2 11 3 12 30 13
REMARK SMILES IDX 29 14 21 15 20 16 28 17 24 18 22 19 27 20 23 21 25 22 26 23
REMARK SMILES IDX 1 24 11 26 12 27 13 29 14 30 15 31 16 32 17 33
REMARK H PARENT 18 9 20 25 11 28
ROOT
ATOM      1  C   UNL     1      37.939 137.912  17.711  1.00  0.00     0.087 C 
ATOM      2  C   UNL     1      38.005 139.356  18.226  1.00  0.00     0.031 C 
ENDROOT
BRANCH   1   3
ATOM      3  C   UNL     1      38.398 136.909  18.789  1.00  0.00     0.110 C 
BRANCH   3   4
ATOM      4  C   UNL     1      39.768 136.368  18.503  1.00  0.00     0.167 A 
ATOM      5  N   UNL     1      41.420 135.107  17.826  1.00  0.00    -0.065 N 
ATOM      6  C   UNL     1      40.081 135.263  17.741  1.00  0.00     0.285 A 
ATOM      7  N   UNL     1      41.898 136.062  18.613  1.00  0.00     0.097 NA
ATOM      8  N   UNL     1      40.911 136.836  19.033  1.00  0.00    -0.147 N 
ATOM      9  H   UNL     1      41.023 137.650  19.678  1.00  0.00     0.342 HD
BRANCH   5  10
ATOM     10  C   UNL     1      42.225 134.077  17.219  1.00  0.00     0.308 A 
ATOM     11  C   UNL     1      42.788 132.721  15.280  1.00  0.00    -0.031 A 
ATOM     12  C   UNL     1      42.020 133.727  15.882  1.00  0.00     0.105 A 
ATOM     13  C   UNL     1      43.881 132.149  16.001  1.00  0.00     0.032 A 
ATOM     14  C   UNL     1      44.877 131.280  15.443  1.00  0.00    -0.007 A 
ATOM     15  C   UNL     1      43.951 132.439  17.395  1.00  0.00     0.133 A 
ATOM     16  N   UNL     1      43.148 133.392  17.950  1.00  0.00    -0.238 N 
ATOM     17  C   UNL     1      45.150 131.197  14.057  1.00  0.00     0.009 A 
ATOM     18  C   UNL     1      45.719 130.536  16.318  1.00  0.00    -0.017 A 
ATOM     19  C   UNL     1      44.830 131.728  18.220  1.00  0.00     0.053 A 
ATOM     20  C   UNL     1      46.092 130.294  13.557  1.00  0.00     0.001 A 
ATOM     21  C   UNL     1      45.663 130.750  17.697  1.00  0.00     0.013 A 
ATOM     22  C   UNL     1      46.652 129.621  15.803  1.00  0.00     0.009 A 
ATOM     23  C   UNL     1      46.820 129.488  14.426  1.00  0.00     0.001 A 
ATOM     24  C   UNL     1      42.290 132.214  13.947  1.00  0.00     0.045 C 
ATOM     25  H   UNL     1      43.236 133.591  18.971  1.00  0.00     0.312 HD
ENDBRANCH   5  10
ENDBRANCH   3   4
ENDBRANCH   1   3
BRANCH   1  26
ATOM     26  N   UNL     1      38.780 137.779  16.517  1.00  0.00    -0.352 N 
ATOM     27  C   UNL     1      38.235 137.462  15.226  1.00  0.00     0.237 C 
ATOM     28  H   UNL     1      39.813 137.920  16.602  1.00  0.00     0.163 HD
ATOM     29  O   UNL     1      36.997 137.254  15.095  1.00  0.00    -0.274 OA
BRANCH  27  30
ATOM     30  C   UNL     1      39.133 137.395  14.021  1.00  0.00     0.178 C 
ATOM     31  C   UNL     1      40.053 136.176  14.103  1.00  0.00     0.034 C 
BRANCH  30  32
ATOM     32  C   UNL     1      39.927 138.628  13.916  1.00  0.00     0.075 C 
ATOM     33  N   UNL     1      40.550 139.599  13.833  1.00  0.00    -0.197 NA
ENDBRANCH  30  32
ENDBRANCH  27  30
ENDBRANCH   1  26
TORSDOF 6
ENDMDL
MODEL 7
REMARK VINA RESULT:      -6.8      3.663      5.608
REMARK SMILES Cc1cc(-n2cc(C[C@@H](C)NC(=O)[C@H](C)C#N)[nH+]n2)[nH+]c2ccc3ccccc3c12
REMARK SMILES IDX 9 1 10 2 8 3 7 4 5 5 6 6 19 7 18 8 4 10 2 11 3 12 30 13
REMARK SMILES IDX 29 14 21 15 20 16 28 17 24 18 22 19 27 20 23 21 25 22 26 23
REMARK SMILES IDX 1 24 11 26 12 27 13 29 14 30 15 31 16 32 17 33
REMARK H PARENT 18 9 20 25 11 28
ROOT
ATOM      1  C   UNL     1      40.937 137.191  19.388  1.00  0.00     0.087 C 
ATOM      2  C   UNL     1      41.099 138.212  18.254  1.00  0.00     0.031 C 
ENDROOT
BRANCH   1   3
ATOM      3  C   UNL     1      39.729 136.264  19.144  1.00  0.00     0.110 C 
BRANCH   3   4
ATOM      4  C   UNL     1      40.096 135.078  18.301  1.00  0.00     0.167 A 
ATOM      5  N   UNL     1      41.215 133.600  17.142  1.00  0.00    -0.065 N 
ATOM      6  C   UNL     1      41.366 134.649  17.980  1.00  0.00     0.285 A 
ATOM      7  N   UNL     1      39.916 133.408  16.952  1.00  0.00     0.097 NA
ATOM      8  N   UNL     1      39.222 134.294  17.646  1.00  0.00    -0.147 N 
ATOM      9  H   UNL     1      38.180 134.364  17.652  1.00  0.00     0.342 HD
BRANCH   5  10
ATOM     10  C   UNL     1      42.252 132.822  16.512  1.00  0.00     0.308 A 
ATOM     11  C   UNL     1      43.174 131.775  14.520  1.00  0.00    -0.031 A 
ATOM     12  C   UNL     1      42.179 132.538  15.146  1.00  0.00     0.105 A 
ATOM     13  C   UNL     1      44.339 131.404  15.259  1.00  0.00     0.032 A 
ATOM     14  C   UNL     1      45.524 130.821  14.697  1.00  0.00    -0.007 A 
ATOM     15  C   UNL     1      44.292 131.595  16.670  1.00  0.00     0.133 A 
ATOM     16  N   UNL     1      43.276 132.303  17.244  1.00  0.00    -0.238 N 
ATOM     17  C   UNL     1      45.860 130.906  13.325  1.00  0.00     0.009 A 
ATOM     18  C   UNL     1      46.479 130.217  15.564  1.00  0.00    -0.017 A 
ATOM     19  C   UNL     1      45.277 131.035  17.492  1.00  0.00     0.053 A 
ATOM     20  C   UNL     1      46.997 130.274  12.817  1.00  0.00     0.001 A 
ATOM     21  C   UNL     1      46.326 130.307  16.949  1.00  0.00     0.013 A 
ATOM     22  C   UNL     1      47.610 129.571  15.039  1.00  0.00     0.009 A 
ATOM     23  C   UNL     1      47.855 129.583  13.668  1.00  0.00     0.001 A 
ATOM     24  C   UNL     1      42.851 131.274  13.132  1.00  0.00     0.045 C 
ATOM     25  H   UNL     1      43.281 132.438  18.279  1.00  0.00     0.312 HD
ENDBRANCH   5  10
ENDBRANCH   3   4
ENDBRANCH   1   3
BRANCH   1  26
ATOM     26  N   UNL     1      40.772 137.898  20.663  1.00  0.00    -0.352 N 
ATOM     27  C   UNL     1      41.888 138.426  21.398  1.00  0.00     0.237 C 
ATOM     28  H   UNL     1      39.810 138.026  21.054  1.00  0.00     0.163 HD
ATOM     29  O   UNL     1      43.063 138.262  20.969  1.00  0.00    -0.274 OA
BRANCH  27  30
ATOM     30  C   UNL     1      41.660 139.195  22.671  1.00  0.00     0.178 C 
ATOM     31  C   UNL     1      42.892 139.116  23.575  1.00  0.00     0.034 C 
BRANCH  30  32
ATOM     32  C   UNL     1      40.479 138.668  23.371  1.00  0.00     0.075 C 
ATOM     33  N   UNL     1      39.549 138.253  23.920  1.00  0.00    -0.197 NA
ENDBRANCH  30  32
ENDBRANCH  27  30
ENDBRANCH   1  26
TORSDOF 6
ENDMDL
MODEL 8
REMARK VINA RESULT:      -6.6      4.541      6.749
REMARK SMILES Cc1cc(-n2cc(C[C@@H](C)NC(=O)[C@H](C)C#N)[nH+]n2)[nH+]c2ccc3ccccc3c12
REMARK SMILES IDX 9 1 10 2 8 3 7 4 5 5 6 6 19 7 18 8 4 10 2 11 3 12 30 13
REMARK SMILES IDX 29 14 21 15 20 16 28 17 24 18 22 19 27 20 23 21 25 22 26 23
REMARK SMILES IDX 1 24 11 26 12 27 13 29 14 30 15 31 16 32 17 33
REMARK H PARENT 18 9 20 25 11 28
ROOT
ATOM      1  C   UNL     1      41.789 135.654  22.791  1.00  0.00     0.087 C 
ATOM      2  C   UNL     1      40.346 135.732  23.309  1.00  0.00     0.031 C 
ENDROOT
BRANCH   1   3
ATOM      3  C   UNL     1      41.875 136.046  21.302  1.00  0.00     0.110 C 
BRANCH   3   4
ATOM      4  C   UNL     1      41.964 134.842  20.411  1.00  0.00     0.167 A 
ATOM      5  N   UNL     1      42.602 133.407  18.890  1.00  0.00    -0.065 N 
ATOM      6  C   UNL     1      42.981 134.533  19.533  1.00  0.00     0.285 A 
ATOM      7  N   UNL     1      41.407 133.055  19.345  1.00  0.00     0.097 NA
ATOM      8  N   UNL     1      41.003 133.912  20.267  1.00  0.00    -0.147 N 
ATOM      9  H   UNL     1      40.088 133.866  20.767  1.00  0.00     0.342 HD
BRANCH   5  10
ATOM     10  C   UNL     1      43.319 132.701  17.858  1.00  0.00     0.308 A 
ATOM     11  C   UNL     1      43.587 132.115  15.513  1.00  0.00    -0.031 A 
ATOM     12  C   UNL     1      42.907 132.803  16.527  1.00  0.00     0.105 A 
ATOM     13  C   UNL     1      44.793 131.417  15.829  1.00  0.00     0.032 A 
ATOM     14  C   UNL     1      45.703 130.859  14.869  1.00  0.00    -0.007 A 
ATOM     15  C   UNL     1      45.081 131.229  17.212  1.00  0.00     0.133 A 
ATOM     16  N   UNL     1      44.360 131.881  18.169  1.00  0.00    -0.238 N 
ATOM     17  C   UNL     1      45.750 131.264  13.514  1.00  0.00     0.009 A 
ATOM     18  C   UNL     1      46.689 129.930  15.306  1.00  0.00    -0.017 A 
ATOM     19  C   UNL     1      46.097 130.350  17.608  1.00  0.00     0.053 A 
ATOM     20  C   UNL     1      46.616 130.651  12.605  1.00  0.00     0.001 A 
ATOM     21  C   UNL     1      46.853 129.666  16.667  1.00  0.00     0.013 A 
ATOM     22  C   UNL     1      47.544 129.310  14.380  1.00  0.00     0.009 A 
ATOM     23  C   UNL     1      47.491 129.656  13.031  1.00  0.00     0.001 A 
ATOM     24  C   UNL     1      42.891 132.047  14.175  1.00  0.00     0.045 C 
ATOM     25  H   UNL     1      44.609 131.734  19.173  1.00  0.00     0.312 HD
ENDBRANCH   5  10
ENDBRANCH   3   4
ENDBRANCH   1   3
BRANCH   1  26
ATOM     26  N   UNL     1      42.304 134.294  22.979  1.00  0.00    -0.352 N 
ATOM     27  C   UNL     1      43.372 133.997  23.894  1.00  0.00     0.237 C 
ATOM     28  H   UNL     1      41.882 133.509  22.432  1.00  0.00     0.163 HD
ATOM     29  O   UNL     1      43.924 134.925  24.546  1.00  0.00    -0.274 OA
BRANCH  27  30
ATOM     30  C   UNL     1      43.824 132.575  24.093  1.00  0.00     0.178 C 
ATOM     31  C   UNL     1      45.258 132.537  24.624  1.00  0.00     0.034 C 
BRANCH  30  32
ATOM     32  C   UNL     1      43.728 131.835  22.826  1.00  0.00     0.075 C 
ATOM     33  N   UNL     1      43.654 131.253  21.829  1.00  0.00    -0.197 NA
ENDBRANCH  30  32
ENDBRANCH  27  30
ENDBRANCH   1  26
TORSDOF 6
ENDMDL
MODEL 9
REMARK VINA RESULT:      -6.5      3.498      5.333
REMARK SMILES Cc1cc(-n2cc(C[C@@H](C)NC(=O)[C@H](C)C#N)[nH+]n2)[nH+]c2ccc3ccccc3c12
REMARK SMILES IDX 9 1 10 2 8 3 7 4 5 5 6 6 19 7 18 8 4 10 2 11 3 12 30 13
REMARK SMILES IDX 29 14 21 15 20 16 28 17 24 18 22 19 27 20 23 21 25 22 26 23
REMARK SMILES IDX 1 24 11 26 12 27 13 29 14 30 15 31 16 32 17 33
REMARK H PARENT 18 9 20 25 11 28
ROOT
ATOM      1  C   UNL     1      37.915 136.433  19.457  1.00  0.00     0.087 C 
ATOM      2  C   UNL     1      36.553 136.952  18.977  1.00  0.00     0.031 C 
ENDROOT
BRANCH   1   3
ATOM      3  C   UNL     1      38.156 134.980  19.001  1.00  0.00     0.110 C 
BRANCH   3   4
ATOM      4  C   UNL     1      39.397 134.853  18.167  1.00  0.00     0.167 A 
ATOM      5  N   UNL     1      41.146 134.056  17.126  1.00  0.00    -0.065 N 
ATOM      6  C   UNL     1      40.037 133.688  17.802  1.00  0.00     0.285 A 
ATOM      7  N   UNL     1      41.188 135.382  17.092  1.00  0.00     0.097 NA
ATOM      8  N   UNL     1      40.136 135.883  17.719  1.00  0.00    -0.147 N 
ATOM      9  H   UNL     1      39.945 136.902  17.845  1.00  0.00     0.342 HD
BRANCH   5  10
ATOM     10  C   UNL     1      42.155 133.198  16.558  1.00  0.00     0.308 A 
ATOM     11  C   UNL     1      43.081 132.035  14.633  1.00  0.00    -0.031 A 
ATOM     12  C   UNL     1      42.113 132.876  15.199  1.00  0.00     0.105 A 
ATOM     13  C   UNL     1      44.195 131.618  15.425  1.00  0.00     0.032 A 
ATOM     14  C   UNL     1      45.361 130.947  14.926  1.00  0.00    -0.007 A 
ATOM     15  C   UNL     1      44.108 131.856  16.828  1.00  0.00     0.133 A 
ATOM     16  N   UNL     1      43.118 132.641  17.342  1.00  0.00    -0.238 N 
ATOM     17  C   UNL     1      45.750 130.969  13.565  1.00  0.00     0.009 A 
ATOM     18  C   UNL     1      46.245 130.314  15.846  1.00  0.00    -0.017 A 
ATOM     19  C   UNL     1      45.027 131.263  17.702  1.00  0.00     0.053 A 
ATOM     20  C   UNL     1      46.864 130.253  13.120  1.00  0.00     0.001 A 
ATOM     21  C   UNL     1      46.048 130.456  17.221  1.00  0.00     0.013 A 
ATOM     22  C   UNL     1      47.353 129.585  15.383  1.00  0.00     0.009 A 
ATOM     23  C   UNL     1      47.646 129.540  14.022  1.00  0.00     0.001 A 
ATOM     24  C   UNL     1      42.778 131.512  13.249  1.00  0.00     0.045 C 
ATOM     25  H   UNL     1      43.094 132.808  18.372  1.00  0.00     0.312 HD
ENDBRANCH   5  10
ENDBRANCH   3   4
ENDBRANCH   1   3
BRANCH   1  26
ATOM     26  N   UNL     1      37.982 136.514  20.920  1.00  0.00    -0.352 N 
ATOM     27  C   UNL     1      38.343 137.724  21.606  1.00  0.00     0.237 C 
ATOM     28  H   UNL     1      37.760 135.665  21.488  1.00  0.00     0.163 HD
ATOM     29  O   UNL     1      38.647 138.758  20.949  1.00  0.00    -0.274 OA
BRANCH  27  30
ATOM     30  C   UNL     1      38.340 137.771  23.110  1.00  0.00     0.178 C 
ATOM     31  C   UNL     1      37.954 136.409  23.690  1.00  0.00     0.034 C 
BRANCH  30  32
ATOM     32  C   UNL     1      37.409 138.808  23.578  1.00  0.00     0.075 C 
ATOM     33  N   UNL     1      36.678 139.625  23.946  1.00  0.00    -0.197 NA
ENDBRANCH  30  32
ENDBRANCH  27  30
ENDBRANCH   1  26
TORSDOF 6
ENDMDL


