REMARK SMILES CC[C@H]1C[C@]1(N)C(=O)Oc1ccccc(O)c([NH2+]C2(CF)COC2)c(N=[N+]=[N-])c(Cl)c1Cl
REMARK SMILES IDX 15 1 14 2 13 3 12 4 11 5 10 6 31 7 32 8 29 9 30 10 25 11
REMARK SMILES IDX 17 12 16 13 18 15 19 18 22 19 24 20 23 21 20 22 21 23 26 24
REMARK SMILES IDX 27 25 28 26 9 27 7 28 8 29 5 30 4 31 3 32 6 33 2 36 1 37
REMARK H PARENT 16 14 18 16 18 17 6 34 6 35
ROOT
ATOM      1  C   UNL     1       0.402   3.102   0.924  1.00  0.00     0.177 A 
ATOM      2  C   UNL     1       1.004   2.300   1.921  1.00  0.00     0.053 A 
ATOM      3  C   UNL     1       0.997   0.905   1.965  1.00  0.00     0.004 A 
ATOM      4  C   UNL     1      -0.013   0.133   1.394  1.00  0.00     0.004 A 
ATOM      5  C   UNL     1       0.255  -1.030   0.668  1.00  0.00     0.049 A 
ATOM      6  C   UNL     1       1.453  -1.280  -0.044  1.00  0.00     0.151 A 
ATOM      7  C   UNL     1       2.321  -0.261  -0.517  1.00  0.00     0.103 A 
ATOM      8  Cl  UNL     1       3.982  -0.734  -0.876  1.00  0.00    -0.079 Cl
ATOM      9  C   UNL     1       1.953   1.093  -0.725  1.00  0.00     0.079 A 
ATOM     10  Cl  UNL     1       3.209   2.333  -0.676  1.00  0.00    -0.082 Cl
ATOM     11  C   UNL     1       0.626   1.506  -0.998  1.00  0.00     0.122 A 
ATOM     12  C   UNL     1       0.065   2.670  -0.400  1.00  0.00     0.183 A 
ENDROOT
BRANCH   1  13
ATOM     13  O   UNL     1       0.126   4.427   1.267  1.00  0.00    -0.503 OA
ATOM     14  H   UNL     1       0.341   4.803   2.183  1.00  0.00     0.293 HD
ENDBRANCH   1  13
BRANCH  12  15
ATOM     15  N   UNL     1      -0.921   3.435  -1.149  1.00  0.00    -0.299 N 
ATOM     16  H   UNL     1      -1.585   2.780  -1.625  1.00  0.00     0.353 HD
ATOM     17  H   UNL     1      -1.516   3.992  -0.492  1.00  0.00     0.353 HD
BRANCH  15  18
ATOM     18  C   UNL     1      -0.315   4.369  -2.136  1.00  0.00     0.176 C 
ATOM     19  C   UNL     1       0.100   3.728  -3.454  1.00  0.00     0.234 C 
ATOM     20  C   UNL     1      -1.366   5.038  -3.011  1.00  0.00     0.234 C 
ATOM     21  O   UNL     1      -0.895   4.411  -4.180  1.00  0.00    -0.368 OA
BRANCH  18  22
ATOM     22  C   UNL     1       0.707   5.372  -1.550  1.00  0.00     0.288 C 
ATOM     23  F   UNL     1       1.205   6.220  -2.526  1.00  0.00    -0.244 F 
ENDBRANCH  18  22
ENDBRANCH  15  18
ENDBRANCH  12  15
BRANCH  11  24
ATOM     24  N   UNL     1      -0.208   0.731  -1.879  1.00  0.00    -0.053 NA
BRANCH  24  25
ATOM     25  N   UNL     1       0.249  -0.109  -2.656  1.00  0.00     0.006 N 
ATOM     26  N   UNL     1       0.702  -0.948  -3.433  1.00  0.00    -0.003 NA
ENDBRANCH  24  25
ENDBRANCH  11  24
BRANCH   6  27
ATOM     27  O   UNL     1       1.798  -2.602  -0.377  1.00  0.00    -0.424 OA
BRANCH  27  28
ATOM     28  C   UNL     1       1.399  -3.753   0.316  1.00  0.00     0.331 C 
ATOM     29  O   UNL     1       0.883  -3.680   1.465  1.00  0.00    -0.250 OA
BRANCH  28  30
ATOM     30  C   UNL     1       1.613  -5.092  -0.320  1.00  0.00     0.118 C 
ATOM     31  C   UNL     1       3.059  -5.565  -0.399  1.00  0.00     0.040 C 
ATOM     32  C   UNL     1       2.082  -6.252   0.558  1.00  0.00     0.022 C 
BRANCH  30  33
ATOM     33  N   UNL     1       0.814  -5.423  -1.496  1.00  0.00    -0.316 NA
ATOM     34  H   UNL     1       0.994  -4.692  -2.222  1.00  0.00     0.119 HD
ATOM     35  H   UNL     1      -0.194  -5.347  -1.228  1.00  0.00     0.119 HD
ENDBRANCH  30  33
BRANCH  32  36
ATOM     36  C   UNL     1       1.681  -7.677   0.145  1.00  0.00     0.003 C 
ATOM     37  C   UNL     1       0.344  -8.053   0.772  1.00  0.00     0.004 C 
ENDBRANCH  32  36
ENDBRANCH  28  30
ENDBRANCH  27  28
ENDBRANCH   6  27
TORSDOF 11


