REMARK SMILES [H]/N=C(/C#C)[NH2+][C@H](c1c(C)nnn1-c1c2ccccc2c(C=O)c2ccccc12)C(C)C
REMARK SMILES IDX 7 1 6 2 3 5 4 6 5 7 2 8 1 9 8 10 9 11 13 12 11 13 12 14
REMARK SMILES IDX 10 15 14 16 15 17 29 18 16 19 20 20 28 21 24 22 17 23 19 24
REMARK SMILES IDX 21 25 27 26 25 27 18 28 26 29 22 30 23 31 30 32 31 33 32 34
REMARK H PARENT 6 3 6 4
ROOT
ATOM      1  C   UNL     1      -0.502  -1.476   1.375  1.00  0.00     0.243 C 
ENDROOT
BRANCH   1   2
ATOM      2  N   UNL     1      -0.438  -2.454   2.496  1.00  0.00    -0.282 N 
ATOM      3  H   UNL     1      -0.202  -1.962   3.389  1.00  0.00     0.354 HD
ATOM      4  H   UNL     1      -1.360  -2.923   2.633  1.00  0.00     0.354 HD
BRANCH   2   5
ATOM      5  C   UNL     1       0.593  -3.451   2.311  1.00  0.00     0.270 C 
BRANCH   5   6
ATOM      6  C   UNL     1       0.252  -4.849   2.239  1.00  0.00     0.009 C 
ATOM      7  C   UNL     1      -0.035  -6.018   2.178  1.00  0.00     0.017 C 
ENDBRANCH   5   6
BRANCH   5   8
ATOM      8  N   UNL     1       1.847  -3.122   2.337  1.00  0.00    -0.242 NA
ATOM      9  H   UNL     1       2.156  -2.132   2.451  1.00  0.00     0.194 HD
ENDBRANCH   5   8
ENDBRANCH   2   5
ENDBRANCH   1   2
BRANCH   1  10
ATOM     10  C   UNL     1      -0.862  -0.074   1.861  1.00  0.00     0.125 A 
ATOM     11  C   UNL     1      -1.748   0.329   2.858  1.00  0.00     0.089 A 
ATOM     12  N   UNL     1      -0.398   1.068   1.308  1.00  0.00    -0.210 N 
ATOM     13  N   UNL     1      -1.762   1.677   2.886  1.00  0.00    -0.135 NA
ATOM     14  N   UNL     1      -0.943   2.097   1.935  1.00  0.00    -0.062 NA
ATOM     15  C   UNL     1      -2.530  -0.510   3.820  1.00  0.00     0.071 C 
BRANCH  12  16
ATOM     16  C   UNL     1       0.518   1.200   0.209  1.00  0.00     0.083 A 
ATOM     17  C   UNL     1       1.903   1.043   0.423  1.00  0.00     0.009 A 
ATOM     18  C   UNL     1       0.027   1.467  -1.086  1.00  0.00     0.009 A 
ATOM     19  C   UNL     1       2.402   0.787   1.719  1.00  0.00     0.011 A 
ATOM     20  C   UNL     1       2.808   1.128  -0.669  1.00  0.00    -0.005 A 
ATOM     21  C   UNL     1      -1.359   1.621  -1.309  1.00  0.00     0.011 A 
ATOM     22  C   UNL     1       0.925   1.581  -2.180  1.00  0.00    -0.005 A 
ATOM     23  C   UNL     1       3.763   0.578   1.930  1.00  0.00     0.001 A 
ATOM     24  C   UNL     1       4.182   0.884  -0.427  1.00  0.00     0.009 A 
ATOM     25  C   UNL     1       2.321   1.420  -1.972  1.00  0.00     0.030 A 
ATOM     26  C   UNL     1      -1.851   1.893  -2.583  1.00  0.00     0.001 A 
ATOM     27  C   UNL     1       0.398   1.876  -3.461  1.00  0.00     0.009 A 
ATOM     28  C   UNL     1       4.648   0.617   0.860  1.00  0.00     0.001 A 
ATOM     29  C   UNL     1      -0.975   2.025  -3.655  1.00  0.00     0.001 A 
BRANCH  25  30
ATOM     30  C   UNL     1       3.256   1.563  -3.115  1.00  0.00     0.261 C 
ATOM     31  O   UNL     1       4.228   2.361  -3.056  1.00  0.00    -0.298 OA
ENDBRANCH  25  30
ENDBRANCH  12  16
ENDBRANCH   1  10
BRANCH   1  32
ATOM     32  C   UNL     1      -1.427  -1.905   0.188  1.00  0.00     0.048 C 
ATOM     33  C   UNL     1      -0.984  -3.220  -0.465  1.00  0.00     0.014 C 
ATOM     34  C   UNL     1      -2.926  -1.960   0.527  1.00  0.00     0.014 C 
ENDBRANCH   1  32
TORSDOF 8


