MODEL 1
REMARK VINA RESULT:      -5.6      0.000      0.000
REMARK SMILES C[C@@H](C#N)N(C)CCCCc1cn(-c2cc(N)c3c4c(cccc24)C(=O)[N-]3)nn1
REMARK SMILES IDX 8 1 7 2 5 3 6 4 2 5 1 6 3 7 4 8 9 9 10 10 11 11 12 12 29 13
REMARK SMILES IDX 13 14 28 15 14 16 15 17 24 18 16 19 23 20 19 21 18 22 22 23
REMARK SMILES IDX 20 24 27 25 21 26 25 27 26 28 17 29
REMARK H PARENT 17 30 17 31
ROOT
ATOM      1  C   UNL     1      45.462 130.836  17.146  1.00  0.00     0.016 C 
ENDROOT
BRANCH   1   2
ATOM      2  C   UNL     1      45.066 131.387  18.528  1.00  0.00     0.085 C 
BRANCH   2   3
ATOM      3  N   UNL     1      44.008 132.423  18.418  1.00  0.00    -0.291 NA
ATOM      4  C   UNL     1      42.675 131.872  18.726  1.00  0.00     0.106 C 
BRANCH   3   5
ATOM      5  C   UNL     1      44.285 133.658  19.196  1.00  0.00     0.157 C 
ATOM      6  C   UNL     1      43.847 134.954  18.489  1.00  0.00     0.041 C 
BRANCH   5   7
ATOM      7  C   UNL     1      43.657 133.568  20.524  1.00  0.00     0.081 C 
ATOM      8  N   UNL     1      43.165 133.499  21.570  1.00  0.00    -0.197 NA
ENDBRANCH   5   7
ENDBRANCH   3   5
ENDBRANCH   2   3
ENDBRANCH   1   2
BRANCH   1   9
ATOM      9  C   UNL     1      45.284 131.850  16.003  1.00  0.00     0.008 C 
BRANCH   9  10
ATOM     10  C   UNL     1      44.429 131.296  14.855  1.00  0.00     0.060 C 
BRANCH  10  11
ATOM     11  C   UNL     1      43.229 132.161  14.632  1.00  0.00     0.083 A 
ATOM     12  C   UNL     1      42.983 133.384  15.216  1.00  0.00     0.140 A 
ATOM     13  N   UNL     1      42.160 131.819  13.888  1.00  0.00    -0.135 NA
ATOM     14  N   UNL     1      41.770 133.766  14.779  1.00  0.00    -0.220 N 
ATOM     15  N   UNL     1      41.287 132.811  14.000  1.00  0.00    -0.062 NA
BRANCH  14  16
ATOM     16  C   UNL     1      41.031 134.930  15.182  1.00  0.00     0.076 A 
ATOM     17  C   UNL     1      41.262 136.162  14.509  1.00  0.00     0.053 A 
ATOM     18  C   UNL     1      40.065 134.884  16.225  1.00  0.00     0.007 A 
ATOM     19  C   UNL     1      40.526 137.330  14.830  1.00  0.00     0.019 A 
ATOM     20  C   UNL     1      39.777 133.776  17.057  1.00  0.00     0.011 A 
ATOM     21  C   UNL     1      39.366 136.053  16.485  1.00  0.00    -0.020 A 
ATOM     22  C   UNL     1      39.561 137.236  15.836  1.00  0.00    -0.102 A 
ATOM     23  C   UNL     1      38.794 133.889  18.075  1.00  0.00     0.001 A 
ATOM     24  C   UNL     1      38.427 136.179  17.457  1.00  0.00     0.006 A 
ATOM     25  N   UNL     1      38.716 138.270  16.356  1.00  0.00    -0.620 NA
ATOM     26  C   UNL     1      38.104 135.105  18.284  1.00  0.00     0.011 A 
ATOM     27  C   UNL     1      38.000 137.572  17.388  1.00  0.00     0.086 C 
ATOM     28  O   UNL     1      37.133 138.110  18.126  1.00  0.00    -0.315 OA
BRANCH  19  29
ATOM     29  N   UNL     1      40.765 138.561  14.144  1.00  0.00    -0.400 N 
ATOM     30  H   UNL     1      39.998 139.257  14.008  1.00  0.00     0.156 HD
ATOM     31  H   UNL     1      41.712 138.785  13.768  1.00  0.00     0.156 HD
ENDBRANCH  19  29
ENDBRANCH  14  16
ENDBRANCH  10  11
ENDBRANCH   9  10
ENDBRANCH   1   9
TORSDOF 9
ENDMDL
MODEL 2
REMARK VINA RESULT:      -5.4      2.407      4.335
REMARK SMILES C[C@@H](C#N)N(C)CCCCc1cn(-c2cc(N)c3c4c(cccc24)C(=O)[N-]3)nn1
REMARK SMILES IDX 8 1 7 2 5 3 6 4 2 5 1 6 3 7 4 8 9 9 10 10 11 11 12 12 29 13
REMARK SMILES IDX 13 14 28 15 14 16 15 17 24 18 16 19 23 20 19 21 18 22 22 23
REMARK SMILES IDX 20 24 27 25 21 26 25 27 26 28 17 29
REMARK H PARENT 17 30 17 31
ROOT
ATOM      1  C   UNL     1      45.343 131.039  16.707  1.00  0.00     0.016 C 
ENDROOT
BRANCH   1   2
ATOM      2  C   UNL     1      45.767 129.772  15.943  1.00  0.00     0.085 C 
BRANCH   2   3
ATOM      3  N   UNL     1      45.467 129.884  14.494  1.00  0.00    -0.291 NA
ATOM      4  C   UNL     1      44.143 130.490  14.258  1.00  0.00     0.106 C 
BRANCH   3   5
ATOM      5  C   UNL     1      46.529 130.562  13.705  1.00  0.00     0.157 C 
ATOM      6  C   UNL     1      47.068 131.847  14.359  1.00  0.00     0.041 C 
BRANCH   5   7
ATOM      7  C   UNL     1      47.633 129.626  13.439  1.00  0.00     0.081 C 
ATOM      8  N   UNL     1      48.503 128.891  13.231  1.00  0.00    -0.197 NA
ENDBRANCH   5   7
ENDBRANCH   3   5
ENDBRANCH   2   3
ENDBRANCH   1   2
BRANCH   1   9
ATOM      9  C   UNL     1      45.694 131.004  18.205  1.00  0.00     0.008 C 
BRANCH   9  10
ATOM     10  C   UNL     1      44.471 131.241  19.101  1.00  0.00     0.060 C 
BRANCH  10  11
ATOM     11  C   UNL     1      43.851 132.568  18.800  1.00  0.00     0.083 A 
ATOM     12  C   UNL     1      43.044 132.869  17.725  1.00  0.00     0.140 A 
ATOM     13  N   UNL     1      44.073 133.699  19.498  1.00  0.00    -0.135 NA
ATOM     14  N   UNL     1      42.771 134.183  17.821  1.00  0.00    -0.220 N 
ATOM     15  N   UNL     1      43.408 134.665  18.878  1.00  0.00    -0.062 NA
BRANCH  14  16
ATOM     16  C   UNL     1      42.044 134.987  16.881  1.00  0.00     0.076 A 
ATOM     17  C   UNL     1      42.724 136.033  16.195  1.00  0.00     0.053 A 
ATOM     18  C   UNL     1      40.668 134.761  16.603  1.00  0.00     0.007 A 
ATOM     19  C   UNL     1      42.069 136.826  15.220  1.00  0.00     0.019 A 
ATOM     20  C   UNL     1      39.819 133.835  17.254  1.00  0.00     0.011 A 
ATOM     21  C   UNL     1      40.084 135.557  15.628  1.00  0.00    -0.020 A 
ATOM     22  C   UNL     1      40.727 136.550  14.948  1.00  0.00    -0.102 A 
ATOM     23  C   UNL     1      38.453 133.737  16.878  1.00  0.00     0.001 A 
ATOM     24  C   UNL     1      38.780 135.480  15.260  1.00  0.00     0.006 A 
ATOM     25  N   UNL     1      39.849 137.220  14.036  1.00  0.00    -0.620 NA
ATOM     26  C   UNL     1      37.919 134.568  15.867  1.00  0.00     0.011 A 
ATOM     27  C   UNL     1      38.612 136.519  14.251  1.00  0.00     0.086 C 
ATOM     28  O   UNL     1      37.541 136.787  13.646  1.00  0.00    -0.315 OA
BRANCH  19  29
ATOM     29  N   UNL     1      42.764 137.871  14.535  1.00  0.00    -0.400 N 
ATOM     30  H   UNL     1      42.252 138.541  13.919  1.00  0.00     0.156 HD
ATOM     31  H   UNL     1      43.797 137.981  14.641  1.00  0.00     0.156 HD
ENDBRANCH  19  29
ENDBRANCH  14  16
ENDBRANCH  10  11
ENDBRANCH   9  10
ENDBRANCH   1   9
TORSDOF 9
ENDMDL
MODEL 3
REMARK VINA RESULT:      -5.3      2.506      4.966
REMARK SMILES C[C@@H](C#N)N(C)CCCCc1cn(-c2cc(N)c3c4c(cccc24)C(=O)[N-]3)nn1
REMARK SMILES IDX 8 1 7 2 5 3 6 4 2 5 1 6 3 7 4 8 9 9 10 10 11 11 12 12 29 13
REMARK SMILES IDX 13 14 28 15 14 16 15 17 24 18 16 19 23 20 19 21 18 22 22 23
REMARK SMILES IDX 20 24 27 25 21 26 25 27 26 28 17 29
REMARK H PARENT 17 30 17 31
ROOT
ATOM      1  C   UNL     1      45.964 131.069  17.980  1.00  0.00     0.016 C 
ENDROOT
BRANCH   1   2
ATOM      2  C   UNL     1      45.391 131.373  16.584  1.00  0.00     0.085 C 
BRANCH   2   3
ATOM      3  N   UNL     1      45.855 130.385  15.578  1.00  0.00    -0.291 NA
ATOM      4  C   UNL     1      45.197 129.077  15.758  1.00  0.00     0.106 C 
BRANCH   3   5
ATOM      5  C   UNL     1      45.760 130.859  14.173  1.00  0.00     0.157 C 
ATOM      6  C   UNL     1      46.620 130.054  13.182  1.00  0.00     0.041 C 
BRANCH   5   7
ATOM      7  C   UNL     1      44.354 130.865  13.738  1.00  0.00     0.081 C 
ATOM      8  N   UNL     1      43.248 130.866  13.396  1.00  0.00    -0.197 NA
ENDBRANCH   5   7
ENDBRANCH   3   5
ENDBRANCH   2   3
ENDBRANCH   1   2
BRANCH   1   9
ATOM      9  C   UNL     1      44.887 130.885  19.063  1.00  0.00     0.008 C 
BRANCH   9  10
ATOM     10  C   UNL     1      44.675 132.151  19.904  1.00  0.00     0.060 C 
BRANCH  10  11
ATOM     11  C   UNL     1      43.287 132.676  19.718  1.00  0.00     0.083 A 
ATOM     12  C   UNL     1      42.558 132.665  18.550  1.00  0.00     0.140 A 
ATOM     13  N   UNL     1      42.578 133.328  20.660  1.00  0.00    -0.135 NA
ATOM     14  N   UNL     1      41.400 133.291  18.829  1.00  0.00    -0.220 N 
ATOM     15  N   UNL     1      41.438 133.694  20.090  1.00  0.00    -0.062 NA
BRANCH  14  16
ATOM     16  C   UNL     1      40.348 133.615  17.908  1.00  0.00     0.076 A 
ATOM     17  C   UNL     1      39.012 133.710  18.392  1.00  0.00     0.053 A 
ATOM     18  C   UNL     1      40.601 133.857  16.530  1.00  0.00     0.007 A 
ATOM     19  C   UNL     1      37.942 134.077  17.539  1.00  0.00     0.019 A 
ATOM     20  C   UNL     1      41.842 133.715  15.865  1.00  0.00     0.011 A 
ATOM     21  C   UNL     1      39.518 134.226  15.747  1.00  0.00    -0.020 A 
ATOM     22  C   UNL     1      38.236 134.342  16.199  1.00  0.00    -0.102 A 
ATOM     23  C   UNL     1      41.936 133.975  14.473  1.00  0.00     0.001 A 
ATOM     24  C   UNL     1      39.589 134.474  14.414  1.00  0.00     0.006 A 
ATOM     25  N   UNL     1      37.334 134.700  15.145  1.00  0.00    -0.620 NA
ATOM     26  C   UNL     1      40.797 134.361  13.730  1.00  0.00     0.011 A 
ATOM     27  C   UNL     1      38.220 134.781  14.016  1.00  0.00     0.086 C 
ATOM     28  O   UNL     1      37.844 135.069  12.850  1.00  0.00    -0.315 OA
BRANCH  19  29
ATOM     29  N   UNL     1      36.605 134.173  18.037  1.00  0.00    -0.400 N 
ATOM     30  H   UNL     1      36.328 133.697  18.924  1.00  0.00     0.156 HD
ATOM     31  H   UNL     1      35.884 134.723  17.521  1.00  0.00     0.156 HD
ENDBRANCH  19  29
ENDBRANCH  14  16
ENDBRANCH  10  11
ENDBRANCH   9  10
ENDBRANCH   1   9
TORSDOF 9
ENDMDL
MODEL 4
REMARK VINA RESULT:      -5.2      3.882      6.582
REMARK SMILES C[C@@H](C#N)N(C)CCCCc1cn(-c2cc(N)c3c4c(cccc24)C(=O)[N-]3)nn1
REMARK SMILES IDX 8 1 7 2 5 3 6 4 2 5 1 6 3 7 4 8 9 9 10 10 11 11 12 12 29 13
REMARK SMILES IDX 13 14 28 15 14 16 15 17 24 18 16 19 23 20 19 21 18 22 22 23
REMARK SMILES IDX 20 24 27 25 21 26 25 27 26 28 17 29
REMARK H PARENT 17 30 17 31
ROOT
ATOM      1  C   UNL     1      43.549 131.649  15.245  1.00  0.00     0.016 C 
ENDROOT
BRANCH   1   2
ATOM      2  C   UNL     1      45.011 131.675  14.762  1.00  0.00     0.085 C 
BRANCH   2   3
ATOM      3  N   UNL     1      45.389 130.400  14.102  1.00  0.00    -0.291 NA
ATOM      4  C   UNL     1      45.923 130.627  12.746  1.00  0.00     0.106 C 
BRANCH   3   5
ATOM      5  C   UNL     1      46.293 129.543  14.912  1.00  0.00     0.157 C 
ATOM      6  C   UNL     1      47.730 129.460  14.366  1.00  0.00     0.041 C 
BRANCH   5   7
ATOM      7  C   UNL     1      46.307 130.005  16.310  1.00  0.00     0.081 C 
ATOM      8  N   UNL     1      46.315 130.369  17.409  1.00  0.00    -0.197 NA
ENDBRANCH   5   7
ENDBRANCH   3   5
ENDBRANCH   2   3
ENDBRANCH   1   2
BRANCH   1   9
ATOM      9  C   UNL     1      42.557 132.268  14.245  1.00  0.00     0.008 C 
BRANCH   9  10
ATOM     10  C   UNL     1      42.403 133.784  14.431  1.00  0.00     0.060 C 
BRANCH  10  11
ATOM     11  C   UNL     1      42.436 134.138  15.884  1.00  0.00     0.083 A 
ATOM     12  C   UNL     1      43.513 134.642  16.579  1.00  0.00     0.140 A 
ATOM     13  N   UNL     1      41.428 133.923  16.752  1.00  0.00    -0.135 NA
ATOM     14  N   UNL     1      43.112 134.749  17.858  1.00  0.00    -0.220 N 
ATOM     15  N   UNL     1      41.869 134.300  17.945  1.00  0.00    -0.062 NA
BRANCH  14  16
ATOM     16  C   UNL     1      43.911 135.138  18.986  1.00  0.00     0.076 A 
ATOM     17  C   UNL     1      44.065 136.523  19.279  1.00  0.00     0.053 A 
ATOM     18  C   UNL     1      44.541 134.180  19.828  1.00  0.00     0.007 A 
ATOM     19  C   UNL     1      44.800 136.962  20.409  1.00  0.00     0.019 A 
ATOM     20  C   UNL     1      44.571 132.779  19.633  1.00  0.00     0.011 A 
ATOM     21  C   UNL     1      45.234 134.668  20.926  1.00  0.00    -0.020 A 
ATOM     22  C   UNL     1      45.374 135.990  21.232  1.00  0.00    -0.102 A 
ATOM     23  C   UNL     1      45.262 131.949  20.554  1.00  0.00     0.001 A 
ATOM     24  C   UNL     1      45.903 133.889  21.813  1.00  0.00     0.006 A 
ATOM     25  N   UNL     1      46.177 136.179  22.403  1.00  0.00    -0.620 NA
ATOM     26  C   UNL     1      45.940 132.504  21.663  1.00  0.00     0.011 A 
ATOM     27  C   UNL     1      46.502 134.825  22.758  1.00  0.00     0.086 C 
ATOM     28  O   UNL     1      47.214 134.511  23.748  1.00  0.00    -0.315 OA
BRANCH  19  29
ATOM     29  N   UNL     1      44.945 138.355  20.694  1.00  0.00    -0.400 N 
ATOM     30  H   UNL     1      45.878 138.820  20.634  1.00  0.00     0.156 HD
ATOM     31  H   UNL     1      44.118 138.930  20.968  1.00  0.00     0.156 HD
ENDBRANCH  19  29
ENDBRANCH  14  16
ENDBRANCH  10  11
ENDBRANCH   9  10
ENDBRANCH   1   9
TORSDOF 9
ENDMDL
MODEL 5
REMARK VINA RESULT:      -5.1      3.344      7.862
REMARK SMILES C[C@@H](C#N)N(C)CCCCc1cn(-c2cc(N)c3c4c(cccc24)C(=O)[N-]3)nn1
REMARK SMILES IDX 8 1 7 2 5 3 6 4 2 5 1 6 3 7 4 8 9 9 10 10 11 11 12 12 29 13
REMARK SMILES IDX 13 14 28 15 14 16 15 17 24 18 16 19 23 20 19 21 18 22 22 23
REMARK SMILES IDX 20 24 27 25 21 26 25 27 26 28 17 29
REMARK H PARENT 17 30 17 31
ROOT
ATOM      1  C   UNL     1      38.888 135.123  14.065  1.00  0.00     0.016 C 
ENDROOT
BRANCH   1   2
ATOM      2  C   UNL     1      40.323 135.674  14.159  1.00  0.00     0.085 C 
BRANCH   2   3
ATOM      3  N   UNL     1      40.373 137.120  13.826  1.00  0.00    -0.291 NA
ATOM      4  C   UNL     1      39.426 137.463  12.749  1.00  0.00     0.106 C 
BRANCH   3   5
ATOM      5  C   UNL     1      40.220 138.019  14.999  1.00  0.00     0.157 C 
ATOM      6  C   UNL     1      40.006 137.277  16.331  1.00  0.00     0.041 C 
BRANCH   5   7
ATOM      7  C   UNL     1      41.380 138.919  15.099  1.00  0.00     0.081 C 
ATOM      8  N   UNL     1      42.294 139.625  15.177  1.00  0.00    -0.197 NA
ENDBRANCH   5   7
ENDBRANCH   3   5
ENDBRANCH   2   3
ENDBRANCH   1   2
BRANCH   1   9
ATOM      9  C   UNL     1      38.507 134.192  15.228  1.00  0.00     0.008 C 
BRANCH   9  10
ATOM     10  C   UNL     1      39.065 134.673  16.575  1.00  0.00     0.060 C 
BRANCH  10  11
ATOM     11  C   UNL     1      40.073 133.701  17.100  1.00  0.00     0.083 A 
ATOM     12  C   UNL     1      41.367 133.544  16.655  1.00  0.00     0.140 A 
ATOM     13  N   UNL     1      39.825 132.764  18.035  1.00  0.00    -0.135 NA
ATOM     14  N   UNL     1      41.882 132.524  17.365  1.00  0.00    -0.220 N 
ATOM     15  N   UNL     1      40.941 132.060  18.172  1.00  0.00    -0.062 NA
BRANCH  14  16
ATOM     16  C   UNL     1      43.174 131.919  17.198  1.00  0.00     0.076 A 
ATOM     17  C   UNL     1      43.985 131.697  18.347  1.00  0.00     0.053 A 
ATOM     18  C   UNL     1      43.661 131.523  15.922  1.00  0.00     0.007 A 
ATOM     19  C   UNL     1      45.246 131.057  18.248  1.00  0.00     0.019 A 
ATOM     20  C   UNL     1      43.034 131.751  14.675  1.00  0.00     0.011 A 
ATOM     21  C   UNL     1      44.894 130.889  15.889  1.00  0.00    -0.020 A 
ATOM     22  C   UNL     1      45.674 130.650  16.982  1.00  0.00    -0.102 A 
ATOM     23  C   UNL     1      43.655 131.312  13.476  1.00  0.00     0.001 A 
ATOM     24  C   UNL     1      45.504 130.467  14.753  1.00  0.00     0.006 A 
ATOM     25  N   UNL     1      46.907 130.015  16.622  1.00  0.00    -0.620 NA
ATOM     26  C   UNL     1      44.909 130.659  13.508  1.00  0.00     0.011 A 
ATOM     27  C   UNL     1      46.776 129.907  15.195  1.00  0.00     0.086 C 
ATOM     28  O   UNL     1      47.654 129.402  14.447  1.00  0.00    -0.315 OA
BRANCH  19  29
ATOM     29  N   UNL     1      46.050 130.836  19.409  1.00  0.00    -0.400 N 
ATOM     30  H   UNL     1      45.895 130.002  20.018  1.00  0.00     0.156 HD
ATOM     31  H   UNL     1      46.808 131.506  19.667  1.00  0.00     0.156 HD
ENDBRANCH  19  29
ENDBRANCH  14  16
ENDBRANCH  10  11
ENDBRANCH   9  10
ENDBRANCH   1   9
TORSDOF 9
ENDMDL
MODEL 6
REMARK VINA RESULT:      -5.1      3.405      7.514
REMARK SMILES C[C@@H](C#N)N(C)CCCCc1cn(-c2cc(N)c3c4c(cccc24)C(=O)[N-]3)nn1
REMARK SMILES IDX 8 1 7 2 5 3 6 4 2 5 1 6 3 7 4 8 9 9 10 10 11 11 12 12 29 13
REMARK SMILES IDX 13 14 28 15 14 16 15 17 24 18 16 19 23 20 19 21 18 22 22 23
REMARK SMILES IDX 20 24 27 25 21 26 25 27 26 28 17 29
REMARK H PARENT 17 30 17 31
ROOT
ATOM      1  C   UNL     1      43.030 137.114  18.139  1.00  0.00     0.016 C 
ENDROOT
BRANCH   1   2
ATOM      2  C   UNL     1      43.005 138.093  16.951  1.00  0.00     0.085 C 
BRANCH   2   3
ATOM      3  N   UNL     1      42.390 137.475  15.749  1.00  0.00    -0.291 NA
ATOM      4  C   UNL     1      43.072 136.223  15.373  1.00  0.00     0.106 C 
BRANCH   3   5
ATOM      5  C   UNL     1      40.918 137.291  15.848  1.00  0.00     0.157 C 
ATOM      6  C   UNL     1      40.129 138.608  15.958  1.00  0.00     0.041 C 
BRANCH   5   7
ATOM      7  C   UNL     1      40.432 136.501  14.705  1.00  0.00     0.081 C 
ATOM      8  N   UNL     1      40.052 135.881  13.804  1.00  0.00    -0.197 NA
ENDBRANCH   5   7
ENDBRANCH   3   5
ENDBRANCH   2   3
ENDBRANCH   1   2
BRANCH   1   9
ATOM      9  C   UNL     1      42.084 137.510  19.286  1.00  0.00     0.008 C 
BRANCH   9  10
ATOM     10  C   UNL     1      41.035 136.430  19.582  1.00  0.00     0.060 C 
BRANCH  10  11
ATOM     11  C   UNL     1      41.365 135.166  18.854  1.00  0.00     0.083 A 
ATOM     12  C   UNL     1      42.563 134.488  18.895  1.00  0.00     0.140 A 
ATOM     13  N   UNL     1      40.556 134.553  17.969  1.00  0.00    -0.135 NA
ATOM     14  N   UNL     1      42.432 133.452  18.047  1.00  0.00    -0.220 N 
ATOM     15  N   UNL     1      41.232 133.517  17.491  1.00  0.00    -0.062 NA
BRANCH  14  16
ATOM     16  C   UNL     1      43.446 132.507  17.671  1.00  0.00     0.076 A 
ATOM     17  C   UNL     1      44.353 132.037  18.663  1.00  0.00     0.053 A 
ATOM     18  C   UNL     1      43.562 132.016  16.342  1.00  0.00     0.007 A 
ATOM     19  C   UNL     1      45.340 131.066  18.360  1.00  0.00     0.019 A 
ATOM     20  C   UNL     1      42.813 132.442  15.219  1.00  0.00     0.011 A 
ATOM     21  C   UNL     1      44.537 131.058  16.108  1.00  0.00    -0.020 A 
ATOM     22  C   UNL     1      45.400 130.582  17.051  1.00  0.00    -0.102 A 
ATOM     23  C   UNL     1      43.058 131.870  13.944  1.00  0.00     0.001 A 
ATOM     24  C   UNL     1      44.787 130.504  14.895  1.00  0.00     0.006 A 
ATOM     25  N   UNL     1      46.316 129.629  16.497  1.00  0.00    -0.620 NA
ATOM     26  C   UNL     1      44.057 130.885  13.771  1.00  0.00     0.011 A 
ATOM     27  C   UNL     1      45.905 129.594  15.120  1.00  0.00     0.086 C 
ATOM     28  O   UNL     1      46.453 128.877  14.243  1.00  0.00    -0.315 OA
BRANCH  19  29
ATOM     29  N   UNL     1      46.243 130.599  19.365  1.00  0.00    -0.400 N 
ATOM     30  H   UNL     1      46.726 129.678  19.267  1.00  0.00     0.156 HD
ATOM     31  H   UNL     1      46.435 131.173  20.216  1.00  0.00     0.156 HD
ENDBRANCH  19  29
ENDBRANCH  14  16
ENDBRANCH  10  11
ENDBRANCH   9  10
ENDBRANCH   1   9
TORSDOF 9
ENDMDL
MODEL 7
REMARK VINA RESULT:      -5.0      3.420      8.115
REMARK SMILES C[C@@H](C#N)N(C)CCCCc1cn(-c2cc(N)c3c4c(cccc24)C(=O)[N-]3)nn1
REMARK SMILES IDX 8 1 7 2 5 3 6 4 2 5 1 6 3 7 4 8 9 9 10 10 11 11 12 12 29 13
REMARK SMILES IDX 13 14 28 15 14 16 15 17 24 18 16 19 23 20 19 21 18 22 22 23
REMARK SMILES IDX 20 24 27 25 21 26 25 27 26 28 17 29
REMARK H PARENT 17 30 17 31
ROOT
ATOM      1  C   UNL     1      38.178 137.063  15.918  1.00  0.00     0.016 C 
ENDROOT
BRANCH   1   2
ATOM      2  C   UNL     1      38.566 137.167  14.432  1.00  0.00     0.085 C 
BRANCH   2   3
ATOM      3  N   UNL     1      37.382 137.025  13.548  1.00  0.00    -0.291 NA
ATOM      4  C   UNL     1      36.899 138.335  13.071  1.00  0.00     0.106 C 
BRANCH   3   5
ATOM      5  C   UNL     1      37.573 136.068  12.427  1.00  0.00     0.157 C 
ATOM      6  C   UNL     1      38.560 136.555  11.351  1.00  0.00     0.041 C 
BRANCH   5   7
ATOM      7  C   UNL     1      37.996 134.759  12.949  1.00  0.00     0.081 C 
ATOM      8  N   UNL     1      38.331 133.729  13.358  1.00  0.00    -0.197 NA
ENDBRANCH   5   7
ENDBRANCH   3   5
ENDBRANCH   2   3
ENDBRANCH   1   2
BRANCH   1   9
ATOM      9  C   UNL     1      39.155 137.782  16.863  1.00  0.00     0.008 C 
BRANCH   9  10
ATOM     10  C   UNL     1      40.624 137.503  16.515  1.00  0.00     0.060 C 
BRANCH  10  11
ATOM     11  C   UNL     1      41.033 136.155  17.017  1.00  0.00     0.083 A 
ATOM     12  C   UNL     1      42.208 135.497  16.728  1.00  0.00     0.140 A 
ATOM     13  N   UNL     1      40.257 135.341  17.759  1.00  0.00    -0.135 NA
ATOM     14  N   UNL     1      42.123 134.301  17.338  1.00  0.00    -0.220 N 
ATOM     15  N   UNL     1      40.944 134.220  17.934  1.00  0.00    -0.062 NA
BRANCH  14  16
ATOM     16  C   UNL     1      43.062 133.218  17.254  1.00  0.00     0.076 A 
ATOM     17  C   UNL     1      43.835 132.884  18.403  1.00  0.00     0.053 A 
ATOM     18  C   UNL     1      43.234 132.460  16.063  1.00  0.00     0.007 A 
ATOM     19  C   UNL     1      44.740 131.793  18.393  1.00  0.00     0.019 A 
ATOM     20  C   UNL     1      42.624 132.711  14.812  1.00  0.00     0.011 A 
ATOM     21  C   UNL     1      44.122 131.396  16.118  1.00  0.00    -0.020 A 
ATOM     22  C   UNL     1      44.854 131.051  17.215  1.00  0.00    -0.102 A 
ATOM     23  C   UNL     1      42.910 131.874  13.701  1.00  0.00     0.001 A 
ATOM     24  C   UNL     1      44.411 130.589  15.065  1.00  0.00     0.006 A 
ATOM     25  N   UNL     1      45.710 129.933  16.949  1.00  0.00    -0.620 NA
ATOM     26  C   UNL     1      43.815 130.795  13.823  1.00  0.00     0.011 A 
ATOM     27  C   UNL     1      45.408 129.654  15.572  1.00  0.00     0.086 C 
ATOM     28  O   UNL     1      45.949 128.730  14.909  1.00  0.00    -0.315 OA
BRANCH  19  29
ATOM     29  N   UNL     1      45.507 131.465  19.554  1.00  0.00    -0.400 N 
ATOM     30  H   UNL     1      45.050 131.355  20.486  1.00  0.00     0.156 HD
ATOM     31  H   UNL     1      46.540 131.330  19.487  1.00  0.00     0.156 HD
ENDBRANCH  19  29
ENDBRANCH  14  16
ENDBRANCH  10  11
ENDBRANCH   9  10
ENDBRANCH   1   9
TORSDOF 9
ENDMDL
MODEL 8
REMARK VINA RESULT:      -4.9      3.364      5.848
REMARK SMILES C[C@@H](C#N)N(C)CCCCc1cn(-c2cc(N)c3c4c(cccc24)C(=O)[N-]3)nn1
REMARK SMILES IDX 8 1 7 2 5 3 6 4 2 5 1 6 3 7 4 8 9 9 10 10 11 11 12 12 29 13
REMARK SMILES IDX 13 14 28 15 14 16 15 17 24 18 16 19 23 20 19 21 18 22 22 23
REMARK SMILES IDX 20 24 27 25 21 26 25 27 26 28 17 29
REMARK H PARENT 17 30 17 31
ROOT
ATOM      1  C   UNL     1      46.469 135.072  22.546  1.00  0.00     0.016 C 
ENDROOT
BRANCH   1   2
ATOM      2  C   UNL     1      46.389 136.567  22.189  1.00  0.00     0.085 C 
BRANCH   2   3
ATOM      3  N   UNL     1      46.883 136.826  20.813  1.00  0.00    -0.291 NA
ATOM      4  C   UNL     1      45.840 137.437  19.967  1.00  0.00     0.106 C 
BRANCH   3   5
ATOM      5  C   UNL     1      48.154 137.594  20.759  1.00  0.00     0.157 C 
ATOM      6  C   UNL     1      49.389 136.790  21.204  1.00  0.00     0.041 C 
BRANCH   5   7
ATOM      7  C   UNL     1      48.360 138.133  19.405  1.00  0.00     0.081 C 
ATOM      8  N   UNL     1      48.524 138.559  18.341  1.00  0.00    -0.197 NA
ENDBRANCH   5   7
ENDBRANCH   3   5
ENDBRANCH   2   3
ENDBRANCH   1   2
BRANCH   1   9
ATOM      9  C   UNL     1      45.105 134.361  22.539  1.00  0.00     0.008 C 
BRANCH   9  10
ATOM     10  C   UNL     1      45.229 132.851  22.295  1.00  0.00     0.060 C 
BRANCH  10  11
ATOM     11  C   UNL     1      44.355 132.431  21.156  1.00  0.00     0.083 A 
ATOM     12  C   UNL     1      44.462 132.846  19.847  1.00  0.00     0.140 A 
ATOM     13  N   UNL     1      43.265 131.648  21.270  1.00  0.00    -0.135 NA
ATOM     14  N   UNL     1      43.440 132.269  19.190  1.00  0.00    -0.220 N 
ATOM     15  N   UNL     1      42.726 131.571  20.060  1.00  0.00    -0.062 NA
BRANCH  14  16
ATOM     16  C   UNL     1      43.068 132.472  17.819  1.00  0.00     0.076 A 
ATOM     17  C   UNL     1      43.791 131.790  16.799  1.00  0.00     0.053 A 
ATOM     18  C   UNL     1      41.989 133.322  17.448  1.00  0.00     0.007 A 
ATOM     19  C   UNL     1      43.436 131.913  15.433  1.00  0.00     0.019 A 
ATOM     20  C   UNL     1      41.229 134.142  18.315  1.00  0.00     0.011 A 
ATOM     21  C   UNL     1      41.678 133.391  16.099  1.00  0.00    -0.020 A 
ATOM     22  C   UNL     1      42.348 132.729  15.112  1.00  0.00    -0.102 A 
ATOM     23  C   UNL     1      40.191 134.957  17.793  1.00  0.00     0.001 A 
ATOM     24  C   UNL     1      40.692 134.168  15.582  1.00  0.00     0.006 A 
ATOM     25  N   UNL     1      41.816 133.033  13.817  1.00  0.00    -0.620 NA
ATOM     26  C   UNL     1      39.912 134.975  16.407  1.00  0.00     0.011 A 
ATOM     27  C   UNL     1      40.760 133.952  14.141  1.00  0.00     0.086 C 
ATOM     28  O   UNL     1      40.012 134.491  13.284  1.00  0.00    -0.315 OA
BRANCH  19  29
ATOM     29  N   UNL     1      44.167 131.221  14.418  1.00  0.00    -0.400 N 
ATOM     30  H   UNL     1      43.682 130.823  13.584  1.00  0.00     0.156 HD
ATOM     31  H   UNL     1      45.202 131.103  14.496  1.00  0.00     0.156 HD
ENDBRANCH  19  29
ENDBRANCH  14  16
ENDBRANCH  10  11
ENDBRANCH   9  10
ENDBRANCH   1   9
TORSDOF 9
ENDMDL
MODEL 9
REMARK VINA RESULT:      -4.9      3.725      7.692
REMARK SMILES C[C@@H](C#N)N(C)CCCCc1cn(-c2cc(N)c3c4c(cccc24)C(=O)[N-]3)nn1
REMARK SMILES IDX 8 1 7 2 5 3 6 4 2 5 1 6 3 7 4 8 9 9 10 10 11 11 12 12 29 13
REMARK SMILES IDX 13 14 28 15 14 16 15 17 24 18 16 19 23 20 19 21 18 22 22 23
REMARK SMILES IDX 20 24 27 25 21 26 25 27 26 28 17 29
REMARK H PARENT 17 30 17 31
ROOT
ATOM      1  C   UNL     1      39.314 135.379  21.261  1.00  0.00     0.016 C 
ENDROOT
BRANCH   1   2
ATOM      2  C   UNL     1      39.881 136.701  21.811  1.00  0.00     0.085 C 
BRANCH   2   3
ATOM      3  N   UNL     1      39.380 137.868  21.042  1.00  0.00    -0.291 NA
ATOM      4  C   UNL     1      38.329 138.593  21.778  1.00  0.00     0.106 C 
BRANCH   3   5
ATOM      5  C   UNL     1      40.449 138.784  20.566  1.00  0.00     0.157 C 
ATOM      6  C   UNL     1      41.737 138.733  21.408  1.00  0.00     0.041 C 
BRANCH   5   7
ATOM      7  C   UNL     1      40.756 138.510  19.153  1.00  0.00     0.081 C 
ATOM      8  N   UNL     1      40.998 138.293  18.042  1.00  0.00    -0.197 NA
ENDBRANCH   5   7
ENDBRANCH   3   5
ENDBRANCH   2   3
ENDBRANCH   1   2
BRANCH   1   9
ATOM      9  C   UNL     1      38.875 135.459  19.789  1.00  0.00     0.008 C 
BRANCH   9  10
ATOM     10  C   UNL     1      38.893 134.091  19.094  1.00  0.00     0.060 C 
BRANCH  10  11
ATOM     11  C   UNL     1      40.159 133.915  18.318  1.00  0.00     0.083 A 
ATOM     12  C   UNL     1      40.985 132.813  18.340  1.00  0.00     0.140 A 
ATOM     13  N   UNL     1      40.728 134.862  17.547  1.00  0.00    -0.135 NA
ATOM     14  N   UNL     1      42.029 133.116  17.546  1.00  0.00    -0.220 N 
ATOM     15  N   UNL     1      41.865 134.350  17.095  1.00  0.00    -0.062 NA
BRANCH  14  16
ATOM     16  C   UNL     1      43.205 132.323  17.323  1.00  0.00     0.076 A 
ATOM     17  C   UNL     1      44.053 132.021  18.425  1.00  0.00     0.053 A 
ATOM     18  C   UNL     1      43.540 131.820  16.036  1.00  0.00     0.007 A 
ATOM     19  C   UNL     1      45.199 131.201  18.273  1.00  0.00     0.019 A 
ATOM     20  C   UNL     1      42.868 132.098  14.822  1.00  0.00     0.011 A 
ATOM     21  C   UNL     1      44.664 131.012  15.950  1.00  0.00    -0.020 A 
ATOM     22  C   UNL     1      45.476 130.696  17.000  1.00  0.00    -0.102 A 
ATOM     23  C   UNL     1      43.335 131.535  13.606  1.00  0.00     0.001 A 
ATOM     24  C   UNL     1      45.127 130.470  14.795  1.00  0.00     0.006 A 
ATOM     25  N   UNL     1      46.576 129.877  16.588  1.00  0.00    -0.620 NA
ATOM     26  C   UNL     1      44.480 130.707  13.584  1.00  0.00     0.011 A 
ATOM     27  C   UNL     1      46.333 129.743  15.178  1.00  0.00     0.086 C 
ATOM     28  O   UNL     1      47.074 129.092  14.397  1.00  0.00    -0.315 OA
BRANCH  19  29
ATOM     29  N   UNL     1      46.042 130.901  19.388  1.00  0.00    -0.400 N 
ATOM     30  H   UNL     1      46.938 130.380  19.259  1.00  0.00     0.156 HD
ATOM     31  H   UNL     1      45.774 131.199  20.352  1.00  0.00     0.156 HD
ENDBRANCH  19  29
ENDBRANCH  14  16
ENDBRANCH  10  11
ENDBRANCH   9  10
ENDBRANCH   1   9
TORSDOF 9
ENDMDL


