MODEL 1
REMARK VINA RESULT:      -7.9      0.000      0.000
REMARK SMILES CCc1[nH+]nn(CC2(C#N)CCCC2)c1C[N+](C)(C)Cc1cccc2ccccc12
REMARK SMILES IDX 3 1 4 2 5 3 6 4 15 5 2 7 1 8 16 9 17 10 18 11 19 12 20 13
REMARK SMILES IDX 21 14 22 15 30 16 23 17 29 18 25 19 24 20 28 21 26 22 27 23
REMARK SMILES IDX 7 24 8 25 11 26 14 27 12 28 13 29 9 30 10 31
REMARK H PARENT 4 6
ROOT
ATOM      1  C   UNL     1      44.590 132.489  18.500  1.00  0.00     0.173 A 
ATOM      2  N   UNL     1      44.927 131.188  18.438  1.00  0.00    -0.147 N 
ATOM      3  N   UNL     1      44.938 130.822  17.168  1.00  0.00     0.088 NA
ATOM      4  N   UNL     1      44.624 131.851  16.394  1.00  0.00    -0.127 N 
ATOM      5  C   UNL     1      44.416 132.929  17.194  1.00  0.00     0.224 A 
ATOM      6  H   UNL     1      45.096 130.543  19.241  1.00  0.00     0.342 HD
ENDROOT
BRANCH   1   7
ATOM      7  C   UNL     1      44.246 133.197  19.779  1.00  0.00     0.083 C 
ATOM      8  C   UNL     1      43.112 132.478  20.501  1.00  0.00     0.013 C 
ENDBRANCH   1   7
BRANCH   5   9
ATOM      9  C   UNL     1      44.031 134.323  16.730  1.00  0.00     0.351 C 
BRANCH   9  10
ATOM     10  N   UNL     1      42.611 134.481  16.270  1.00  0.00    -0.318 N 
ATOM     11  C   UNL     1      42.137 135.853  16.578  1.00  0.00     0.334 C 
ATOM     12  C   UNL     1      42.475 134.280  14.803  1.00  0.00     0.334 C 
BRANCH  10  13
ATOM     13  C   UNL     1      41.717 133.525  17.007  1.00  0.00     0.301 C 
BRANCH  13  14
ATOM     14  C   UNL     1      40.379 134.114  17.470  1.00  0.00     0.014 A 
ATOM     15  C   UNL     1      40.264 134.480  18.825  1.00  0.00     0.010 A 
ATOM     16  C   UNL     1      39.258 134.324  16.608  1.00  0.00    -0.010 A 
ATOM     17  C   UNL     1      39.119 135.106  19.311  1.00  0.00     0.001 A 
ATOM     18  C   UNL     1      39.246 133.910  15.255  1.00  0.00     0.009 A 
ATOM     19  C   UNL     1      38.105 134.986  17.118  1.00  0.00    -0.018 A 
ATOM     20  C   UNL     1      38.053 135.375  18.462  1.00  0.00     0.009 A 
ATOM     21  C   UNL     1      38.148 134.179  14.435  1.00  0.00     0.001 A 
ATOM     22  C   UNL     1      37.012 135.250  16.276  1.00  0.00     0.009 A 
ATOM     23  C   UNL     1      37.038 134.853  14.941  1.00  0.00     0.001 A 
ENDBRANCH  13  14
ENDBRANCH  10  13
ENDBRANCH   9  10
ENDBRANCH   5   9
BRANCH   4  24
ATOM     24  C   UNL     1      44.407 131.721  14.947  1.00  0.00     0.292 C 
BRANCH  24  25
ATOM     25  C   UNL     1      45.479 130.825  14.273  1.00  0.00     0.097 C 
ATOM     26  C   UNL     1      45.395 130.840  12.741  1.00  0.00     0.026 C 
ATOM     27  C   UNL     1      46.895 131.343  14.551  1.00  0.00     0.026 C 
ATOM     28  C   UNL     1      46.803 130.539  12.239  1.00  0.00     0.002 C 
ATOM     29  C   UNL     1      47.757 130.845  13.395  1.00  0.00     0.002 C 
BRANCH  25  30
ATOM     30  C   UNL     1      45.361 129.435  14.769  1.00  0.00     0.073 C 
ATOM     31  N   UNL     1      45.271 128.348  15.157  1.00  0.00    -0.198 NA
ENDBRANCH  25  30
ENDBRANCH  24  25
ENDBRANCH   4  24
TORSDOF 8
ENDMDL
MODEL 2
REMARK VINA RESULT:      -7.7      1.615      2.345
REMARK SMILES CCc1[nH+]nn(CC2(C#N)CCCC2)c1C[N+](C)(C)Cc1cccc2ccccc12
REMARK SMILES IDX 3 1 4 2 5 3 6 4 15 5 2 7 1 8 16 9 17 10 18 11 19 12 20 13
REMARK SMILES IDX 21 14 22 15 30 16 23 17 29 18 25 19 24 20 28 21 26 22 27 23
REMARK SMILES IDX 7 24 8 25 11 26 14 27 12 28 13 29 9 30 10 31
REMARK H PARENT 4 6
ROOT
ATOM      1  C   UNL     1      43.098 132.168  18.186  1.00  0.00     0.173 A 
ATOM      2  N   UNL     1      44.187 131.382  18.269  1.00  0.00    -0.147 N 
ATOM      3  N   UNL     1      44.601 131.115  17.043  1.00  0.00     0.088 NA
ATOM      4  N   UNL     1      43.816 131.711  16.157  1.00  0.00    -0.127 N 
ATOM      5  C   UNL     1      42.866 132.404  16.837  1.00  0.00     0.224 A 
ATOM      6  H   UNL     1      44.613 130.989  19.136  1.00  0.00     0.342 HD
ENDROOT
BRANCH   1   7
ATOM      7  C   UNL     1      42.213 132.486  19.357  1.00  0.00     0.083 C 
ATOM      8  C   UNL     1      43.016 132.480  20.652  1.00  0.00     0.013 C 
ENDBRANCH   1   7
BRANCH   5   9
ATOM      9  C   UNL     1      41.753 133.234  16.219  1.00  0.00     0.351 C 
BRANCH   9  10
ATOM     10  N   UNL     1      42.072 134.685  16.008  1.00  0.00    -0.318 N 
ATOM     11  C   UNL     1      41.309 135.509  16.978  1.00  0.00     0.334 C 
ATOM     12  C   UNL     1      43.515 134.974  16.213  1.00  0.00     0.334 C 
BRANCH  10  13
ATOM     13  C   UNL     1      41.650 135.114  14.630  1.00  0.00     0.301 C 
BRANCH  13  14
ATOM     14  C   UNL     1      40.579 136.211  14.592  1.00  0.00     0.014 A 
ATOM     15  C   UNL     1      41.017 137.549  14.642  1.00  0.00     0.010 A 
ATOM     16  C   UNL     1      39.177 135.954  14.495  1.00  0.00    -0.010 A 
ATOM     17  C   UNL     1      40.122 138.608  14.521  1.00  0.00     0.001 A 
ATOM     18  C   UNL     1      38.634 134.648  14.527  1.00  0.00     0.009 A 
ATOM     19  C   UNL     1      38.279 137.050  14.349  1.00  0.00    -0.018 A 
ATOM     20  C   UNL     1      38.764 138.364  14.357  1.00  0.00     0.009 A 
ATOM     21  C   UNL     1      37.261 134.440  14.380  1.00  0.00     0.001 A 
ATOM     22  C   UNL     1      36.902 136.820  14.200  1.00  0.00     0.009 A 
ATOM     23  C   UNL     1      36.399 135.520  14.210  1.00  0.00     0.001 A 
ENDBRANCH  13  14
ENDBRANCH  10  13
ENDBRANCH   9  10
ENDBRANCH   5   9
BRANCH   4  24
ATOM     24  C   UNL     1      43.931 131.482  14.710  1.00  0.00     0.292 C 
BRANCH  24  25
ATOM     25  C   UNL     1      45.230 130.719  14.340  1.00  0.00     0.097 C 
ATOM     26  C   UNL     1      45.455 130.618  12.826  1.00  0.00     0.026 C 
ATOM     27  C   UNL     1      46.476 131.468  14.830  1.00  0.00     0.026 C 
ATOM     28  C   UNL     1      46.964 130.506  12.630  1.00  0.00     0.002 C 
ATOM     29  C   UNL     1      47.613 131.033  13.911  1.00  0.00     0.002 C 
BRANCH  25  30
ATOM     30  C   UNL     1      45.209 129.364  14.937  1.00  0.00     0.073 C 
ATOM     31  N   UNL     1      45.194 128.304  15.402  1.00  0.00    -0.198 NA
ENDBRANCH  25  30
ENDBRANCH  24  25
ENDBRANCH   4  24
TORSDOF 8
ENDMDL
MODEL 3
REMARK VINA RESULT:      -7.5      2.640      5.979
REMARK SMILES CCc1[nH+]nn(CC2(C#N)CCCC2)c1C[N+](C)(C)Cc1cccc2ccccc12
REMARK SMILES IDX 3 1 4 2 5 3 6 4 15 5 2 7 1 8 16 9 17 10 18 11 19 12 20 13
REMARK SMILES IDX 21 14 22 15 30 16 23 17 29 18 25 19 24 20 28 21 26 22 27 23
REMARK SMILES IDX 7 24 8 25 11 26 14 27 12 28 13 29 9 30 10 31
REMARK H PARENT 4 6
ROOT
ATOM      1  C   UNL     1      43.065 135.144  15.717  1.00  0.00     0.173 A 
ATOM      2  N   UNL     1      42.675 134.573  14.563  1.00  0.00    -0.147 N 
ATOM      3  N   UNL     1      42.662 133.263  14.732  1.00  0.00     0.088 NA
ATOM      4  N   UNL     1      43.026 132.959  15.969  1.00  0.00    -0.127 N 
ATOM      5  C   UNL     1      43.270 134.120  16.632  1.00  0.00     0.224 A 
ATOM      6  H   UNL     1      42.473 135.056  13.660  1.00  0.00     0.342 HD
ENDROOT
BRANCH   1   7
ATOM      7  C   UNL     1      43.425 136.597  15.844  1.00  0.00     0.083 C 
ATOM      8  C   UNL     1      42.167 137.453  15.942  1.00  0.00     0.013 C 
ENDBRANCH   1   7
BRANCH   5   9
ATOM      9  C   UNL     1      43.716 134.244  18.078  1.00  0.00     0.351 C 
BRANCH   9  10
ATOM     10  N   UNL     1      42.623 134.142  19.103  1.00  0.00    -0.318 N 
ATOM     11  C   UNL     1      41.330 134.536  18.491  1.00  0.00     0.334 C 
ATOM     12  C   UNL     1      42.470 132.756  19.617  1.00  0.00     0.334 C 
BRANCH  10  13
ATOM     13  C   UNL     1      42.887 135.090  20.239  1.00  0.00     0.301 C 
BRANCH  13  14
ATOM     14  C   UNL     1      44.094 136.015  20.044  1.00  0.00     0.014 A 
ATOM     15  C   UNL     1      43.901 137.185  19.285  1.00  0.00     0.010 A 
ATOM     16  C   UNL     1      45.388 135.766  20.599  1.00  0.00    -0.010 A 
ATOM     17  C   UNL     1      44.916 138.126  19.134  1.00  0.00     0.001 A 
ATOM     18  C   UNL     1      45.703 134.578  21.301  1.00  0.00     0.009 A 
ATOM     19  C   UNL     1      46.407 136.750  20.454  1.00  0.00    -0.018 A 
ATOM     20  C   UNL     1      46.155 137.922  19.729  1.00  0.00     0.009 A 
ATOM     21  C   UNL     1      46.966 134.398  21.868  1.00  0.00     0.001 A 
ATOM     22  C   UNL     1      47.670 136.551  21.034  1.00  0.00     0.009 A 
ATOM     23  C   UNL     1      47.944 135.382  21.742  1.00  0.00     0.001 A 
ENDBRANCH  13  14
ENDBRANCH  10  13
ENDBRANCH   9  10
ENDBRANCH   5   9
BRANCH   4  24
ATOM     24  C   UNL     1      43.251 131.577  16.416  1.00  0.00     0.292 C 
BRANCH  24  25
ATOM     25  C   UNL     1      44.717 131.122  16.192  1.00  0.00     0.097 C 
ATOM     26  C   UNL     1      44.832 129.909  15.260  1.00  0.00     0.026 C 
ATOM     27  C   UNL     1      45.532 132.200  15.467  1.00  0.00     0.026 C 
ATOM     28  C   UNL     1      46.207 130.007  14.608  1.00  0.00     0.002 C 
ATOM     29  C   UNL     1      46.659 131.461  14.753  1.00  0.00     0.002 C 
BRANCH  25  30
ATOM     30  C   UNL     1      45.357 130.819  17.492  1.00  0.00     0.073 C 
ATOM     31  N   UNL     1      45.856 130.583  18.510  1.00  0.00    -0.198 NA
ENDBRANCH  25  30
ENDBRANCH  24  25
ENDBRANCH   4  24
TORSDOF 8
ENDMDL
MODEL 4
REMARK VINA RESULT:      -7.4      2.328      7.510
REMARK SMILES CCc1[nH+]nn(CC2(C#N)CCCC2)c1C[N+](C)(C)Cc1cccc2ccccc12
REMARK SMILES IDX 3 1 4 2 5 3 6 4 15 5 2 7 1 8 16 9 17 10 18 11 19 12 20 13
REMARK SMILES IDX 21 14 22 15 30 16 23 17 29 18 25 19 24 20 28 21 26 22 27 23
REMARK SMILES IDX 7 24 8 25 11 26 14 27 12 28 13 29 9 30 10 31
REMARK H PARENT 4 6
ROOT
ATOM      1  C   UNL     1      39.588 135.160  16.874  1.00  0.00     0.173 A 
ATOM      2  N   UNL     1      39.168 136.437  16.928  1.00  0.00    -0.147 N 
ATOM      3  N   UNL     1      40.230 137.221  16.987  1.00  0.00     0.088 NA
ATOM      4  N   UNL     1      41.336 136.493  16.967  1.00  0.00    -0.127 N 
ATOM      5  C   UNL     1      40.976 135.185  16.875  1.00  0.00     0.224 A 
ATOM      6  H   UNL     1      38.181 136.773  16.977  1.00  0.00     0.342 HD
ENDROOT
BRANCH   1   7
ATOM      7  C   UNL     1      38.674 133.978  17.034  1.00  0.00     0.083 C 
ATOM      8  C   UNL     1      38.296 133.789  18.499  1.00  0.00     0.013 C 
ENDBRANCH   1   7
BRANCH   5   9
ATOM      9  C   UNL     1      41.925 134.001  16.825  1.00  0.00     0.351 C 
BRANCH   9  10
ATOM     10  N   UNL     1      42.568 133.743  15.493  1.00  0.00    -0.318 N 
ATOM     11  C   UNL     1      41.693 134.260  14.410  1.00  0.00     0.334 C 
ATOM     12  C   UNL     1      43.883 134.425  15.368  1.00  0.00     0.334 C 
BRANCH  10  13
ATOM     13  C   UNL     1      42.728 132.266  15.270  1.00  0.00     0.301 C 
BRANCH  13  14
ATOM     14  C   UNL     1      43.980 131.647  15.902  1.00  0.00     0.014 A 
ATOM     15  C   UNL     1      44.084 131.681  17.307  1.00  0.00     0.010 A 
ATOM     16  C   UNL     1      45.030 131.030  15.154  1.00  0.00    -0.010 A 
ATOM     17  C   UNL     1      45.141 131.063  17.969  1.00  0.00     0.001 A 
ATOM     18  C   UNL     1      45.059 131.023  13.740  1.00  0.00     0.009 A 
ATOM     19  C   UNL     1      46.091 130.383  15.850  1.00  0.00    -0.018 A 
ATOM     20  C   UNL     1      46.129 130.402  17.250  1.00  0.00     0.009 A 
ATOM     21  C   UNL     1      46.080 130.366  13.049  1.00  0.00     0.001 A 
ATOM     22  C   UNL     1      47.106 129.725  15.138  1.00  0.00     0.009 A 
ATOM     23  C   UNL     1      47.095 129.713  13.744  1.00  0.00     0.001 A 
ENDBRANCH  13  14
ENDBRANCH  10  13
ENDBRANCH   9  10
ENDBRANCH   5   9
BRANCH   4  24
ATOM     24  C   UNL     1      42.673 137.069  17.170  1.00  0.00     0.292 C 
BRANCH  24  25
ATOM     25  C   UNL     1      43.120 137.000  18.653  1.00  0.00     0.097 C 
ATOM     26  C   UNL     1      41.985 136.599  19.604  1.00  0.00     0.026 C 
ATOM     27  C   UNL     1      44.166 135.900  18.871  1.00  0.00     0.026 C 
ATOM     28  C   UNL     1      42.653 135.927  20.799  1.00  0.00     0.002 C 
ATOM     29  C   UNL     1      44.046 135.495  20.337  1.00  0.00     0.002 C 
BRANCH  25  30
ATOM     30  C   UNL     1      43.689 138.302  19.071  1.00  0.00     0.073 C 
ATOM     31  N   UNL     1      44.132 139.322  19.396  1.00  0.00    -0.198 NA
ENDBRANCH  25  30
ENDBRANCH  24  25
ENDBRANCH   4  24
TORSDOF 8
ENDMDL
MODEL 5
REMARK VINA RESULT:      -7.2      1.699      2.882
REMARK SMILES CCc1[nH+]nn(CC2(C#N)CCCC2)c1C[N+](C)(C)Cc1cccc2ccccc12
REMARK SMILES IDX 3 1 4 2 5 3 6 4 15 5 2 7 1 8 16 9 17 10 18 11 19 12 20 13
REMARK SMILES IDX 21 14 22 15 30 16 23 17 29 18 25 19 24 20 28 21 26 22 27 23
REMARK SMILES IDX 7 24 8 25 11 26 14 27 12 28 13 29 9 30 10 31
REMARK H PARENT 4 6
ROOT
ATOM      1  C   UNL     1      45.556 131.843  20.015  1.00  0.00     0.173 A 
ATOM      2  N   UNL     1      46.212 130.715  19.688  1.00  0.00    -0.147 N 
ATOM      3  N   UNL     1      45.775 130.308  18.509  1.00  0.00     0.088 NA
ATOM      4  N   UNL     1      44.855 131.143  18.050  1.00  0.00    -0.127 N 
ATOM      5  C   UNL     1      44.700 132.139  18.962  1.00  0.00     0.224 A 
ATOM      6  H   UNL     1      46.904 130.199  20.274  1.00  0.00     0.342 HD
ENDROOT
BRANCH   1   7
ATOM      7  C   UNL     1      45.610 132.470  21.379  1.00  0.00     0.083 C 
ATOM      8  C   UNL     1      45.038 131.522  22.427  1.00  0.00     0.013 C 
ENDBRANCH   1   7
BRANCH   5   9
ATOM      9  C   UNL     1      43.743 133.313  18.846  1.00  0.00     0.351 C 
BRANCH   9  10
ATOM     10  N   UNL     1      42.320 133.027  19.228  1.00  0.00    -0.318 N 
ATOM     11  C   UNL     1      42.240 131.701  19.890  1.00  0.00     0.334 C 
ATOM     12  C   UNL     1      41.786 134.035  20.181  1.00  0.00     0.334 C 
BRANCH  10  13
ATOM     13  C   UNL     1      41.455 132.965  18.001  1.00  0.00     0.301 C 
BRANCH  13  14
ATOM     14  C   UNL     1      40.742 134.275  17.644  1.00  0.00     0.014 A 
ATOM     15  C   UNL     1      41.528 135.322  17.125  1.00  0.00     0.010 A 
ATOM     16  C   UNL     1      39.336 134.485  17.794  1.00  0.00    -0.010 A 
ATOM     17  C   UNL     1      40.952 136.512  16.689  1.00  0.00     0.001 A 
ATOM     18  C   UNL     1      38.479 133.529  18.387  1.00  0.00     0.009 A 
ATOM     19  C   UNL     1      38.762 135.700  17.322  1.00  0.00    -0.018 A 
ATOM     20  C   UNL     1      39.577 136.696  16.768  1.00  0.00     0.009 A 
ATOM     21  C   UNL     1      37.103 133.755  18.468  1.00  0.00     0.001 A 
ATOM     22  C   UNL     1      37.376 135.908  17.410  1.00  0.00     0.009 A 
ATOM     23  C   UNL     1      36.552 134.936  17.976  1.00  0.00     0.001 A 
ENDBRANCH  13  14
ENDBRANCH  10  13
ENDBRANCH   9  10
ENDBRANCH   5   9
BRANCH   4  24
ATOM     24  C   UNL     1      44.075 130.878  16.833  1.00  0.00     0.292 C 
BRANCH  24  25
ATOM     25  C   UNL     1      44.768 131.433  15.562  1.00  0.00     0.097 C 
ATOM     26  C   UNL     1      46.296 131.485  15.686  1.00  0.00     0.026 C 
ATOM     27  C   UNL     1      44.545 130.512  14.356  1.00  0.00     0.026 C 
ATOM     28  C   UNL     1      46.839 131.368  14.266  1.00  0.00     0.002 C 
ATOM     29  C   UNL     1      45.720 130.763  13.416  1.00  0.00     0.002 C 
BRANCH  25  30
ATOM     30  C   UNL     1      44.244 132.782  15.248  1.00  0.00     0.073 C 
ATOM     31  N   UNL     1      43.835 133.838  15.005  1.00  0.00    -0.198 NA
ENDBRANCH  25  30
ENDBRANCH  24  25
ENDBRANCH   4  24
TORSDOF 8
ENDMDL
MODEL 6
REMARK VINA RESULT:      -7.2      1.969      3.314
REMARK SMILES CCc1[nH+]nn(CC2(C#N)CCCC2)c1C[N+](C)(C)Cc1cccc2ccccc12
REMARK SMILES IDX 3 1 4 2 5 3 6 4 15 5 2 7 1 8 16 9 17 10 18 11 19 12 20 13
REMARK SMILES IDX 21 14 22 15 30 16 23 17 29 18 25 19 24 20 28 21 26 22 27 23
REMARK SMILES IDX 7 24 8 25 11 26 14 27 12 28 13 29 9 30 10 31
REMARK H PARENT 4 6
ROOT
ATOM      1  C   UNL     1      43.857 131.711  18.087  1.00  0.00     0.173 A 
ATOM      2  N   UNL     1      45.168 131.439  18.215  1.00  0.00    -0.147 N 
ATOM      3  N   UNL     1      45.725 131.508  17.019  1.00  0.00     0.088 NA
ATOM      4  N   UNL     1      44.815 131.825  16.110  1.00  0.00    -0.127 N 
ATOM      5  C   UNL     1      43.624 131.983  16.745  1.00  0.00     0.224 A 
ATOM      6  H   UNL     1      45.669 131.159  19.087  1.00  0.00     0.342 HD
ENDROOT
BRANCH   1   7
ATOM      7  C   UNL     1      42.853 131.501  19.186  1.00  0.00     0.083 C 
ATOM      8  C   UNL     1      43.018 132.559  20.270  1.00  0.00     0.013 C 
ENDBRANCH   1   7
BRANCH   5   9
ATOM      9  C   UNL     1      42.304 132.347  16.088  1.00  0.00     0.351 C 
BRANCH   9  10
ATOM     10  N   UNL     1      42.055 133.817  15.909  1.00  0.00    -0.318 N 
ATOM     11  C   UNL     1      43.269 134.463  15.351  1.00  0.00     0.334 C 
ATOM     12  C   UNL     1      40.936 134.081  14.968  1.00  0.00     0.334 C 
BRANCH  10  13
ATOM     13  C   UNL     1      41.777 134.462  17.237  1.00  0.00     0.301 C 
BRANCH  13  14
ATOM     14  C   UNL     1      42.625 135.701  17.546  1.00  0.00     0.014 A 
ATOM     15  C   UNL     1      43.782 135.519  18.328  1.00  0.00     0.010 A 
ATOM     16  C   UNL     1      42.317 137.016  17.077  1.00  0.00    -0.010 A 
ATOM     17  C   UNL     1      44.658 136.571  18.580  1.00  0.00     0.001 A 
ATOM     18  C   UNL     1      41.135 137.315  16.361  1.00  0.00     0.009 A 
ATOM     19  C   UNL     1      43.237 138.075  17.326  1.00  0.00    -0.018 A 
ATOM     20  C   UNL     1      44.400 137.837  18.069  1.00  0.00     0.009 A 
ATOM     21  C   UNL     1      40.897 138.604  15.879  1.00  0.00     0.001 A 
ATOM     22  C   UNL     1      42.982 139.363  16.830  1.00  0.00     0.009 A 
ATOM     23  C   UNL     1      41.820 139.623  16.106  1.00  0.00     0.001 A 
ENDBRANCH  13  14
ENDBRANCH  10  13
ENDBRANCH   9  10
ENDBRANCH   5   9
BRANCH   4  24
ATOM     24  C   UNL     1      45.099 131.831  14.668  1.00  0.00     0.292 C 
BRANCH  24  25
ATOM     25  C   UNL     1      45.980 130.629  14.240  1.00  0.00     0.097 C 
ATOM     26  C   UNL     1      46.050 130.447  12.719  1.00  0.00     0.026 C 
ATOM     27  C   UNL     1      47.446 130.843  14.636  1.00  0.00     0.026 C 
ATOM     28  C   UNL     1      47.384 129.766  12.436  1.00  0.00     0.002 C 
ATOM     29  C   UNL     1      48.268 130.004  13.661  1.00  0.00     0.002 C 
BRANCH  25  30
ATOM     30  C   UNL     1      45.481 129.386  14.872  1.00  0.00     0.073 C 
ATOM     31  N   UNL     1      45.090 128.415  15.368  1.00  0.00    -0.198 NA
ENDBRANCH  25  30
ENDBRANCH  24  25
ENDBRANCH   4  24
TORSDOF 8
ENDMDL
MODEL 7
REMARK VINA RESULT:      -7.1      1.762      4.891
REMARK SMILES CCc1[nH+]nn(CC2(C#N)CCCC2)c1C[N+](C)(C)Cc1cccc2ccccc12
REMARK SMILES IDX 3 1 4 2 5 3 6 4 15 5 2 7 1 8 16 9 17 10 18 11 19 12 20 13
REMARK SMILES IDX 21 14 22 15 30 16 23 17 29 18 25 19 24 20 28 21 26 22 27 23
REMARK SMILES IDX 7 24 8 25 11 26 14 27 12 28 13 29 9 30 10 31
REMARK H PARENT 4 6
ROOT
ATOM      1  C   UNL     1      44.992 130.471  16.928  1.00  0.00     0.173 A 
ATOM      2  N   UNL     1      46.017 130.236  17.767  1.00  0.00    -0.147 N 
ATOM      3  N   UNL     1      45.911 131.063  18.793  1.00  0.00     0.088 NA
ATOM      4  N   UNL     1      44.841 131.831  18.651  1.00  0.00    -0.127 N 
ATOM      5  C   UNL     1      44.219 131.475  17.496  1.00  0.00     0.224 A 
ATOM      6  H   UNL     1      46.804 129.566  17.626  1.00  0.00     0.342 HD
ENDROOT
BRANCH   1   7
ATOM      7  C   UNL     1      44.903 129.893  15.544  1.00  0.00     0.083 C 
ATOM      8  C   UNL     1      45.920 130.556  14.621  1.00  0.00     0.013 C 
ENDBRANCH   1   7
BRANCH   5   9
ATOM      9  C   UNL     1      42.951 132.097  16.938  1.00  0.00     0.351 C 
BRANCH   9  10
ATOM     10  N   UNL     1      43.156 133.167  15.906  1.00  0.00    -0.318 N 
ATOM     11  C   UNL     1      44.583 133.577  15.891  1.00  0.00     0.334 C 
ATOM     12  C   UNL     1      42.812 132.696  14.539  1.00  0.00     0.334 C 
BRANCH  10  13
ATOM     13  C   UNL     1      42.347 134.385  16.252  1.00  0.00     0.301 C 
BRANCH  13  14
ATOM     14  C   UNL     1      40.853 134.126  16.484  1.00  0.00     0.014 A 
ATOM     15  C   UNL     1      40.464 133.660  17.755  1.00  0.00     0.010 A 
ATOM     16  C   UNL     1      39.843 134.344  15.496  1.00  0.00    -0.010 A 
ATOM     17  C   UNL     1      39.122 133.486  18.082  1.00  0.00     0.001 A 
ATOM     18  C   UNL     1      40.142 134.726  14.168  1.00  0.00     0.009 A 
ATOM     19  C   UNL     1      38.474 134.182  15.856  1.00  0.00    -0.018 A 
ATOM     20  C   UNL     1      38.131 133.762  17.147  1.00  0.00     0.009 A 
ATOM     21  C   UNL     1      39.121 134.975  13.248  1.00  0.00     0.001 A 
ATOM     22  C   UNL     1      37.462 134.440  14.918  1.00  0.00     0.009 A 
ATOM     23  C   UNL     1      37.786 134.840  13.623  1.00  0.00     0.001 A 
ENDBRANCH  13  14
ENDBRANCH  10  13
ENDBRANCH   9  10
ENDBRANCH   5   9
BRANCH   4  24
ATOM     24  C   UNL     1      44.538 132.951  19.554  1.00  0.00     0.292 C 
BRANCH  24  25
ATOM     25  C   UNL     1      43.975 132.469  20.916  1.00  0.00     0.097 C 
ATOM     26  C   UNL     1      42.770 131.531  20.768  1.00  0.00     0.026 C 
ATOM     27  C   UNL     1      44.998 131.611  21.671  1.00  0.00     0.026 C 
ATOM     28  C   UNL     1      42.772 130.644  22.009  1.00  0.00     0.002 C 
ATOM     29  C   UNL     1      44.184 130.707  22.592  1.00  0.00     0.002 C 
BRANCH  25  30
ATOM     30  C   UNL     1      43.605 133.634  21.751  1.00  0.00     0.073 C 
ATOM     31  N   UNL     1      43.317 134.544  22.406  1.00  0.00    -0.198 NA
ENDBRANCH  25  30
ENDBRANCH  24  25
ENDBRANCH   4  24
TORSDOF 8
ENDMDL
MODEL 8
REMARK VINA RESULT:      -7.0      2.354      7.526
REMARK SMILES CCc1[nH+]nn(CC2(C#N)CCCC2)c1C[N+](C)(C)Cc1cccc2ccccc12
REMARK SMILES IDX 3 1 4 2 5 3 6 4 15 5 2 7 1 8 16 9 17 10 18 11 19 12 20 13
REMARK SMILES IDX 21 14 22 15 30 16 23 17 29 18 25 19 24 20 28 21 26 22 27 23
REMARK SMILES IDX 7 24 8 25 11 26 14 27 12 28 13 29 9 30 10 31
REMARK H PARENT 4 6
ROOT
ATOM      1  C   UNL     1      42.506 137.035  16.728  1.00  0.00     0.173 A 
ATOM      2  N   UNL     1      42.812 137.543  17.936  1.00  0.00    -0.147 N 
ATOM      3  N   UNL     1      42.410 136.688  18.860  1.00  0.00     0.088 NA
ATOM      4  N   UNL     1      41.854 135.629  18.290  1.00  0.00    -0.127 N 
ATOM      5  C   UNL     1      41.913 135.798  16.943  1.00  0.00     0.224 A 
ATOM      6  H   UNL     1      43.237 138.475  18.136  1.00  0.00     0.342 HD
ENDROOT
BRANCH   1   7
ATOM      7  C   UNL     1      42.595 137.820  15.450  1.00  0.00     0.083 C 
ATOM      8  C   UNL     1      41.502 138.882  15.398  1.00  0.00     0.013 C 
ENDBRANCH   1   7
BRANCH   5   9
ATOM      9  C   UNL     1      41.390 134.827  15.899  1.00  0.00     0.351 C 
BRANCH   9  10
ATOM     10  N   UNL     1      42.402 133.868  15.343  1.00  0.00    -0.318 N 
ATOM     11  C   UNL     1      42.188 133.709  13.883  1.00  0.00     0.334 C 
ATOM     12  C   UNL     1      43.794 134.352  15.541  1.00  0.00     0.334 C 
BRANCH  10  13
ATOM     13  C   UNL     1      42.232 132.513  15.969  1.00  0.00     0.301 C 
BRANCH  13  14
ATOM     14  C   UNL     1      43.510 131.908  16.563  1.00  0.00     0.014 A 
ATOM     15  C   UNL     1      43.712 132.049  17.950  1.00  0.00     0.010 A 
ATOM     16  C   UNL     1      44.490 131.203  15.798  1.00  0.00    -0.010 A 
ATOM     17  C   UNL     1      44.797 131.453  18.587  1.00  0.00     0.001 A 
ATOM     18  C   UNL     1      44.421 131.084  14.390  1.00  0.00     0.009 A 
ATOM     19  C   UNL     1      45.581 130.581  16.470  1.00  0.00    -0.018 A 
ATOM     20  C   UNL     1      45.716 130.708  17.859  1.00  0.00     0.009 A 
ATOM     21  C   UNL     1      45.374 130.345  13.687  1.00  0.00     0.001 A 
ATOM     22  C   UNL     1      46.527 129.839  15.746  1.00  0.00     0.009 A 
ATOM     23  C   UNL     1      46.419 129.719  14.362  1.00  0.00     0.001 A 
ENDBRANCH  13  14
ENDBRANCH  10  13
ENDBRANCH   9  10
ENDBRANCH   5   9
BRANCH   4  24
ATOM     24  C   UNL     1      41.178 134.575  19.058  1.00  0.00     0.292 C 
BRANCH  24  25
ATOM     25  C   UNL     1      39.641 134.781  19.107  1.00  0.00     0.097 C 
ATOM     26  C   UNL     1      39.197 136.124  18.512  1.00  0.00     0.026 C 
ATOM     27  C   UNL     1      38.911 133.752  18.235  1.00  0.00     0.026 C 
ATOM     28  C   UNL     1      37.775 135.911  18.006  1.00  0.00     0.002 C 
ATOM     29  C   UNL     1      37.587 134.401  17.844  1.00  0.00     0.002 C 
BRANCH  25  30
ATOM     30  C   UNL     1      39.160 134.667  20.503  1.00  0.00     0.073 C 
ATOM     31  N   UNL     1      38.786 134.578  21.595  1.00  0.00    -0.198 NA
ENDBRANCH  25  30
ENDBRANCH  24  25
ENDBRANCH   4  24
TORSDOF 8
ENDMDL
MODEL 9
REMARK VINA RESULT:      -6.9      2.555      6.140
REMARK SMILES CCc1[nH+]nn(CC2(C#N)CCCC2)c1C[N+](C)(C)Cc1cccc2ccccc12
REMARK SMILES IDX 3 1 4 2 5 3 6 4 15 5 2 7 1 8 16 9 17 10 18 11 19 12 20 13
REMARK SMILES IDX 21 14 22 15 30 16 23 17 29 18 25 19 24 20 28 21 26 22 27 23
REMARK SMILES IDX 7 24 8 25 11 26 14 27 12 28 13 29 9 30 10 31
REMARK H PARENT 4 6
ROOT
ATOM      1  C   UNL     1      41.132 135.034  16.691  1.00  0.00     0.173 A 
ATOM      2  N   UNL     1      40.859 134.480  15.496  1.00  0.00    -0.147 N 
ATOM      3  N   UNL     1      41.420 133.284  15.456  1.00  0.00     0.088 NA
ATOM      4  N   UNL     1      42.049 133.037  16.595  1.00  0.00    -0.127 N 
ATOM      5  C   UNL     1      41.874 134.108  17.412  1.00  0.00     0.224 A 
ATOM      6  H   UNL     1      40.348 134.921  14.701  1.00  0.00     0.342 HD
ENDROOT
BRANCH   1   7
ATOM      7  C   UNL     1      40.864 136.476  17.019  1.00  0.00     0.083 C 
ATOM      8  C   UNL     1      41.582 137.391  16.033  1.00  0.00     0.013 C 
ENDBRANCH   1   7
BRANCH   5   9
ATOM      9  C   UNL     1      42.427 134.257  18.819  1.00  0.00     0.351 C 
BRANCH   9  10
ATOM     10  N   UNL     1      41.402 134.313  19.914  1.00  0.00    -0.318 N 
ATOM     11  C   UNL     1      41.235 135.716  20.367  1.00  0.00     0.334 C 
ATOM     12  C   UNL     1      40.073 133.830  19.457  1.00  0.00     0.334 C 
BRANCH  10  13
ATOM     13  C   UNL     1      41.863 133.513  21.099  1.00  0.00     0.301 C 
BRANCH  13  14
ATOM     14  C   UNL     1      43.292 132.966  20.996  1.00  0.00     0.014 A 
ATOM     15  C   UNL     1      43.462 131.700  20.403  1.00  0.00     0.010 A 
ATOM     16  C   UNL     1      44.450 133.669  21.451  1.00  0.00    -0.010 A 
ATOM     17  C   UNL     1      44.729 131.167  20.185  1.00  0.00     0.001 A 
ATOM     18  C   UNL     1      44.375 134.904  22.137  1.00  0.00     0.009 A 
ATOM     19  C   UNL     1      45.740 133.119  21.199  1.00  0.00    -0.018 A 
ATOM     20  C   UNL     1      45.863 131.877  20.563  1.00  0.00     0.009 A 
ATOM     21  C   UNL     1      45.536 135.581  22.520  1.00  0.00     0.001 A 
ATOM     22  C   UNL     1      46.894 133.816  21.590  1.00  0.00     0.009 A 
ATOM     23  C   UNL     1      46.790 135.043  22.242  1.00  0.00     0.001 A 
ENDBRANCH  13  14
ENDBRANCH  10  13
ENDBRANCH   9  10
ENDBRANCH   5   9
BRANCH   4  24
ATOM     24  C   UNL     1      42.894 131.851  16.798  1.00  0.00     0.292 C 
BRANCH  24  25
ATOM     25  C   UNL     1      44.240 131.955  16.035  1.00  0.00     0.097 C 
ATOM     26  C   UNL     1      45.382 131.201  16.727  1.00  0.00     0.026 C 
ATOM     27  C   UNL     1      44.156 131.280  14.660  1.00  0.00     0.026 C 
ATOM     28  C   UNL     1      46.359 130.809  15.624  1.00  0.00     0.002 C 
ATOM     29  C   UNL     1      45.584 130.874  14.307  1.00  0.00     0.002 C 
BRANCH  25  30
ATOM     30  C   UNL     1      44.612 133.377  15.857  1.00  0.00     0.073 C 
ATOM     31  N   UNL     1      44.905 134.489  15.717  1.00  0.00    -0.198 NA
ENDBRANCH  25  30
ENDBRANCH  24  25
ENDBRANCH   4  24
TORSDOF 8
ENDMDL


