MODEL 1
REMARK VINA RESULT:      -5.6      0.000      0.000
REMARK SMILES [N-]=[N+]=NC(=O)c1cc2c3c(ccc(N=[N+]=[N-])c3c1OCCc1cn(C[C@H](N=C=S)C(=O)[O-])n[nH+]1)CC2
REMARK SMILES IDX 20 1 19 2 18 3 12 4 11 5 13 6 10 7 17 8 9 9 35 10 8 11 36 12
REMARK SMILES IDX 6 13 7 14 14 15 15 16 16 17 4 18 5 19 3 20 2 21 1 22 21 23
REMARK SMILES IDX 22 24 23 25 34 26 24 27 33 28 25 30 26 31 27 32 28 33 29 34
REMARK SMILES IDX 30 35 31 36 32 37
REMARK H PARENT 34 29
ROOT
ATOM      1  C   UNL     1      43.543 132.117  15.285  1.00  0.00     0.238 C 
ENDROOT
BRANCH   1   2
ATOM      2  O   UNL     1      44.458 132.779  16.157  1.00  0.00    -0.492 OA
BRANCH   2   3
ATOM      3  C   UNL     1      44.712 132.299  17.444  1.00  0.00     0.138 A 
ATOM      4  C   UNL     1      43.411 134.997  19.778  1.00  0.00     0.011 A 
ATOM      5  C   UNL     1      43.788 134.431  21.010  1.00  0.00     0.005 A 
ATOM      6  C   UNL     1      43.687 134.332  18.548  1.00  0.00     0.049 A 
ATOM      7  C   UNL     1      44.440 133.200  21.004  1.00  0.00    -0.039 A 
ATOM      8  C   UNL     1      44.354 133.076  18.578  1.00  0.00     0.035 A 
ATOM      9  C   UNL     1      44.700 132.570  19.829  1.00  0.00    -0.008 A 
ATOM     10  C   UNL     1      44.944 132.392  22.159  1.00  0.00     0.041 C 
ATOM     11  C   UNL     1      45.340 131.388  20.020  1.00  0.00    -0.039 A 
ATOM     12  C   UNL     1      45.564 131.140  21.480  1.00  0.00     0.041 C 
ATOM     13  C   UNL     1      45.353 131.032  17.626  1.00  0.00     0.067 A 
ATOM     14  C   UNL     1      45.681 130.590  18.932  1.00  0.00     0.020 A 
BRANCH   6  15
ATOM     15  N   UNL     1      43.291 134.914  17.299  1.00  0.00    -0.060 NA
BRANCH  15  16
ATOM     16  N   UNL     1      42.779 136.032  17.223  1.00  0.00     0.005 N 
ATOM     17  N   UNL     1      42.268 137.148  17.147  1.00  0.00    -0.003 NA
ENDBRANCH  15  16
ENDBRANCH   6  15
BRANCH  13  18
ATOM     18  C   UNL     1      45.663 130.146  16.478  1.00  0.00     0.252 C 
ATOM     19  O   UNL     1      44.797 129.324  16.068  1.00  0.00    -0.287 OA
BRANCH  18  20
ATOM     20  N   UNL     1      46.921 130.244  15.805  1.00  0.00    -0.017 NA
BRANCH  20  21
ATOM     21  N   UNL     1      47.044 130.887  14.763  1.00  0.00     0.009 N 
ATOM     22  N   UNL     1      47.166 131.530  13.721  1.00  0.00    -0.003 NA
ENDBRANCH  20  21
ENDBRANCH  18  20
ENDBRANCH  13  18
ENDBRANCH   2   3
ENDBRANCH   1   2
BRANCH   1  23
ATOM     23  C   UNL     1      42.776 133.142  14.454  1.00  0.00     0.128 C 
BRANCH  23  24
ATOM     24  C   UNL     1      41.496 133.537  15.124  1.00  0.00     0.168 A 
ATOM     25  C   UNL     1      40.500 134.337  14.602  1.00  0.00     0.274 A 
ATOM     26  N   UNL     1      41.081 133.097  16.324  1.00  0.00    -0.148 N 
ATOM     27  N   UNL     1      39.517 134.357  15.524  1.00  0.00    -0.135 N 
ATOM     28  N   UNL     1      39.884 133.611  16.554  1.00  0.00     0.088 NA
ATOM     29  H   UNL     1      41.587 132.453  16.970  1.00  0.00     0.342 HD
BRANCH  27  30
ATOM     30  C   UNL     1      38.248 135.077  15.437  1.00  0.00     0.303 C 
BRANCH  30  31
ATOM     31  C   UNL     1      38.385 136.501  15.997  1.00  0.00     0.206 C 
BRANCH  31  32
ATOM     32  N   UNL     1      37.890 136.523  17.372  1.00  0.00    -0.219 NA
BRANCH  32  33
ATOM     33  C   UNL     1      38.676 136.443  18.370  1.00  0.00     0.059 C 
ATOM     34  S   UNL     1      39.675 136.344  19.630  1.00  0.00    -0.006 S 
ENDBRANCH  32  33
ENDBRANCH  31  32
BRANCH  31  35
ATOM     35  C   UNL     1      37.618 137.483  15.152  1.00  0.00     0.071 C 
ATOM     36  O   UNL     1      37.217 138.571  15.646  1.00  0.00    -0.548 OA
ATOM     37  O   UNL     1      37.333 137.186  13.826  1.00  0.00    -0.548 OA
ENDBRANCH  31  35
ENDBRANCH  30  31
ENDBRANCH  27  30
ENDBRANCH  23  24
ENDBRANCH   1  23
TORSDOF 14
ENDMDL
MODEL 2
REMARK VINA RESULT:      -5.2      2.115      2.724
REMARK SMILES [N-]=[N+]=NC(=O)c1cc2c3c(ccc(N=[N+]=[N-])c3c1OCCc1cn(C[C@H](N=C=S)C(=O)[O-])n[nH+]1)CC2
REMARK SMILES IDX 20 1 19 2 18 3 12 4 11 5 13 6 10 7 17 8 9 9 35 10 8 11 36 12
REMARK SMILES IDX 6 13 7 14 14 15 15 16 16 17 4 18 5 19 3 20 2 21 1 22 21 23
REMARK SMILES IDX 22 24 23 25 34 26 24 27 33 28 25 30 26 31 27 32 28 33 29 34
REMARK SMILES IDX 30 35 31 36 32 37
REMARK H PARENT 34 29
ROOT
ATOM      1  C   UNL     1      42.503 132.176  15.392  1.00  0.00     0.238 C 
ENDROOT
BRANCH   1   2
ATOM      2  O   UNL     1      43.228 132.950  16.346  1.00  0.00    -0.492 OA
BRANCH   2   3
ATOM      3  C   UNL     1      43.888 132.348  17.421  1.00  0.00     0.138 A 
ATOM      4  C   UNL     1      41.736 133.116  20.454  1.00  0.00     0.011 A 
ATOM      5  C   UNL     1      42.535 132.528  21.452  1.00  0.00     0.005 A 
ATOM      6  C   UNL     1      42.130 133.086  19.085  1.00  0.00     0.049 A 
ATOM      7  C   UNL     1      43.726 131.912  21.074  1.00  0.00    -0.039 A 
ATOM      8  C   UNL     1      43.351 132.449  18.732  1.00  0.00     0.035 A 
ATOM      9  C   UNL     1      44.097 131.886  19.767  1.00  0.00    -0.008 A 
ATOM     10  C   UNL     1      44.746 131.224  21.925  1.00  0.00     0.041 C 
ATOM     11  C   UNL     1      45.281 131.248  19.590  1.00  0.00    -0.039 A 
ATOM     12  C   UNL     1      45.820 130.764  20.901  1.00  0.00     0.041 C 
ATOM     13  C   UNL     1      45.117 131.645  17.209  1.00  0.00     0.067 A 
ATOM     14  C   UNL     1      45.820 131.108  18.315  1.00  0.00     0.020 A 
BRANCH   6  15
ATOM     15  N   UNL     1      41.304 133.680  18.074  1.00  0.00    -0.060 NA
BRANCH  15  16
ATOM     16  N   UNL     1      40.096 133.865  18.232  1.00  0.00     0.005 N 
ATOM     17  N   UNL     1      38.890 134.049  18.388  1.00  0.00    -0.003 NA
ENDBRANCH  15  16
ENDBRANCH   6  15
BRANCH  13  18
ATOM     18  C   UNL     1      45.667 131.436  15.847  1.00  0.00     0.252 C 
ATOM     19  O   UNL     1      46.111 132.419  15.193  1.00  0.00    -0.287 OA
BRANCH  18  20
ATOM     20  N   UNL     1      45.732 130.123  15.284  1.00  0.00    -0.017 NA
BRANCH  20  21
ATOM     21  N   UNL     1      46.351 129.900  14.244  1.00  0.00     0.009 N 
ATOM     22  N   UNL     1      46.970 129.678  13.205  1.00  0.00    -0.003 NA
ENDBRANCH  20  21
ENDBRANCH  18  20
ENDBRANCH  13  18
ENDBRANCH   2   3
ENDBRANCH   1   2
BRANCH   1  23
ATOM     23  C   UNL     1      41.991 133.074  14.269  1.00  0.00     0.128 C 
BRANCH  23  24
ATOM     24  C   UNL     1      42.145 134.522  14.617  1.00  0.00     0.168 A 
ATOM     25  C   UNL     1      41.146 135.395  14.996  1.00  0.00     0.274 A 
ATOM     26  N   UNL     1      43.314 135.181  14.692  1.00  0.00    -0.148 N 
ATOM     27  N   UNL     1      41.757 136.562  15.277  1.00  0.00    -0.135 N 
ATOM     28  N   UNL     1      43.059 136.419  15.085  1.00  0.00     0.088 NA
ATOM     29  H   UNL     1      44.266 134.803  14.495  1.00  0.00     0.342 HD
BRANCH  27  30
ATOM     30  C   UNL     1      41.119 137.802  15.717  1.00  0.00     0.303 C 
BRANCH  30  31
ATOM     31  C   UNL     1      41.418 138.078  17.198  1.00  0.00     0.206 C 
BRANCH  31  32
ATOM     32  N   UNL     1      41.876 136.843  17.832  1.00  0.00    -0.219 NA
BRANCH  32  33
ATOM     33  C   UNL     1      42.631 136.854  18.856  1.00  0.00     0.059 C 
ATOM     34  S   UNL     1      43.582 136.870  20.157  1.00  0.00    -0.006 S 
ENDBRANCH  32  33
ENDBRANCH  31  32
BRANCH  31  35
ATOM     35  C   UNL     1      40.194 138.601  17.902  1.00  0.00     0.071 C 
ATOM     36  O   UNL     1      40.273 139.610  18.653  1.00  0.00    -0.548 OA
ATOM     37  O   UNL     1      38.972 137.960  17.741  1.00  0.00    -0.548 OA
ENDBRANCH  31  35
ENDBRANCH  30  31
ENDBRANCH  27  30
ENDBRANCH  23  24
ENDBRANCH   1  23
TORSDOF 14
ENDMDL
MODEL 3
REMARK VINA RESULT:      -5.0      1.655      1.823
REMARK SMILES [N-]=[N+]=NC(=O)c1cc2c3c(ccc(N=[N+]=[N-])c3c1OCCc1cn(C[C@H](N=C=S)C(=O)[O-])n[nH+]1)CC2
REMARK SMILES IDX 20 1 19 2 18 3 12 4 11 5 13 6 10 7 17 8 9 9 35 10 8 11 36 12
REMARK SMILES IDX 6 13 7 14 14 15 15 16 16 17 4 18 5 19 3 20 2 21 1 22 21 23
REMARK SMILES IDX 22 24 23 25 34 26 24 27 33 28 25 30 26 31 27 32 28 33 29 34
REMARK SMILES IDX 30 35 31 36 32 37
REMARK H PARENT 34 29
ROOT
ATOM      1  C   UNL     1      43.614 132.795  15.002  1.00  0.00     0.238 C 
ENDROOT
BRANCH   1   2
ATOM      2  O   UNL     1      44.644 133.184  15.908  1.00  0.00    -0.492 OA
BRANCH   2   3
ATOM      3  C   UNL     1      44.790 132.564  17.152  1.00  0.00     0.138 A 
ATOM      4  C   UNL     1      43.565 135.121  19.678  1.00  0.00     0.011 A 
ATOM      5  C   UNL     1      43.830 134.411  20.865  1.00  0.00     0.005 A 
ATOM      6  C   UNL     1      43.859 134.557  18.403  1.00  0.00     0.049 A 
ATOM      7  C   UNL     1      44.388 133.139  20.767  1.00  0.00    -0.039 A 
ATOM      8  C   UNL     1      44.428 133.256  18.339  1.00  0.00     0.035 A 
ATOM      9  C   UNL     1      44.666 132.605  19.548  1.00  0.00    -0.008 A 
ATOM     10  C   UNL     1      44.767 132.186  21.858  1.00  0.00     0.041 C 
ATOM     11  C   UNL     1      45.206 131.364  19.651  1.00  0.00    -0.039 A 
ATOM     12  C   UNL     1      45.329 130.960  21.088  1.00  0.00     0.041 C 
ATOM     13  C   UNL     1      45.325 131.239  17.237  1.00  0.00     0.067 A 
ATOM     14  C   UNL     1      45.546 130.650  18.507  1.00  0.00     0.020 A 
BRANCH   6  15
ATOM     15  N   UNL     1      43.576 135.285  17.201  1.00  0.00    -0.060 NA
BRANCH  15  16
ATOM     16  N   UNL     1      43.272 136.479  17.207  1.00  0.00     0.005 N 
ATOM     17  N   UNL     1      42.967 137.671  17.212  1.00  0.00    -0.003 NA
ENDBRANCH  15  16
ENDBRANCH   6  15
BRANCH  13  18
ATOM     18  C   UNL     1      45.631 130.446  16.022  1.00  0.00     0.252 C 
ATOM     19  O   UNL     1      44.793 129.606  15.592  1.00  0.00    -0.287 OA
BRANCH  18  20
ATOM     20  N   UNL     1      46.855 130.654  15.310  1.00  0.00    -0.017 NA
BRANCH  20  21
ATOM     21  N   UNL     1      46.881 130.706  14.080  1.00  0.00     0.009 N 
ATOM     22  N   UNL     1      46.907 130.758  12.852  1.00  0.00    -0.003 NA
ENDBRANCH  20  21
ENDBRANCH  18  20
ENDBRANCH  13  18
ENDBRANCH   2   3
ENDBRANCH   1   2
BRANCH   1  23
ATOM     23  C   UNL     1      42.335 132.470  15.769  1.00  0.00     0.128 C 
BRANCH  23  24
ATOM     24  C   UNL     1      41.340 133.584  15.665  1.00  0.00     0.168 A 
ATOM     25  C   UNL     1      41.020 134.307  14.534  1.00  0.00     0.274 A 
ATOM     26  N   UNL     1      40.536 134.001  16.658  1.00  0.00    -0.148 N 
ATOM     27  N   UNL     1      40.032 135.148  14.896  1.00  0.00    -0.135 N 
ATOM     28  N   UNL     1      39.756 134.956  16.176  1.00  0.00     0.088 NA
ATOM     29  H   UNL     1      40.503 133.642  17.637  1.00  0.00     0.342 HD
BRANCH  27  30
ATOM     30  C   UNL     1      39.359 136.128  14.045  1.00  0.00     0.303 C 
BRANCH  30  31
ATOM     31  C   UNL     1      37.882 135.758  13.842  1.00  0.00     0.206 C 
BRANCH  31  32
ATOM     32  N   UNL     1      37.238 135.631  15.148  1.00  0.00    -0.219 NA
BRANCH  32  33
ATOM     33  C   UNL     1      36.857 136.649  15.811  1.00  0.00     0.059 C 
ATOM     34  S   UNL     1      36.381 137.941  16.648  1.00  0.00    -0.006 S 
ENDBRANCH  32  33
ENDBRANCH  31  32
BRANCH  31  35
ATOM     35  C   UNL     1      37.754 134.470  13.073  1.00  0.00     0.071 C 
ATOM     36  O   UNL     1      38.380 133.441  13.444  1.00  0.00    -0.548 OA
ATOM     37  O   UNL     1      36.959 134.415  11.936  1.00  0.00    -0.548 OA
ENDBRANCH  31  35
ENDBRANCH  30  31
ENDBRANCH  27  30
ENDBRANCH  23  24
ENDBRANCH   1  23
TORSDOF 14
ENDMDL
MODEL 4
REMARK VINA RESULT:      -5.0      2.624      4.702
REMARK SMILES [N-]=[N+]=NC(=O)c1cc2c3c(ccc(N=[N+]=[N-])c3c1OCCc1cn(C[C@H](N=C=S)C(=O)[O-])n[nH+]1)CC2
REMARK SMILES IDX 20 1 19 2 18 3 12 4 11 5 13 6 10 7 17 8 9 9 35 10 8 11 36 12
REMARK SMILES IDX 6 13 7 14 14 15 15 16 16 17 4 18 5 19 3 20 2 21 1 22 21 23
REMARK SMILES IDX 22 24 23 25 34 26 24 27 33 28 25 30 26 31 27 32 28 33 29 34
REMARK SMILES IDX 30 35 31 36 32 37
REMARK H PARENT 34 29
ROOT
ATOM      1  C   UNL     1      42.924 134.297  16.648  1.00  0.00     0.238 C 
ENDROOT
BRANCH   1   2
ATOM      2  O   UNL     1      42.503 133.120  17.335  1.00  0.00    -0.492 OA
BRANCH   2   3
ATOM      3  C   UNL     1      42.653 132.992  18.718  1.00  0.00     0.138 A 
ATOM      4  C   UNL     1      45.783 130.891  19.179  1.00  0.00     0.011 A 
ATOM      5  C   UNL     1      45.776 130.781  20.582  1.00  0.00     0.005 A 
ATOM      6  C   UNL     1      44.769 131.621  18.494  1.00  0.00     0.049 A 
ATOM      7  C   UNL     1      44.752 131.403  21.293  1.00  0.00    -0.039 A 
ATOM      8  C   UNL     1      43.738 132.245  19.250  1.00  0.00     0.035 A 
ATOM      9  C   UNL     1      43.788 132.098  20.635  1.00  0.00    -0.008 A 
ATOM     10  C   UNL     1      44.512 131.437  22.770  1.00  0.00     0.041 C 
ATOM     11  C   UNL     1      42.877 132.631  21.489  1.00  0.00    -0.039 A 
ATOM     12  C   UNL     1      43.219 132.286  22.906  1.00  0.00     0.041 C 
ATOM     13  C   UNL     1      41.704 133.594  19.604  1.00  0.00     0.067 A 
ATOM     14  C   UNL     1      41.818 133.390  21.002  1.00  0.00     0.020 A 
BRANCH   6  15
ATOM     15  N   UNL     1      44.790 131.735  17.065  1.00  0.00    -0.060 NA
BRANCH  15  16
ATOM     16  N   UNL     1      45.695 131.259  16.377  1.00  0.00     0.005 N 
ATOM     17  N   UNL     1      46.598 130.784  15.690  1.00  0.00    -0.003 NA
ENDBRANCH  15  16
ENDBRANCH   6  15
BRANCH  13  18
ATOM     18  C   UNL     1      40.609 134.457  19.098  1.00  0.00     0.252 C 
ATOM     19  O   UNL     1      39.552 133.932  18.650  1.00  0.00    -0.287 OA
BRANCH  18  20
ATOM     20  N   UNL     1      40.725 135.882  19.151  1.00  0.00    -0.017 NA
BRANCH  20  21
ATOM     21  N   UNL     1      41.819 136.433  19.264  1.00  0.00     0.009 N 
ATOM     22  N   UNL     1      42.914 136.983  19.377  1.00  0.00    -0.003 NA
ENDBRANCH  20  21
ENDBRANCH  18  20
ENDBRANCH  13  18
ENDBRANCH   2   3
ENDBRANCH   1   2
BRANCH   1  23
ATOM     23  C   UNL     1      42.654 134.156  15.152  1.00  0.00     0.128 C 
BRANCH  23  24
ATOM     24  C   UNL     1      41.186 134.184  14.859  1.00  0.00     0.168 A 
ATOM     25  C   UNL     1      40.584 134.556  13.675  1.00  0.00     0.274 A 
ATOM     26  N   UNL     1      40.220 133.765  15.695  1.00  0.00    -0.148 N 
ATOM     27  N   UNL     1      39.263 134.355  13.848  1.00  0.00    -0.135 N 
ATOM     28  N   UNL     1      39.061 133.884  15.069  1.00  0.00     0.088 NA
ATOM     29  H   UNL     1      40.340 133.394  16.662  1.00  0.00     0.342 HD
BRANCH  27  30
ATOM     30  C   UNL     1      38.202 134.610  12.876  1.00  0.00     0.303 C 
BRANCH  30  31
ATOM     31  C   UNL     1      38.483 135.896  12.082  1.00  0.00     0.206 C 
BRANCH  31  32
ATOM     32  N   UNL     1      38.066 137.049  12.878  1.00  0.00    -0.219 NA
BRANCH  32  33
ATOM     33  C   UNL     1      38.907 137.885  13.340  1.00  0.00     0.059 C 
ATOM     34  S   UNL     1      39.976 138.939  13.926  1.00  0.00    -0.006 S 
ENDBRANCH  32  33
ENDBRANCH  31  32
BRANCH  31  35
ATOM     35  C   UNL     1      37.752 135.881  10.766  1.00  0.00     0.071 C 
ATOM     36  O   UNL     1      37.266 134.807  10.319  1.00  0.00    -0.548 OA
ATOM     37  O   UNL     1      37.627 137.050  10.027  1.00  0.00    -0.548 OA
ENDBRANCH  31  35
ENDBRANCH  30  31
ENDBRANCH  27  30
ENDBRANCH  23  24
ENDBRANCH   1  23
TORSDOF 14
ENDMDL
MODEL 5
REMARK VINA RESULT:      -4.9      2.469      4.551
REMARK SMILES [N-]=[N+]=NC(=O)c1cc2c3c(ccc(N=[N+]=[N-])c3c1OCCc1cn(C[C@H](N=C=S)C(=O)[O-])n[nH+]1)CC2
REMARK SMILES IDX 20 1 19 2 18 3 12 4 11 5 13 6 10 7 17 8 9 9 35 10 8 11 36 12
REMARK SMILES IDX 6 13 7 14 14 15 15 16 16 17 4 18 5 19 3 20 2 21 1 22 21 23
REMARK SMILES IDX 22 24 23 25 34 26 24 27 33 28 25 30 26 31 27 32 28 33 29 34
REMARK SMILES IDX 30 35 31 36 32 37
REMARK H PARENT 34 29
ROOT
ATOM      1  C   UNL     1      42.773 131.951  15.682  1.00  0.00     0.238 C 
ENDROOT
BRANCH   1   2
ATOM      2  O   UNL     1      43.040 133.047  16.554  1.00  0.00    -0.492 OA
BRANCH   2   3
ATOM      3  C   UNL     1      42.888 132.930  17.938  1.00  0.00     0.138 A 
ATOM      4  C   UNL     1      45.840 130.833  19.081  1.00  0.00     0.011 A 
ATOM      5  C   UNL     1      45.530 130.733  20.450  1.00  0.00     0.005 A 
ATOM      6  C   UNL     1      44.999 131.558  18.187  1.00  0.00     0.049 A 
ATOM      7  C   UNL     1      44.377 131.361  20.918  1.00  0.00    -0.039 A 
ATOM      8  C   UNL     1      43.831 132.187  18.697  1.00  0.00     0.035 A 
ATOM      9  C   UNL     1      43.579 132.051  20.061  1.00  0.00    -0.008 A 
ATOM     10  C   UNL     1      43.823 131.407  22.307  1.00  0.00     0.041 C 
ATOM     11  C   UNL     1      42.506 132.591  20.694  1.00  0.00    -0.039 A 
ATOM     12  C   UNL     1      42.533 132.257  22.154  1.00  0.00     0.041 C 
ATOM     13  C   UNL     1      41.770 133.539  18.593  1.00  0.00     0.067 A 
ATOM     14  C   UNL     1      41.579 133.346  19.984  1.00  0.00     0.020 A 
BRANCH   6  15
ATOM     15  N   UNL     1      45.330 131.661  16.796  1.00  0.00    -0.060 NA
BRANCH  15  16
ATOM     16  N   UNL     1      46.167 130.933  16.259  1.00  0.00     0.005 N 
ATOM     17  N   UNL     1      47.003 130.207  15.724  1.00  0.00    -0.003 NA
ENDBRANCH  15  16
ENDBRANCH   6  15
BRANCH  13  18
ATOM     18  C   UNL     1      40.812 134.398  17.856  1.00  0.00     0.252 C 
ATOM     19  O   UNL     1      39.920 133.869  17.137  1.00  0.00    -0.287 OA
BRANCH  18  20
ATOM     20  N   UNL     1      40.866 135.822  17.984  1.00  0.00    -0.017 NA
BRANCH  20  21
ATOM     21  N   UNL     1      41.940 136.418  18.060  1.00  0.00     0.009 N 
ATOM     22  N   UNL     1      43.013 137.014  18.137  1.00  0.00    -0.003 NA
ENDBRANCH  20  21
ENDBRANCH  18  20
ENDBRANCH  13  18
ENDBRANCH   2   3
ENDBRANCH   1   2
BRANCH   1  23
ATOM     23  C   UNL     1      42.468 132.461  14.276  1.00  0.00     0.128 C 
BRANCH  23  24
ATOM     24  C   UNL     1      42.011 133.887  14.302  1.00  0.00     0.168 A 
ATOM     25  C   UNL     1      40.773 134.367  13.926  1.00  0.00     0.274 A 
ATOM     26  N   UNL     1      42.724 134.921  14.780  1.00  0.00    -0.148 N 
ATOM     27  N   UNL     1      40.792 135.690  14.186  1.00  0.00    -0.135 N 
ATOM     28  N   UNL     1      41.973 136.007  14.693  1.00  0.00     0.088 NA
ATOM     29  H   UNL     1      43.691 134.896  15.169  1.00  0.00     0.342 HD
BRANCH  27  30
ATOM     30  C   UNL     1      39.711 136.645  13.951  1.00  0.00     0.303 C 
BRANCH  30  31
ATOM     31  C   UNL     1      38.448 135.931  13.444  1.00  0.00     0.206 C 
BRANCH  31  32
ATOM     32  N   UNL     1      37.855 136.718  12.365  1.00  0.00    -0.219 NA
BRANCH  32  33
ATOM     33  C   UNL     1      38.030 137.976  12.277  1.00  0.00     0.059 C 
ATOM     34  S   UNL     1      38.248 139.568  12.159  1.00  0.00    -0.006 S 
ENDBRANCH  32  33
ENDBRANCH  31  32
BRANCH  31  35
ATOM     35  C   UNL     1      37.455 135.746  14.560  1.00  0.00     0.071 C 
ATOM     36  O   UNL     1      37.131 136.719  15.292  1.00  0.00    -0.548 OA
ATOM     37  O   UNL     1      36.903 134.494  14.799  1.00  0.00    -0.548 OA
ENDBRANCH  31  35
ENDBRANCH  30  31
ENDBRANCH  27  30
ENDBRANCH  23  24
ENDBRANCH   1  23
TORSDOF 14
ENDMDL
MODEL 6
REMARK VINA RESULT:      -4.8      3.349      4.883
REMARK SMILES [N-]=[N+]=NC(=O)c1cc2c3c(ccc(N=[N+]=[N-])c3c1OCCc1cn(C[C@H](N=C=S)C(=O)[O-])n[nH+]1)CC2
REMARK SMILES IDX 20 1 19 2 18 3 12 4 11 5 13 6 10 7 17 8 9 9 35 10 8 11 36 12
REMARK SMILES IDX 6 13 7 14 14 15 15 16 16 17 4 18 5 19 3 20 2 21 1 22 21 23
REMARK SMILES IDX 22 24 23 25 34 26 24 27 33 28 25 30 26 31 27 32 28 33 29 34
REMARK SMILES IDX 30 35 31 36 32 37
REMARK H PARENT 34 29
ROOT
ATOM      1  C   UNL     1      43.589 133.882  15.046  1.00  0.00     0.238 C 
ENDROOT
BRANCH   1   2
ATOM      2  O   UNL     1      42.944 133.181  16.107  1.00  0.00    -0.492 OA
BRANCH   2   3
ATOM      3  C   UNL     1      43.678 132.466  17.057  1.00  0.00     0.138 A 
ATOM      4  C   UNL     1      41.974 133.197  20.371  1.00  0.00     0.011 A 
ATOM      5  C   UNL     1      42.838 132.491  21.230  1.00  0.00     0.005 A 
ATOM      6  C   UNL     1      42.197 133.225  18.965  1.00  0.00     0.049 A 
ATOM      7  C   UNL     1      43.921 131.815  20.674  1.00  0.00    -0.039 A 
ATOM      8  C   UNL     1      43.312 132.524  18.429  1.00  0.00     0.035 A 
ATOM      9  C   UNL     1      44.129 131.844  19.331  1.00  0.00    -0.008 A 
ATOM     10  C   UNL     1      44.979 131.003  21.353  1.00  0.00     0.041 C 
ATOM     11  C   UNL     1      45.229 131.134  18.974  1.00  0.00    -0.039 A 
ATOM     12  C   UNL     1      45.881 130.531  20.181  1.00  0.00     0.041 C 
ATOM     13  C   UNL     1      44.812 131.691  16.657  1.00  0.00     0.067 A 
ATOM     14  C   UNL     1      45.599 131.036  17.637  1.00  0.00     0.020 A 
BRANCH   6  15
ATOM     15  N   UNL     1      41.306 133.940  18.098  1.00  0.00    -0.060 NA
BRANCH  15  16
ATOM     16  N   UNL     1      40.098 133.700  18.048  1.00  0.00     0.005 N 
ATOM     17  N   UNL     1      38.893 133.460  17.999  1.00  0.00    -0.003 NA
ENDBRANCH  15  16
ENDBRANCH   6  15
BRANCH  13  18
ATOM     18  C   UNL     1      45.176 131.529  15.228  1.00  0.00     0.252 C 
ATOM     19  O   UNL     1      44.383 130.942  14.441  1.00  0.00    -0.287 OA
BRANCH  18  20
ATOM     20  N   UNL     1      46.403 132.067  14.727  1.00  0.00    -0.017 NA
BRANCH  20  21
ATOM     21  N   UNL     1      47.184 131.380  14.068  1.00  0.00     0.009 N 
ATOM     22  N   UNL     1      47.963 130.692  13.410  1.00  0.00    -0.003 NA
ENDBRANCH  20  21
ENDBRANCH  18  20
ENDBRANCH  13  18
ENDBRANCH   2   3
ENDBRANCH   1   2
BRANCH   1  23
ATOM     23  C   UNL     1      44.461 135.001  15.610  1.00  0.00     0.128 C 
BRANCH  23  24
ATOM     24  C   UNL     1      43.732 135.781  16.661  1.00  0.00     0.168 A 
ATOM     25  C   UNL     1      44.129 135.983  17.967  1.00  0.00     0.274 A 
ATOM     26  N   UNL     1      42.602 136.481  16.463  1.00  0.00    -0.148 N 
ATOM     27  N   UNL     1      43.206 136.799  18.515  1.00  0.00    -0.135 N 
ATOM     28  N   UNL     1      42.293 137.084  17.600  1.00  0.00     0.088 NA
ATOM     29  H   UNL     1      42.057 136.563  15.578  1.00  0.00     0.342 HD
BRANCH  27  30
ATOM     30  C   UNL     1      43.181 137.297  19.888  1.00  0.00     0.303 C 
BRANCH  30  31
ATOM     31  C   UNL     1      44.514 137.968  20.252  1.00  0.00     0.206 C 
BRANCH  31  32
ATOM     32  N   UNL     1      45.243 138.281  19.025  1.00  0.00    -0.219 NA
BRANCH  32  33
ATOM     33  C   UNL     1      46.461 138.650  19.042  1.00  0.00     0.059 C 
ATOM     34  S   UNL     1      48.003 139.119  19.058  1.00  0.00    -0.006 S 
ENDBRANCH  32  33
ENDBRANCH  31  32
BRANCH  31  35
ATOM     35  C   UNL     1      45.341 137.071  21.134  1.00  0.00     0.071 C 
ATOM     36  O   UNL     1      45.458 135.846  20.865  1.00  0.00    -0.548 OA
ATOM     37  O   UNL     1      45.965 137.588  22.262  1.00  0.00    -0.548 OA
ENDBRANCH  31  35
ENDBRANCH  30  31
ENDBRANCH  27  30
ENDBRANCH  23  24
ENDBRANCH   1  23
TORSDOF 14
ENDMDL
MODEL 7
REMARK VINA RESULT:      -4.7      2.163      2.970
REMARK SMILES [N-]=[N+]=NC(=O)c1cc2c3c(ccc(N=[N+]=[N-])c3c1OCCc1cn(C[C@H](N=C=S)C(=O)[O-])n[nH+]1)CC2
REMARK SMILES IDX 20 1 19 2 18 3 12 4 11 5 13 6 10 7 17 8 9 9 35 10 8 11 36 12
REMARK SMILES IDX 6 13 7 14 14 15 15 16 16 17 4 18 5 19 3 20 2 21 1 22 21 23
REMARK SMILES IDX 22 24 23 25 34 26 24 27 33 28 25 30 26 31 27 32 28 33 29 34
REMARK SMILES IDX 30 35 31 36 32 37
REMARK H PARENT 34 29
ROOT
ATOM      1  C   UNL     1      43.250 133.650  15.142  1.00  0.00     0.238 C 
ENDROOT
BRANCH   1   2
ATOM      2  O   UNL     1      42.820 132.564  15.959  1.00  0.00    -0.492 OA
BRANCH   2   3
ATOM      3  C   UNL     1      43.592 132.110  17.032  1.00  0.00     0.138 A 
ATOM      4  C   UNL     1      41.759 133.298  20.138  1.00  0.00     0.011 A 
ATOM      5  C   UNL     1      42.662 132.847  21.119  1.00  0.00     0.005 A 
ATOM      6  C   UNL     1      42.010 133.080  18.753  1.00  0.00     0.049 A 
ATOM      7  C   UNL     1      43.812 132.178  20.707  1.00  0.00    -0.039 A 
ATOM      8  C   UNL     1      43.193 132.392  18.365  1.00  0.00     0.035 A 
ATOM      9  C   UNL     1      44.046 131.972  19.384  1.00  0.00    -0.008 A 
ATOM     10  C   UNL     1      44.921 131.607  21.534  1.00  0.00     0.041 C 
ATOM     11  C   UNL     1      45.211 131.308  19.175  1.00  0.00    -0.039 A 
ATOM     12  C   UNL     1      45.887 131.004  20.477  1.00  0.00     0.041 C 
ATOM     13  C   UNL     1      44.798 131.377  16.791  1.00  0.00     0.067 A 
ATOM     14  C   UNL     1      45.617 130.992  17.882  1.00  0.00     0.020 A 
BRANCH   6  15
ATOM     15  N   UNL     1      41.079 133.535  17.761  1.00  0.00    -0.060 NA
BRANCH  15  16
ATOM     16  N   UNL     1      39.945 133.064  17.653  1.00  0.00     0.005 N 
ATOM     17  N   UNL     1      38.814 132.594  17.546  1.00  0.00    -0.003 NA
ENDBRANCH  15  16
ENDBRANCH   6  15
BRANCH  13  18
ATOM     18  C   UNL     1      45.206 130.981  15.421  1.00  0.00     0.252 C 
ATOM     19  O   UNL     1      44.958 131.745  14.448  1.00  0.00    -0.287 OA
BRANCH  18  20
ATOM     20  N   UNL     1      45.913 129.758  15.200  1.00  0.00    -0.017 NA
BRANCH  20  21
ATOM     21  N   UNL     1      45.385 128.665  15.405  1.00  0.00     0.009 N 
ATOM     22  N   UNL     1      44.858 127.573  15.611  1.00  0.00    -0.003 NA
ENDBRANCH  20  21
ENDBRANCH  18  20
ENDBRANCH  13  18
ENDBRANCH   2   3
ENDBRANCH   1   2
BRANCH   1  23
ATOM     23  C   UNL     1      43.746 134.800  16.017  1.00  0.00     0.128 C 
BRANCH  23  24
ATOM     24  C   UNL     1      42.663 135.806  16.257  1.00  0.00     0.168 A 
ATOM     25  C   UNL     1      41.603 136.097  15.424  1.00  0.00     0.274 A 
ATOM     26  N   UNL     1      42.515 136.533  17.378  1.00  0.00    -0.148 N 
ATOM     27  N   UNL     1      40.853 137.007  16.078  1.00  0.00    -0.135 N 
ATOM     28  N   UNL     1      41.418 137.261  17.248  1.00  0.00     0.088 NA
ATOM     29  H   UNL     1      43.132 136.530  18.219  1.00  0.00     0.342 HD
BRANCH  27  30
ATOM     30  C   UNL     1      39.622 137.634  15.602  1.00  0.00     0.303 C 
BRANCH  30  31
ATOM     31  C   UNL     1      38.420 136.696  15.791  1.00  0.00     0.206 C 
BRANCH  31  32
ATOM     32  N   UNL     1      37.689 136.596  14.529  1.00  0.00    -0.219 NA
BRANCH  32  33
ATOM     33  C   UNL     1      38.112 137.146  13.463  1.00  0.00     0.059 C 
ATOM     34  S   UNL     1      38.641 137.842  12.109  1.00  0.00    -0.006 S 
ENDBRANCH  32  33
ENDBRANCH  31  32
BRANCH  31  35
ATOM     35  C   UNL     1      37.512 137.205  16.879  1.00  0.00     0.071 C 
ATOM     36  O   UNL     1      36.383 137.687  16.593  1.00  0.00    -0.548 OA
ATOM     37  O   UNL     1      37.923 137.164  18.205  1.00  0.00    -0.548 OA
ENDBRANCH  31  35
ENDBRANCH  30  31
ENDBRANCH  27  30
ENDBRANCH  23  24
ENDBRANCH   1  23
TORSDOF 14
ENDMDL
MODEL 8
REMARK VINA RESULT:      -4.6      2.308      2.723
REMARK SMILES [N-]=[N+]=NC(=O)c1cc2c3c(ccc(N=[N+]=[N-])c3c1OCCc1cn(C[C@H](N=C=S)C(=O)[O-])n[nH+]1)CC2
REMARK SMILES IDX 20 1 19 2 18 3 12 4 11 5 13 6 10 7 17 8 9 9 35 10 8 11 36 12
REMARK SMILES IDX 6 13 7 14 14 15 15 16 16 17 4 18 5 19 3 20 2 21 1 22 21 23
REMARK SMILES IDX 22 24 23 25 34 26 24 27 33 28 25 30 26 31 27 32 28 33 29 34
REMARK SMILES IDX 30 35 31 36 32 37
REMARK H PARENT 34 29
ROOT
ATOM      1  C   UNL     1      43.022 133.839  15.106  1.00  0.00     0.238 C 
ENDROOT
BRANCH   1   2
ATOM      2  O   UNL     1      43.502 134.308  16.364  1.00  0.00    -0.492 OA
BRANCH   2   3
ATOM      3  C   UNL     1      43.758 133.428  17.419  1.00  0.00     0.138 A 
ATOM      4  C   UNL     1      41.752 134.786  20.344  1.00  0.00     0.011 A 
ATOM      5  C   UNL     1      42.150 133.868  21.335  1.00  0.00     0.005 A 
ATOM      6  C   UNL     1      42.251 134.690  19.012  1.00  0.00     0.049 A 
ATOM      7  C   UNL     1      43.045 132.859  20.987  1.00  0.00    -0.039 A 
ATOM      8  C   UNL     1      43.163 133.648  18.690  1.00  0.00     0.035 A 
ATOM      9  C   UNL     1      43.516 132.773  19.715  1.00  0.00    -0.008 A 
ATOM     10  C   UNL     1      43.622 131.773  21.838  1.00  0.00     0.041 C 
ATOM     11  C   UNL     1      44.375 131.732  19.564  1.00  0.00    -0.039 A 
ATOM     12  C   UNL     1      44.540 130.993  20.857  1.00  0.00     0.041 C 
ATOM     13  C   UNL     1      44.636 132.313  17.229  1.00  0.00     0.067 A 
ATOM     14  C   UNL     1      44.954 131.474  18.326  1.00  0.00     0.020 A 
BRANCH   6  15
ATOM     15  N   UNL     1      41.832 135.625  18.008  1.00  0.00    -0.060 NA
BRANCH  15  16
ATOM     16  N   UNL     1      41.173 136.631  18.274  1.00  0.00     0.005 N 
ATOM     17  N   UNL     1      40.515 137.635  18.541  1.00  0.00    -0.003 NA
ENDBRANCH  15  16
ENDBRANCH   6  15
BRANCH  13  18
ATOM     18  C   UNL     1      45.207 131.993  15.899  1.00  0.00     0.252 C 
ATOM     19  O   UNL     1      46.065 132.761  15.382  1.00  0.00    -0.287 OA
BRANCH  18  20
ATOM     20  N   UNL     1      44.823 130.798  15.213  1.00  0.00    -0.017 NA
BRANCH  20  21
ATOM     21  N   UNL     1      45.534 130.301  14.340  1.00  0.00     0.009 N 
ATOM     22  N   UNL     1      46.245 129.806  13.467  1.00  0.00    -0.003 NA
ENDBRANCH  20  21
ENDBRANCH  18  20
ENDBRANCH  13  18
ENDBRANCH   2   3
ENDBRANCH   1   2
BRANCH   1  23
ATOM     23  C   UNL     1      41.603 133.297  15.255  1.00  0.00     0.128 C 
BRANCH  23  24
ATOM     24  C   UNL     1      40.601 134.407  15.320  1.00  0.00     0.168 A 
ATOM     25  C   UNL     1      40.509 135.492  14.473  1.00  0.00     0.274 A 
ATOM     26  N   UNL     1      39.570 134.472  16.182  1.00  0.00    -0.148 N 
ATOM     27  N   UNL     1      39.421 136.183  14.868  1.00  0.00    -0.135 N 
ATOM     28  N   UNL     1      38.872 135.560  15.898  1.00  0.00     0.088 NA
ATOM     29  H   UNL     1      39.334 133.793  16.937  1.00  0.00     0.342 HD
BRANCH  27  30
ATOM     30  C   UNL     1      38.910 137.421  14.284  1.00  0.00     0.303 C 
BRANCH  30  31
ATOM     31  C   UNL     1      37.374 137.409  14.229  1.00  0.00     0.206 C 
BRANCH  31  32
ATOM     32  N   UNL     1      36.942 137.706  12.865  1.00  0.00    -0.219 NA
BRANCH  32  33
ATOM     33  C   UNL     1      37.638 137.371  11.852  1.00  0.00     0.059 C 
ATOM     34  S   UNL     1      38.519 136.955  10.569  1.00  0.00    -0.006 S 
ENDBRANCH  32  33
ENDBRANCH  31  32
BRANCH  31  35
ATOM     35  C   UNL     1      36.797 138.417  15.188  1.00  0.00     0.071 C 
ATOM     36  O   UNL     1      36.678 139.624  14.847  1.00  0.00    -0.548 OA
ATOM     37  O   UNL     1      36.411 138.022  16.462  1.00  0.00    -0.548 OA
ENDBRANCH  31  35
ENDBRANCH  30  31
ENDBRANCH  27  30
ENDBRANCH  23  24
ENDBRANCH   1  23
TORSDOF 14
ENDMDL
MODEL 9
REMARK VINA RESULT:      -4.6      2.323      4.816
REMARK SMILES [N-]=[N+]=NC(=O)c1cc2c3c(ccc(N=[N+]=[N-])c3c1OCCc1cn(C[C@H](N=C=S)C(=O)[O-])n[nH+]1)CC2
REMARK SMILES IDX 20 1 19 2 18 3 12 4 11 5 13 6 10 7 17 8 9 9 35 10 8 11 36 12
REMARK SMILES IDX 6 13 7 14 14 15 15 16 16 17 4 18 5 19 3 20 2 21 1 22 21 23
REMARK SMILES IDX 22 24 23 25 34 26 24 27 33 28 25 30 26 31 27 32 28 33 29 34
REMARK SMILES IDX 30 35 31 36 32 37
REMARK H PARENT 34 29
ROOT
ATOM      1  C   UNL     1      43.455 134.843  16.903  1.00  0.00     0.238 C 
ENDROOT
BRANCH   1   2
ATOM      2  O   UNL     1      42.850 133.669  17.441  1.00  0.00    -0.492 OA
BRANCH   2   3
ATOM      3  C   UNL     1      42.692 133.499  18.819  1.00  0.00     0.138 A 
ATOM      4  C   UNL     1      45.398 131.031  19.824  1.00  0.00     0.011 A 
ATOM      5  C   UNL     1      45.085 130.897  21.190  1.00  0.00     0.005 A 
ATOM      6  C   UNL     1      44.639 131.889  18.977  1.00  0.00     0.049 A 
ATOM      7  C   UNL     1      44.012 131.624  21.700  1.00  0.00    -0.039 A 
ATOM      8  C   UNL     1      43.550 132.618  19.530  1.00  0.00     0.035 A 
ATOM      9  C   UNL     1      43.292 132.442  20.888  1.00  0.00    -0.008 A 
ATOM     10  C   UNL     1      43.474 131.660  23.096  1.00  0.00     0.041 C 
ATOM     11  C   UNL     1      42.289 133.064  21.559  1.00  0.00    -0.039 A 
ATOM     12  C   UNL     1      42.285 132.655  23.000  1.00  0.00     0.041 C 
ATOM     13  C   UNL     1      41.653 134.194  19.515  1.00  0.00     0.067 A 
ATOM     14  C   UNL     1      41.448 133.953  20.897  1.00  0.00     0.020 A 
BRANCH   6  15
ATOM     15  N   UNL     1      44.972 132.026  17.589  1.00  0.00    -0.060 NA
BRANCH  15  16
ATOM     16  N   UNL     1      45.566 131.148  16.962  1.00  0.00     0.005 N 
ATOM     17  N   UNL     1      46.161 130.271  16.337  1.00  0.00    -0.003 NA
ENDBRANCH  15  16
ENDBRANCH   6  15
BRANCH  13  18
ATOM     18  C   UNL     1      40.792 135.191  18.832  1.00  0.00     0.252 C 
ATOM     19  O   UNL     1      39.870 134.802  18.064  1.00  0.00    -0.287 OA
BRANCH  18  20
ATOM     20  N   UNL     1      40.975 136.590  19.068  1.00  0.00    -0.017 NA
BRANCH  20  21
ATOM     21  N   UNL     1      40.113 137.264  19.630  1.00  0.00     0.009 N 
ATOM     22  N   UNL     1      39.250 137.937  20.192  1.00  0.00    -0.003 NA
ENDBRANCH  20  21
ENDBRANCH  18  20
ENDBRANCH  13  18
ENDBRANCH   2   3
ENDBRANCH   1   2
BRANCH   1  23
ATOM     23  C   UNL     1      43.531 134.743  15.381  1.00  0.00     0.128 C 
BRANCH  23  24
ATOM     24  C   UNL     1      42.209 134.356  14.794  1.00  0.00     0.168 A 
ATOM     25  C   UNL     1      41.214 135.207  14.360  1.00  0.00     0.274 A 
ATOM     26  N   UNL     1      41.820 133.098  14.523  1.00  0.00    -0.148 N 
ATOM     27  N   UNL     1      40.247 134.419  13.848  1.00  0.00    -0.135 N 
ATOM     28  N   UNL     1      40.625 133.156  13.958  1.00  0.00     0.088 NA
ATOM     29  H   UNL     1      42.352 132.219  14.703  1.00  0.00     0.342 HD
BRANCH  27  30
ATOM     30  C   UNL     1      38.979 134.855  13.267  1.00  0.00     0.303 C 
BRANCH  30  31
ATOM     31  C   UNL     1      38.811 136.377  13.392  1.00  0.00     0.206 C 
BRANCH  31  32
ATOM     32  N   UNL     1      37.991 136.672  14.565  1.00  0.00    -0.219 NA
BRANCH  32  33
ATOM     33  C   UNL     1      38.324 137.562  15.411  1.00  0.00     0.059 C 
ATOM     34  S   UNL     1      38.742 138.686  16.487  1.00  0.00    -0.006 S 
ENDBRANCH  32  33
ENDBRANCH  31  32
BRANCH  31  35
ATOM     35  C   UNL     1      38.172 136.947  12.154  1.00  0.00     0.071 C 
ATOM     36  O   UNL     1      38.776 136.906  11.048  1.00  0.00    -0.548 OA
ATOM     37  O   UNL     1      36.919 137.541  12.228  1.00  0.00    -0.548 OA
ENDBRANCH  31  35
ENDBRANCH  30  31
ENDBRANCH  27  30
ENDBRANCH  23  24
ENDBRANCH   1  23
TORSDOF 14
ENDMDL


