MODEL 1
REMARK VINA RESULT:      -7.2      0.000      0.000
REMARK SMILES C=CC[C@](C)(CC)Oc1cc2nc(Cn3nnc(C)c3-c3nnc([C@@H]4C[C@@H]4C)o3)[n-]c2cc1C#N
REMARK SMILES IDX 9 1 10 2 11 3 12 4 13 5 30 6 31 7 32 8 33 9 8 10 4 11 5 12
REMARK SMILES IDX 3 13 2 14 1 15 6 16 7 17 34 18 35 19 14 20 15 21 16 22 20 23
REMARK SMILES IDX 17 24 18 25 19 26 21 27 22 28 29 29 23 30 24 31 25 32 26 33
REMARK SMILES IDX 27 34 28 35
REMARK H PARENT
ROOT
ATOM      1  C   UNL     1      43.843 131.747  16.398  1.00  0.00     0.138 A 
ATOM      2  C   UNL     1      44.453 131.745  17.673  1.00  0.00     0.051 A 
ATOM      3  C   UNL     1      44.066 132.724  18.583  1.00  0.00    -0.035 A 
ATOM      4  N   UNL     1      44.513 132.902  19.832  1.00  0.00    -0.438 NA
ATOM      5  C   UNL     1      43.796 133.976  20.252  1.00  0.00    -0.060 A 
ATOM      6  N   UNL     1      42.934 134.477  19.327  1.00  0.00    -0.438 NA
ATOM      7  C   UNL     1      43.126 133.658  18.283  1.00  0.00    -0.037 A 
ATOM      8  C   UNL     1      42.486 133.689  17.048  1.00  0.00     0.027 A 
ATOM      9  C   UNL     1      42.848 132.715  16.096  1.00  0.00     0.094 A 
ENDROOT
BRANCH   1  10
ATOM     10  O   UNL     1      44.177 130.790  15.425  1.00  0.00    -0.486 OA
BRANCH  10  11
ATOM     11  C   UNL     1      45.474 130.603  14.831  1.00  0.00     0.109 C 
ATOM     12  C   UNL     1      46.366 131.735  15.376  1.00  0.00     0.057 C 
BRANCH  11  13
ATOM     13  C   UNL     1      45.401 130.706  13.281  1.00  0.00     0.075 C 
BRANCH  13  14
ATOM     14  C   UNL     1      46.702 130.369  12.598  1.00  0.00    -0.031 C 
ATOM     15  C   UNL     1      47.774 131.152  12.752  1.00  0.00     0.004 C 
ENDBRANCH  13  14
ENDBRANCH  11  13
BRANCH  11  16
ATOM     16  C   UNL     1      46.044 129.216  15.269  1.00  0.00     0.045 C 
ATOM     17  C   UNL     1      44.997 128.193  15.720  1.00  0.00     0.008 C 
ENDBRANCH  11  16
ENDBRANCH  10  11
ENDBRANCH   1  10
BRANCH   9  18
ATOM     18  C   UNL     1      42.209 132.721  14.804  1.00  0.00     0.103 C 
ATOM     19  N   UNL     1      41.696 132.725  13.766  1.00  0.00    -0.192 NA
ENDBRANCH   9  18
BRANCH   5  20
ATOM     20  C   UNL     1      43.977 134.593  21.602  1.00  0.00     0.173 C 
BRANCH  20  21
ATOM     21  N   UNL     1      43.230 135.847  21.683  1.00  0.00    -0.236 N 
ATOM     22  N   UNL     1      42.020 135.929  22.218  1.00  0.00    -0.066 NA
ATOM     23  C   UNL     1      43.555 137.067  21.200  1.00  0.00     0.149 A 
ATOM     24  N   UNL     1      41.544 137.160  22.117  1.00  0.00    -0.135 NA
ATOM     25  C   UNL     1      42.484 137.893  21.488  1.00  0.00     0.093 A 
ATOM     26  C   UNL     1      42.328 139.340  21.146  1.00  0.00     0.071 C 
BRANCH  23  27
ATOM     27  C   UNL     1      44.793 137.448  20.486  1.00  0.00     0.267 A 
ATOM     28  N   UNL     1      45.009 137.285  19.166  1.00  0.00    -0.106 NA
ATOM     29  O   UNL     1      45.830 138.003  21.065  1.00  0.00    -0.419 OA
ATOM     30  N   UNL     1      46.220 137.761  18.921  1.00  0.00    -0.112 NA
ATOM     31  C   UNL     1      46.698 138.195  20.102  1.00  0.00     0.220 A 
BRANCH  31  32
ATOM     32  C   UNL     1      48.056 138.808  20.279  1.00  0.00     0.081 C 
ATOM     33  C   UNL     1      49.091 138.404  19.230  1.00  0.00     0.017 C 
ATOM     34  C   UNL     1      49.208 137.873  20.656  1.00  0.00    -0.001 C 
ATOM     35  C   UNL     1      48.910 136.376  20.822  1.00  0.00     0.008 C 
ENDBRANCH  31  32
ENDBRANCH  23  27
ENDBRANCH  20  21
ENDBRANCH   5  20
TORSDOF 10
ENDMDL
MODEL 2
REMARK VINA RESULT:      -6.6      4.297      6.587
REMARK SMILES C=CC[C@](C)(CC)Oc1cc2nc(Cn3nnc(C)c3-c3nnc([C@@H]4C[C@@H]4C)o3)[n-]c2cc1C#N
REMARK SMILES IDX 9 1 10 2 11 3 12 4 13 5 30 6 31 7 32 8 33 9 8 10 4 11 5 12
REMARK SMILES IDX 3 13 2 14 1 15 6 16 7 17 34 18 35 19 14 20 15 21 16 22 20 23
REMARK SMILES IDX 17 24 18 25 19 26 21 27 22 28 29 29 23 30 24 31 25 32 26 33
REMARK SMILES IDX 27 34 28 35
REMARK H PARENT
ROOT
ATOM      1  C   UNL     1      44.623 131.606  17.353  1.00  0.00     0.138 A 
ATOM      2  C   UNL     1      43.618 131.985  16.435  1.00  0.00     0.051 A 
ATOM      3  C   UNL     1      42.420 132.476  16.945  1.00  0.00    -0.035 A 
ATOM      4  N   UNL     1      41.346 132.887  16.259  1.00  0.00    -0.438 NA
ATOM      5  C   UNL     1      40.494 133.267  17.245  1.00  0.00    -0.060 A 
ATOM      6  N   UNL     1      40.979 133.105  18.505  1.00  0.00    -0.438 NA
ATOM      7  C   UNL     1      42.203 132.607  18.280  1.00  0.00    -0.037 A 
ATOM      8  C   UNL     1      43.169 132.264  19.221  1.00  0.00     0.027 A 
ATOM      9  C   UNL     1      44.398 131.762  18.747  1.00  0.00     0.094 A 
ENDROOT
BRANCH   1  10
ATOM     10  O   UNL     1      45.861 131.104  16.918  1.00  0.00    -0.486 OA
BRANCH  10  11
ATOM     11  C   UNL     1      46.144 130.556  15.617  1.00  0.00     0.109 C 
ATOM     12  C   UNL     1      47.371 129.641  15.792  1.00  0.00     0.057 C 
BRANCH  11  13
ATOM     13  C   UNL     1      46.481 131.681  14.597  1.00  0.00     0.075 C 
BRANCH  13  14
ATOM     14  C   UNL     1      47.409 131.231  13.497  1.00  0.00    -0.031 C 
ATOM     15  C   UNL     1      46.933 130.598  12.421  1.00  0.00     0.004 C 
ENDBRANCH  13  14
ENDBRANCH  11  13
BRANCH  11  16
ATOM     16  C   UNL     1      44.917 129.719  15.135  1.00  0.00     0.045 C 
ATOM     17  C   UNL     1      44.928 128.245  15.553  1.00  0.00     0.008 C 
ENDBRANCH  11  16
ENDBRANCH  10  11
ENDBRANCH   1  10
BRANCH   9  18
ATOM     18  C   UNL     1      45.419 131.391  19.694  1.00  0.00     0.103 C 
ATOM     19  N   UNL     1      46.239 131.092  20.453  1.00  0.00    -0.192 NA
ENDBRANCH   9  18
BRANCH   5  20
ATOM     20  C   UNL     1      39.112 133.769  16.972  1.00  0.00     0.173 C 
BRANCH  20  21
ATOM     21  N   UNL     1      38.743 134.780  17.961  1.00  0.00    -0.236 N 
ATOM     22  N   UNL     1      38.504 134.489  19.231  1.00  0.00    -0.066 NA
ATOM     23  C   UNL     1      38.509 136.101  17.785  1.00  0.00     0.149 A 
ATOM     24  N   UNL     1      38.136 135.572  19.901  1.00  0.00    -0.135 NA
ATOM     25  C   UNL     1      38.135 136.593  19.021  1.00  0.00     0.093 A 
ATOM     26  C   UNL     1      37.745 137.994  19.367  1.00  0.00     0.071 C 
BRANCH  23  27
ATOM     27  C   UNL     1      38.609 136.869  16.525  1.00  0.00     0.267 A 
ATOM     28  N   UNL     1      39.601 137.726  16.215  1.00  0.00    -0.106 NA
ATOM     29  O   UNL     1      37.735 136.792  15.551  1.00  0.00    -0.419 OA
ATOM     30  N   UNL     1      39.333 138.191  15.005  1.00  0.00    -0.112 NA
ATOM     31  C   UNL     1      38.186 137.601  14.623  1.00  0.00     0.220 A 
BRANCH  31  32
ATOM     32  C   UNL     1      37.514 137.855  13.304  1.00  0.00     0.081 C 
ATOM     33  C   UNL     1      36.375 136.896  12.963  1.00  0.00     0.017 C 
ATOM     34  C   UNL     1      37.697 136.805  12.206  1.00  0.00    -0.001 C 
ATOM     35  C   UNL     1      38.542 135.561  12.517  1.00  0.00     0.008 C 
ENDBRANCH  31  32
ENDBRANCH  23  27
ENDBRANCH  20  21
ENDBRANCH   5  20
TORSDOF 10
ENDMDL
MODEL 3
REMARK VINA RESULT:      -6.4      4.413      7.709
REMARK SMILES C=CC[C@](C)(CC)Oc1cc2nc(Cn3nnc(C)c3-c3nnc([C@@H]4C[C@@H]4C)o3)[n-]c2cc1C#N
REMARK SMILES IDX 9 1 10 2 11 3 12 4 13 5 30 6 31 7 32 8 33 9 8 10 4 11 5 12
REMARK SMILES IDX 3 13 2 14 1 15 6 16 7 17 34 18 35 19 14 20 15 21 16 22 20 23
REMARK SMILES IDX 17 24 18 25 19 26 21 27 22 28 29 29 23 30 24 31 25 32 26 33
REMARK SMILES IDX 27 34 28 35
REMARK H PARENT
ROOT
ATOM      1  C   UNL     1      39.649 136.228  14.088  1.00  0.00     0.138 A 
ATOM      2  C   UNL     1      39.535 134.855  14.401  1.00  0.00     0.051 A 
ATOM      3  C   UNL     1      40.175 134.392  15.547  1.00  0.00    -0.035 A 
ATOM      4  N   UNL     1      40.195 133.140  16.023  1.00  0.00    -0.438 NA
ATOM      5  C   UNL     1      40.943 133.266  17.149  1.00  0.00    -0.060 A 
ATOM      6  N   UNL     1      41.393 134.525  17.391  1.00  0.00    -0.438 NA
ATOM      7  C   UNL     1      40.885 135.216  16.361  1.00  0.00    -0.037 A 
ATOM      8  C   UNL     1      41.010 136.577  16.103  1.00  0.00     0.027 A 
ATOM      9  C   UNL     1      40.377 137.089  14.952  1.00  0.00     0.094 A 
ENDROOT
BRANCH   1  10
ATOM     10  O   UNL     1      39.030 136.774  12.951  1.00  0.00    -0.486 OA
BRANCH  10  11
ATOM     11  C   UNL     1      37.627 137.061  12.804  1.00  0.00     0.109 C 
ATOM     12  C   UNL     1      36.982 136.767  14.173  1.00  0.00     0.057 C 
BRANCH  11  13
ATOM     13  C   UNL     1      36.979 136.150  11.723  1.00  0.00     0.075 C 
BRANCH  13  14
ATOM     14  C   UNL     1      37.954 135.690  10.668  1.00  0.00    -0.031 C 
ATOM     15  C   UNL     1      37.520 135.293   9.468  1.00  0.00     0.004 C 
ENDBRANCH  13  14
ENDBRANCH  11  13
BRANCH  11  16
ATOM     16  C   UNL     1      37.447 138.569  12.441  1.00  0.00     0.045 C 
ATOM     17  C   UNL     1      36.527 139.360  13.377  1.00  0.00     0.008 C 
ENDBRANCH  11  16
ENDBRANCH  10  11
ENDBRANCH   1  10
BRANCH   9  18
ATOM     18  C   UNL     1      40.492 138.493  14.651  1.00  0.00     0.103 C 
ATOM     19  N   UNL     1      40.584 139.622  14.411  1.00  0.00    -0.192 NA
ENDBRANCH   9  18
BRANCH   5  20
ATOM     20  C   UNL     1      41.292 132.103  18.022  1.00  0.00     0.173 C 
BRANCH  20  21
ATOM     21  N   UNL     1      42.282 132.505  19.019  1.00  0.00    -0.236 N 
ATOM     22  N   UNL     1      41.963 132.804  20.270  1.00  0.00    -0.066 NA
ATOM     23  C   UNL     1      43.610 132.717  18.867  1.00  0.00     0.149 A 
ATOM     24  N   UNL     1      43.033 133.190  20.949  1.00  0.00    -0.135 NA
ATOM     25  C   UNL     1      44.076 133.141  20.097  1.00  0.00     0.093 A 
ATOM     26  C   UNL     1      45.472 133.531  20.461  1.00  0.00     0.071 C 
BRANCH  23  27
ATOM     27  C   UNL     1      44.407 132.552  17.632  1.00  0.00     0.267 A 
ATOM     28  N   UNL     1      44.478 133.448  16.628  1.00  0.00    -0.106 NA
ATOM     29  O   UNL     1      45.153 131.504  17.378  1.00  0.00    -0.419 OA
ATOM     30  N   UNL     1      45.301 132.938  15.725  1.00  0.00    -0.112 NA
ATOM     31  C   UNL     1      45.699 131.748  16.211  1.00  0.00     0.220 A 
BRANCH  31  32
ATOM     32  C   UNL     1      46.640 130.825  15.493  1.00  0.00     0.081 C 
ATOM     33  C   UNL     1      46.851 131.139  14.013  1.00  0.00     0.017 C 
ATOM     34  C   UNL     1      46.047 129.908  14.422  1.00  0.00    -0.001 C 
ATOM     35  C   UNL     1      44.540 129.990  14.141  1.00  0.00     0.008 C 
ENDBRANCH  31  32
ENDBRANCH  23  27
ENDBRANCH  20  21
ENDBRANCH   5  20
TORSDOF 10
ENDMDL
MODEL 4
REMARK VINA RESULT:      -6.0      3.257      5.175
REMARK SMILES C=CC[C@](C)(CC)Oc1cc2nc(Cn3nnc(C)c3-c3nnc([C@@H]4C[C@@H]4C)o3)[n-]c2cc1C#N
REMARK SMILES IDX 9 1 10 2 11 3 12 4 13 5 30 6 31 7 32 8 33 9 8 10 4 11 5 12
REMARK SMILES IDX 3 13 2 14 1 15 6 16 7 17 34 18 35 19 14 20 15 21 16 22 20 23
REMARK SMILES IDX 17 24 18 25 19 26 21 27 22 28 29 29 23 30 24 31 25 32 26 33
REMARK SMILES IDX 27 34 28 35
REMARK H PARENT
ROOT
ATOM      1  C   UNL     1      44.690 132.642  16.166  1.00  0.00     0.138 A 
ATOM      2  C   UNL     1      43.961 133.533  15.347  1.00  0.00     0.051 A 
ATOM      3  C   UNL     1      42.781 134.068  15.854  1.00  0.00    -0.035 A 
ATOM      4  N   UNL     1      41.945 134.923  15.251  1.00  0.00    -0.438 NA
ATOM      5  C   UNL     1      40.986 135.112  16.194  1.00  0.00    -0.060 A 
ATOM      6  N   UNL     1      41.180 134.414  17.345  1.00  0.00    -0.438 NA
ATOM      7  C   UNL     1      42.328 133.768  17.100  1.00  0.00    -0.037 A 
ATOM      8  C   UNL     1      43.020 132.909  17.948  1.00  0.00     0.027 A 
ATOM      9  C   UNL     1      44.221 132.345  17.474  1.00  0.00     0.094 A 
ENDROOT
BRANCH   1  10
ATOM     10  O   UNL     1      45.892 132.062  15.728  1.00  0.00    -0.486 OA
BRANCH  10  11
ATOM     11  C   UNL     1      46.026 131.059  14.704  1.00  0.00     0.109 C 
ATOM     12  C   UNL     1      44.691 131.050  13.933  1.00  0.00     0.057 C 
BRANCH  11  13
ATOM     13  C   UNL     1      46.272 129.654  15.324  1.00  0.00     0.075 C 
BRANCH  13  14
ATOM     14  C   UNL     1      44.999 128.900  15.617  1.00  0.00    -0.031 C 
ATOM     15  C   UNL     1      45.030 127.593  15.893  1.00  0.00     0.004 C 
ENDBRANCH  13  14
ENDBRANCH  11  13
BRANCH  11  16
ATOM     16  C   UNL     1      47.193 131.456  13.746  1.00  0.00     0.045 C 
ATOM     17  C   UNL     1      47.563 130.404  12.696  1.00  0.00     0.008 C 
ENDBRANCH  11  16
ENDBRANCH  10  11
ENDBRANCH   1  10
BRANCH   9  18
ATOM     18  C   UNL     1      44.961 131.447  18.324  1.00  0.00     0.103 C 
ATOM     19  N   UNL     1      45.555 130.727  19.008  1.00  0.00    -0.192 NA
ENDBRANCH   9  18
BRANCH   5  20
ATOM     20  C   UNL     1      39.786 135.974  15.966  1.00  0.00     0.173 C 
BRANCH  20  21
ATOM     21  N   UNL     1      38.717 135.597  16.889  1.00  0.00    -0.236 N 
ATOM     22  N   UNL     1      37.787 134.703  16.586  1.00  0.00    -0.066 NA
ATOM     23  C   UNL     1      38.430 136.097  18.113  1.00  0.00     0.149 A 
ATOM     24  N   UNL     1      36.908 134.586  17.569  1.00  0.00    -0.135 NA
ATOM     25  C   UNL     1      37.288 135.443  18.538  1.00  0.00     0.093 A 
ATOM     26  C   UNL     1      36.542 135.645  19.817  1.00  0.00     0.071 C 
BRANCH  23  27
ATOM     27  C   UNL     1      39.168 137.146  18.848  1.00  0.00     0.267 A 
ATOM     28  N   UNL     1      39.087 138.469  18.603  1.00  0.00    -0.106 NA
ATOM     29  O   UNL     1      39.989 136.904  19.841  1.00  0.00    -0.419 OA
ATOM     30  N   UNL     1      39.882 139.064  19.478  1.00  0.00    -0.112 NA
ATOM     31  C   UNL     1      40.419 138.081  20.224  1.00  0.00     0.220 A 
BRANCH  31  32
ATOM     32  C   UNL     1      41.394 138.318  21.341  1.00  0.00     0.081 C 
ATOM     33  C   UNL     1      42.211 139.604  21.226  1.00  0.00     0.017 C 
ATOM     34  C   UNL     1      42.885 138.253  21.001  1.00  0.00    -0.001 C 
ATOM     35  C   UNL     1      43.292 137.961  19.550  1.00  0.00     0.008 C 
ENDBRANCH  31  32
ENDBRANCH  23  27
ENDBRANCH  20  21
ENDBRANCH   5  20
TORSDOF 10
ENDMDL
MODEL 5
REMARK VINA RESULT:      -6.0      1.726      2.321
REMARK SMILES C=CC[C@](C)(CC)Oc1cc2nc(Cn3nnc(C)c3-c3nnc([C@@H]4C[C@@H]4C)o3)[n-]c2cc1C#N
REMARK SMILES IDX 9 1 10 2 11 3 12 4 13 5 30 6 31 7 32 8 33 9 8 10 4 11 5 12
REMARK SMILES IDX 3 13 2 14 1 15 6 16 7 17 34 18 35 19 14 20 15 21 16 22 20 23
REMARK SMILES IDX 17 24 18 25 19 26 21 27 22 28 29 29 23 30 24 31 25 32 26 33
REMARK SMILES IDX 27 34 28 35
REMARK H PARENT
ROOT
ATOM      1  C   UNL     1      43.658 132.023  16.654  1.00  0.00     0.138 A 
ATOM      2  C   UNL     1      44.181 132.241  17.948  1.00  0.00     0.051 A 
ATOM      3  C   UNL     1      43.737 133.356  18.652  1.00  0.00    -0.035 A 
ATOM      4  N   UNL     1      44.099 133.747  19.880  1.00  0.00    -0.438 NA
ATOM      5  C   UNL     1      43.359 134.870  20.064  1.00  0.00    -0.060 A 
ATOM      6  N   UNL     1      42.563 135.200  19.012  1.00  0.00    -0.438 NA
ATOM      7  C   UNL     1      42.822 134.219  18.136  1.00  0.00    -0.037 A 
ATOM      8  C   UNL     1      42.267 134.036  16.874  1.00  0.00     0.027 A 
ATOM      9  C   UNL     1      42.689 132.918  16.126  1.00  0.00     0.094 A 
ENDROOT
BRANCH   1  10
ATOM     10  O   UNL     1      44.054 130.918  15.881  1.00  0.00    -0.486 OA
BRANCH  10  11
ATOM     11  C   UNL     1      45.352 130.716  15.294  1.00  0.00     0.109 C 
ATOM     12  C   UNL     1      46.227 131.893  15.766  1.00  0.00     0.057 C 
BRANCH  11  13
ATOM     13  C   UNL     1      45.272 130.725  13.741  1.00  0.00     0.075 C 
BRANCH  13  14
ATOM     14  C   UNL     1      46.571 131.107  13.078  1.00  0.00    -0.031 C 
ATOM     15  C   UNL     1      47.152 130.288  12.195  1.00  0.00     0.004 C 
ENDBRANCH  13  14
ENDBRANCH  11  13
BRANCH  11  16
ATOM     16  C   UNL     1      45.945 129.368  15.811  1.00  0.00     0.045 C 
ATOM     17  C   UNL     1      44.948 128.209  15.905  1.00  0.00     0.008 C 
ENDBRANCH  11  16
ENDBRANCH  10  11
ENDBRANCH   1  10
BRANCH   9  18
ATOM     18  C   UNL     1      42.139 132.701  14.812  1.00  0.00     0.103 C 
ATOM     19  N   UNL     1      41.699 132.526  13.756  1.00  0.00    -0.192 NA
ENDBRANCH   9  18
BRANCH   5  20
ATOM     20  C   UNL     1      43.451 135.707  21.299  1.00  0.00     0.173 C 
BRANCH  20  21
ATOM     21  N   UNL     1      44.358 135.082  22.260  1.00  0.00    -0.236 N 
ATOM     22  N   UNL     1      44.112 133.907  22.820  1.00  0.00    -0.066 NA
ATOM     23  C   UNL     1      45.501 135.567  22.795  1.00  0.00     0.149 A 
ATOM     24  N   UNL     1      45.059 133.594  23.693  1.00  0.00    -0.135 NA
ATOM     25  C   UNL     1      45.941 134.613  23.694  1.00  0.00     0.093 A 
ATOM     26  C   UNL     1      47.151 134.671  24.569  1.00  0.00     0.071 C 
BRANCH  23  27
ATOM     27  C   UNL     1      46.147 136.865  22.503  1.00  0.00     0.267 A 
ATOM     28  N   UNL     1      45.511 138.050  22.426  1.00  0.00    -0.106 NA
ATOM     29  O   UNL     1      47.433 137.010  22.292  1.00  0.00    -0.419 OA
ATOM     30  N   UNL     1      46.436 138.959  22.163  1.00  0.00    -0.112 NA
ATOM     31  C   UNL     1      47.603 138.294  22.088  1.00  0.00     0.220 A 
BRANCH  31  32
ATOM     32  C   UNL     1      48.922 138.950  21.796  1.00  0.00     0.081 C 
ATOM     33  C   UNL     1      49.021 139.623  20.429  1.00  0.00     0.017 C 
ATOM     34  C   UNL     1      49.789 138.332  20.697  1.00  0.00    -0.001 C 
ATOM     35  C   UNL     1      49.261 137.094  19.959  1.00  0.00     0.008 C 
ENDBRANCH  31  32
ENDBRANCH  23  27
ENDBRANCH  20  21
ENDBRANCH   5  20
TORSDOF 10
ENDMDL
MODEL 6
REMARK VINA RESULT:      -6.0      3.862      7.216
REMARK SMILES C=CC[C@](C)(CC)Oc1cc2nc(Cn3nnc(C)c3-c3nnc([C@@H]4C[C@@H]4C)o3)[n-]c2cc1C#N
REMARK SMILES IDX 9 1 10 2 11 3 12 4 13 5 30 6 31 7 32 8 33 9 8 10 4 11 5 12
REMARK SMILES IDX 3 13 2 14 1 15 6 16 7 17 34 18 35 19 14 20 15 21 16 22 20 23
REMARK SMILES IDX 17 24 18 25 19 26 21 27 22 28 29 29 23 30 24 31 25 32 26 33
REMARK SMILES IDX 27 34 28 35
REMARK H PARENT
ROOT
ATOM      1  C   UNL     1      44.149 133.272  19.576  1.00  0.00     0.138 A 
ATOM      2  C   UNL     1      44.147 133.977  18.351  1.00  0.00     0.051 A 
ATOM      3  C   UNL     1      43.233 133.589  17.377  1.00  0.00    -0.035 A 
ATOM      4  N   UNL     1      43.063 134.116  16.158  1.00  0.00    -0.438 NA
ATOM      5  C   UNL     1      42.047 133.371  15.653  1.00  0.00    -0.060 A 
ATOM      6  N   UNL     1      41.583 132.406  16.491  1.00  0.00    -0.438 NA
ATOM      7  C   UNL     1      42.352 132.574  17.577  1.00  0.00    -0.037 A 
ATOM      8  C   UNL     1      42.305 131.863  18.771  1.00  0.00     0.027 A 
ATOM      9  C   UNL     1      43.215 132.224  19.786  1.00  0.00     0.094 A 
ENDROOT
BRANCH   1  10
ATOM     10  O   UNL     1      45.040 133.605  20.611  1.00  0.00    -0.486 OA
BRANCH  10  11
ATOM     11  C   UNL     1      44.980 134.783  21.435  1.00  0.00     0.109 C 
ATOM     12  C   UNL     1      43.512 135.253  21.410  1.00  0.00     0.057 C 
BRANCH  11  13
ATOM     13  C   UNL     1      45.890 135.910  20.869  1.00  0.00     0.075 C 
BRANCH  13  14
ATOM     14  C   UNL     1      45.118 137.037  20.231  1.00  0.00    -0.031 C 
ATOM     15  C   UNL     1      45.370 137.408  18.972  1.00  0.00     0.004 C 
ENDBRANCH  13  14
ENDBRANCH  11  13
BRANCH  11  16
ATOM     16  C   UNL     1      45.397 134.412  22.893  1.00  0.00     0.045 C 
ATOM     17  C   UNL     1      46.862 134.694  23.245  1.00  0.00     0.008 C 
ENDBRANCH  11  16
ENDBRANCH  10  11
ENDBRANCH   1  10
BRANCH   9  18
ATOM     18  C   UNL     1      43.198 131.504  21.035  1.00  0.00     0.103 C 
ATOM     19  N   UNL     1      43.186 130.926  22.037  1.00  0.00    -0.192 NA
ENDBRANCH   9  18
BRANCH   5  20
ATOM     20  C   UNL     1      41.516 133.558  14.268  1.00  0.00     0.173 C 
BRANCH  20  21
ATOM     21  N   UNL     1      40.142 134.052  14.321  1.00  0.00    -0.236 N 
ATOM     22  N   UNL     1      39.109 133.353  13.875  1.00  0.00    -0.066 NA
ATOM     23  C   UNL     1      39.683 135.257  14.729  1.00  0.00     0.149 A 
ATOM     24  N   UNL     1      37.986 134.047  13.987  1.00  0.00    -0.135 NA
ATOM     25  C   UNL     1      38.316 135.239  14.522  1.00  0.00     0.093 A 
ATOM     26  C   UNL     1      37.337 136.337  14.786  1.00  0.00     0.071 C 
BRANCH  23  27
ATOM     27  C   UNL     1      40.476 136.382  15.269  1.00  0.00     0.267 A 
ATOM     28  N   UNL     1      41.009 137.379  14.536  1.00  0.00    -0.106 NA
ATOM     29  O   UNL     1      40.746 136.543  16.542  1.00  0.00    -0.419 OA
ATOM     30  N   UNL     1      41.625 138.186  15.386  1.00  0.00    -0.112 NA
ATOM     31  C   UNL     1      41.445 137.649  16.607  1.00  0.00     0.220 A 
BRANCH  31  32
ATOM     32  C   UNL     1      41.992 138.247  17.871  1.00  0.00     0.081 C 
ATOM     33  C   UNL     1      41.361 137.726  19.160  1.00  0.00     0.017 C 
ATOM     34  C   UNL     1      41.060 139.145  18.687  1.00  0.00    -0.001 C 
ATOM     35  C   UNL     1      39.630 139.372  18.175  1.00  0.00     0.008 C 
ENDBRANCH  31  32
ENDBRANCH  23  27
ENDBRANCH  20  21
ENDBRANCH   5  20
TORSDOF 10
ENDMDL
MODEL 7
REMARK VINA RESULT:      -5.9      2.678      7.521
REMARK SMILES C=CC[C@](C)(CC)Oc1cc2nc(Cn3nnc(C)c3-c3nnc([C@@H]4C[C@@H]4C)o3)[n-]c2cc1C#N
REMARK SMILES IDX 9 1 10 2 11 3 12 4 13 5 30 6 31 7 32 8 33 9 8 10 4 11 5 12
REMARK SMILES IDX 3 13 2 14 1 15 6 16 7 17 34 18 35 19 14 20 15 21 16 22 20 23
REMARK SMILES IDX 17 24 18 25 19 26 21 27 22 28 29 29 23 30 24 31 25 32 26 33
REMARK SMILES IDX 27 34 28 35
REMARK H PARENT
ROOT
ATOM      1  C   UNL     1      44.593 135.411  20.994  1.00  0.00     0.138 A 
ATOM      2  C   UNL     1      44.120 134.798  19.812  1.00  0.00     0.051 A 
ATOM      3  C   UNL     1      43.934 135.599  18.690  1.00  0.00    -0.035 A 
ATOM      4  N   UNL     1      43.498 135.225  17.481  1.00  0.00    -0.438 NA
ATOM      5  C   UNL     1      43.523 136.390  16.785  1.00  0.00    -0.060 A 
ATOM      6  N   UNL     1      43.943 137.467  17.500  1.00  0.00    -0.438 NA
ATOM      7  C   UNL     1      44.201 136.931  18.701  1.00  0.00    -0.037 A 
ATOM      8  C   UNL     1      44.684 137.576  19.835  1.00  0.00     0.027 A 
ATOM      9  C   UNL     1      44.888 136.801  20.995  1.00  0.00     0.094 A 
ENDROOT
BRANCH   1  10
ATOM     10  O   UNL     1      44.810 134.671  22.168  1.00  0.00    -0.486 OA
BRANCH  10  11
ATOM     11  C   UNL     1      45.633 133.496  22.290  1.00  0.00     0.109 C 
ATOM     12  C   UNL     1      46.961 133.825  21.579  1.00  0.00     0.057 C 
BRANCH  11  13
ATOM     13  C   UNL     1      44.968 132.272  21.599  1.00  0.00     0.075 C 
BRANCH  13  14
ATOM     14  C   UNL     1      45.958 131.361  20.918  1.00  0.00    -0.031 C 
ATOM     15  C   UNL     1      45.815 131.043  19.628  1.00  0.00     0.004 C 
ENDBRANCH  13  14
ENDBRANCH  11  13
BRANCH  11  16
ATOM     16  C   UNL     1      45.894 133.207  23.802  1.00  0.00     0.045 C 
ATOM     17  C   UNL     1      45.177 131.976  24.365  1.00  0.00     0.008 C 
ENDBRANCH  11  16
ENDBRANCH  10  11
ENDBRANCH   1  10
BRANCH   9  18
ATOM     18  C   UNL     1      45.381 137.438  22.190  1.00  0.00     0.103 C 
ATOM     19  N   UNL     1      45.779 137.948  23.150  1.00  0.00    -0.192 NA
ENDBRANCH   9  18
BRANCH   5  20
ATOM     20  C   UNL     1      43.072 136.493  15.363  1.00  0.00     0.173 C 
BRANCH  20  21
ATOM     21  N   UNL     1      41.662 136.120  15.257  1.00  0.00    -0.236 N 
ATOM     22  N   UNL     1      40.686 137.013  15.191  1.00  0.00    -0.066 NA
ATOM     23  C   UNL     1      41.101 134.890  15.282  1.00  0.00     0.149 A 
ATOM     24  N   UNL     1      39.504 136.416  15.158  1.00  0.00    -0.135 NA
ATOM     25  C   UNL     1      39.735 135.089  15.209  1.00  0.00     0.093 A 
ATOM     26  C   UNL     1      38.658 134.052  15.226  1.00  0.00     0.071 C 
BRANCH  23  27
ATOM     27  C   UNL     1      41.797 133.589  15.389  1.00  0.00     0.267 A 
ATOM     28  N   UNL     1      41.628 132.698  16.385  1.00  0.00    -0.106 NA
ATOM     29  O   UNL     1      42.660 133.148  14.507  1.00  0.00    -0.419 OA
ATOM     30  N   UNL     1      42.412 131.668  16.106  1.00  0.00    -0.112 NA
ATOM     31  C   UNL     1      43.030 131.970  14.950  1.00  0.00     0.220 A 
BRANCH  31  32
ATOM     32  C   UNL     1      44.022 131.070  14.273  1.00  0.00     0.081 C 
ATOM     33  C   UNL     1      44.823 130.168  15.210  1.00  0.00     0.017 C 
ATOM     34  C   UNL     1      45.507 131.345  14.520  1.00  0.00    -0.001 C 
ATOM     35  C   UNL     1      45.891 132.509  15.445  1.00  0.00     0.008 C 
ENDBRANCH  31  32
ENDBRANCH  23  27
ENDBRANCH  20  21
ENDBRANCH   5  20
TORSDOF 10
ENDMDL
MODEL 8
REMARK VINA RESULT:      -5.9      3.295      5.667
REMARK SMILES C=CC[C@](C)(CC)Oc1cc2nc(Cn3nnc(C)c3-c3nnc([C@@H]4C[C@@H]4C)o3)[n-]c2cc1C#N
REMARK SMILES IDX 9 1 10 2 11 3 12 4 13 5 30 6 31 7 32 8 33 9 8 10 4 11 5 12
REMARK SMILES IDX 3 13 2 14 1 15 6 16 7 17 34 18 35 19 14 20 15 21 16 22 20 23
REMARK SMILES IDX 17 24 18 25 19 26 21 27 22 28 29 29 23 30 24 31 25 32 26 33
REMARK SMILES IDX 27 34 28 35
REMARK H PARENT
ROOT
ATOM      1  C   UNL     1      44.464 132.597  15.328  1.00  0.00     0.138 A 
ATOM      2  C   UNL     1      44.873 133.449  16.378  1.00  0.00     0.051 A 
ATOM      3  C   UNL     1      43.902 134.225  17.004  1.00  0.00    -0.035 A 
ATOM      4  N   UNL     1      44.072 135.091  18.012  1.00  0.00    -0.438 NA
ATOM      5  C   UNL     1      42.810 135.544  18.226  1.00  0.00    -0.060 A 
ATOM      6  N   UNL     1      41.870 135.012  17.400  1.00  0.00    -0.438 NA
ATOM      7  C   UNL     1      42.594 134.176  16.642  1.00  0.00    -0.037 A 
ATOM      8  C   UNL     1      42.142 133.341  15.626  1.00  0.00     0.027 A 
ATOM      9  C   UNL     1      43.092 132.536  14.965  1.00  0.00     0.094 A 
ENDROOT
BRANCH   1  10
ATOM     10  O   UNL     1      45.382 131.780  14.648  1.00  0.00    -0.486 OA
BRANCH  10  11
ATOM     11  C   UNL     1      45.976 130.569  15.152  1.00  0.00     0.109 C 
ATOM     12  C   UNL     1      44.861 129.504  15.136  1.00  0.00     0.057 C 
BRANCH  11  13
ATOM     13  C   UNL     1      46.485 130.759  16.608  1.00  0.00     0.075 C 
BRANCH  13  14
ATOM     14  C   UNL     1      45.493 130.310  17.651  1.00  0.00    -0.031 C 
ATOM     15  C   UNL     1      45.608 130.715  18.919  1.00  0.00     0.004 C 
ENDBRANCH  13  14
ENDBRANCH  11  13
BRANCH  11  16
ATOM     16  C   UNL     1      47.141 130.136  14.207  1.00  0.00     0.045 C 
ATOM     17  C   UNL     1      47.492 131.138  13.102  1.00  0.00     0.008 C 
ENDBRANCH  11  16
ENDBRANCH  10  11
ENDBRANCH   1  10
BRANCH   9  18
ATOM     18  C   UNL     1      42.659 131.664  13.903  1.00  0.00     0.103 C 
ATOM     19  N   UNL     1      42.313 130.962  13.049  1.00  0.00    -0.192 NA
ENDBRANCH   9  18
BRANCH   5  20
ATOM     20  C   UNL     1      42.487 136.587  19.248  1.00  0.00     0.173 C 
BRANCH  20  21
ATOM     21  N   UNL     1      41.710 135.996  20.336  1.00  0.00    -0.236 N 
ATOM     22  N   UNL     1      42.270 135.440  21.400  1.00  0.00    -0.066 NA
ATOM     23  C   UNL     1      40.371 135.836  20.439  1.00  0.00     0.149 A 
ATOM     24  N   UNL     1      41.350 134.932  22.206  1.00  0.00    -0.135 NA
ATOM     25  C   UNL     1      40.154 135.170  21.631  1.00  0.00     0.093 A 
ATOM     26  C   UNL     1      38.847 134.728  22.206  1.00  0.00     0.071 C 
BRANCH  23  27
ATOM     27  C   UNL     1      39.340 136.263  19.469  1.00  0.00     0.267 A 
ATOM     28  N   UNL     1      38.835 137.509  19.370  1.00  0.00    -0.106 NA
ATOM     29  O   UNL     1      38.801 135.467  18.577  1.00  0.00    -0.419 OA
ATOM     30  N   UNL     1      37.958 137.482  18.379  1.00  0.00    -0.112 NA
ATOM     31  C   UNL     1      37.959 136.220  17.912  1.00  0.00     0.220 A 
BRANCH  31  32
ATOM     32  C   UNL     1      37.093 135.748  16.780  1.00  0.00     0.081 C 
ATOM     33  C   UNL     1      37.574 134.477  16.084  1.00  0.00     0.017 C 
ATOM     34  C   UNL     1      37.677 135.821  15.368  1.00  0.00    -0.001 C 
ATOM     35  C   UNL     1      39.104 136.359  15.193  1.00  0.00     0.008 C 
ENDBRANCH  31  32
ENDBRANCH  23  27
ENDBRANCH  20  21
ENDBRANCH   5  20
TORSDOF 10
ENDMDL
MODEL 9
REMARK VINA RESULT:      -5.7      2.999      4.263
REMARK SMILES C=CC[C@](C)(CC)Oc1cc2nc(Cn3nnc(C)c3-c3nnc([C@@H]4C[C@@H]4C)o3)[n-]c2cc1C#N
REMARK SMILES IDX 9 1 10 2 11 3 12 4 13 5 30 6 31 7 32 8 33 9 8 10 4 11 5 12
REMARK SMILES IDX 3 13 2 14 1 15 6 16 7 17 34 18 35 19 14 20 15 21 16 22 20 23
REMARK SMILES IDX 17 24 18 25 19 26 21 27 22 28 29 29 23 30 24 31 25 32 26 33
REMARK SMILES IDX 27 34 28 35
REMARK H PARENT
ROOT
ATOM      1  C   UNL     1      43.812 131.658  17.842  1.00  0.00     0.138 A 
ATOM      2  C   UNL     1      43.176 132.149  19.005  1.00  0.00     0.051 A 
ATOM      3  C   UNL     1      43.813 131.958  20.227  1.00  0.00    -0.035 A 
ATOM      4  N   UNL     1      43.390 132.340  21.439  1.00  0.00    -0.438 NA
ATOM      5  C   UNL     1      44.392 131.914  22.249  1.00  0.00    -0.060 A 
ATOM      6  N   UNL     1      45.409 131.281  21.606  1.00  0.00    -0.438 NA
ATOM      7  C   UNL     1      45.014 131.331  20.326  1.00  0.00    -0.037 A 
ATOM      8  C   UNL     1      45.686 130.846  19.208  1.00  0.00     0.027 A 
ATOM      9  C   UNL     1      45.076 131.018  17.949  1.00  0.00     0.094 A 
ENDROOT
BRANCH   1  10
ATOM     10  O   UNL     1      43.235 131.813  16.571  1.00  0.00    -0.486 OA
BRANCH  10  11
ATOM     11  C   UNL     1      42.546 132.982  16.090  1.00  0.00     0.109 C 
ATOM     12  C   UNL     1      41.233 133.069  16.892  1.00  0.00     0.057 C 
BRANCH  11  13
ATOM     13  C   UNL     1      42.216 132.853  14.575  1.00  0.00     0.075 C 
BRANCH  13  14
ATOM     14  C   UNL     1      40.941 133.555  14.180  1.00  0.00    -0.031 C 
ATOM     15  C   UNL     1      40.976 134.773  13.633  1.00  0.00     0.004 C 
ENDBRANCH  13  14
ENDBRANCH  11  13
BRANCH  11  16
ATOM     16  C   UNL     1      43.423 134.244  16.362  1.00  0.00     0.045 C 
ATOM     17  C   UNL     1      44.815 134.223  15.721  1.00  0.00     0.008 C 
ENDBRANCH  11  16
ENDBRANCH  10  11
ENDBRANCH   1  10
BRANCH   9  18
ATOM     18  C   UNL     1      45.741 130.523  16.771  1.00  0.00     0.103 C 
ATOM     19  N   UNL     1      46.275 130.123  15.824  1.00  0.00    -0.192 NA
ENDBRANCH   9  18
BRANCH   5  20
ATOM     20  C   UNL     1      44.355 132.076  23.735  1.00  0.00     0.173 C 
BRANCH  20  21
ATOM     21  N   UNL     1      43.902 133.422  24.081  1.00  0.00    -0.236 N 
ATOM     22  N   UNL     1      42.647 133.697  24.402  1.00  0.00    -0.066 NA
ATOM     23  C   UNL     1      44.593 134.585  24.069  1.00  0.00     0.149 A 
ATOM     24  N   UNL     1      42.489 134.995  24.615  1.00  0.00    -0.135 NA
ATOM     25  C   UNL     1      43.691 135.572  24.418  1.00  0.00     0.093 A 
ATOM     26  C   UNL     1      43.941 137.042  24.528  1.00  0.00     0.071 C 
BRANCH  23  27
ATOM     27  C   UNL     1      46.020 134.775  23.731  1.00  0.00     0.267 A 
ATOM     28  N   UNL     1      47.047 134.649  24.595  1.00  0.00    -0.106 NA
ATOM     29  O   UNL     1      46.453 135.084  22.532  1.00  0.00    -0.419 OA
ATOM     30  N   UNL     1      48.152 134.883  23.905  1.00  0.00    -0.112 NA
ATOM     31  C   UNL     1      47.757 135.145  22.645  1.00  0.00     0.220 A 
BRANCH  31  32
ATOM     32  C   UNL     1      48.702 135.474  21.526  1.00  0.00     0.081 C 
ATOM     33  C   UNL     1      49.888 136.354  21.917  1.00  0.00     0.017 C 
ATOM     34  C   UNL     1      48.764 136.931  21.061  1.00  0.00    -0.001 C 
ATOM     35  C   UNL     1      47.871 137.962  21.766  1.00  0.00     0.008 C 
ENDBRANCH  31  32
ENDBRANCH  23  27
ENDBRANCH  20  21
ENDBRANCH   5  20
TORSDOF 10
ENDMDL


