MODEL 1
REMARK VINA RESULT:      -5.9      0.000      0.000
REMARK SMILES C[N+]1(C)Cc2cc3ccc(-n4cc(CCn5cc(CN)cn5)n[nH+]4)cc3cc2C1
REMARK SMILES IDX 15 1 14 2 13 3 11 4 12 5 24 6 23 7 10 9 2 10 4 11 29 12 5 13
REMARK SMILES IDX 28 14 6 15 27 16 7 17 26 18 8 19 25 20 9 21 1 22 3 23 16 24
REMARK SMILES IDX 17 25 22 26 18 27 21 28 19 29 20 30
REMARK H PARENT 24 8 20 31 20 32
ROOT
ATOM      1  C   UNL     1      45.486 129.552  15.919  1.00  0.00     0.151 C 
ENDROOT
BRANCH   1   2
ATOM      2  C   UNL     1      45.843 130.377  17.162  1.00  0.00     0.088 C 
BRANCH   2   3
ATOM      3  C   UNL     1      44.730 131.307  17.541  1.00  0.00     0.134 A 
ATOM      4  N   UNL     1      42.977 132.604  17.434  1.00  0.00    -0.104 N 
ATOM      5  C   UNL     1      43.889 131.971  16.672  1.00  0.00     0.190 A 
ATOM      6  N   UNL     1      43.260 132.332  18.701  1.00  0.00    -0.012 N 
ATOM      7  N   UNL     1      44.313 131.533  18.802  1.00  0.00     0.020 NA
ATOM      8  H   UNL     1      42.706 132.657  19.524  1.00  0.00     0.527 HD
BRANCH   4   9
ATOM      9  C   UNL     1      41.871 133.408  16.976  1.00  0.00     0.107 A 
ATOM     10  N   UNL     1      37.854 136.789  12.133  1.00  0.00    -0.321 N 
ATOM     11  C   UNL     1      37.431 136.754  13.569  1.00  0.00     0.301 C 
ATOM     12  C   UNL     1      38.912 135.741  11.985  1.00  0.00     0.301 C 
ATOM     13  C   UNL     1      38.476 135.973  14.267  1.00  0.00     0.016 A 
ATOM     14  C   UNL     1      39.320 135.397  13.364  1.00  0.00     0.016 A 
ATOM     15  C   UNL     1      38.639 135.789  15.641  1.00  0.00     0.018 A 
ATOM     16  C   UNL     1      40.386 134.595  13.769  1.00  0.00     0.019 A 
ATOM     17  C   UNL     1      39.711 134.994  16.091  1.00  0.00    -0.018 A 
ATOM     18  C   UNL     1      40.592 134.394  15.148  1.00  0.00    -0.016 A 
ATOM     19  C   UNL     1      39.924 134.790  17.460  1.00  0.00     0.011 A 
ATOM     20  C   UNL     1      41.661 133.609  15.601  1.00  0.00     0.041 A 
ATOM     21  C   UNL     1      40.994 134.006  17.898  1.00  0.00     0.033 A 
ATOM     22  C   UNL     1      38.416 138.123  11.806  1.00  0.00     0.334 C 
ATOM     23  C   UNL     1      36.709 136.514  11.237  1.00  0.00     0.334 C 
ENDBRANCH   4   9
ENDBRANCH   2   3
ENDBRANCH   1   2
BRANCH   1  24
ATOM     24  N   UNL     1      46.394 129.844  14.811  1.00  0.00    -0.272 N 
ATOM     25  C   UNL     1      46.041 130.315  13.599  1.00  0.00     0.113 A 
ATOM     26  N   UNL     1      47.689 129.564  14.831  1.00  0.00    -0.181 NA
ATOM     27  C   UNL     1      47.176 130.355  12.817  1.00  0.00     0.004 A 
ATOM     28  C   UNL     1      48.192 129.872  13.619  1.00  0.00     0.140 A 
BRANCH  27  29
ATOM     29  C   UNL     1      47.260 130.679  11.354  1.00  0.00     0.116 C 
BRANCH  29  30
ATOM     30  N   UNL     1      47.989 129.639  10.631  1.00  0.00    -0.326 NA
ATOM     31  H   UNL     1      48.875 130.054  10.262  1.00  0.00     0.119 HD
ATOM     32  H   UNL     1      48.252 128.881  11.304  1.00  0.00     0.119 HD
ENDBRANCH  29  30
ENDBRANCH  27  29
ENDBRANCH   1  24
TORSDOF 6
ENDMDL
MODEL 2
REMARK VINA RESULT:      -5.6      3.426      8.710
REMARK SMILES C[N+]1(C)Cc2cc3ccc(-n4cc(CCn5cc(CN)cn5)n[nH+]4)cc3cc2C1
REMARK SMILES IDX 15 1 14 2 13 3 11 4 12 5 24 6 23 7 10 9 2 10 4 11 29 12 5 13
REMARK SMILES IDX 28 14 6 15 27 16 7 17 26 18 8 19 25 20 9 21 1 22 3 23 16 24
REMARK SMILES IDX 17 25 22 26 18 27 21 28 19 29 20 30
REMARK H PARENT 24 8 20 31 20 32
ROOT
ATOM      1  C   UNL     1      39.962 135.404  21.908  1.00  0.00     0.151 C 
ENDROOT
BRANCH   1   2
ATOM      2  C   UNL     1      40.132 136.564  20.918  1.00  0.00     0.088 C 
BRANCH   2   3
ATOM      3  C   UNL     1      40.187 136.074  19.503  1.00  0.00     0.134 A 
ATOM      4  N   UNL     1      40.755 134.973  17.705  1.00  0.00    -0.104 N 
ATOM      5  C   UNL     1      41.149 135.245  18.963  1.00  0.00     0.190 A 
ATOM      6  N   UNL     1      39.608 135.609  17.501  1.00  0.00    -0.012 N 
ATOM      7  N   UNL     1      39.227 136.278  18.580  1.00  0.00     0.020 NA
ATOM      8  H   UNL     1      39.042 135.561  16.626  1.00  0.00     0.527 HD
BRANCH   4   9
ATOM      9  C   UNL     1      41.422 134.124  16.750  1.00  0.00     0.107 A 
ATOM     10  N   UNL     1      46.920 130.462  14.032  1.00  0.00    -0.321 N 
ATOM     11  C   UNL     1      45.575 130.393  13.378  1.00  0.00     0.301 C 
ATOM     12  C   UNL     1      46.695 131.046  15.391  1.00  0.00     0.301 C 
ATOM     13  C   UNL     1      44.694 131.249  14.204  1.00  0.00     0.016 A 
ATOM     14  C   UNL     1      45.333 131.622  15.349  1.00  0.00     0.016 A 
ATOM     15  C   UNL     1      43.386 131.653  13.932  1.00  0.00     0.018 A 
ATOM     16  C   UNL     1      44.711 132.424  16.305  1.00  0.00     0.019 A 
ATOM     17  C   UNL     1      42.726 132.473  14.869  1.00  0.00    -0.018 A 
ATOM     18  C   UNL     1      43.394 132.862  16.063  1.00  0.00    -0.016 A 
ATOM     19  C   UNL     1      41.418 132.914  14.635  1.00  0.00     0.011 A 
ATOM     20  C   UNL     1      42.736 133.682  16.990  1.00  0.00     0.041 A 
ATOM     21  C   UNL     1      40.774 133.732  15.566  1.00  0.00     0.033 A 
ATOM     22  C   UNL     1      47.817 131.344  13.245  1.00  0.00     0.334 C 
ATOM     23  C   UNL     1      47.530 129.117  14.130  1.00  0.00     0.334 C 
ENDBRANCH   4   9
ENDBRANCH   2   3
ENDBRANCH   1   2
BRANCH   1  24
ATOM     24  N   UNL     1      41.252 134.806  22.249  1.00  0.00    -0.272 N 
ATOM     25  C   UNL     1      42.300 135.444  22.805  1.00  0.00     0.113 A 
ATOM     26  N   UNL     1      41.589 133.563  21.939  1.00  0.00    -0.181 NA
ATOM     27  C   UNL     1      43.350 134.552  22.869  1.00  0.00     0.004 A 
ATOM     28  C   UNL     1      42.872 133.382  22.311  1.00  0.00     0.140 A 
BRANCH  27  29
ATOM     29  C   UNL     1      44.762 134.840  23.284  1.00  0.00     0.116 C 
BRANCH  29  30
ATOM     30  N   UNL     1      45.029 134.319  24.623  1.00  0.00    -0.326 NA
ATOM     31  H   UNL     1      46.040 134.473  24.842  1.00  0.00     0.119 HD
ATOM     32  H   UNL     1      44.470 134.870  25.317  1.00  0.00     0.119 HD
ENDBRANCH  29  30
ENDBRANCH  27  29
ENDBRANCH   1  24
TORSDOF 6
ENDMDL
MODEL 3
REMARK VINA RESULT:      -5.6      3.477     10.042
REMARK SMILES C[N+]1(C)Cc2cc3ccc(-n4cc(CCn5cc(CN)cn5)n[nH+]4)cc3cc2C1
REMARK SMILES IDX 15 1 14 2 13 3 11 4 12 5 24 6 23 7 10 9 2 10 4 11 29 12 5 13
REMARK SMILES IDX 28 14 6 15 27 16 7 17 26 18 8 19 25 20 9 21 1 22 3 23 16 24
REMARK SMILES IDX 17 25 22 26 18 27 21 28 19 29 20 30
REMARK H PARENT 24 8 20 31 20 32
ROOT
ATOM      1  C   UNL     1      37.259 138.777  16.891  1.00  0.00     0.151 C 
ENDROOT
BRANCH   1   2
ATOM      2  C   UNL     1      37.122 137.692  15.816  1.00  0.00     0.088 C 
BRANCH   2   3
ATOM      3  C   UNL     1      38.461 137.243  15.314  1.00  0.00     0.134 A 
ATOM      4  N   UNL     1      40.385 136.224  15.152  1.00  0.00    -0.104 N 
ATOM      5  C   UNL     1      39.381 136.487  16.010  1.00  0.00     0.190 A 
ATOM      6  N   UNL     1      40.079 136.798  13.995  1.00  0.00    -0.012 N 
ATOM      7  N   UNL     1      38.908 137.415  14.055  1.00  0.00     0.020 NA
ATOM      8  H   UNL     1      40.653 136.739  13.125  1.00  0.00     0.527 HD
BRANCH   4   9
ATOM      9  C   UNL     1      41.567 135.441  15.412  1.00  0.00     0.107 A 
ATOM     10  N   UNL     1      45.912 129.810  14.749  1.00  0.00    -0.321 N 
ATOM     11  C   UNL     1      46.327 130.987  15.577  1.00  0.00     0.301 C 
ATOM     12  C   UNL     1      44.754 130.271  13.920  1.00  0.00     0.301 C 
ATOM     13  C   UNL     1      45.208 131.950  15.479  1.00  0.00     0.016 A 
ATOM     14  C   UNL     1      44.312 131.541  14.537  1.00  0.00     0.016 A 
ATOM     15  C   UNL     1      45.025 133.132  16.197  1.00  0.00     0.018 A 
ATOM     16  C   UNL     1      43.170 132.284  14.242  1.00  0.00     0.019 A 
ATOM     17  C   UNL     1      43.877 133.907  15.936  1.00  0.00    -0.018 A 
ATOM     18  C   UNL     1      42.942 133.478  14.953  1.00  0.00    -0.016 A 
ATOM     19  C   UNL     1      43.643 135.095  16.640  1.00  0.00     0.011 A 
ATOM     20  C   UNL     1      41.799 134.250  14.702  1.00  0.00     0.041 A 
ATOM     21  C   UNL     1      42.499 135.853  16.380  1.00  0.00     0.033 A 
ATOM     22  C   UNL     1      45.488 128.697  15.635  1.00  0.00     0.334 C 
ATOM     23  C   UNL     1      47.025 129.348  13.891  1.00  0.00     0.334 C 
ENDBRANCH   4   9
ENDBRANCH   2   3
ENDBRANCH   1   2
BRANCH   1  24
ATOM     24  N   UNL     1      37.166 138.206  18.234  1.00  0.00    -0.272 N 
ATOM     25  C   UNL     1      36.897 136.920  18.533  1.00  0.00     0.113 A 
ATOM     26  N   UNL     1      37.224 138.928  19.344  1.00  0.00    -0.181 NA
ATOM     27  C   UNL     1      36.799 136.819  19.905  1.00  0.00     0.004 A 
ATOM     28  C   UNL     1      37.004 138.098  20.383  1.00  0.00     0.140 A 
BRANCH  27  29
ATOM     29  C   UNL     1      36.379 135.617  20.699  1.00  0.00     0.116 C 
BRANCH  29  30
ATOM     30  N   UNL     1      36.379 135.912  22.131  1.00  0.00    -0.326 NA
ATOM     31  H   UNL     1      35.699 136.686  22.308  1.00  0.00     0.119 HD
ATOM     32  H   UNL     1      36.038 135.068  22.648  1.00  0.00     0.119 HD
ENDBRANCH  29  30
ENDBRANCH  27  29
ENDBRANCH   1  24
TORSDOF 6
ENDMDL
MODEL 4
REMARK VINA RESULT:      -5.6      3.792      9.349
REMARK SMILES C[N+]1(C)Cc2cc3ccc(-n4cc(CCn5cc(CN)cn5)n[nH+]4)cc3cc2C1
REMARK SMILES IDX 15 1 14 2 13 3 11 4 12 5 24 6 23 7 10 9 2 10 4 11 29 12 5 13
REMARK SMILES IDX 28 14 6 15 27 16 7 17 26 18 8 19 25 20 9 21 1 22 3 23 16 24
REMARK SMILES IDX 17 25 22 26 18 27 21 28 19 29 20 30
REMARK H PARENT 24 8 20 31 20 32
ROOT
ATOM      1  C   UNL     1      36.892 137.495  12.094  1.00  0.00     0.151 C 
ENDROOT
BRANCH   1   2
ATOM      2  C   UNL     1      37.950 137.712  13.184  1.00  0.00     0.088 C 
BRANCH   2   3
ATOM      3  C   UNL     1      38.412 136.410  13.767  1.00  0.00     0.134 A 
ATOM      4  N   UNL     1      39.620 134.897  14.775  1.00  0.00    -0.104 N 
ATOM      5  C   UNL     1      39.674 136.136  14.252  1.00  0.00     0.190 A 
ATOM      6  N   UNL     1      38.381 134.450  14.611  1.00  0.00    -0.012 N 
ATOM      7  N   UNL     1      37.616 135.352  14.013  1.00  0.00     0.020 NA
ATOM      8  H   UNL     1      38.025 133.528  14.947  1.00  0.00     0.527 HD
BRANCH   4   9
ATOM      9  C   UNL     1      40.688 134.182  15.427  1.00  0.00     0.107 A 
ATOM     10  N   UNL     1      44.390 131.689  21.004  1.00  0.00    -0.321 N 
ATOM     11  C   UNL     1      44.793 131.320  19.610  1.00  0.00     0.301 C 
ATOM     12  C   UNL     1      43.006 132.249  20.905  1.00  0.00     0.301 C 
ATOM     13  C   UNL     1      43.813 131.993  18.728  1.00  0.00     0.016 A 
ATOM     14  C   UNL     1      42.797 132.524  19.467  1.00  0.00     0.016 A 
ATOM     15  C   UNL     1      43.841 132.105  17.337  1.00  0.00     0.018 A 
ATOM     16  C   UNL     1      41.735 133.202  18.869  1.00  0.00     0.019 A 
ATOM     17  C   UNL     1      42.791 132.792  16.696  1.00  0.00    -0.018 A 
ATOM     18  C   UNL     1      41.732 133.346  17.468  1.00  0.00    -0.016 A 
ATOM     19  C   UNL     1      42.782 132.941  15.304  1.00  0.00     0.011 A 
ATOM     20  C   UNL     1      40.693 134.034  16.826  1.00  0.00     0.041 A 
ATOM     21  C   UNL     1      41.741 133.630  14.676  1.00  0.00     0.033 A 
ATOM     22  C   UNL     1      45.316 132.718  21.538  1.00  0.00     0.334 C 
ATOM     23  C   UNL     1      44.419 130.506  21.893  1.00  0.00     0.334 C 
ENDBRANCH   4   9
ENDBRANCH   2   3
ENDBRANCH   1   2
BRANCH   1  24
ATOM     24  N   UNL     1      37.514 137.273  10.789  1.00  0.00    -0.272 N 
ATOM     25  C   UNL     1      38.447 136.345  10.503  1.00  0.00     0.113 A 
ATOM     26  N   UNL     1      37.309 138.052   9.737  1.00  0.00    -0.181 NA
ATOM     27  C   UNL     1      38.840 136.534   9.195  1.00  0.00     0.004 A 
ATOM     28  C   UNL     1      38.111 137.618   8.745  1.00  0.00     0.140 A 
BRANCH  27  29
ATOM     29  C   UNL     1      39.952 135.834   8.470  1.00  0.00     0.116 C 
BRANCH  29  30
ATOM     30  N   UNL     1      40.462 136.659   7.376  1.00  0.00    -0.326 NA
ATOM     31  H   UNL     1      39.960 136.390   6.499  1.00  0.00     0.119 HD
ATOM     32  H   UNL     1      40.234 137.661   7.575  1.00  0.00     0.119 HD
ENDBRANCH  29  30
ENDBRANCH  27  29
ENDBRANCH   1  24
TORSDOF 6
ENDMDL
MODEL 5
REMARK VINA RESULT:      -5.6      3.650      9.072
REMARK SMILES C[N+]1(C)Cc2cc3ccc(-n4cc(CCn5cc(CN)cn5)n[nH+]4)cc3cc2C1
REMARK SMILES IDX 15 1 14 2 13 3 11 4 12 5 24 6 23 7 10 9 2 10 4 11 29 12 5 13
REMARK SMILES IDX 28 14 6 15 27 16 7 17 26 18 8 19 25 20 9 21 1 22 3 23 16 24
REMARK SMILES IDX 17 25 22 26 18 27 21 28 19 29 20 30
REMARK H PARENT 24 8 20 31 20 32
ROOT
ATOM      1  C   UNL     1      40.234 137.079  21.530  1.00  0.00     0.151 C 
ENDROOT
BRANCH   1   2
ATOM      2  C   UNL     1      41.258 137.713  20.580  1.00  0.00     0.088 C 
BRANCH   2   3
ATOM      3  C   UNL     1      41.199 137.093  19.216  1.00  0.00     0.134 A 
ATOM      4  N   UNL     1      41.516 135.741  17.532  1.00  0.00    -0.104 N 
ATOM      5  C   UNL     1      41.970 136.044  18.763  1.00  0.00     0.190 A 
ATOM      6  N   UNL     1      40.517 136.572  17.262  1.00  0.00    -0.012 N 
ATOM      7  N   UNL     1      40.289 137.400  18.271  1.00  0.00     0.020 NA
ATOM      8  H   UNL     1      39.943 136.557  16.390  1.00  0.00     0.527 HD
BRANCH   4   9
ATOM      9  C   UNL     1      41.990 134.692  16.665  1.00  0.00     0.107 A 
ATOM     10  N   UNL     1      46.874 130.350  13.780  1.00  0.00    -0.321 N 
ATOM     11  C   UNL     1      45.429 130.201  13.418  1.00  0.00     0.301 C 
ATOM     12  C   UNL     1      46.912 131.206  15.007  1.00  0.00     0.301 C 
ATOM     13  C   UNL     1      44.720 131.239  14.200  1.00  0.00     0.016 A 
ATOM     14  C   UNL     1      45.566 131.812  15.102  1.00  0.00     0.016 A 
ATOM     15  C   UNL     1      43.384 131.628  14.100  1.00  0.00     0.018 A 
ATOM     16  C   UNL     1      45.136 132.814  15.972  1.00  0.00     0.019 A 
ATOM     17  C   UNL     1      42.914 132.645  14.955  1.00  0.00    -0.018 A 
ATOM     18  C   UNL     1      43.797 133.243  15.896  1.00  0.00    -0.016 A 
ATOM     19  C   UNL     1      41.584 133.079  14.884  1.00  0.00     0.011 A 
ATOM     20  C   UNL     1      43.326 134.258  16.740  1.00  0.00     0.041 A 
ATOM     21  C   UNL     1      41.128 134.092  15.731  1.00  0.00     0.033 A 
ATOM     22  C   UNL     1      47.602 131.020  12.674  1.00  0.00     0.334 C 
ATOM     23  C   UNL     1      47.494 129.031  14.037  1.00  0.00     0.334 C 
ENDBRANCH   4   9
ENDBRANCH   2   3
ENDBRANCH   1   2
BRANCH   1  24
ATOM     24  N   UNL     1      40.856 136.059  22.374  1.00  0.00    -0.272 N 
ATOM     25  C   UNL     1      41.372 134.887  21.954  1.00  0.00     0.113 A 
ATOM     26  N   UNL     1      40.883 136.119  23.697  1.00  0.00    -0.181 NA
ATOM     27  C   UNL     1      41.764 134.177  23.068  1.00  0.00     0.004 A 
ATOM     28  C   UNL     1      41.437 134.976  24.147  1.00  0.00     0.140 A 
BRANCH  27  29
ATOM     29  C   UNL     1      42.267 132.764  23.114  1.00  0.00     0.116 C 
BRANCH  29  30
ATOM     30  N   UNL     1      42.345 132.283  24.492  1.00  0.00    -0.326 NA
ATOM     31  H   UNL     1      41.748 132.898  25.090  1.00  0.00     0.119 HD
ATOM     32  H   UNL     1      41.943 131.316  24.534  1.00  0.00     0.119 HD
ENDBRANCH  29  30
ENDBRANCH  27  29
ENDBRANCH   1  24
TORSDOF 6
ENDMDL
MODEL 6
REMARK VINA RESULT:      -5.5      3.992      5.418
REMARK SMILES C[N+]1(C)Cc2cc3ccc(-n4cc(CCn5cc(CN)cn5)n[nH+]4)cc3cc2C1
REMARK SMILES IDX 15 1 14 2 13 3 11 4 12 5 24 6 23 7 10 9 2 10 4 11 29 12 5 13
REMARK SMILES IDX 28 14 6 15 27 16 7 17 26 18 8 19 25 20 9 21 1 22 3 23 16 24
REMARK SMILES IDX 17 25 22 26 18 27 21 28 19 29 20 30
REMARK H PARENT 24 8 20 31 20 32
ROOT
ATOM      1  C   UNL     1      44.010 132.627  22.336  1.00  0.00     0.151 C 
ENDROOT
BRANCH   1   2
ATOM      2  C   UNL     1      44.093 131.527  21.271  1.00  0.00     0.088 C 
BRANCH   2   3
ATOM      3  C   UNL     1      43.583 132.007  19.945  1.00  0.00     0.134 A 
ATOM      4  N   UNL     1      42.265 132.736  18.366  1.00  0.00    -0.104 N 
ATOM      5  C   UNL     1      42.262 132.198  19.600  1.00  0.00     0.190 A 
ATOM      6  N   UNL     1      43.531 132.861  17.990  1.00  0.00    -0.012 N 
ATOM      7  N   UNL     1      44.361 132.439  18.934  1.00  0.00     0.020 NA
ATOM      8  H   UNL     1      43.852 133.280  17.089  1.00  0.00     0.527 HD
BRANCH   4   9
ATOM      9  C   UNL     1      41.118 133.138  17.591  1.00  0.00     0.107 A 
ATOM     10  N   UNL     1      37.731 136.144  12.066  1.00  0.00    -0.321 N 
ATOM     11  C   UNL     1      36.953 135.426  13.125  1.00  0.00     0.301 C 
ATOM     12  C   UNL     1      39.159 135.736  12.249  1.00  0.00     0.301 C 
ATOM     13  C   UNL     1      37.963 134.930  14.086  1.00  0.00     0.016 A 
ATOM     14  C   UNL     1      39.219 135.108  13.587  1.00  0.00     0.016 A 
ATOM     15  C   UNL     1      37.748 134.342  15.333  1.00  0.00     0.018 A 
ATOM     16  C   UNL     1      40.351 134.710  14.298  1.00  0.00     0.019 A 
ATOM     17  C   UNL     1      38.866 133.935  16.087  1.00  0.00    -0.018 A 
ATOM     18  C   UNL     1      40.177 134.123  15.567  1.00  0.00    -0.016 A 
ATOM     19  C   UNL     1      38.702 133.352  17.350  1.00  0.00     0.011 A 
ATOM     20  C   UNL     1      41.287 133.722  16.323  1.00  0.00     0.041 A 
ATOM     21  C   UNL     1      39.817 132.958  18.094  1.00  0.00     0.033 A 
ATOM     22  C   UNL     1      37.597 137.610  12.251  1.00  0.00     0.334 C 
ATOM     23  C   UNL     1      37.247 135.781  10.716  1.00  0.00     0.334 C 
ENDBRANCH   4   9
ENDBRANCH   2   3
ENDBRANCH   1   2
BRANCH   1  24
ATOM     24  N   UNL     1      44.967 133.700  22.066  1.00  0.00    -0.272 N 
ATOM     25  C   UNL     1      46.293 133.552  21.881  1.00  0.00     0.113 A 
ATOM     26  N   UNL     1      44.651 134.987  22.085  1.00  0.00    -0.181 NA
ATOM     27  C   UNL     1      46.843 134.810  21.756  1.00  0.00     0.004 A 
ATOM     28  C   UNL     1      45.786 135.688  21.895  1.00  0.00     0.140 A 
BRANCH  27  29
ATOM     29  C   UNL     1      48.300 135.160  21.673  1.00  0.00     0.116 C 
BRANCH  29  30
ATOM     30  N   UNL     1      49.115 134.171  22.376  1.00  0.00    -0.326 NA
ATOM     31  H   UNL     1      49.810 133.777  21.701  1.00  0.00     0.119 HD
ATOM     32  H   UNL     1      49.652 134.655  23.134  1.00  0.00     0.119 HD
ENDBRANCH  29  30
ENDBRANCH  27  29
ENDBRANCH   1  24
TORSDOF 6
ENDMDL
MODEL 7
REMARK VINA RESULT:      -5.5      3.612      8.126
REMARK SMILES C[N+]1(C)Cc2cc3ccc(-n4cc(CCn5cc(CN)cn5)n[nH+]4)cc3cc2C1
REMARK SMILES IDX 15 1 14 2 13 3 11 4 12 5 24 6 23 7 10 9 2 10 4 11 29 12 5 13
REMARK SMILES IDX 28 14 6 15 27 16 7 17 26 18 8 19 25 20 9 21 1 22 3 23 16 24
REMARK SMILES IDX 17 25 22 26 18 27 21 28 19 29 20 30
REMARK H PARENT 24 8 20 31 20 32
ROOT
ATOM      1  C   UNL     1      42.364 134.309  23.500  1.00  0.00     0.151 C 
ENDROOT
BRANCH   1   2
ATOM      2  C   UNL     1      41.649 135.374  22.660  1.00  0.00     0.088 C 
BRANCH   2   3
ATOM      3  C   UNL     1      41.333 134.867  21.285  1.00  0.00     0.134 A 
ATOM      4  N   UNL     1      41.529 133.975  19.302  1.00  0.00    -0.104 N 
ATOM      5  C   UNL     1      42.245 134.447  20.340  1.00  0.00     0.190 A 
ATOM      6  N   UNL     1      40.246 134.108  19.612  1.00  0.00    -0.012 N 
ATOM      7  N   UNL     1      40.090 134.635  20.819  1.00  0.00     0.020 NA
ATOM      8  H   UNL     1      39.449 133.797  19.015  1.00  0.00     0.527 HD
BRANCH   4   9
ATOM      9  C   UNL     1      42.042 133.400  18.084  1.00  0.00     0.107 A 
ATOM     10  N   UNL     1      46.971 130.378  13.890  1.00  0.00    -0.321 N 
ATOM     11  C   UNL     1      45.574 130.570  13.389  1.00  0.00     0.301 C 
ATOM     12  C   UNL     1      46.912 130.562  15.374  1.00  0.00     0.301 C 
ATOM     13  C   UNL     1      44.839 131.200  14.508  1.00  0.00     0.016 A 
ATOM     14  C   UNL     1      45.602 131.197  15.637  1.00  0.00     0.016 A 
ATOM     15  C   UNL     1      43.549 131.734  14.499  1.00  0.00     0.018 A 
ATOM     16  C   UNL     1      45.131 131.725  16.839  1.00  0.00     0.019 A 
ATOM     17  C   UNL     1      43.041 132.286  15.691  1.00  0.00    -0.018 A 
ATOM     18  C   UNL     1      43.839 132.283  16.869  1.00  0.00    -0.016 A 
ATOM     19  C   UNL     1      41.758 132.845  15.729  1.00  0.00     0.011 A 
ATOM     20  C   UNL     1      43.331 132.839  18.051  1.00  0.00     0.041 A 
ATOM     21  C   UNL     1      41.264 133.396  16.913  1.00  0.00     0.033 A 
ATOM     22  C   UNL     1      47.865 131.399  13.290  1.00  0.00     0.334 C 
ATOM     23  C   UNL     1      47.477 129.031  13.545  1.00  0.00     0.334 C 
ENDBRANCH   4   9
ENDBRANCH   2   3
ENDBRANCH   1   2
BRANCH   1  24
ATOM     24  N   UNL     1      43.761 134.163  23.093  1.00  0.00    -0.272 N 
ATOM     25  C   UNL     1      44.241 133.264  22.211  1.00  0.00     0.113 A 
ATOM     26  N   UNL     1      44.760 134.838  23.643  1.00  0.00    -0.181 NA
ATOM     27  C   UNL     1      45.613 133.391  22.186  1.00  0.00     0.004 A 
ATOM     28  C   UNL     1      45.907 134.383  23.101  1.00  0.00     0.140 A 
BRANCH  27  29
ATOM     29  C   UNL     1      46.593 132.517  21.461  1.00  0.00     0.116 C 
BRANCH  29  30
ATOM     30  N   UNL     1      45.905 131.441  20.748  1.00  0.00    -0.326 NA
ATOM     31  H   UNL     1      45.741 131.751  19.763  1.00  0.00     0.119 HD
ATOM     32  H   UNL     1      46.533 130.603  20.715  1.00  0.00     0.119 HD
ENDBRANCH  29  30
ENDBRANCH  27  29
ENDBRANCH   1  24
TORSDOF 6
ENDMDL
MODEL 8
REMARK VINA RESULT:      -5.5      4.398      9.130
REMARK SMILES C[N+]1(C)Cc2cc3ccc(-n4cc(CCn5cc(CN)cn5)n[nH+]4)cc3cc2C1
REMARK SMILES IDX 15 1 14 2 13 3 11 4 12 5 24 6 23 7 10 9 2 10 4 11 29 12 5 13
REMARK SMILES IDX 28 14 6 15 27 16 7 17 26 18 8 19 25 20 9 21 1 22 3 23 16 24
REMARK SMILES IDX 17 25 22 26 18 27 21 28 19 29 20 30
REMARK H PARENT 24 8 20 31 20 32
ROOT
ATOM      1  C   UNL     1      42.021 136.608  22.371  1.00  0.00     0.151 C 
ENDROOT
BRANCH   1   2
ATOM      2  C   UNL     1      40.913 136.946  21.366  1.00  0.00     0.088 C 
BRANCH   2   3
ATOM      3  C   UNL     1      41.342 136.657  19.959  1.00  0.00     0.134 A 
ATOM      4  N   UNL     1      41.918 135.603  18.136  1.00  0.00    -0.104 N 
ATOM      5  C   UNL     1      41.723 135.431  19.457  1.00  0.00     0.190 A 
ATOM      6  N   UNL     1      41.664 136.876  17.860  1.00  0.00    -0.012 N 
ATOM      7  N   UNL     1      41.297 137.544  18.945  1.00  0.00     0.020 NA
ATOM      8  H   UNL     1      41.697 137.302  16.908  1.00  0.00     0.527 HD
BRANCH   4   9
ATOM      9  C   UNL     1      42.300 134.598  17.176  1.00  0.00     0.107 A 
ATOM     10  N   UNL     1      46.847 130.346  13.674  1.00  0.00    -0.321 N 
ATOM     11  C   UNL     1      45.375 130.245  13.419  1.00  0.00     0.301 C 
ATOM     12  C   UNL     1      46.999 131.127  14.941  1.00  0.00     0.301 C 
ATOM     13  C   UNL     1      44.753 131.248  14.311  1.00  0.00     0.016 A 
ATOM     14  C   UNL     1      45.678 131.751  15.176  1.00  0.00     0.016 A 
ATOM     15  C   UNL     1      43.422 131.666  14.339  1.00  0.00     0.018 A 
ATOM     16  C   UNL     1      45.340 132.707  16.133  1.00  0.00     0.019 A 
ATOM     17  C   UNL     1      43.042 132.639  15.285  1.00  0.00    -0.018 A 
ATOM     18  C   UNL     1      44.009 133.165  16.187  1.00  0.00    -0.016 A 
ATOM     19  C   UNL     1      41.722 133.100  15.343  1.00  0.00     0.011 A 
ATOM     20  C   UNL     1      43.628 134.137  17.122  1.00  0.00     0.041 A 
ATOM     21  C   UNL     1      41.355 134.071  16.279  1.00  0.00     0.033 A 
ATOM     22  C   UNL     1      47.503 131.066  12.555  1.00  0.00     0.334 C 
ATOM     23  C   UNL     1      47.455 129.003  13.806  1.00  0.00     0.334 C 
ENDBRANCH   4   9
ENDBRANCH   2   3
ENDBRANCH   1   2
BRANCH   1  24
ATOM     24  N   UNL     1      43.069 137.628  22.367  1.00  0.00    -0.272 N 
ATOM     25  C   UNL     1      44.384 137.415  22.170  1.00  0.00     0.113 A 
ATOM     26  N   UNL     1      42.856 138.899  22.678  1.00  0.00    -0.181 NA
ATOM     27  C   UNL     1      45.036 138.617  22.345  1.00  0.00     0.004 A 
ATOM     28  C   UNL     1      44.049 139.526  22.670  1.00  0.00     0.140 A 
BRANCH  27  29
ATOM     29  C   UNL     1      46.518 138.852  22.363  1.00  0.00     0.116 C 
BRANCH  29  30
ATOM     30  N   UNL     1      47.205 137.797  23.105  1.00  0.00    -0.326 NA
ATOM     31  H   UNL     1      46.891 136.872  22.730  1.00  0.00     0.119 HD
ATOM     32  H   UNL     1      48.234 137.875  22.927  1.00  0.00     0.119 HD
ENDBRANCH  29  30
ENDBRANCH  27  29
ENDBRANCH   1  24
TORSDOF 6
ENDMDL
MODEL 9
REMARK VINA RESULT:      -5.4      4.034      9.200
REMARK SMILES C[N+]1(C)Cc2cc3ccc(-n4cc(CCn5cc(CN)cn5)n[nH+]4)cc3cc2C1
REMARK SMILES IDX 15 1 14 2 13 3 11 4 12 5 24 6 23 7 10 9 2 10 4 11 29 12 5 13
REMARK SMILES IDX 28 14 6 15 27 16 7 17 26 18 8 19 25 20 9 21 1 22 3 23 16 24
REMARK SMILES IDX 17 25 22 26 18 27 21 28 19 29 20 30
REMARK H PARENT 24 8 20 31 20 32
ROOT
ATOM      1  C   UNL     1      40.301 135.263  22.833  1.00  0.00     0.151 C 
ENDROOT
BRANCH   1   2
ATOM      2  C   UNL     1      39.386 135.679  21.674  1.00  0.00     0.088 C 
BRANCH   2   3
ATOM      3  C   UNL     1      40.120 135.673  20.367  1.00  0.00     0.134 A 
ATOM      4  N   UNL     1      41.074 135.002  18.522  1.00  0.00    -0.104 N 
ATOM      5  C   UNL     1      40.576 134.560  19.692  1.00  0.00     0.190 A 
ATOM      6  N   UNL     1      40.922 136.320  18.497  1.00  0.00    -0.012 N 
ATOM      7  N   UNL     1      40.331 136.760  19.599  1.00  0.00     0.020 NA
ATOM      8  H   UNL     1      41.183 136.940  17.699  1.00  0.00     0.527 HD
BRANCH   4   9
ATOM      9  C   UNL     1      41.642 134.204  17.464  1.00  0.00     0.107 A 
ATOM     10  N   UNL     1      46.758 130.462  14.171  1.00  0.00    -0.321 N 
ATOM     11  C   UNL     1      45.386 130.543  13.577  1.00  0.00     0.301 C 
ATOM     12  C   UNL     1      46.629 130.930  15.586  1.00  0.00     0.301 C 
ATOM     13  C   UNL     1      44.601 131.373  14.517  1.00  0.00     0.016 A 
ATOM     14  C   UNL     1      45.310 131.595  15.660  1.00  0.00     0.016 A 
ATOM     15  C   UNL     1      43.314 131.886  14.344  1.00  0.00     0.018 A 
ATOM     16  C   UNL     1      44.784 132.342  16.713  1.00  0.00     0.019 A 
ATOM     17  C   UNL     1      42.751 132.655  15.382  1.00  0.00    -0.018 A 
ATOM     18  C   UNL     1      43.492 132.886  16.574  1.00  0.00    -0.016 A 
ATOM     19  C   UNL     1      41.468 133.201  15.250  1.00  0.00     0.011 A 
ATOM     20  C   UNL     1      42.930 133.657  17.601  1.00  0.00     0.041 A 
ATOM     21  C   UNL     1      40.920 133.968  16.281  1.00  0.00     0.033 A 
ATOM     22  C   UNL     1      47.681 131.354  13.426  1.00  0.00     0.334 C 
ATOM     23  C   UNL     1      47.277 129.077  14.118  1.00  0.00     0.334 C 
ENDBRANCH   4   9
ENDBRANCH   2   3
ENDBRANCH   1   2
BRANCH   1  24
ATOM     24  N   UNL     1      41.320 136.279  23.094  1.00  0.00    -0.272 N 
ATOM     25  C   UNL     1      42.654 136.104  23.014  1.00  0.00     0.113 A 
ATOM     26  N   UNL     1      41.048 137.489  23.562  1.00  0.00    -0.181 NA
ATOM     27  C   UNL     1      43.257 137.270  23.434  1.00  0.00     0.004 A 
ATOM     28  C   UNL     1      42.221 138.117  23.776  1.00  0.00     0.140 A 
BRANCH  27  29
ATOM     29  C   UNL     1      44.722 137.508  23.649  1.00  0.00     0.116 C 
BRANCH  29  30
ATOM     30  N   UNL     1      45.524 136.608  22.823  1.00  0.00    -0.326 NA
ATOM     31  H   UNL     1      44.902 135.848  22.464  1.00  0.00     0.119 HD
ATOM     32  H   UNL     1      45.881 137.139  21.994  1.00  0.00     0.119 HD
ENDBRANCH  29  30
ENDBRANCH  27  29
ENDBRANCH   1  24
TORSDOF 6
ENDMDL


