REMARK SMILES C#CCOC(=O)C[C@@H]1CC[C@H]2C(=O)[N-]c3c(N=[N+]=[N-])cc(Cl)c1c32
REMARK SMILES IDX 5 1 6 2 4 3 3 4 2 5 1 6 7 7 8 8 23 9 9 10 21 11 24 12 10 13
REMARK SMILES IDX 20 14 15 15 11 16 16 17 14 18 12 19 22 20 13 21 17 22 18 23
REMARK SMILES IDX 19 24
REMARK H PARENT
ROOT
ATOM      1  C   UNL     1       0.101   2.341   0.515  1.00  0.00     0.307 C 
ATOM      2  O   UNL     1      -0.463   2.502  -0.602  1.00  0.00    -0.252 OA
ENDROOT
BRANCH   1   3
ATOM      3  O   UNL     1      -0.160   3.209   1.578  1.00  0.00    -0.452 OA
BRANCH   3   4
ATOM      4  C   UNL     1      -1.040   4.320   1.462  1.00  0.00     0.322 C 
BRANCH   4   5
ATOM      5  C   UNL     1      -1.125   5.006   2.751  1.00  0.00    -0.065 C 
ATOM      6  C   UNL     1      -1.196   5.571   3.814  1.00  0.00     0.007 C 
ENDBRANCH   4   5
ENDBRANCH   3   4
ENDBRANCH   1   3
BRANCH   1   7
ATOM      7  C   UNL     1       1.033   1.186   0.719  1.00  0.00     0.131 C 
BRANCH   7   8
ATOM      8  C   UNL     1       0.346   0.001   1.435  1.00  0.00     0.032 C 
ATOM      9  C   UNL     1      -0.807  -0.534   0.600  1.00  0.00    -0.023 A 
ATOM     10  C   UNL     1       1.394  -1.125   1.766  1.00  0.00     0.010 C 
ATOM     11  C   UNL     1      -2.170  -0.205   0.795  1.00  0.00     0.045 A 
ATOM     12  C   UNL     1      -0.497  -1.460  -0.387  1.00  0.00    -0.048 A 
ATOM     13  C   UNL     1       1.394  -2.376   0.835  1.00  0.00     0.015 C 
ATOM     14  C   UNL     1      -3.166  -0.868   0.042  1.00  0.00     0.029 A 
ATOM     15  C   UNL     1      -1.464  -2.174  -1.051  1.00  0.00    -0.120 A 
ATOM     16  C   UNL     1       0.841  -2.061  -0.559  1.00  0.00     0.066 C 
ATOM     17  C   UNL     1      -2.818  -1.891  -0.872  1.00  0.00     0.025 A 
ATOM     18  N   UNL     1      -0.928  -3.311  -1.712  1.00  0.00    -0.626 NA
ATOM     19  C   UNL     1       0.461  -3.263  -1.376  1.00  0.00     0.062 C 
ATOM     20  Cl  UNL     1      -2.679   0.967   2.004  1.00  0.00    -0.084 Cl
ATOM     21  O   UNL     1       1.281  -4.137  -1.761  1.00  0.00    -0.320 OA
BRANCH  17  22
ATOM     22  N   UNL     1      -3.805  -2.661  -1.572  1.00  0.00    -0.062 NA
BRANCH  22  23
ATOM     23  N   UNL     1      -5.012  -2.459  -1.435  1.00  0.00     0.005 N 
ATOM     24  N   UNL     1      -6.218  -2.259  -1.300  1.00  0.00    -0.003 NA
ENDBRANCH  22  23
ENDBRANCH  17  22
ENDBRANCH   7   8
ENDBRANCH   1   7
TORSDOF 7


