MODEL 1
REMARK VINA RESULT:      -6.4      0.000      0.000
REMARK SMILES CC[C@H]1C[C@]1([NH3+])C(=O)Oc1ccccc(O)c(NC2(CF)COC2)c(N=[N+]=[N-])c(Cl)c1Cl
REMARK SMILES IDX 15 1 14 2 13 3 12 4 11 5 10 6 31 7 32 8 29 9 30 10 25 11
REMARK SMILES IDX 17 12 16 13 18 15 19 17 22 18 24 19 23 20 20 21 21 22 26 23
REMARK SMILES IDX 27 24 28 25 9 26 7 27 8 28 5 29 4 30 3 31 6 32 2 36 1 37
REMARK H PARENT 16 14 18 16 6 33 6 34 6 35
ROOT
ATOM      1  C   UNL     1      42.203 135.938  15.139  1.00  0.00     0.139 A 
ATOM      2  C   UNL     1      41.380 135.425  14.107  1.00  0.00     0.048 A 
ATOM      3  C   UNL     1      40.744 134.168  14.098  1.00  0.00     0.004 A 
ATOM      4  C   UNL     1      41.122 133.083  14.894  1.00  0.00     0.004 A 
ATOM      5  C   UNL     1      42.438 132.903  15.324  1.00  0.00     0.049 A 
ATOM      6  C   UNL     1      42.779 132.481  16.620  1.00  0.00     0.151 A 
ATOM      7  C   UNL     1      41.975 132.737  17.754  1.00  0.00     0.102 A 
ATOM      8  Cl  UNL     1      42.234 131.676  19.142  1.00  0.00    -0.079 Cl
ATOM      9  C   UNL     1      41.031 133.796  17.881  1.00  0.00     0.075 A 
ATOM     10  Cl  UNL     1      39.858 133.707  19.200  1.00  0.00    -0.082 Cl
ATOM     11  C   UNL     1      40.997 134.947  17.050  1.00  0.00     0.085 A 
ATOM     12  C   UNL     1      42.166 135.497  16.484  1.00  0.00     0.088 A 
ENDROOT
BRANCH   1  13
ATOM     13  O   UNL     1      43.113 136.943  14.815  1.00  0.00    -0.506 OA
ATOM     14  H   UNL     1      43.806 137.272  15.477  1.00  0.00     0.293 HD
ENDBRANCH   1  13
BRANCH  12  15
ATOM     15  N   UNL     1      43.345 135.677  17.291  1.00  0.00    -0.369 N 
ATOM     16  H   UNL     1      44.237 135.292  16.904  1.00  0.00     0.161 HD
BRANCH  15  17
ATOM     17  C   UNL     1      43.421 136.664  18.383  1.00  0.00     0.113 C 
ATOM     18  C   UNL     1      44.634 137.568  18.301  1.00  0.00     0.193 C 
ATOM     19  C   UNL     1      42.670 137.952  18.087  1.00  0.00     0.193 C 
ATOM     20  O   UNL     1      43.853 138.713  18.051  1.00  0.00    -0.376 OA
BRANCH  17  21
ATOM     21  C   UNL     1      43.129 136.091  19.783  1.00  0.00     0.247 C 
ATOM     22  F   UNL     1      43.601 134.794  19.868  1.00  0.00    -0.248 F 
ENDBRANCH  17  21
ENDBRANCH  15  17
ENDBRANCH  12  15
BRANCH  11  23
ATOM     23  N   UNL     1      39.750 135.589  16.729  1.00  0.00    -0.057 NA
BRANCH  23  24
ATOM     24  N   UNL     1      39.349 136.597  17.313  1.00  0.00     0.005 N 
ATOM     25  N   UNL     1      38.946 137.606  17.891  1.00  0.00    -0.003 NA
ENDBRANCH  23  24
ENDBRANCH  11  23
BRANCH   6  26
ATOM     26  O   UNL     1      44.019 131.861  16.848  1.00  0.00    -0.420 OA
BRANCH  26  27
ATOM     27  C   UNL     1      45.142 131.948  16.015  1.00  0.00     0.373 C 
ATOM     28  O   UNL     1      45.670 133.060  15.742  1.00  0.00    -0.244 OA
BRANCH  27  29
ATOM     29  C   UNL     1      45.721 130.695  15.432  1.00  0.00     0.196 C 
ATOM     30  C   UNL     1      44.771 129.797  14.639  1.00  0.00     0.092 C 
ATOM     31  C   UNL     1      45.814 130.644  13.905  1.00  0.00     0.069 C 
BRANCH  29  32
ATOM     32  N   UNL     1      46.772 130.017  16.205  1.00  0.00    -0.343 N 
ATOM     33  H   UNL     1      47.733 130.253  15.872  1.00  0.00     0.345 HD
ATOM     34  H   UNL     1      46.677 130.271  17.214  1.00  0.00     0.345 HD
ATOM     35  H   UNL     1      46.653 128.982  16.114  1.00  0.00     0.345 HD
ENDBRANCH  29  32
BRANCH  31  36
ATOM     36  C   UNL     1      46.974 129.856  13.271  1.00  0.00     0.007 C 
ATOM     37  C   UNL     1      47.396 130.502  11.956  1.00  0.00     0.004 C 
ENDBRANCH  31  36
ENDBRANCH  27  29
ENDBRANCH  26  27
ENDBRANCH   6  26
TORSDOF 11
ENDMDL
MODEL 2
REMARK VINA RESULT:      -6.2      1.439      1.727
REMARK SMILES CC[C@H]1C[C@]1([NH3+])C(=O)Oc1ccccc(O)c(NC2(CF)COC2)c(N=[N+]=[N-])c(Cl)c1Cl
REMARK SMILES IDX 15 1 14 2 13 3 12 4 11 5 10 6 31 7 32 8 29 9 30 10 25 11
REMARK SMILES IDX 17 12 16 13 18 15 19 17 22 18 24 19 23 20 20 21 21 22 26 23
REMARK SMILES IDX 27 24 28 25 9 26 7 27 8 28 5 29 4 30 3 31 6 32 2 36 1 37
REMARK H PARENT 16 14 18 16 6 33 6 34 6 35
ROOT
ATOM      1  C   UNL     1      42.498 135.951  15.282  1.00  0.00     0.139 A 
ATOM      2  C   UNL     1      41.635 135.245  14.409  1.00  0.00     0.048 A 
ATOM      3  C   UNL     1      41.168 133.928  14.586  1.00  0.00     0.004 A 
ATOM      4  C   UNL     1      41.769 132.980  15.418  1.00  0.00     0.004 A 
ATOM      5  C   UNL     1      43.138 132.998  15.693  1.00  0.00     0.049 A 
ATOM      6  C   UNL     1      43.676 132.751  16.966  1.00  0.00     0.151 A 
ATOM      7  C   UNL     1      42.981 133.023  18.167  1.00  0.00     0.102 A 
ATOM      8  Cl  UNL     1      43.531 132.143  19.596  1.00  0.00    -0.079 Cl
ATOM      9  C   UNL     1      41.931 133.972  18.321  1.00  0.00     0.075 A 
ATOM     10  Cl  UNL     1      40.937 133.878  19.780  1.00  0.00    -0.082 Cl
ATOM     11  C   UNL     1      41.655 135.022  17.406  1.00  0.00     0.085 A 
ATOM     12  C   UNL     1      42.672 135.645  16.653  1.00  0.00     0.088 A 
ENDROOT
BRANCH   1  13
ATOM     13  O   UNL     1      43.229 137.019  14.761  1.00  0.00    -0.506 OA
ATOM     14  H   UNL     1      44.019 136.876  14.142  1.00  0.00     0.293 HD
ENDBRANCH   1  13
BRANCH  12  15
ATOM     15  N   UNL     1      43.902 136.041  17.287  1.00  0.00    -0.369 N 
ATOM     16  H   UNL     1      44.786 135.750  16.810  1.00  0.00     0.161 HD
BRANCH  15  17
ATOM     17  C   UNL     1      43.970 137.109  18.301  1.00  0.00     0.113 C 
ATOM     18  C   UNL     1      43.885 136.601  19.725  1.00  0.00     0.193 C 
ATOM     19  C   UNL     1      45.390 137.468  18.707  1.00  0.00     0.193 C 
ATOM     20  O   UNL     1      45.207 136.987  20.017  1.00  0.00    -0.376 OA
BRANCH  17  21
ATOM     21  C   UNL     1      43.091 138.337  17.993  1.00  0.00     0.247 C 
ATOM     22  F   UNL     1      43.344 139.339  18.912  1.00  0.00    -0.248 F 
ENDBRANCH  17  21
ENDBRANCH  15  17
ENDBRANCH  12  15
BRANCH  11  23
ATOM     23  N   UNL     1      40.307 135.479  17.192  1.00  0.00    -0.057 NA
BRANCH  23  24
ATOM     24  N   UNL     1      39.893 136.558  17.618  1.00  0.00     0.005 N 
ATOM     25  N   UNL     1      39.479 137.634  18.049  1.00  0.00    -0.003 NA
ENDBRANCH  23  24
ENDBRANCH  11  23
BRANCH   6  26
ATOM     26  O   UNL     1      45.003 132.305  17.088  1.00  0.00    -0.420 OA
BRANCH  26  27
ATOM     27  C   UNL     1      45.458 131.007  16.823  1.00  0.00     0.373 C 
ATOM     28  O   UNL     1      45.683 130.189  17.755  1.00  0.00    -0.244 OA
BRANCH  27  29
ATOM     29  C   UNL     1      45.691 130.588  15.404  1.00  0.00     0.196 C 
ATOM     30  C   UNL     1      46.460 131.562  14.510  1.00  0.00     0.092 C 
ATOM     31  C   UNL     1      47.142 130.288  15.019  1.00  0.00     0.069 C 
BRANCH  29  32
ATOM     32  N   UNL     1      44.634 129.798  14.754  1.00  0.00    -0.343 N 
ATOM     33  H   UNL     1      43.680 130.032  15.107  1.00  0.00     0.345 HD
ATOM     34  H   UNL     1      44.675 129.950  13.721  1.00  0.00     0.345 HD
ATOM     35  H   UNL     1      44.798 128.782  14.942  1.00  0.00     0.345 HD
ENDBRANCH  29  32
BRANCH  31  36
ATOM     36  C   UNL     1      47.407 129.212  13.952  1.00  0.00     0.007 C 
ATOM     37  C   UNL     1      47.879 129.857  12.654  1.00  0.00     0.004 C 
ENDBRANCH  31  36
ENDBRANCH  27  29
ENDBRANCH  26  27
ENDBRANCH   6  26
TORSDOF 11
ENDMDL
MODEL 3
REMARK VINA RESULT:      -6.2      1.834      2.567
REMARK SMILES CC[C@H]1C[C@]1([NH3+])C(=O)Oc1ccccc(O)c(NC2(CF)COC2)c(N=[N+]=[N-])c(Cl)c1Cl
REMARK SMILES IDX 15 1 14 2 13 3 12 4 11 5 10 6 31 7 32 8 29 9 30 10 25 11
REMARK SMILES IDX 17 12 16 13 18 15 19 17 22 18 24 19 23 20 20 21 21 22 26 23
REMARK SMILES IDX 27 24 28 25 9 26 7 27 8 28 5 29 4 30 3 31 6 32 2 36 1 37
REMARK H PARENT 16 14 18 16 6 33 6 34 6 35
ROOT
ATOM      1  C   UNL     1      43.711 136.185  17.405  1.00  0.00     0.139 A 
ATOM      2  C   UNL     1      43.294 136.655  16.135  1.00  0.00     0.048 A 
ATOM      3  C   UNL     1      42.372 136.025  15.278  1.00  0.00     0.004 A 
ATOM      4  C   UNL     1      42.019 134.674  15.348  1.00  0.00     0.004 A 
ATOM      5  C   UNL     1      42.899 133.703  15.831  1.00  0.00     0.049 A 
ATOM      6  C   UNL     1      42.505 132.653  16.675  1.00  0.00     0.151 A 
ATOM      7  C   UNL     1      41.415 132.745  17.571  1.00  0.00     0.102 A 
ATOM      8  Cl  UNL     1      40.716 131.212  18.101  1.00  0.00    -0.079 Cl
ATOM      9  C   UNL     1      40.884 133.952  18.110  1.00  0.00     0.075 A 
ATOM     10  Cl  UNL     1      39.295 133.885  18.882  1.00  0.00    -0.082 Cl
ATOM     11  C   UNL     1      41.564 135.198  18.115  1.00  0.00     0.085 A 
ATOM     12  C   UNL     1      42.969 135.284  18.206  1.00  0.00     0.088 A 
ENDROOT
BRANCH   1  13
ATOM     13  O   UNL     1      44.932 136.637  17.904  1.00  0.00    -0.506 OA
ATOM     14  H   UNL     1      45.803 136.161  17.699  1.00  0.00     0.293 HD
ENDBRANCH   1  13
BRANCH  12  15
ATOM     15  N   UNL     1      43.681 134.488  19.171  1.00  0.00    -0.369 N 
ATOM     16  H   UNL     1      44.503 133.949  18.813  1.00  0.00     0.161 HD
BRANCH  15  17
ATOM     17  C   UNL     1      43.555 134.693  20.625  1.00  0.00     0.113 C 
ATOM     18  C   UNL     1      42.569 133.754  21.288  1.00  0.00     0.193 C 
ATOM     19  C   UNL     1      44.570 133.907  21.438  1.00  0.00     0.193 C 
ATOM     20  O   UNL     1      43.577 133.095  22.017  1.00  0.00    -0.376 OA
BRANCH  17  21
ATOM     21  C   UNL     1      43.437 136.169  21.053  1.00  0.00     0.247 C 
ATOM     22  F   UNL     1      42.684 136.265  22.209  1.00  0.00    -0.248 F 
ENDBRANCH  17  21
ENDBRANCH  15  17
ENDBRANCH  12  15
BRANCH  11  23
ATOM     23  N   UNL     1      40.838 136.435  18.000  1.00  0.00    -0.057 NA
BRANCH  23  24
ATOM     24  N   UNL     1      40.627 137.177  18.961  1.00  0.00     0.005 N 
ATOM     25  N   UNL     1      40.412 137.919  19.919  1.00  0.00    -0.003 NA
ENDBRANCH  23  24
ENDBRANCH  11  23
BRANCH   6  26
ATOM     26  O   UNL     1      43.271 131.476  16.727  1.00  0.00    -0.420 OA
BRANCH  26  27
ATOM     27  C   UNL     1      44.647 131.406  16.983  1.00  0.00     0.373 C 
ATOM     28  O   UNL     1      45.147 131.918  18.020  1.00  0.00    -0.244 OA
BRANCH  27  29
ATOM     29  C   UNL     1      45.541 130.716  15.998  1.00  0.00     0.196 C 
ATOM     30  C   UNL     1      44.900 130.245  14.692  1.00  0.00     0.092 C 
ATOM     31  C   UNL     1      45.817 131.471  14.695  1.00  0.00     0.069 C 
BRANCH  29  32
ATOM     32  N   UNL     1      46.616 129.874  16.542  1.00  0.00    -0.343 N 
ATOM     33  H   UNL     1      46.256 129.015  17.013  1.00  0.00     0.345 HD
ATOM     34  H   UNL     1      47.268 129.606  15.771  1.00  0.00     0.345 HD
ATOM     35  H   UNL     1      47.156 130.420  17.253  1.00  0.00     0.345 HD
ENDBRANCH  29  32
BRANCH  31  36
ATOM     36  C   UNL     1      47.183 131.275  14.013  1.00  0.00     0.007 C 
ATOM     37  C   UNL     1      47.005 130.605  12.656  1.00  0.00     0.004 C 
ENDBRANCH  31  36
ENDBRANCH  27  29
ENDBRANCH  26  27
ENDBRANCH   6  26
TORSDOF 11
ENDMDL
MODEL 4
REMARK VINA RESULT:      -6.1      2.244      3.332
REMARK SMILES CC[C@H]1C[C@]1([NH3+])C(=O)Oc1ccccc(O)c(NC2(CF)COC2)c(N=[N+]=[N-])c(Cl)c1Cl
REMARK SMILES IDX 15 1 14 2 13 3 12 4 11 5 10 6 31 7 32 8 29 9 30 10 25 11
REMARK SMILES IDX 17 12 16 13 18 15 19 17 22 18 24 19 23 20 20 21 21 22 26 23
REMARK SMILES IDX 27 24 28 25 9 26 7 27 8 28 5 29 4 30 3 31 6 32 2 36 1 37
REMARK H PARENT 16 14 18 16 6 33 6 34 6 35
ROOT
ATOM      1  C   UNL     1      42.460 136.769  18.185  1.00  0.00     0.139 A 
ATOM      2  C   UNL     1      42.575 137.968  17.439  1.00  0.00     0.048 A 
ATOM      3  C   UNL     1      42.534 138.081  16.036  1.00  0.00     0.004 A 
ATOM      4  C   UNL     1      42.765 137.027  15.148  1.00  0.00     0.004 A 
ATOM      5  C   UNL     1      43.596 135.953  15.475  1.00  0.00     0.049 A 
ATOM      6  C   UNL     1      43.295 134.618  15.161  1.00  0.00     0.151 A 
ATOM      7  C   UNL     1      41.974 134.130  15.033  1.00  0.00     0.102 A 
ATOM      8  Cl  UNL     1      41.783 132.646  14.095  1.00  0.00    -0.079 Cl
ATOM      9  C   UNL     1      40.816 134.701  15.635  1.00  0.00     0.075 A 
ATOM     10  Cl  UNL     1      39.234 134.189  15.037  1.00  0.00    -0.082 Cl
ATOM     11  C   UNL     1      40.843 135.619  16.718  1.00  0.00     0.085 A 
ATOM     12  C   UNL     1      41.852 135.585  17.704  1.00  0.00     0.088 A 
ENDROOT
BRANCH   1  13
ATOM     13  O   UNL     1      42.980 136.748  19.478  1.00  0.00    -0.506 OA
ATOM     14  H   UNL     1      42.516 136.258  20.234  1.00  0.00     0.293 HD
ENDBRANCH   1  13
BRANCH  12  15
ATOM     15  N   UNL     1      42.247 134.331  18.291  1.00  0.00    -0.369 N 
ATOM     16  H   UNL     1      43.274 134.166  18.387  1.00  0.00     0.161 HD
BRANCH  15  17
ATOM     17  C   UNL     1      41.324 133.492  19.078  1.00  0.00     0.113 C 
ATOM     18  C   UNL     1      41.821 133.189  20.476  1.00  0.00     0.193 C 
ATOM     19  C   UNL     1      40.268 134.292  19.824  1.00  0.00     0.193 C 
ATOM     20  O   UNL     1      40.792 133.936  21.081  1.00  0.00    -0.376 OA
BRANCH  17  21
ATOM     21  C   UNL     1      40.752 132.283  18.313  1.00  0.00     0.247 C 
ATOM     22  F   UNL     1      41.772 131.609  17.667  1.00  0.00    -0.248 F 
ENDBRANCH  17  21
ENDBRANCH  15  17
ENDBRANCH  12  15
BRANCH  11  23
ATOM     23  N   UNL     1      39.844 136.648  16.839  1.00  0.00    -0.057 NA
BRANCH  23  24
ATOM     24  N   UNL     1      39.263 137.131  15.866  1.00  0.00     0.005 N 
ATOM     25  N   UNL     1      38.687 137.617  14.893  1.00  0.00    -0.003 NA
ENDBRANCH  23  24
ENDBRANCH  11  23
BRANCH   6  26
ATOM     26  O   UNL     1      44.331 133.674  15.062  1.00  0.00    -0.420 OA
BRANCH  26  27
ATOM     27  C   UNL     1      44.692 132.747  16.048  1.00  0.00     0.373 C 
ATOM     28  O   UNL     1      44.613 133.032  17.274  1.00  0.00    -0.244 OA
BRANCH  27  29
ATOM     29  C   UNL     1      45.188 131.395  15.638  1.00  0.00     0.196 C 
ATOM     30  C   UNL     1      44.288 130.579  14.708  1.00  0.00     0.092 C 
ATOM     31  C   UNL     1      45.560 131.234  14.161  1.00  0.00     0.069 C 
BRANCH  29  32
ATOM     32  N   UNL     1      45.968 130.636  16.626  1.00  0.00    -0.343 N 
ATOM     33  H   UNL     1      45.366 130.134  17.316  1.00  0.00     0.345 HD
ATOM     34  H   UNL     1      46.582 129.952  16.129  1.00  0.00     0.345 HD
ATOM     35  H   UNL     1      46.579 131.295  17.162  1.00  0.00     0.345 HD
ENDBRANCH  29  32
BRANCH  31  36
ATOM     36  C   UNL     1      46.696 130.262  13.796  1.00  0.00     0.007 C 
ATOM     37  C   UNL     1      47.839 131.013  13.124  1.00  0.00     0.004 C 
ENDBRANCH  31  36
ENDBRANCH  27  29
ENDBRANCH  26  27
ENDBRANCH   6  26
TORSDOF 11
ENDMDL
MODEL 5
REMARK VINA RESULT:      -6.0      1.476      1.719
REMARK SMILES CC[C@H]1C[C@]1([NH3+])C(=O)Oc1ccccc(O)c(NC2(CF)COC2)c(N=[N+]=[N-])c(Cl)c1Cl
REMARK SMILES IDX 15 1 14 2 13 3 12 4 11 5 10 6 31 7 32 8 29 9 30 10 25 11
REMARK SMILES IDX 17 12 16 13 18 15 19 17 22 18 24 19 23 20 20 21 21 22 26 23
REMARK SMILES IDX 27 24 28 25 9 26 7 27 8 28 5 29 4 30 3 31 6 32 2 36 1 37
REMARK H PARENT 16 14 18 16 6 33 6 34 6 35
ROOT
ATOM      1  C   UNL     1      42.471 136.150  15.686  1.00  0.00     0.139 A 
ATOM      2  C   UNL     1      41.540 135.542  14.809  1.00  0.00     0.048 A 
ATOM      3  C   UNL     1      41.091 134.208  14.867  1.00  0.00     0.004 A 
ATOM      4  C   UNL     1      41.761 133.175  15.528  1.00  0.00     0.004 A 
ATOM      5  C   UNL     1      43.148 133.177  15.690  1.00  0.00     0.049 A 
ATOM      6  C   UNL     1      43.790 132.786  16.877  1.00  0.00     0.151 A 
ATOM      7  C   UNL     1      43.196 132.907  18.155  1.00  0.00     0.102 A 
ATOM      8  Cl  UNL     1      43.864 131.871  19.419  1.00  0.00    -0.079 Cl
ATOM      9  C   UNL     1      42.160 133.819  18.506  1.00  0.00     0.075 A 
ATOM     10  Cl  UNL     1      41.291 133.542  20.020  1.00  0.00    -0.082 Cl
ATOM     11  C   UNL     1      41.808 134.967  17.748  1.00  0.00     0.085 A 
ATOM     12  C   UNL     1      42.758 135.686  16.992  1.00  0.00     0.088 A 
ENDROOT
BRANCH   1  13
ATOM     13  O   UNL     1      43.155 137.280  15.238  1.00  0.00    -0.506 OA
ATOM     14  H   UNL     1      43.700 137.860  15.866  1.00  0.00     0.293 HD
ENDBRANCH   1  13
BRANCH  12  15
ATOM     15  N   UNL     1      44.036 136.018  17.566  1.00  0.00    -0.369 N 
ATOM     16  H   UNL     1      44.879 135.644  17.073  1.00  0.00     0.161 HD
BRANCH  15  17
ATOM     17  C   UNL     1      44.217 137.121  18.528  1.00  0.00     0.113 C 
ATOM     18  C   UNL     1      43.078 138.120  18.528  1.00  0.00     0.193 C 
ATOM     19  C   UNL     1      43.694 136.802  19.919  1.00  0.00     0.193 C 
ATOM     20  O   UNL     1      42.678 137.772  19.832  1.00  0.00    -0.376 OA
BRANCH  17  21
ATOM     21  C   UNL     1      45.628 137.741  18.529  1.00  0.00     0.247 C 
ATOM     22  F   UNL     1      45.540 139.110  18.360  1.00  0.00    -0.248 F 
ENDBRANCH  17  21
ENDBRANCH  15  17
ENDBRANCH  12  15
BRANCH  11  23
ATOM     23  N   UNL     1      40.447 135.430  17.700  1.00  0.00    -0.057 NA
BRANCH  23  24
ATOM     24  N   UNL     1      39.992 136.249  18.501  1.00  0.00     0.005 N 
ATOM     25  N   UNL     1      39.543 137.067  19.302  1.00  0.00    -0.003 NA
ENDBRANCH  23  24
ENDBRANCH  11  23
BRANCH   6  26
ATOM     26  O   UNL     1      45.123 132.345  16.836  1.00  0.00    -0.420 OA
BRANCH  26  27
ATOM     27  C   UNL     1      45.541 131.015  16.698  1.00  0.00     0.373 C 
ATOM     28  O   UNL     1      45.570 130.233  17.686  1.00  0.00    -0.244 OA
BRANCH  27  29
ATOM     29  C   UNL     1      45.969 130.517  15.352  1.00  0.00     0.196 C 
ATOM     30  C   UNL     1      45.205 131.051  14.140  1.00  0.00     0.092 C 
ATOM     31  C   UNL     1      46.625 131.548  14.429  1.00  0.00     0.069 C 
BRANCH  29  32
ATOM     32  N   UNL     1      46.441 129.127  15.268  1.00  0.00    -0.343 N 
ATOM     33  H   UNL     1      47.410 129.052  14.888  1.00  0.00     0.345 HD
ATOM     34  H   UNL     1      46.399 128.690  16.217  1.00  0.00     0.345 HD
ATOM     35  H   UNL     1      45.811 128.587  14.632  1.00  0.00     0.345 HD
ENDBRANCH  29  32
BRANCH  31  36
ATOM     36  C   UNL     1      47.705 131.065  13.446  1.00  0.00     0.007 C 
ATOM     37  C   UNL     1      47.062 130.560  12.159  1.00  0.00     0.004 C 
ENDBRANCH  31  36
ENDBRANCH  27  29
ENDBRANCH  26  27
ENDBRANCH   6  26
TORSDOF 11
ENDMDL
MODEL 6
REMARK VINA RESULT:      -5.9      2.287      3.267
REMARK SMILES CC[C@H]1C[C@]1([NH3+])C(=O)Oc1ccccc(O)c(NC2(CF)COC2)c(N=[N+]=[N-])c(Cl)c1Cl
REMARK SMILES IDX 15 1 14 2 13 3 12 4 11 5 10 6 31 7 32 8 29 9 30 10 25 11
REMARK SMILES IDX 17 12 16 13 18 15 19 17 22 18 24 19 23 20 20 21 21 22 26 23
REMARK SMILES IDX 27 24 28 25 9 26 7 27 8 28 5 29 4 30 3 31 6 32 2 36 1 37
REMARK H PARENT 16 14 18 16 6 33 6 34 6 35
ROOT
ATOM      1  C   UNL     1      44.206 136.582  18.688  1.00  0.00     0.139 A 
ATOM      2  C   UNL     1      43.916 137.746  17.935  1.00  0.00     0.048 A 
ATOM      3  C   UNL     1      43.213 137.794  16.715  1.00  0.00     0.004 A 
ATOM      4  C   UNL     1      43.031 136.702  15.863  1.00  0.00     0.004 A 
ATOM      5  C   UNL     1      43.952 135.655  15.794  1.00  0.00     0.049 A 
ATOM      6  C   UNL     1      43.581 134.303  15.707  1.00  0.00     0.151 A 
ATOM      7  C   UNL     1      42.373 133.795  16.238  1.00  0.00     0.102 A 
ATOM      8  Cl  UNL     1      41.810 132.266  15.555  1.00  0.00    -0.079 Cl
ATOM      9  C   UNL     1      41.621 134.379  17.296  1.00  0.00     0.075 A 
ATOM     10  Cl  UNL     1      39.961 133.821  17.538  1.00  0.00    -0.082 Cl
ATOM     11  C   UNL     1      42.126 135.346  18.204  1.00  0.00     0.085 A 
ATOM     12  C   UNL     1      43.482 135.370  18.595  1.00  0.00     0.088 A 
ENDROOT
BRANCH   1  13
ATOM     13  O   UNL     1      45.277 136.627  19.580  1.00  0.00    -0.506 OA
ATOM     14  H   UNL     1      45.642 135.791  20.022  1.00  0.00     0.293 HD
ENDBRANCH   1  13
BRANCH  12  15
ATOM     15  N   UNL     1      44.148 134.150  18.969  1.00  0.00    -0.369 N 
ATOM     16  H   UNL     1      45.041 133.935  18.469  1.00  0.00     0.161 HD
BRANCH  15  17
ATOM     17  C   UNL     1      43.855 133.433  20.223  1.00  0.00     0.113 C 
ATOM     18  C   UNL     1      45.075 133.205  21.092  1.00  0.00     0.193 C 
ATOM     19  C   UNL     1      43.442 134.351  21.362  1.00  0.00     0.193 C 
ATOM     20  O   UNL     1      44.600 134.059  22.106  1.00  0.00    -0.376 OA
BRANCH  17  21
ATOM     21  C   UNL     1      42.935 132.208  20.058  1.00  0.00     0.247 C 
ATOM     22  F   UNL     1      43.064 131.691  18.782  1.00  0.00    -0.248 F 
ENDBRANCH  17  21
ENDBRANCH  15  17
ENDBRANCH  12  15
BRANCH  11  23
ATOM     23  N   UNL     1      41.271 136.368  18.747  1.00  0.00    -0.057 NA
BRANCH  23  24
ATOM     24  N   UNL     1      40.843 136.335  19.902  1.00  0.00     0.005 N 
ATOM     25  N   UNL     1      40.420 136.299  21.057  1.00  0.00    -0.003 NA
ENDBRANCH  23  24
ENDBRANCH  11  23
BRANCH   6  26
ATOM     26  O   UNL     1      44.478 133.368  15.162  1.00  0.00    -0.420 OA
BRANCH  26  27
ATOM     27  C   UNL     1      45.018 132.264  15.834  1.00  0.00     0.373 C 
ATOM     28  O   UNL     1      45.400 132.349  17.032  1.00  0.00    -0.244 OA
BRANCH  27  29
ATOM     29  C   UNL     1      45.151 130.959  15.110  1.00  0.00     0.196 C 
ATOM     30  C   UNL     1      44.417 130.829  13.775  1.00  0.00     0.092 C 
ATOM     31  C   UNL     1      45.940 130.994  13.798  1.00  0.00     0.069 C 
BRANCH  29  32
ATOM     32  N   UNL     1      45.241 129.742  15.930  1.00  0.00    -0.343 N 
ATOM     33  H   UNL     1      46.226 129.429  16.081  1.00  0.00     0.345 HD
ATOM     34  H   UNL     1      44.780 129.911  16.852  1.00  0.00     0.345 HD
ATOM     35  H   UNL     1      44.735 128.964  15.448  1.00  0.00     0.345 HD
ENDBRANCH  29  32
BRANCH  31  36
ATOM     36  C   UNL     1      46.744 129.745  13.397  1.00  0.00     0.007 C 
ATOM     37  C   UNL     1      48.239 130.033  13.469  1.00  0.00     0.004 C 
ENDBRANCH  31  36
ENDBRANCH  27  29
ENDBRANCH  26  27
ENDBRANCH   6  26
TORSDOF 11
ENDMDL
MODEL 7
REMARK VINA RESULT:      -5.8      2.115      3.425
REMARK SMILES CC[C@H]1C[C@]1([NH3+])C(=O)Oc1ccccc(O)c(NC2(CF)COC2)c(N=[N+]=[N-])c(Cl)c1Cl
REMARK SMILES IDX 15 1 14 2 13 3 12 4 11 5 10 6 31 7 32 8 29 9 30 10 25 11
REMARK SMILES IDX 17 12 16 13 18 15 19 17 22 18 24 19 23 20 20 21 21 22 26 23
REMARK SMILES IDX 27 24 28 25 9 26 7 27 8 28 5 29 4 30 3 31 6 32 2 36 1 37
REMARK H PARENT 16 14 18 16 6 33 6 34 6 35
ROOT
ATOM      1  C   UNL     1      43.593 136.189  18.728  1.00  0.00     0.139 A 
ATOM      2  C   UNL     1      43.644 137.438  18.063  1.00  0.00     0.048 A 
ATOM      3  C   UNL     1      43.306 137.678  16.716  1.00  0.00     0.004 A 
ATOM      4  C   UNL     1      43.247 136.692  15.727  1.00  0.00     0.004 A 
ATOM      5  C   UNL     1      44.034 135.540  15.781  1.00  0.00     0.049 A 
ATOM      6  C   UNL     1      43.559 134.261  15.449  1.00  0.00     0.151 A 
ATOM      7  C   UNL     1      42.205 133.877  15.587  1.00  0.00     0.102 A 
ATOM      8  Cl  UNL     1      41.688 132.498  14.613  1.00  0.00    -0.079 Cl
ATOM      9  C   UNL     1      41.261 134.470  16.474  1.00  0.00     0.075 A 
ATOM     10  Cl  UNL     1      39.548 134.121  16.213  1.00  0.00    -0.082 Cl
ATOM     11  C   UNL     1      41.602 135.285  17.585  1.00  0.00     0.085 A 
ATOM     12  C   UNL     1      42.795 135.096  18.314  1.00  0.00     0.088 A 
ENDROOT
BRANCH   1  13
ATOM     13  O   UNL     1      44.380 136.019  19.867  1.00  0.00    -0.506 OA
ATOM     14  H   UNL     1      44.752 135.113  20.130  1.00  0.00     0.293 HD
ENDBRANCH   1  13
BRANCH  12  15
ATOM     15  N   UNL     1      43.200 133.771  18.707  1.00  0.00    -0.369 N 
ATOM     16  H   UNL     1      43.972 133.337  18.151  1.00  0.00     0.161 HD
BRANCH  15  17
ATOM     17  C   UNL     1      42.870 133.193  20.022  1.00  0.00     0.113 C 
ATOM     18  C   UNL     1      42.555 131.712  19.973  1.00  0.00     0.193 C 
ATOM     19  C   UNL     1      44.089 132.721  20.798  1.00  0.00     0.193 C 
ATOM     20  O   UNL     1      43.700 131.371  20.717  1.00  0.00    -0.376 OA
BRANCH  17  21
ATOM     21  C   UNL     1      41.895 134.038  20.864  1.00  0.00     0.247 C 
ATOM     22  F   UNL     1      40.592 133.675  20.582  1.00  0.00    -0.248 F 
ENDBRANCH  17  21
ENDBRANCH  15  17
ENDBRANCH  12  15
BRANCH  11  23
ATOM     23  N   UNL     1      40.745 136.364  18.000  1.00  0.00    -0.057 NA
BRANCH  23  24
ATOM     24  N   UNL     1      39.909 136.245  18.897  1.00  0.00     0.005 N 
ATOM     25  N   UNL     1      39.075 136.132  19.794  1.00  0.00    -0.003 NA
ENDBRANCH  23  24
ENDBRANCH  11  23
BRANCH   6  26
ATOM     26  O   UNL     1      44.464 133.262  15.053  1.00  0.00    -0.420 OA
BRANCH  26  27
ATOM     27  C   UNL     1      45.055 132.312  15.895  1.00  0.00     0.373 C 
ATOM     28  O   UNL     1      44.940 132.388  17.148  1.00  0.00    -0.244 OA
BRANCH  27  29
ATOM     29  C   UNL     1      45.844 131.190  15.295  1.00  0.00     0.196 C 
ATOM     30  C   UNL     1      45.344 130.624  13.965  1.00  0.00     0.092 C 
ATOM     31  C   UNL     1      46.592 131.511  13.997  1.00  0.00     0.069 C 
BRANCH  29  32
ATOM     32  N   UNL     1      46.465 130.232  16.222  1.00  0.00    -0.343 N 
ATOM     33  H   UNL     1      45.831 129.439  16.466  1.00  0.00     0.345 HD
ATOM     34  H   UNL     1      47.346 129.863  15.798  1.00  0.00     0.345 HD
ATOM     35  H   UNL     1      46.711 130.724  17.112  1.00  0.00     0.345 HD
ENDBRANCH  29  32
BRANCH  31  36
ATOM     36  C   UNL     1      47.922 130.787  13.723  1.00  0.00     0.007 C 
ATOM     37  C   UNL     1      47.697 129.601  12.792  1.00  0.00     0.004 C 
ENDBRANCH  31  36
ENDBRANCH  27  29
ENDBRANCH  26  27
ENDBRANCH   6  26
TORSDOF 11
ENDMDL
MODEL 8
REMARK VINA RESULT:      -5.8      2.244      3.305
REMARK SMILES CC[C@H]1C[C@]1([NH3+])C(=O)Oc1ccccc(O)c(NC2(CF)COC2)c(N=[N+]=[N-])c(Cl)c1Cl
REMARK SMILES IDX 15 1 14 2 13 3 12 4 11 5 10 6 31 7 32 8 29 9 30 10 25 11
REMARK SMILES IDX 17 12 16 13 18 15 19 17 22 18 24 19 23 20 20 21 21 22 26 23
REMARK SMILES IDX 27 24 28 25 9 26 7 27 8 28 5 29 4 30 3 31 6 32 2 36 1 37
REMARK H PARENT 16 14 18 16 6 33 6 34 6 35
ROOT
ATOM      1  C   UNL     1      44.445 136.446  19.076  1.00  0.00     0.139 A 
ATOM      2  C   UNL     1      44.162 137.559  18.247  1.00  0.00     0.048 A 
ATOM      3  C   UNL     1      43.499 137.522  17.004  1.00  0.00     0.004 A 
ATOM      4  C   UNL     1      43.365 136.379  16.211  1.00  0.00     0.004 A 
ATOM      5  C   UNL     1      44.305 135.347  16.235  1.00  0.00     0.049 A 
ATOM      6  C   UNL     1      43.960 133.985  16.216  1.00  0.00     0.151 A 
ATOM      7  C   UNL     1      42.744 133.486  16.736  1.00  0.00     0.102 A 
ATOM      8  Cl  UNL     1      42.230 131.910  16.126  1.00  0.00    -0.079 Cl
ATOM      9  C   UNL     1      41.946 134.118  17.732  1.00  0.00     0.075 A 
ATOM     10  Cl  UNL     1      40.288 133.544  17.951  1.00  0.00    -0.082 Cl
ATOM     11  C   UNL     1      42.404 135.146  18.597  1.00  0.00     0.085 A 
ATOM     12  C   UNL     1      43.745 135.217  19.031  1.00  0.00     0.088 A 
ENDROOT
BRANCH   1  13
ATOM     13  O   UNL     1      45.484 136.563  19.999  1.00  0.00    -0.506 OA
ATOM     14  H   UNL     1      45.309 136.740  20.982  1.00  0.00     0.293 HD
ENDBRANCH   1  13
BRANCH  12  15
ATOM     15  N   UNL     1      44.418 134.034  19.498  1.00  0.00    -0.369 N 
ATOM     16  H   UNL     1      45.356 133.837  19.081  1.00  0.00     0.161 HD
BRANCH  15  17
ATOM     17  C   UNL     1      44.046 133.344  20.747  1.00  0.00     0.113 C 
ATOM     18  C   UNL     1      45.172 133.268  21.758  1.00  0.00     0.193 C 
ATOM     19  C   UNL     1      43.424 134.266  21.784  1.00  0.00     0.193 C 
ATOM     20  O   UNL     1      44.510 134.115  22.666  1.00  0.00    -0.376 OA
BRANCH  17  21
ATOM     21  C   UNL     1      43.263 132.033  20.544  1.00  0.00     0.247 C 
ATOM     22  F   UNL     1      42.320 131.887  21.544  1.00  0.00    -0.248 F 
ENDBRANCH  17  21
ENDBRANCH  15  17
ENDBRANCH  12  15
BRANCH  11  23
ATOM     23  N   UNL     1      41.513 136.181  19.051  1.00  0.00    -0.057 NA
BRANCH  23  24
ATOM     24  N   UNL     1      40.584 136.610  18.364  1.00  0.00     0.005 N 
ATOM     25  N   UNL     1      39.653 137.038  17.684  1.00  0.00    -0.003 NA
ENDBRANCH  23  24
ENDBRANCH  11  23
BRANCH   6  26
ATOM     26  O   UNL     1      44.891 133.037  15.757  1.00  0.00    -0.420 OA
BRANCH  26  27
ATOM     27  C   UNL     1      45.291 131.884  16.445  1.00  0.00     0.373 C 
ATOM     28  O   UNL     1      45.246 131.824  17.703  1.00  0.00    -0.244 OA
BRANCH  27  29
ATOM     29  C   UNL     1      45.792 130.705  15.669  1.00  0.00     0.196 C 
ATOM     30  C   UNL     1      44.773 129.961  14.804  1.00  0.00     0.092 C 
ATOM     31  C   UNL     1      45.821 130.863  14.146  1.00  0.00     0.069 C 
BRANCH  29  32
ATOM     32  N   UNL     1      46.843 129.887  16.292  1.00  0.00    -0.343 N 
ATOM     33  H   UNL     1      46.987 130.116  17.300  1.00  0.00     0.345 HD
ATOM     34  H   UNL     1      46.599 128.876  16.191  1.00  0.00     0.345 HD
ATOM     35  H   UNL     1      47.749 130.057  15.798  1.00  0.00     0.345 HD
ENDBRANCH  29  32
BRANCH  31  36
ATOM     36  C   UNL     1      46.920 130.130  13.357  1.00  0.00     0.007 C 
ATOM     37  C   UNL     1      47.914 131.130  12.779  1.00  0.00     0.004 C 
ENDBRANCH  31  36
ENDBRANCH  27  29
ENDBRANCH  26  27
ENDBRANCH   6  26
TORSDOF 11
ENDMDL
MODEL 9
REMARK VINA RESULT:      -5.7      1.424      1.632
REMARK SMILES CC[C@H]1C[C@]1([NH3+])C(=O)Oc1ccccc(O)c(NC2(CF)COC2)c(N=[N+]=[N-])c(Cl)c1Cl
REMARK SMILES IDX 15 1 14 2 13 3 12 4 11 5 10 6 31 7 32 8 29 9 30 10 25 11
REMARK SMILES IDX 17 12 16 13 18 15 19 17 22 18 24 19 23 20 20 21 21 22 26 23
REMARK SMILES IDX 27 24 28 25 9 26 7 27 8 28 5 29 4 30 3 31 6 32 2 36 1 37
REMARK H PARENT 16 14 18 16 6 33 6 34 6 35
ROOT
ATOM      1  C   UNL     1      43.547 135.989  16.601  1.00  0.00     0.139 A 
ATOM      2  C   UNL     1      43.020 136.249  15.312  1.00  0.00     0.048 A 
ATOM      3  C   UNL     1      42.093 135.449  14.615  1.00  0.00     0.004 A 
ATOM      4  C   UNL     1      41.842 134.103  14.893  1.00  0.00     0.004 A 
ATOM      5  C   UNL     1      42.817 133.265  15.439  1.00  0.00     0.049 A 
ATOM      6  C   UNL     1      42.551 132.321  16.444  1.00  0.00     0.151 A 
ATOM      7  C   UNL     1      41.515 132.471  17.394  1.00  0.00     0.102 A 
ATOM      8  Cl  UNL     1      40.961 130.987  18.175  1.00  0.00    -0.079 Cl
ATOM      9  C   UNL     1      40.934 133.706  17.801  1.00  0.00     0.075 A 
ATOM     10  Cl  UNL     1      39.405 133.650  18.686  1.00  0.00    -0.082 Cl
ATOM     11  C   UNL     1      41.523 134.980  17.589  1.00  0.00     0.085 A 
ATOM     12  C   UNL     1      42.922 135.165  17.567  1.00  0.00     0.088 A 
ENDROOT
BRANCH   1  13
ATOM     13  O   UNL     1      44.761 136.580  16.946  1.00  0.00    -0.506 OA
ATOM     14  H   UNL     1      44.988 137.532  16.681  1.00  0.00     0.293 HD
ENDBRANCH   1  13
BRANCH  12  15
ATOM     15  N   UNL     1      43.747 134.556  18.578  1.00  0.00    -0.369 N 
ATOM     16  H   UNL     1      44.515 133.933  18.238  1.00  0.00     0.161 HD
BRANCH  15  17
ATOM     17  C   UNL     1      43.806 135.052  19.965  1.00  0.00     0.113 C 
ATOM     18  C   UNL     1      45.096 135.773  20.298  1.00  0.00     0.193 C 
ATOM     19  C   UNL     1      43.202 136.436  20.138  1.00  0.00     0.193 C 
ATOM     20  O   UNL     1      44.446 137.012  20.458  1.00  0.00    -0.376 OA
BRANCH  17  21
ATOM     21  C   UNL     1      43.333 134.039  21.025  1.00  0.00     0.247 C 
ATOM     22  F   UNL     1      42.259 133.317  20.540  1.00  0.00    -0.248 F 
ENDBRANCH  17  21
ENDBRANCH  15  17
ENDBRANCH  12  15
BRANCH  11  23
ATOM     23  N   UNL     1      40.706 136.142  17.359  1.00  0.00    -0.057 NA
BRANCH  23  24
ATOM     24  N   UNL     1      40.247 136.826  18.275  1.00  0.00     0.005 N 
ATOM     25  N   UNL     1      39.784 137.510  19.187  1.00  0.00    -0.003 NA
ENDBRANCH  23  24
ENDBRANCH  11  23
BRANCH   6  26
ATOM     26  O   UNL     1      43.401 131.213  16.601  1.00  0.00    -0.420 OA
BRANCH  26  27
ATOM     27  C   UNL     1      44.798 131.258  16.685  1.00  0.00     0.373 C 
ATOM     28  O   UNL     1      45.383 132.127  17.387  1.00  0.00    -0.244 OA
BRANCH  27  29
ATOM     29  C   UNL     1      45.612 130.261  15.919  1.00  0.00     0.196 C 
ATOM     30  C   UNL     1      44.844 129.214  15.110  1.00  0.00     0.092 C 
ATOM     31  C   UNL     1      45.549 130.369  14.393  1.00  0.00     0.069 C 
BRANCH  29  32
ATOM     32  N   UNL     1      46.879 129.822  16.522  1.00  0.00    -0.343 N 
ATOM     33  H   UNL     1      47.713 130.131  15.976  1.00  0.00     0.345 HD
ATOM     34  H   UNL     1      46.942 130.187  17.499  1.00  0.00     0.345 HD
ATOM     35  H   UNL     1      46.899 128.777  16.561  1.00  0.00     0.345 HD
ENDBRANCH  29  32
BRANCH  31  36
ATOM     36  C   UNL     1      46.796 129.978  13.582  1.00  0.00     0.007 C 
ATOM     37  C   UNL     1      47.601 131.220  13.215  1.00  0.00     0.004 C 
ENDBRANCH  31  36
ENDBRANCH  27  29
ENDBRANCH  26  27
ENDBRANCH   6  26
TORSDOF 11
ENDMDL


