MODEL 1
REMARK VINA RESULT:      -7.2      0.000      0.000
REMARK SMILES [N-]=[N+]=Nc1c(Cl)c(Cl)c(Cl)c2cccc(OC(=O)[C@@H](N=C=O)c3ncc[nH]3)c12
REMARK SMILES IDX 17 1 18 2 19 3 23 4 25 5 24 6 26 7 27 8 20 10 21 11 22 12
REMARK SMILES IDX 16 13 15 14 14 15 28 16 13 17 4 18 11 19 12 20 5 21 9 22
REMARK SMILES IDX 7 23 6 24 10 25 8 26 3 27 2 28 1 29
REMARK H PARENT 27 9
ROOT
ATOM      1  C   UNL     1      44.902 131.678  15.638  1.00  0.00     0.345 C 
ATOM      2  O   UNL     1      45.728 132.597  15.378  1.00  0.00    -0.249 OA
ENDROOT
BRANCH   1   3
ATOM      3  C   UNL     1      44.715 130.553  14.663  1.00  0.00     0.294 C 
BRANCH   3   4
ATOM      4  C   UNL     1      46.050 130.146  14.115  1.00  0.00     0.143 A 
ATOM      5  C   UNL     1      47.702 129.911  12.795  1.00  0.00     0.131 A 
ATOM      6  N   UNL     1      46.427 130.349  12.834  1.00  0.00    -0.239 NA
ATOM      7  C   UNL     1      48.074 129.468  14.044  1.00  0.00     0.104 A 
ATOM      8  N   UNL     1      47.033 129.623  14.874  1.00  0.00    -0.346 N 
ATOM      9  H   UNL     1      46.999 129.399  15.893  1.00  0.00     0.167 HD
ENDBRANCH   3   4
BRANCH   3  10
ATOM     10  N   UNL     1      43.837 130.968  13.571  1.00  0.00    -0.182 NA
BRANCH  10  11
ATOM     11  C   UNL     1      42.767 131.626  13.779  1.00  0.00     0.236 C 
ATOM     12  O   UNL     1      41.727 132.265  13.981  1.00  0.00    -0.211 OA
ENDBRANCH  10  11
ENDBRANCH   3  10
ENDBRANCH   1   3
BRANCH   1  13
ATOM     13  O   UNL     1      44.107 131.732  16.791  1.00  0.00    -0.424 OA
BRANCH  13  14
ATOM     14  C   UNL     1      44.596 131.798  18.105  1.00  0.00     0.139 A 
ATOM     15  C   UNL     1      45.487 130.815  18.562  1.00  0.00     0.048 A 
ATOM     16  C   UNL     1      44.160 132.827  18.993  1.00  0.00     0.037 A 
ATOM     17  C   UNL     1      45.975 130.845  19.861  1.00  0.00     0.005 A 
ATOM     18  C   UNL     1      43.233 133.829  18.592  1.00  0.00     0.069 A 
ATOM     19  C   UNL     1      44.669 132.845  20.326  1.00  0.00     0.006 A 
ATOM     20  C   UNL     1      45.576 131.847  20.735  1.00  0.00     0.010 A 
ATOM     21  C   UNL     1      42.877 134.859  19.494  1.00  0.00     0.071 A 
ATOM     22  C   UNL     1      44.263 133.855  21.226  1.00  0.00     0.069 A 
ATOM     23  C   UNL     1      43.379 134.859  20.804  1.00  0.00     0.079 A 
ATOM     24  Cl  UNL     1      41.874 136.220  18.975  1.00  0.00    -0.082 Cl
ATOM     25  Cl  UNL     1      44.864 133.897  22.892  1.00  0.00    -0.082 Cl
ATOM     26  Cl  UNL     1      42.906 136.141  21.927  1.00  0.00    -0.081 Cl
BRANCH  18  27
ATOM     27  N   UNL     1      42.695 133.808  17.258  1.00  0.00    -0.058 NA
BRANCH  27  28
ATOM     28  N   UNL     1      41.505 133.589  17.020  1.00  0.00     0.005 N 
ATOM     29  N   UNL     1      40.320 133.365  16.781  1.00  0.00    -0.003 NA
ENDBRANCH  27  28
ENDBRANCH  18  27
ENDBRANCH  13  14
ENDBRANCH   1  13
TORSDOF 8
ENDMDL
MODEL 2
REMARK VINA RESULT:      -6.8      1.283      1.468
REMARK SMILES [N-]=[N+]=Nc1c(Cl)c(Cl)c(Cl)c2cccc(OC(=O)[C@@H](N=C=O)c3ncc[nH]3)c12
REMARK SMILES IDX 17 1 18 2 19 3 23 4 25 5 24 6 26 7 27 8 20 10 21 11 22 12
REMARK SMILES IDX 16 13 15 14 14 15 28 16 13 17 4 18 11 19 12 20 5 21 9 22
REMARK SMILES IDX 7 23 6 24 10 25 8 26 3 27 2 28 1 29
REMARK H PARENT 27 9
ROOT
ATOM      1  C   UNL     1      44.596 132.245  15.799  1.00  0.00     0.345 C 
ATOM      2  O   UNL     1      45.403 133.157  15.465  1.00  0.00    -0.249 OA
ENDROOT
BRANCH   1   3
ATOM      3  C   UNL     1      44.431 131.043  14.916  1.00  0.00     0.294 C 
BRANCH   3   4
ATOM      4  C   UNL     1      45.773 130.628  14.390  1.00  0.00     0.143 A 
ATOM      5  C   UNL     1      47.758 129.869  14.301  1.00  0.00     0.131 A 
ATOM      6  N   UNL     1      46.788 130.207  15.175  1.00  0.00    -0.239 NA
ATOM      7  C   UNL     1      47.312 130.076  13.016  1.00  0.00     0.104 A 
ATOM      8  N   UNL     1      46.060 130.548  13.075  1.00  0.00    -0.346 N 
ATOM      9  H   UNL     1      45.437 130.789  12.272  1.00  0.00     0.167 HD
ENDBRANCH   3   4
BRANCH   3  10
ATOM     10  N   UNL     1      43.537 131.348  13.802  1.00  0.00    -0.182 NA
BRANCH  10  11
ATOM     11  C   UNL     1      42.457 132.005  13.966  1.00  0.00     0.236 C 
ATOM     12  O   UNL     1      41.410 132.642  14.124  1.00  0.00    -0.211 OA
ENDBRANCH  10  11
ENDBRANCH   3  10
ENDBRANCH   1   3
BRANCH   1  13
ATOM     13  O   UNL     1      43.801 132.373  16.946  1.00  0.00    -0.424 OA
BRANCH  13  14
ATOM     14  C   UNL     1      44.197 132.020  18.245  1.00  0.00     0.139 A 
ATOM     15  C   UNL     1      45.324 131.203  18.426  1.00  0.00     0.048 A 
ATOM     16  C   UNL     1      43.441 132.443  19.378  1.00  0.00     0.037 A 
ATOM     17  C   UNL     1      45.731 130.823  19.698  1.00  0.00     0.005 A 
ATOM     18  C   UNL     1      42.271 133.245  19.249  1.00  0.00     0.069 A 
ATOM     19  C   UNL     1      43.869 132.045  20.679  1.00  0.00     0.006 A 
ATOM     20  C   UNL     1      45.018 131.239  20.813  1.00  0.00     0.010 A 
ATOM     21  C   UNL     1      41.589 133.685  20.408  1.00  0.00     0.071 A 
ATOM     22  C   UNL     1      43.145 132.455  21.821  1.00  0.00     0.069 A 
ATOM     23  C   UNL     1      42.019 133.278  21.681  1.00  0.00     0.079 A 
ATOM     24  Cl  UNL     1      40.245 134.829  20.296  1.00  0.00    -0.082 Cl
ATOM     25  Cl  UNL     1      43.643 131.965  23.449  1.00  0.00    -0.082 Cl
ATOM     26  Cl  UNL     1      41.141 133.817  23.118  1.00  0.00    -0.081 Cl
BRANCH  18  27
ATOM     27  N   UNL     1      41.815 133.633  17.941  1.00  0.00    -0.058 NA
BRANCH  27  28
ATOM     28  N   UNL     1      40.695 133.350  17.512  1.00  0.00     0.005 N 
ATOM     29  N   UNL     1      39.575 133.074  17.085  1.00  0.00    -0.003 NA
ENDBRANCH  27  28
ENDBRANCH  18  27
ENDBRANCH  13  14
ENDBRANCH   1  13
TORSDOF 8
ENDMDL
MODEL 3
REMARK VINA RESULT:      -6.5      2.471      4.262
REMARK SMILES [N-]=[N+]=Nc1c(Cl)c(Cl)c(Cl)c2cccc(OC(=O)[C@@H](N=C=O)c3ncc[nH]3)c12
REMARK SMILES IDX 17 1 18 2 19 3 23 4 25 5 24 6 26 7 27 8 20 10 21 11 22 12
REMARK SMILES IDX 16 13 15 14 14 15 28 16 13 17 4 18 11 19 12 20 5 21 9 22
REMARK SMILES IDX 7 23 6 24 10 25 8 26 3 27 2 28 1 29
REMARK H PARENT 27 9
ROOT
ATOM      1  C   UNL     1      45.024 132.160  15.939  1.00  0.00     0.345 C 
ATOM      2  O   UNL     1      45.352 133.318  15.560  1.00  0.00    -0.249 OA
ENDROOT
BRANCH   1   3
ATOM      3  C   UNL     1      46.081 131.108  16.106  1.00  0.00     0.294 C 
BRANCH   3   4
ATOM      4  C   UNL     1      46.639 130.750  14.761  1.00  0.00     0.143 A 
ATOM      5  C   UNL     1      47.865 129.892  13.249  1.00  0.00     0.131 A 
ATOM      6  N   UNL     1      47.782 130.052  14.586  1.00  0.00    -0.239 NA
ATOM      7  C   UNL     1      46.776 130.478  12.647  1.00  0.00     0.104 A 
ATOM      8  N   UNL     1      46.003 131.013  13.602  1.00  0.00    -0.346 N 
ATOM      9  H   UNL     1      45.095 131.514  13.474  1.00  0.00     0.167 HD
ENDBRANCH   3   4
BRANCH   3  10
ATOM     10  N   UNL     1      45.520 129.918  16.741  1.00  0.00    -0.182 NA
BRANCH  10  11
ATOM     11  C   UNL     1      45.236 128.869  16.075  1.00  0.00     0.236 C 
ATOM     12  O   UNL     1      44.961 127.852  15.429  1.00  0.00    -0.211 OA
ENDBRANCH  10  11
ENDBRANCH   3  10
ENDBRANCH   1   3
BRANCH   1  13
ATOM     13  O   UNL     1      43.678 131.822  16.138  1.00  0.00    -0.424 OA
BRANCH  13  14
ATOM     14  C   UNL     1      42.585 132.641  15.812  1.00  0.00     0.139 A 
ATOM     15  C   UNL     1      42.260 132.854  14.463  1.00  0.00     0.048 A 
ATOM     16  C   UNL     1      41.833 133.294  16.834  1.00  0.00     0.037 A 
ATOM     17  C   UNL     1      41.195 133.671  14.109  1.00  0.00     0.005 A 
ATOM     18  C   UNL     1      42.141 133.138  18.215  1.00  0.00     0.069 A 
ATOM     19  C   UNL     1      40.742 134.131  16.456  1.00  0.00     0.006 A 
ATOM     20  C   UNL     1      40.440 134.301  15.089  1.00  0.00     0.010 A 
ATOM     21  C   UNL     1      41.329 133.763  19.191  1.00  0.00     0.071 A 
ATOM     22  C   UNL     1      39.974 134.784  17.445  1.00  0.00     0.069 A 
ATOM     23  C   UNL     1      40.264 134.590  18.803  1.00  0.00     0.079 A 
ATOM     24  Cl  UNL     1      41.568 133.446  20.914  1.00  0.00    -0.082 Cl
ATOM     25  Cl  UNL     1      38.622 135.842  17.007  1.00  0.00    -0.082 Cl
ATOM     26  Cl  UNL     1      39.273 135.382  20.035  1.00  0.00    -0.081 Cl
BRANCH  18  27
ATOM     27  N   UNL     1      43.254 132.315  18.607  1.00  0.00    -0.058 NA
BRANCH  27  28
ATOM     28  N   UNL     1      44.148 132.712  19.357  1.00  0.00     0.005 N 
ATOM     29  N   UNL     1      45.044 133.103  20.103  1.00  0.00    -0.003 NA
ENDBRANCH  27  28
ENDBRANCH  18  27
ENDBRANCH  13  14
ENDBRANCH   1  13
TORSDOF 8
ENDMDL
MODEL 4
REMARK VINA RESULT:      -6.5      1.475      1.739
REMARK SMILES [N-]=[N+]=Nc1c(Cl)c(Cl)c(Cl)c2cccc(OC(=O)[C@@H](N=C=O)c3ncc[nH]3)c12
REMARK SMILES IDX 17 1 18 2 19 3 23 4 25 5 24 6 26 7 27 8 20 10 21 11 22 12
REMARK SMILES IDX 16 13 15 14 14 15 28 16 13 17 4 18 11 19 12 20 5 21 9 22
REMARK SMILES IDX 7 23 6 24 10 25 8 26 3 27 2 28 1 29
REMARK H PARENT 27 9
ROOT
ATOM      1  C   UNL     1      44.741 130.962  16.572  1.00  0.00     0.345 C 
ATOM      2  O   UNL     1      45.402 129.888  16.510  1.00  0.00    -0.249 OA
ENDROOT
BRANCH   1   3
ATOM      3  C   UNL     1      44.800 131.935  15.431  1.00  0.00     0.294 C 
BRANCH   3   4
ATOM      4  C   UNL     1      45.758 131.426  14.396  1.00  0.00     0.143 A 
ATOM      5  C   UNL     1      47.547 131.090  13.294  1.00  0.00     0.131 A 
ATOM      6  N   UNL     1      47.035 131.850  14.284  1.00  0.00    -0.239 NA
ATOM      7  C   UNL     1      46.583 130.220  12.838  1.00  0.00     0.104 A 
ATOM      8  N   UNL     1      45.459 130.431  13.537  1.00  0.00    -0.346 N 
ATOM      9  H   UNL     1      44.553 129.921  13.444  1.00  0.00     0.167 HD
ENDBRANCH   3   4
BRANCH   3  10
ATOM     10  N   UNL     1      45.234 133.248  15.903  1.00  0.00    -0.182 NA
BRANCH  10  11
ATOM     11  C   UNL     1      44.608 134.315  15.596  1.00  0.00     0.236 C 
ATOM     12  O   UNL     1      44.002 135.350  15.296  1.00  0.00    -0.211 OA
ENDBRANCH  10  11
ENDBRANCH   3  10
ENDBRANCH   1   3
BRANCH   1  13
ATOM     13  O   UNL     1      44.010 131.291  17.722  1.00  0.00    -0.424 OA
BRANCH  13  14
ATOM     14  C   UNL     1      44.569 131.699  18.943  1.00  0.00     0.139 A 
ATOM     15  C   UNL     1      45.615 130.952  19.508  1.00  0.00     0.048 A 
ATOM     16  C   UNL     1      44.056 132.835  19.637  1.00  0.00     0.037 A 
ATOM     17  C   UNL     1      46.178 131.321  20.723  1.00  0.00     0.005 A 
ATOM     18  C   UNL     1      42.975 133.607  19.124  1.00  0.00     0.069 A 
ATOM     19  C   UNL     1      44.642 133.203  20.884  1.00  0.00     0.006 A 
ATOM     20  C   UNL     1      45.703 132.434  21.404  1.00  0.00     0.010 A 
ATOM     21  C   UNL     1      42.540 134.757  19.824  1.00  0.00     0.071 A 
ATOM     22  C   UNL     1      44.160 134.327  21.590  1.00  0.00     0.069 A 
ATOM     23  C   UNL     1      43.122 135.101  21.054  1.00  0.00     0.079 A 
ATOM     24  Cl  UNL     1      41.328 135.842  19.130  1.00  0.00    -0.082 Cl
ATOM     25  Cl  UNL     1      44.857 134.800  23.148  1.00  0.00    -0.082 Cl
ATOM     26  Cl  UNL     1      42.551 136.530  21.927  1.00  0.00    -0.081 Cl
BRANCH  18  27
ATOM     27  N   UNL     1      42.359 133.232  17.880  1.00  0.00    -0.058 NA
BRANCH  27  28
ATOM     28  N   UNL     1      41.173 132.908  17.791  1.00  0.00     0.005 N 
ATOM     29  N   UNL     1      39.992 132.581  17.695  1.00  0.00    -0.003 NA
ENDBRANCH  27  28
ENDBRANCH  18  27
ENDBRANCH  13  14
ENDBRANCH   1  13
TORSDOF 8
ENDMDL
MODEL 5
REMARK VINA RESULT:      -6.4      1.615      1.695
REMARK SMILES [N-]=[N+]=Nc1c(Cl)c(Cl)c(Cl)c2cccc(OC(=O)[C@@H](N=C=O)c3ncc[nH]3)c12
REMARK SMILES IDX 17 1 18 2 19 3 23 4 25 5 24 6 26 7 27 8 20 10 21 11 22 12
REMARK SMILES IDX 16 13 15 14 14 15 28 16 13 17 4 18 11 19 12 20 5 21 9 22
REMARK SMILES IDX 7 23 6 24 10 25 8 26 3 27 2 28 1 29
REMARK H PARENT 27 9
ROOT
ATOM      1  C   UNL     1      44.886 130.939  16.653  1.00  0.00     0.345 C 
ATOM      2  O   UNL     1      45.857 130.184  16.934  1.00  0.00    -0.249 OA
ENDROOT
BRANCH   1   3
ATOM      3  C   UNL     1      44.430 131.060  15.228  1.00  0.00     0.294 C 
BRANCH   3   4
ATOM      4  C   UNL     1      45.618 130.961  14.318  1.00  0.00     0.143 A 
ATOM      5  C   UNL     1      46.823 130.569  12.610  1.00  0.00     0.131 A 
ATOM      6  N   UNL     1      45.586 130.366  13.106  1.00  0.00    -0.239 NA
ATOM      7  C   UNL     1      47.569 131.288  13.515  1.00  0.00     0.104 A 
ATOM      8  N   UNL     1      46.806 131.537  14.588  1.00  0.00    -0.346 N 
ATOM      9  H   UNL     1      47.073 132.076  15.441  1.00  0.00     0.167 HD
ENDBRANCH   3   4
BRANCH   3  10
ATOM     10  N   UNL     1      43.752 132.337  15.018  1.00  0.00    -0.182 NA
BRANCH  10  11
ATOM     11  C   UNL     1      42.596 132.407  14.485  1.00  0.00     0.236 C 
ATOM     12  O   UNL     1      41.474 132.475  13.970  1.00  0.00    -0.211 OA
ENDBRANCH  10  11
ENDBRANCH   3  10
ENDBRANCH   1   3
BRANCH   1  13
ATOM     13  O   UNL     1      44.273 131.720  17.642  1.00  0.00    -0.424 OA
BRANCH  13  14
ATOM     14  C   UNL     1      44.585 131.679  19.010  1.00  0.00     0.139 A 
ATOM     15  C   UNL     1      45.761 131.038  19.431  1.00  0.00     0.048 A 
ATOM     16  C   UNL     1      43.699 132.239  19.977  1.00  0.00     0.037 A 
ATOM     17  C   UNL     1      46.089 130.967  20.779  1.00  0.00     0.005 A 
ATOM     18  C   UNL     1      42.478 132.872  19.606  1.00  0.00     0.069 A 
ATOM     19  C   UNL     1      44.048 132.159  21.358  1.00  0.00     0.006 A 
ATOM     20  C   UNL     1      45.248 131.522  21.733  1.00  0.00     0.010 A 
ATOM     21  C   UNL     1      41.662 133.461  20.601  1.00  0.00     0.071 A 
ATOM     22  C   UNL     1      43.194 132.712  22.339  1.00  0.00     0.069 A 
ATOM     23  C   UNL     1      42.015 133.366  21.956  1.00  0.00     0.079 A 
ATOM     24  Cl  UNL     1      40.236 134.411  20.163  1.00  0.00    -0.082 Cl
ATOM     25  Cl  UNL     1      43.591 132.614  24.062  1.00  0.00    -0.082 Cl
ATOM     26  Cl  UNL     1      40.971 134.089  23.188  1.00  0.00    -0.081 Cl
BRANCH  18  27
ATOM     27  N   UNL     1      42.104 132.938  18.219  1.00  0.00    -0.058 NA
BRANCH  27  28
ATOM     28  N   UNL     1      42.029 133.999  17.597  1.00  0.00     0.005 N 
ATOM     29  N   UNL     1      41.960 135.060  16.978  1.00  0.00    -0.003 NA
ENDBRANCH  27  28
ENDBRANCH  18  27
ENDBRANCH  13  14
ENDBRANCH   1  13
TORSDOF 8
ENDMDL
MODEL 6
REMARK VINA RESULT:      -6.4      2.141      2.716
REMARK SMILES [N-]=[N+]=Nc1c(Cl)c(Cl)c(Cl)c2cccc(OC(=O)[C@@H](N=C=O)c3ncc[nH]3)c12
REMARK SMILES IDX 17 1 18 2 19 3 23 4 25 5 24 6 26 7 27 8 20 10 21 11 22 12
REMARK SMILES IDX 16 13 15 14 14 15 28 16 13 17 4 18 11 19 12 20 5 21 9 22
REMARK SMILES IDX 7 23 6 24 10 25 8 26 3 27 2 28 1 29
REMARK H PARENT 27 9
ROOT
ATOM      1  C   UNL     1      45.411 131.384  15.757  1.00  0.00     0.345 C 
ATOM      2  O   UNL     1      46.119 132.350  15.357  1.00  0.00    -0.249 OA
ENDROOT
BRANCH   1   3
ATOM      3  C   UNL     1      45.867 129.977  15.503  1.00  0.00     0.294 C 
BRANCH   3   4
ATOM      4  C   UNL     1      46.648 129.934  14.223  1.00  0.00     0.143 A 
ATOM      5  C   UNL     1      47.280 130.331  12.231  1.00  0.00     0.131 A 
ATOM      6  N   UNL     1      46.271 130.570  13.093  1.00  0.00    -0.239 NA
ATOM      7  C   UNL     1      48.247 129.574  12.853  1.00  0.00     0.104 A 
ATOM      8  N   UNL     1      47.848 129.330  14.109  1.00  0.00    -0.346 N 
ATOM      9  H   UNL     1      48.365 128.798  14.844  1.00  0.00     0.167 HD
ENDBRANCH   3   4
BRANCH   3  10
ATOM     10  N   UNL     1      44.719 129.079  15.411  1.00  0.00    -0.182 NA
BRANCH  10  11
ATOM     11  C   UNL     1      44.798 127.849  15.735  1.00  0.00     0.236 C 
ATOM     12  O   UNL     1      44.876 126.656  16.049  1.00  0.00    -0.211 OA
ENDBRANCH  10  11
ENDBRANCH   3  10
ENDBRANCH   1   3
BRANCH   1  13
ATOM     13  O   UNL     1      44.172 131.607  16.372  1.00  0.00    -0.424 OA
BRANCH  13  14
ATOM     14  C   UNL     1      43.992 131.947  17.722  1.00  0.00     0.139 A 
ATOM     15  C   UNL     1      44.984 131.612  18.658  1.00  0.00     0.048 A 
ATOM     16  C   UNL     1      42.793 132.585  18.160  1.00  0.00     0.037 A 
ATOM     17  C   UNL     1      44.827 131.919  20.002  1.00  0.00     0.005 A 
ATOM     18  C   UNL     1      41.742 132.918  17.258  1.00  0.00     0.069 A 
ATOM     19  C   UNL     1      42.645 132.896  19.544  1.00  0.00     0.006 A 
ATOM     20  C   UNL     1      43.675 132.557  20.444  1.00  0.00     0.010 A 
ATOM     21  C   UNL     1      40.598 133.601  17.734  1.00  0.00     0.071 A 
ATOM     22  C   UNL     1      41.473 133.535  20.006  1.00  0.00     0.069 A 
ATOM     23  C   UNL     1      40.464 133.892  19.100  1.00  0.00     0.079 A 
ATOM     24  Cl  UNL     1      39.360 134.191  16.619  1.00  0.00    -0.082 Cl
ATOM     25  Cl  UNL     1      41.252 133.920  21.721  1.00  0.00    -0.082 Cl
ATOM     26  Cl  UNL     1      39.017 134.726  19.682  1.00  0.00    -0.081 Cl
BRANCH  18  27
ATOM     27  N   UNL     1      41.870 132.589  15.864  1.00  0.00    -0.058 NA
BRANCH  27  28
ATOM     28  N   UNL     1      41.930 133.443  14.978  1.00  0.00     0.005 N 
ATOM     29  N   UNL     1      41.991 134.301  14.098  1.00  0.00    -0.003 NA
ENDBRANCH  27  28
ENDBRANCH  18  27
ENDBRANCH  13  14
ENDBRANCH   1  13
TORSDOF 8
ENDMDL
MODEL 7
REMARK VINA RESULT:      -6.4      2.659      4.066
REMARK SMILES [N-]=[N+]=Nc1c(Cl)c(Cl)c(Cl)c2cccc(OC(=O)[C@@H](N=C=O)c3ncc[nH]3)c12
REMARK SMILES IDX 17 1 18 2 19 3 23 4 25 5 24 6 26 7 27 8 20 10 21 11 22 12
REMARK SMILES IDX 16 13 15 14 14 15 28 16 13 17 4 18 11 19 12 20 5 21 9 22
REMARK SMILES IDX 7 23 6 24 10 25 8 26 3 27 2 28 1 29
REMARK H PARENT 27 9
ROOT
ATOM      1  C   UNL     1      44.583 133.114  16.170  1.00  0.00     0.345 C 
ATOM      2  O   UNL     1      44.865 134.159  15.521  1.00  0.00    -0.249 OA
ENDROOT
BRANCH   1   3
ATOM      3  C   UNL     1      45.597 132.012  16.275  1.00  0.00     0.294 C 
BRANCH   3   4
ATOM      4  C   UNL     1      45.911 131.496  14.903  1.00  0.00     0.143 A 
ATOM      5  C   UNL     1      46.978 130.989  13.133  1.00  0.00     0.131 A 
ATOM      6  N   UNL     1      47.105 131.664  14.294  1.00  0.00    -0.239 NA
ATOM      7  C   UNL     1      45.727 130.419  13.068  1.00  0.00     0.104 A 
ATOM      8  N   UNL     1      45.060 130.735  14.186  1.00  0.00    -0.346 N 
ATOM      9  H   UNL     1      44.093 130.442  14.449  1.00  0.00     0.167 HD
ENDBRANCH   3   4
BRANCH   3  10
ATOM     10  N   UNL     1      45.084 130.926  17.107  1.00  0.00    -0.182 NA
BRANCH  10  11
ATOM     11  C   UNL     1      45.442 130.779  18.321  1.00  0.00     0.236 C 
ATOM     12  O   UNL     1      45.791 130.637  19.498  1.00  0.00    -0.211 OA
ENDBRANCH  10  11
ENDBRANCH   3  10
ENDBRANCH   1   3
BRANCH   1  13
ATOM     13  O   UNL     1      43.312 132.937  16.733  1.00  0.00    -0.424 OA
BRANCH  13  14
ATOM     14  C   UNL     1      42.807 133.660  17.825  1.00  0.00     0.139 A 
ATOM     15  C   UNL     1      43.637 133.917  18.928  1.00  0.00     0.048 A 
ATOM     16  C   UNL     1      41.448 134.095  17.845  1.00  0.00     0.037 A 
ATOM     17  C   UNL     1      43.160 134.615  20.029  1.00  0.00     0.005 A 
ATOM     18  C   UNL     1      40.555 133.833  16.768  1.00  0.00     0.069 A 
ATOM     19  C   UNL     1      40.971 134.811  18.983  1.00  0.00     0.006 A 
ATOM     20  C   UNL     1      41.846 135.061  20.060  1.00  0.00     0.010 A 
ATOM     21  C   UNL     1      39.232 134.334  16.814  1.00  0.00     0.071 A 
ATOM     22  C   UNL     1      39.633 135.261  19.029  1.00  0.00     0.069 A 
ATOM     23  C   UNL     1      38.777 135.030  17.944  1.00  0.00     0.079 A 
ATOM     24  Cl  UNL     1      38.153 134.187  15.420  1.00  0.00    -0.082 Cl
ATOM     25  Cl  UNL     1      39.007 136.138  20.435  1.00  0.00    -0.082 Cl
ATOM     26  Cl  UNL     1      37.114 135.630  17.994  1.00  0.00    -0.081 Cl
BRANCH  18  27
ATOM     27  N   UNL     1      41.016 133.091  15.625  1.00  0.00    -0.058 NA
BRANCH  27  28
ATOM     28  N   UNL     1      41.174 133.603  14.515  1.00  0.00     0.005 N 
ATOM     29  N   UNL     1      41.330 134.120  13.410  1.00  0.00    -0.003 NA
ENDBRANCH  27  28
ENDBRANCH  18  27
ENDBRANCH  13  14
ENDBRANCH   1  13
TORSDOF 8
ENDMDL
MODEL 8
REMARK VINA RESULT:      -6.3      2.062      3.258
REMARK SMILES [N-]=[N+]=Nc1c(Cl)c(Cl)c(Cl)c2cccc(OC(=O)[C@@H](N=C=O)c3ncc[nH]3)c12
REMARK SMILES IDX 17 1 18 2 19 3 23 4 25 5 24 6 26 7 27 8 20 10 21 11 22 12
REMARK SMILES IDX 16 13 15 14 14 15 28 16 13 17 4 18 11 19 12 20 5 21 9 22
REMARK SMILES IDX 7 23 6 24 10 25 8 26 3 27 2 28 1 29
REMARK H PARENT 27 9
ROOT
ATOM      1  C   UNL     1      45.350 132.130  15.801  1.00  0.00     0.345 C 
ATOM      2  O   UNL     1      46.154 132.935  15.253  1.00  0.00    -0.249 OA
ENDROOT
BRANCH   1   3
ATOM      3  C   UNL     1      44.926 130.892  15.067  1.00  0.00     0.294 C 
BRANCH   3   4
ATOM      4  C   UNL     1      46.114 130.299  14.370  1.00  0.00     0.143 A 
ATOM      5  C   UNL     1      47.501 129.764  12.848  1.00  0.00     0.131 A 
ATOM      6  N   UNL     1      46.291 130.331  13.031  1.00  0.00    -0.239 NA
ATOM      7  C   UNL     1      48.035 129.415  14.067  1.00  0.00     0.104 A 
ATOM      8  N   UNL     1      47.161 129.758  15.024  1.00  0.00    -0.346 N 
ATOM      9  H   UNL     1      47.277 129.643  16.056  1.00  0.00     0.167 HD
ENDBRANCH   3   4
BRANCH   3  10
ATOM     10  N   UNL     1      43.888 131.211  14.089  1.00  0.00    -0.182 NA
BRANCH  10  11
ATOM     11  C   UNL     1      42.841 131.865  14.406  1.00  0.00     0.236 C 
ATOM     12  O   UNL     1      41.826 132.499  14.715  1.00  0.00    -0.211 OA
ENDBRANCH  10  11
ENDBRANCH   3  10
ENDBRANCH   1   3
BRANCH   1  13
ATOM     13  O   UNL     1      44.795 132.413  17.056  1.00  0.00    -0.424 OA
BRANCH  13  14
ATOM     14  C   UNL     1      44.037 133.553  17.364  1.00  0.00     0.139 A 
ATOM     15  C   UNL     1      43.977 134.612  16.444  1.00  0.00     0.048 A 
ATOM     16  C   UNL     1      43.367 133.666  18.619  1.00  0.00     0.037 A 
ATOM     17  C   UNL     1      43.249 135.760  16.727  1.00  0.00     0.005 A 
ATOM     18  C   UNL     1      43.422 132.636  19.600  1.00  0.00     0.069 A 
ATOM     19  C   UNL     1      42.623 134.851  18.897  1.00  0.00     0.006 A 
ATOM     20  C   UNL     1      42.576 135.881  17.935  1.00  0.00     0.010 A 
ATOM     21  C   UNL     1      42.694 132.775  20.805  1.00  0.00     0.071 A 
ATOM     22  C   UNL     1      41.942 134.989  20.127  1.00  0.00     0.069 A 
ATOM     23  C   UNL     1      41.973 133.950  21.067  1.00  0.00     0.079 A 
ATOM     24  Cl  UNL     1      42.590 131.443  21.965  1.00  0.00    -0.082 Cl
ATOM     25  Cl  UNL     1      41.023 136.454  20.509  1.00  0.00    -0.082 Cl
ATOM     26  Cl  UNL     1      41.087 134.116  22.589  1.00  0.00    -0.081 Cl
BRANCH  18  27
ATOM     27  N   UNL     1      44.188 131.447  19.341  1.00  0.00    -0.058 NA
BRANCH  27  28
ATOM     28  N   UNL     1      45.251 131.198  19.914  1.00  0.00     0.005 N 
ATOM     29  N   UNL     1      46.315 130.954  20.482  1.00  0.00    -0.003 NA
ENDBRANCH  27  28
ENDBRANCH  18  27
ENDBRANCH  13  14
ENDBRANCH   1  13
TORSDOF 8
ENDMDL
MODEL 9
REMARK VINA RESULT:      -6.3      2.127      3.212
REMARK SMILES [N-]=[N+]=Nc1c(Cl)c(Cl)c(Cl)c2cccc(OC(=O)[C@@H](N=C=O)c3ncc[nH]3)c12
REMARK SMILES IDX 17 1 18 2 19 3 23 4 25 5 24 6 26 7 27 8 20 10 21 11 22 12
REMARK SMILES IDX 16 13 15 14 14 15 28 16 13 17 4 18 11 19 12 20 5 21 9 22
REMARK SMILES IDX 7 23 6 24 10 25 8 26 3 27 2 28 1 29
REMARK H PARENT 27 9
ROOT
ATOM      1  C   UNL     1      45.397 132.267  15.961  1.00  0.00     0.345 C 
ATOM      2  O   UNL     1      46.014 133.150  15.302  1.00  0.00    -0.249 OA
ENDROOT
BRANCH   1   3
ATOM      3  C   UNL     1      45.989 130.894  16.094  1.00  0.00     0.294 C 
BRANCH   3   4
ATOM      4  C   UNL     1      46.692 130.533  14.820  1.00  0.00     0.143 A 
ATOM      5  C   UNL     1      48.069 129.658  13.454  1.00  0.00     0.131 A 
ATOM      6  N   UNL     1      47.834 129.813  14.773  1.00  0.00    -0.239 NA
ATOM      7  C   UNL     1      47.068 130.270  12.734  1.00  0.00     0.104 A 
ATOM      8  N   UNL     1      46.200 130.815  13.598  1.00  0.00    -0.346 N 
ATOM      9  H   UNL     1      45.323 131.334  13.369  1.00  0.00     0.167 HD
ENDBRANCH   3   4
BRANCH   3  10
ATOM     10  N   UNL     1      44.943 129.914  16.377  1.00  0.00    -0.182 NA
BRANCH  10  11
ATOM     11  C   UNL     1      45.008 128.717  15.946  1.00  0.00     0.236 C 
ATOM     12  O   UNL     1      45.071 127.555  15.526  1.00  0.00    -0.211 OA
ENDBRANCH  10  11
ENDBRANCH   3  10
ENDBRANCH   1   3
BRANCH   1  13
ATOM     13  O   UNL     1      44.134 132.530  16.508  1.00  0.00    -0.424 OA
BRANCH  13  14
ATOM     14  C   UNL     1      43.897 133.315  17.647  1.00  0.00     0.139 A 
ATOM     15  C   UNL     1      44.389 132.892  18.892  1.00  0.00     0.048 A 
ATOM     16  C   UNL     1      43.123 134.510  17.561  1.00  0.00     0.037 A 
ATOM     17  C   UNL     1      44.157 133.639  20.040  1.00  0.00     0.005 A 
ATOM     18  C   UNL     1      42.573 134.966  16.329  1.00  0.00     0.069 A 
ATOM     19  C   UNL     1      42.892 135.268  18.747  1.00  0.00     0.006 A 
ATOM     20  C   UNL     1      43.422 134.814  19.972  1.00  0.00     0.010 A 
ATOM     21  C   UNL     1      41.860 136.188  16.288  1.00  0.00     0.071 A 
ATOM     22  C   UNL     1      42.136 136.460  18.692  1.00  0.00     0.069 A 
ATOM     23  C   UNL     1      41.634 136.917  17.465  1.00  0.00     0.079 A 
ATOM     24  Cl  UNL     1      41.322 136.877  14.751  1.00  0.00    -0.082 Cl
ATOM     25  Cl  UNL     1      41.818 137.414  20.150  1.00  0.00    -0.082 Cl
ATOM     26  Cl  UNL     1      40.722 138.431  17.399  1.00  0.00    -0.081 Cl
BRANCH  18  27
ATOM     27  N   UNL     1      42.779 134.199  15.130  1.00  0.00    -0.058 NA
BRANCH  27  28
ATOM     28  N   UNL     1      41.886 133.537  14.598  1.00  0.00     0.005 N 
ATOM     29  N   UNL     1      40.998 132.871  14.069  1.00  0.00    -0.003 NA
ENDBRANCH  27  28
ENDBRANCH  18  27
ENDBRANCH  13  14
ENDBRANCH   1  13
TORSDOF 8
ENDMDL


