REMARK SMILES CC[C@H]1C[C@]1(N)C(=O)Oc1ccccc(O)c(NC2(CF)COC2)c(N=[N+]=[N-])c(Cl)c1Cl
REMARK SMILES IDX 15 1 14 2 13 3 12 4 11 5 10 6 31 7 32 8 29 9 30 10 25 11
REMARK SMILES IDX 17 12 16 13 18 15 19 17 22 18 24 19 23 20 20 21 21 22 26 23
REMARK SMILES IDX 27 24 28 25 9 26 7 27 8 28 5 29 4 30 3 31 6 32 2 35 1 36
REMARK H PARENT 16 14 18 16 6 33 6 34
ROOT
ATOM      1  C   UNL     1      -0.745  -1.397  -3.697  1.00  0.00     0.139 A 
ATOM      2  C   UNL     1       0.215  -1.076  -4.685  1.00  0.00     0.048 A 
ATOM      3  C   UNL     1       1.097   0.023  -4.670  1.00  0.00     0.004 A 
ATOM      4  C   UNL     1       1.454   0.732  -3.519  1.00  0.00     0.004 A 
ATOM      5  C   UNL     1       1.487   0.123  -2.264  1.00  0.00     0.049 A 
ATOM      6  C   UNL     1       0.983   0.728  -1.098  1.00  0.00     0.151 A 
ATOM      7  C   UNL     1      -0.002   1.744  -1.109  1.00  0.00     0.102 A 
ATOM      8  Cl  UNL     1      -0.029   2.817   0.299  1.00  0.00    -0.079 Cl
ATOM      9  C   UNL     1      -1.010   1.905  -2.103  1.00  0.00     0.075 A 
ATOM     10  Cl  UNL     1      -1.977   3.381  -2.058  1.00  0.00    -0.082 Cl
ATOM     11  C   UNL     1      -1.353   0.912  -3.062  1.00  0.00     0.085 A 
ATOM     12  C   UNL     1      -1.278  -0.467  -2.764  1.00  0.00     0.088 A 
ENDROOT
BRANCH   1  13
ATOM     13  O   UNL     1      -1.194  -2.721  -3.674  1.00  0.00    -0.506 OA
ATOM     14  H   UNL     1      -1.940  -3.033  -3.065  1.00  0.00     0.293 HD
ENDBRANCH   1  13
BRANCH  12  15
ATOM     15  N   UNL     1      -1.831  -0.966  -1.528  1.00  0.00    -0.369 N 
ATOM     16  H   UNL     1      -1.342  -1.776  -1.090  1.00  0.00     0.161 HD
BRANCH  15  17
ATOM     17  C   UNL     1      -3.186  -0.625  -1.055  1.00  0.00     0.113 C 
ATOM     18  C   UNL     1      -3.215   0.506  -0.045  1.00  0.00     0.193 C 
ATOM     19  C   UNL     1      -3.638  -1.455   0.138  1.00  0.00     0.193 C 
ATOM     20  O   UNL     1      -3.671  -0.334   0.990  1.00  0.00    -0.376 OA
BRANCH  17  21
ATOM     21  C   UNL     1      -4.250  -0.534  -2.165  1.00  0.00     0.247 C 
ATOM     22  F   UNL     1      -4.332  -1.737  -2.842  1.00  0.00    -0.248 F 
ENDBRANCH  17  21
ENDBRANCH  15  17
ENDBRANCH  12  15
BRANCH  11  23
ATOM     23  N   UNL     1      -1.796   1.259  -4.389  1.00  0.00    -0.057 NA
BRANCH  23  24
ATOM     24  N   UNL     1      -1.828   2.414  -4.826  1.00  0.00     0.005 N 
ATOM     25  N   UNL     1      -1.874   3.565  -5.271  1.00  0.00    -0.003 NA
ENDBRANCH  23  24
ENDBRANCH  11  23
BRANCH   6  26
ATOM     26  O   UNL     1       1.461   0.316   0.156  1.00  0.00    -0.424 OA
BRANCH  26  27
ATOM     27  C   UNL     1       1.649  -1.017   0.546  1.00  0.00     0.331 C 
ATOM     28  O   UNL     1       1.194  -1.969  -0.142  1.00  0.00    -0.250 OA
BRANCH  27  29
ATOM     29  C   UNL     1       2.375  -1.313   1.822  1.00  0.00     0.118 C 
ATOM     30  C   UNL     1       1.820  -0.661   3.080  1.00  0.00     0.040 C 
ATOM     31  C   UNL     1       1.658  -2.166   2.866  1.00  0.00     0.022 C 
BRANCH  29  32
ATOM     32  N   UNL     1       3.827  -1.394   1.780  1.00  0.00    -0.316 NA
ATOM     33  H   UNL     1       4.083  -2.116   1.069  1.00  0.00     0.119 HD
ATOM     34  H   UNL     1       4.183  -0.476   1.430  1.00  0.00     0.119 HD
ENDBRANCH  29  32
BRANCH  31  35
ATOM     35  C   UNL     1       2.526  -3.051   3.773  1.00  0.00     0.003 C 
ATOM     36  C   UNL     1       1.757  -3.435   5.032  1.00  0.00     0.004 C 
ENDBRANCH  31  35
ENDBRANCH  27  29
ENDBRANCH  26  27
ENDBRANCH   6  26
TORSDOF 11


