MODEL 1
REMARK VINA RESULT:      -7.9      0.000      0.000
REMARK SMILES C#CC(=O)N[C@H](c1c(C)n[nH+]n1-c1c2ccccc2c(C(=O)N=[N+]=[N-])c2ccccc12)C(C)C
REMARK SMILES IDX 13 1 14 2 15 3 16 4 17 5 18 6 19 7 20 8 26 9 27 10 28 11
REMARK SMILES IDX 29 12 30 13 31 14 12 15 7 16 8 17 10 18 11 19 9 20 6 22 5 23
REMARK SMILES IDX 3 24 4 25 2 27 1 28 32 29 33 30 34 31 21 32 22 33 23 34
REMARK SMILES IDX 24 35 25 36
REMARK H PARENT 11 21 5 26
ROOT
ATOM      1  C   UNL     1      43.098 133.002  17.816  1.00  0.00     0.123 A 
ATOM      2  C   UNL     1      42.987 132.665  16.450  1.00  0.00     0.013 A 
ATOM      3  C   UNL     1      42.057 133.325  15.620  1.00  0.00     0.011 A 
ATOM      4  C   UNL     1      41.922 132.972  14.278  1.00  0.00     0.001 A 
ATOM      5  C   UNL     1      42.709 131.958  13.742  1.00  0.00     0.001 A 
ATOM      6  C   UNL     1      43.642 131.297  14.539  1.00  0.00     0.009 A 
ATOM      7  C   UNL     1      43.808 131.644  15.902  1.00  0.00    -0.004 A 
ATOM      8  C   UNL     1      44.758 130.984  16.720  1.00  0.00     0.040 A 
ATOM      9  C   UNL     1      44.895 131.353  18.082  1.00  0.00    -0.004 A 
ATOM     10  C   UNL     1      45.855 130.739  18.919  1.00  0.00     0.009 A 
ATOM     11  C   UNL     1      45.990 131.120  20.253  1.00  0.00     0.001 A 
ATOM     12  C   UNL     1      45.182 132.122  20.780  1.00  0.00     0.001 A 
ATOM     13  C   UNL     1      44.230 132.747  19.976  1.00  0.00     0.011 A 
ATOM     14  C   UNL     1      44.065 132.370  18.625  1.00  0.00     0.013 A 
ENDROOT
BRANCH   1  15
ATOM     15  N   UNL     1      42.208 133.976  18.389  1.00  0.00    -0.098 N 
ATOM     16  C   UNL     1      42.331 135.321  18.371  1.00  0.00     0.135 A 
ATOM     17  C   UNL     1      41.183 135.815  18.989  1.00  0.00     0.135 A 
ATOM     18  N   UNL     1      40.408 134.767  19.340  1.00  0.00     0.020 NA
ATOM     19  N   UNL     1      41.059 133.676  18.971  1.00  0.00    -0.012 N 
ATOM     20  C   UNL     1      40.740 137.235  19.139  1.00  0.00     0.076 C 
ATOM     21  H   UNL     1      40.697 132.705  19.104  1.00  0.00     0.527 HD
BRANCH  16  22
ATOM     22  C   UNL     1      43.504 136.079  17.770  1.00  0.00     0.141 C 
BRANCH  22  23
ATOM     23  N   UNL     1      43.008 137.222  16.995  1.00  0.00    -0.336 N 
ATOM     24  C   UNL     1      42.935 137.230  15.563  1.00  0.00     0.296 C 
ATOM     25  O   UNL     1      43.415 136.283  14.885  1.00  0.00    -0.260 OA
ATOM     26  H   UNL     1      42.693 138.076  17.507  1.00  0.00     0.165 HD
BRANCH  24  27
ATOM     27  C   UNL     1      42.322 138.337  14.883  1.00  0.00    -0.009 C 
ATOM     28  C   UNL     1      41.806 139.266  14.313  1.00  0.00     0.015 C 
ENDBRANCH  24  27
ENDBRANCH  22  23
BRANCH  22  29
ATOM     29  C   UNL     1      44.536 136.546  18.831  1.00  0.00     0.012 C 
ATOM     30  C   UNL     1      44.011 136.282  20.252  1.00  0.00     0.010 C 
ATOM     31  C   UNL     1      44.872 138.039  18.683  1.00  0.00     0.010 C 
ENDBRANCH  22  29
ENDBRANCH  16  22
ENDBRANCH   1  15
BRANCH   8  32
ATOM     32  C   UNL     1      45.623 129.920  16.150  1.00  0.00     0.250 C 
ATOM     33  O   UNL     1      45.188 128.741  16.083  1.00  0.00    -0.287 OA
BRANCH  32  34
ATOM     34  N   UNL     1      46.945 130.205  15.680  1.00  0.00    -0.017 NA
BRANCH  34  35
ATOM     35  N   UNL     1      47.136 130.841  14.642  1.00  0.00     0.009 N 
ATOM     36  N   UNL     1      47.327 131.476  13.606  1.00  0.00    -0.003 NA
ENDBRANCH  34  35
ENDBRANCH  32  34
ENDBRANCH   8  32
TORSDOF 8
ENDMDL
MODEL 2
REMARK VINA RESULT:      -7.3      1.916      4.416
REMARK SMILES C#CC(=O)N[C@H](c1c(C)n[nH+]n1-c1c2ccccc2c(C(=O)N=[N+]=[N-])c2ccccc12)C(C)C
REMARK SMILES IDX 13 1 14 2 15 3 16 4 17 5 18 6 19 7 20 8 26 9 27 10 28 11
REMARK SMILES IDX 29 12 30 13 31 14 12 15 7 16 8 17 10 18 11 19 9 20 6 22 5 23
REMARK SMILES IDX 3 24 4 25 2 27 1 28 32 29 33 30 34 31 21 32 22 33 23 34
REMARK SMILES IDX 24 35 25 36
REMARK H PARENT 11 21 5 26
ROOT
ATOM      1  C   UNL     1      42.388 133.214  18.299  1.00  0.00     0.123 A 
ATOM      2  C   UNL     1      43.461 132.406  18.729  1.00  0.00     0.013 A 
ATOM      3  C   UNL     1      43.709 132.211  20.104  1.00  0.00     0.011 A 
ATOM      4  C   UNL     1      44.789 131.440  20.532  1.00  0.00     0.001 A 
ATOM      5  C   UNL     1      45.637 130.850  19.600  1.00  0.00     0.001 A 
ATOM      6  C   UNL     1      45.408 131.020  18.235  1.00  0.00     0.009 A 
ATOM      7  C   UNL     1      44.312 131.788  17.774  1.00  0.00    -0.004 A 
ATOM      8  C   UNL     1      44.065 131.961  16.389  1.00  0.00     0.040 A 
ATOM      9  C   UNL     1      42.962 132.742  15.961  1.00  0.00    -0.004 A 
ATOM     10  C   UNL     1      42.665 132.909  14.588  1.00  0.00     0.009 A 
ATOM     11  C   UNL     1      41.570 133.667  14.179  1.00  0.00     0.001 A 
ATOM     12  C   UNL     1      40.742 134.266  15.123  1.00  0.00     0.001 A 
ATOM     13  C   UNL     1      41.008 134.114  16.483  1.00  0.00     0.011 A 
ATOM     14  C   UNL     1      42.119 133.362  16.922  1.00  0.00     0.013 A 
ENDROOT
BRANCH   1  15
ATOM     15  N   UNL     1      41.580 133.907  19.266  1.00  0.00    -0.098 N 
ATOM     16  C   UNL     1      41.760 135.154  19.755  1.00  0.00     0.135 A 
ATOM     17  C   UNL     1      40.677 135.389  20.600  1.00  0.00     0.135 A 
ATOM     18  N   UNL     1      39.880 134.299  20.581  1.00  0.00     0.020 NA
ATOM     19  N   UNL     1      40.459 133.424  19.775  1.00  0.00    -0.012 N 
ATOM     20  C   UNL     1      40.307 136.649  21.314  1.00  0.00     0.076 C 
ATOM     21  H   UNL     1      40.063 132.483  19.554  1.00  0.00     0.527 HD
BRANCH  16  22
ATOM     22  C   UNL     1      42.924 136.066  19.402  1.00  0.00     0.141 C 
BRANCH  22  23
ATOM     23  N   UNL     1      44.187 135.427  19.788  1.00  0.00    -0.336 N 
ATOM     24  C   UNL     1      44.812 135.627  21.063  1.00  0.00     0.296 C 
ATOM     25  O   UNL     1      44.358 136.471  21.882  1.00  0.00    -0.260 OA
ATOM     26  H   UNL     1      44.660 134.797  19.103  1.00  0.00     0.165 HD
BRANCH  24  27
ATOM     27  C   UNL     1      45.981 134.870  21.414  1.00  0.00    -0.009 C 
ATOM     28  C   UNL     1      46.963 134.234  21.707  1.00  0.00     0.015 C 
ENDBRANCH  24  27
ENDBRANCH  22  23
BRANCH  22  29
ATOM     29  C   UNL     1      42.951 136.466  17.902  1.00  0.00     0.012 C 
ATOM     30  C   UNL     1      44.322 136.149  17.281  1.00  0.00     0.010 C 
ATOM     31  C   UNL     1      42.635 137.956  17.702  1.00  0.00     0.010 C 
ENDBRANCH  22  29
ENDBRANCH  16  22
ENDBRANCH   1  15
BRANCH   8  32
ATOM     32  C   UNL     1      44.948 131.313  15.386  1.00  0.00     0.250 C 
ATOM     33  O   UNL     1      44.676 130.152  14.983  1.00  0.00    -0.287 OA
BRANCH  32  34
ATOM     34  N   UNL     1      46.107 131.978  14.874  1.00  0.00    -0.017 NA
BRANCH  34  35
ATOM     35  N   UNL     1      46.933 131.387  14.175  1.00  0.00     0.009 N 
ATOM     36  N   UNL     1      47.757 130.798  13.479  1.00  0.00    -0.003 NA
ENDBRANCH  34  35
ENDBRANCH  32  34
ENDBRANCH   8  32
TORSDOF 8
ENDMDL
MODEL 3
REMARK VINA RESULT:      -7.1      1.532      2.802
REMARK SMILES C#CC(=O)N[C@H](c1c(C)n[nH+]n1-c1c2ccccc2c(C(=O)N=[N+]=[N-])c2ccccc12)C(C)C
REMARK SMILES IDX 13 1 14 2 15 3 16 4 17 5 18 6 19 7 20 8 26 9 27 10 28 11
REMARK SMILES IDX 29 12 30 13 31 14 12 15 7 16 8 17 10 18 11 19 9 20 6 22 5 23
REMARK SMILES IDX 3 24 4 25 2 27 1 28 32 29 33 30 34 31 21 32 22 33 23 34
REMARK SMILES IDX 24 35 25 36
REMARK H PARENT 11 21 5 26
ROOT
ATOM      1  C   UNL     1      42.738 132.965  18.127  1.00  0.00     0.123 A 
ATOM      2  C   UNL     1      42.681 132.760  16.732  1.00  0.00     0.013 A 
ATOM      3  C   UNL     1      41.712 133.419  15.947  1.00  0.00     0.011 A 
ATOM      4  C   UNL     1      41.630 133.192  14.574  1.00  0.00     0.001 A 
ATOM      5  C   UNL     1      42.511 132.307  13.961  1.00  0.00     0.001 A 
ATOM      6  C   UNL     1      43.484 131.651  14.713  1.00  0.00     0.009 A 
ATOM      7  C   UNL     1      43.595 131.872  16.107  1.00  0.00    -0.004 A 
ATOM      8  C   UNL     1      44.585 131.215  16.880  1.00  0.00     0.040 A 
ATOM      9  C   UNL     1      44.666 131.455  18.275  1.00  0.00    -0.004 A 
ATOM     10  C   UNL     1      45.661 130.843  19.072  1.00  0.00     0.009 A 
ATOM     11  C   UNL     1      45.740 131.097  20.440  1.00  0.00     0.001 A 
ATOM     12  C   UNL     1      44.839 131.970  21.042  1.00  0.00     0.001 A 
ATOM     13  C   UNL     1      43.851 132.591  20.279  1.00  0.00     0.011 A 
ATOM     14  C   UNL     1      43.743 132.339  18.894  1.00  0.00     0.013 A 
ENDROOT
BRANCH   1  15
ATOM     15  N   UNL     1      41.758 133.798  18.770  1.00  0.00    -0.098 N 
ATOM     16  C   UNL     1      41.796 135.138  18.945  1.00  0.00     0.135 A 
ATOM     17  C   UNL     1      40.587 135.475  19.550  1.00  0.00     0.135 A 
ATOM     18  N   UNL     1      39.861 134.347  19.703  1.00  0.00     0.020 NA
ATOM     19  N   UNL     1      40.600 133.356  19.230  1.00  0.00    -0.012 N 
ATOM     20  C   UNL     1      40.047 136.833  19.865  1.00  0.00     0.076 C 
ATOM     21  H   UNL     1      40.292 132.358  19.205  1.00  0.00     0.527 HD
BRANCH  16  22
ATOM     22  C   UNL     1      42.951 136.036  18.530  1.00  0.00     0.141 C 
BRANCH  22  23
ATOM     23  N   UNL     1      44.190 135.571  19.162  1.00  0.00    -0.336 N 
ATOM     24  C   UNL     1      44.749 136.174  20.337  1.00  0.00     0.296 C 
ATOM     25  O   UNL     1      44.256 137.228  20.820  1.00  0.00    -0.260 OA
ATOM     26  H   UNL     1      44.696 134.762  18.738  1.00  0.00     0.165 HD
BRANCH  24  27
ATOM     27  C   UNL     1      45.897 135.584  20.968  1.00  0.00    -0.009 C 
ATOM     28  C   UNL     1      46.861 135.090  21.497  1.00  0.00     0.015 C 
ENDBRANCH  24  27
ENDBRANCH  22  23
BRANCH  22  29
ATOM     29  C   UNL     1      43.126 136.130  16.990  1.00  0.00     0.012 C 
ATOM     30  C   UNL     1      44.535 135.674  16.575  1.00  0.00     0.010 C 
ATOM     31  C   UNL     1      42.881 137.557  16.474  1.00  0.00     0.010 C 
ENDBRANCH  22  29
ENDBRANCH  16  22
ENDBRANCH   1  15
BRANCH   8  32
ATOM     32  C   UNL     1      45.549 130.290  16.230  1.00  0.00     0.250 C 
ATOM     33  O   UNL     1      45.281 129.061  16.171  1.00  0.00    -0.287 OA
BRANCH  32  34
ATOM     34  N   UNL     1      46.779 130.765  15.674  1.00  0.00    -0.017 NA
BRANCH  34  35
ATOM     35  N   UNL     1      47.403 130.110  14.837  1.00  0.00     0.009 N 
ATOM     36  N   UNL     1      48.027 129.458  14.003  1.00  0.00    -0.003 NA
ENDBRANCH  34  35
ENDBRANCH  32  34
ENDBRANCH   8  32
TORSDOF 8
ENDMDL
MODEL 4
REMARK VINA RESULT:      -6.8      1.667      3.658
REMARK SMILES C#CC(=O)N[C@H](c1c(C)n[nH+]n1-c1c2ccccc2c(C(=O)N=[N+]=[N-])c2ccccc12)C(C)C
REMARK SMILES IDX 13 1 14 2 15 3 16 4 17 5 18 6 19 7 20 8 26 9 27 10 28 11
REMARK SMILES IDX 29 12 30 13 31 14 12 15 7 16 8 17 10 18 11 19 9 20 6 22 5 23
REMARK SMILES IDX 3 24 4 25 2 27 1 28 32 29 33 30 34 31 21 32 22 33 23 34
REMARK SMILES IDX 24 35 25 36
REMARK H PARENT 11 21 5 26
ROOT
ATOM      1  C   UNL     1      42.613 133.373  18.622  1.00  0.00     0.123 A 
ATOM      2  C   UNL     1      43.642 132.495  19.022  1.00  0.00     0.013 A 
ATOM      3  C   UNL     1      43.834 132.184  20.384  1.00  0.00     0.011 A 
ATOM      4  C   UNL     1      44.871 131.343  20.786  1.00  0.00     0.001 A 
ATOM      5  C   UNL     1      45.732 130.798  19.839  1.00  0.00     0.001 A 
ATOM      6  C   UNL     1      45.558 131.082  18.485  1.00  0.00     0.009 A 
ATOM      7  C   UNL     1      44.506 131.923  18.050  1.00  0.00    -0.004 A 
ATOM      8  C   UNL     1      44.315 132.213  16.676  1.00  0.00     0.040 A 
ATOM      9  C   UNL     1      43.255 133.064  16.274  1.00  0.00    -0.004 A 
ATOM     10  C   UNL     1      43.014 133.349  14.910  1.00  0.00     0.009 A 
ATOM     11  C   UNL     1      41.960 134.176  14.526  1.00  0.00     0.001 A 
ATOM     12  C   UNL     1      41.119 134.729  15.487  1.00  0.00     0.001 A 
ATOM     13  C   UNL     1      41.331 134.461  16.838  1.00  0.00     0.011 A 
ATOM     14  C   UNL     1      42.399 133.638  17.253  1.00  0.00     0.013 A 
ENDROOT
BRANCH   1  15
ATOM     15  N   UNL     1      41.795 134.017  19.614  1.00  0.00    -0.098 N 
ATOM     16  C   UNL     1      42.032 135.183  20.254  1.00  0.00     0.135 A 
ATOM     17  C   UNL     1      40.914 135.410  21.055  1.00  0.00     0.135 A 
ATOM     18  N   UNL     1      40.043 134.397  20.863  1.00  0.00     0.020 NA
ATOM     19  N   UNL     1      40.609 133.572  19.996  1.00  0.00    -0.012 N 
ATOM     20  C   UNL     1      40.590 136.609  21.887  1.00  0.00     0.076 C 
ATOM     21  H   UNL     1      40.162 132.697  19.645  1.00  0.00     0.527 HD
BRANCH  16  22
ATOM     22  C   UNL     1      43.281 136.032  20.078  1.00  0.00     0.141 C 
BRANCH  22  23
ATOM     23  N   UNL     1      42.997 137.144  19.163  1.00  0.00    -0.336 N 
ATOM     24  C   UNL     1      43.521 137.219  17.830  1.00  0.00     0.296 C 
ATOM     25  O   UNL     1      44.362 136.377  17.417  1.00  0.00    -0.260 OA
ATOM     26  H   UNL     1      42.386 137.923  19.495  1.00  0.00     0.165 HD
BRANCH  24  27
ATOM     27  C   UNL     1      43.098 138.275  16.953  1.00  0.00    -0.009 C 
ATOM     28  C   UNL     1      42.742 139.162  16.218  1.00  0.00     0.015 C 
ENDBRANCH  24  27
ENDBRANCH  22  23
BRANCH  22  29
ATOM     29  C   UNL     1      43.851 136.563  21.421  1.00  0.00     0.012 C 
ATOM     30  C   UNL     1      44.908 137.651  21.169  1.00  0.00     0.010 C 
ATOM     31  C   UNL     1      44.471 135.438  22.264  1.00  0.00     0.010 C 
ENDBRANCH  22  29
ENDBRANCH  16  22
ENDBRANCH   1  15
BRANCH   8  32
ATOM     32  C   UNL     1      45.212 131.613  15.655  1.00  0.00     0.250 C 
ATOM     33  O   UNL     1      46.161 132.297  15.189  1.00  0.00    -0.287 OA
BRANCH  32  34
ATOM     34  N   UNL     1      45.016 130.276  15.184  1.00  0.00    -0.017 NA
BRANCH  34  35
ATOM     35  N   UNL     1      45.903 129.668  14.582  1.00  0.00     0.009 N 
ATOM     36  N   UNL     1      46.788 129.061  13.982  1.00  0.00    -0.003 NA
ENDBRANCH  34  35
ENDBRANCH  32  34
ENDBRANCH   8  32
TORSDOF 8
ENDMDL
MODEL 5
REMARK VINA RESULT:      -6.7      2.353      3.693
REMARK SMILES C#CC(=O)N[C@H](c1c(C)n[nH+]n1-c1c2ccccc2c(C(=O)N=[N+]=[N-])c2ccccc12)C(C)C
REMARK SMILES IDX 13 1 14 2 15 3 16 4 17 5 18 6 19 7 20 8 26 9 27 10 28 11
REMARK SMILES IDX 29 12 30 13 31 14 12 15 7 16 8 17 10 18 11 19 9 20 6 22 5 23
REMARK SMILES IDX 3 24 4 25 2 27 1 28 32 29 33 30 34 31 21 32 22 33 23 34
REMARK SMILES IDX 24 35 25 36
REMARK H PARENT 11 21 5 26
ROOT
ATOM      1  C   UNL     1      42.767 133.825  18.702  1.00  0.00     0.123 A 
ATOM      2  C   UNL     1      42.569 134.278  17.381  1.00  0.00     0.013 A 
ATOM      3  C   UNL     1      41.645 135.307  17.104  1.00  0.00     0.011 A 
ATOM      4  C   UNL     1      41.423 135.734  15.795  1.00  0.00     0.001 A 
ATOM      5  C   UNL     1      42.116 135.144  14.743  1.00  0.00     0.001 A 
ATOM      6  C   UNL     1      43.041 134.132  14.991  1.00  0.00     0.009 A 
ATOM      7  C   UNL     1      43.294 133.688  16.312  1.00  0.00    -0.004 A 
ATOM      8  C   UNL     1      44.238 132.665  16.577  1.00  0.00     0.040 A 
ATOM      9  C   UNL     1      44.464 132.240  17.910  1.00  0.00    -0.004 A 
ATOM     10  C   UNL     1      45.421 131.245  18.215  1.00  0.00     0.009 A 
ATOM     11  C   UNL     1      45.645 130.846  19.532  1.00  0.00     0.001 A 
ATOM     12  C   UNL     1      44.929 131.431  20.572  1.00  0.00     0.001 A 
ATOM     13  C   UNL     1      43.983 132.418  20.300  1.00  0.00     0.011 A 
ATOM     14  C   UNL     1      43.729 132.830  18.974  1.00  0.00     0.013 A 
ENDROOT
BRANCH   1  15
ATOM     15  N   UNL     1      41.971 134.364  19.771  1.00  0.00    -0.098 N 
ATOM     16  C   UNL     1      42.209 135.476  20.503  1.00  0.00     0.135 A 
ATOM     17  C   UNL     1      41.115 135.610  21.356  1.00  0.00     0.135 A 
ATOM     18  N   UNL     1      40.256 134.600  21.104  1.00  0.00     0.020 NA
ATOM     19  N   UNL     1      40.806 133.865  20.151  1.00  0.00    -0.012 N 
ATOM     20  C   UNL     1      40.798 136.726  22.299  1.00  0.00     0.076 C 
ATOM     21  H   UNL     1      40.362 133.014  19.739  1.00  0.00     0.527 HD
BRANCH  16  22
ATOM     22  C   UNL     1      43.437 136.361  20.362  1.00  0.00     0.141 C 
BRANCH  22  23
ATOM     23  N   UNL     1      44.651 135.549  20.501  1.00  0.00    -0.336 N 
ATOM     24  C   UNL     1      45.661 135.806  21.485  1.00  0.00     0.296 C 
ATOM     25  O   UNL     1      45.610 136.834  22.213  1.00  0.00    -0.260 OA
ATOM     26  H   UNL     1      44.792 134.744  19.851  1.00  0.00     0.165 HD
BRANCH  24  27
ATOM     27  C   UNL     1      46.759 134.892  21.640  1.00  0.00    -0.009 C 
ATOM     28  C   UNL     1      47.679 134.125  21.772  1.00  0.00     0.015 C 
ENDBRANCH  24  27
ENDBRANCH  22  23
BRANCH  22  29
ATOM     29  C   UNL     1      43.464 137.158  19.030  1.00  0.00     0.012 C 
ATOM     30  C   UNL     1      44.823 136.996  18.328  1.00  0.00     0.010 C 
ATOM     31  C   UNL     1      43.182 138.652  19.252  1.00  0.00     0.010 C 
ENDBRANCH  22  29
ENDBRANCH  16  22
ENDBRANCH   1  15
BRANCH   8  32
ATOM     32  C   UNL     1      45.004 132.049  15.463  1.00  0.00     0.250 C 
ATOM     33  O   UNL     1      46.128 132.521  15.151  1.00  0.00    -0.287 OA
BRANCH  32  34
ATOM     34  N   UNL     1      44.486 130.933  14.731  1.00  0.00    -0.017 NA
BRANCH  34  35
ATOM     35  N   UNL     1      44.810 129.776  15.006  1.00  0.00     0.009 N 
ATOM     36  N   UNL     1      45.133 128.622  15.282  1.00  0.00    -0.003 NA
ENDBRANCH  34  35
ENDBRANCH  32  34
ENDBRANCH   8  32
TORSDOF 8
ENDMDL
MODEL 6
REMARK VINA RESULT:      -6.5      1.831      4.398
REMARK SMILES C#CC(=O)N[C@H](c1c(C)n[nH+]n1-c1c2ccccc2c(C(=O)N=[N+]=[N-])c2ccccc12)C(C)C
REMARK SMILES IDX 13 1 14 2 15 3 16 4 17 5 18 6 19 7 20 8 26 9 27 10 28 11
REMARK SMILES IDX 29 12 30 13 31 14 12 15 7 16 8 17 10 18 11 19 9 20 6 22 5 23
REMARK SMILES IDX 3 24 4 25 2 27 1 28 32 29 33 30 34 31 21 32 22 33 23 34
REMARK SMILES IDX 24 35 25 36
REMARK H PARENT 11 21 5 26
ROOT
ATOM      1  C   UNL     1      41.621 133.509  18.113  1.00  0.00     0.123 A 
ATOM      2  C   UNL     1      42.633 132.802  18.796  1.00  0.00     0.013 A 
ATOM      3  C   UNL     1      42.644 132.745  20.206  1.00  0.00     0.011 A 
ATOM      4  C   UNL     1      43.661 132.076  20.885  1.00  0.00     0.001 A 
ATOM      5  C   UNL     1      44.682 131.452  20.173  1.00  0.00     0.001 A 
ATOM      6  C   UNL     1      44.687 131.486  18.780  1.00  0.00     0.009 A 
ATOM      7  C   UNL     1      43.661 132.149  18.066  1.00  0.00    -0.004 A 
ATOM      8  C   UNL     1      43.653 132.183  16.649  1.00  0.00     0.040 A 
ATOM      9  C   UNL     1      42.612 132.860  15.965  1.00  0.00    -0.004 A 
ATOM     10  C   UNL     1      42.554 132.887  14.552  1.00  0.00     0.009 A 
ATOM     11  C   UNL     1      41.518 133.544  13.890  1.00  0.00     0.001 A 
ATOM     12  C   UNL     1      40.516 134.180  14.616  1.00  0.00     0.001 A 
ATOM     13  C   UNL     1      40.546 134.165  16.010  1.00  0.00     0.011 A 
ATOM     14  C   UNL     1      41.592 133.517  16.703  1.00  0.00     0.013 A 
ENDROOT
BRANCH   1  15
ATOM     15  N   UNL     1      40.631 134.240  18.856  1.00  0.00    -0.098 N 
ATOM     16  C   UNL     1      40.662 135.541  19.220  1.00  0.00     0.135 A 
ATOM     17  C   UNL     1      39.445 135.787  19.853  1.00  0.00     0.135 A 
ATOM     18  N   UNL     1      38.721 134.647  19.836  1.00  0.00     0.020 NA
ATOM     19  N   UNL     1      39.469 133.735  19.237  1.00  0.00    -0.012 N 
ATOM     20  C   UNL     1      38.896 137.086  20.350  1.00  0.00     0.076 C 
ATOM     21  H   UNL     1      39.166 132.750  19.067  1.00  0.00     0.527 HD
BRANCH  16  22
ATOM     22  C   UNL     1      41.817 136.492  18.948  1.00  0.00     0.141 C 
BRANCH  22  23
ATOM     23  N   UNL     1      43.078 135.866  19.360  1.00  0.00    -0.336 N 
ATOM     24  C   UNL     1      43.838 136.300  20.496  1.00  0.00     0.296 C 
ATOM     25  O   UNL     1      43.512 137.336  21.136  1.00  0.00    -0.260 OA
ATOM     26  H   UNL     1      43.448 135.066  18.799  1.00  0.00     0.165 HD
BRANCH  24  27
ATOM     27  C   UNL     1      44.997 135.558  20.909  1.00  0.00    -0.009 C 
ATOM     28  C   UNL     1      45.970 134.937  21.254  1.00  0.00     0.015 C 
ENDBRANCH  24  27
ENDBRANCH  22  23
BRANCH  22  29
ATOM     29  C   UNL     1      41.894 136.951  17.467  1.00  0.00     0.012 C 
ATOM     30  C   UNL     1      43.149 137.806  17.228  1.00  0.00     0.010 C 
ATOM     31  C   UNL     1      40.649 137.749  17.051  1.00  0.00     0.010 C 
ENDBRANCH  22  29
ENDBRANCH  16  22
ENDBRANCH   1  15
BRANCH   8  32
ATOM     32  C   UNL     1      44.722 131.496  15.879  1.00  0.00     0.250 C 
ATOM     33  O   UNL     1      44.579 130.284  15.570  1.00  0.00    -0.287 OA
BRANCH  32  34
ATOM     34  N   UNL     1      45.915 132.182  15.487  1.00  0.00    -0.017 NA
BRANCH  34  35
ATOM     35  N   UNL     1      46.603 131.790  14.543  1.00  0.00     0.009 N 
ATOM     36  N   UNL     1      47.289 131.399  13.600  1.00  0.00    -0.003 NA
ENDBRANCH  34  35
ENDBRANCH  32  34
ENDBRANCH   8  32
TORSDOF 8
ENDMDL
MODEL 7
REMARK VINA RESULT:      -6.3      0.784      3.232
REMARK SMILES C#CC(=O)N[C@H](c1c(C)n[nH+]n1-c1c2ccccc2c(C(=O)N=[N+]=[N-])c2ccccc12)C(C)C
REMARK SMILES IDX 13 1 14 2 15 3 16 4 17 5 18 6 19 7 20 8 26 9 27 10 28 11
REMARK SMILES IDX 29 12 30 13 31 14 12 15 7 16 8 17 10 18 11 19 9 20 6 22 5 23
REMARK SMILES IDX 3 24 4 25 2 27 1 28 32 29 33 30 34 31 21 32 22 33 23 34
REMARK SMILES IDX 24 35 25 36
REMARK H PARENT 11 21 5 26
ROOT
ATOM      1  C   UNL     1      42.934 132.775  17.714  1.00  0.00     0.123 A 
ATOM      2  C   UNL     1      43.850 132.195  18.618  1.00  0.00     0.013 A 
ATOM      3  C   UNL     1      43.782 132.486  19.996  1.00  0.00     0.011 A 
ATOM      4  C   UNL     1      44.706 131.942  20.887  1.00  0.00     0.001 A 
ATOM      5  C   UNL     1      45.711 131.100  20.421  1.00  0.00     0.001 A 
ATOM      6  C   UNL     1      45.794 130.790  19.064  1.00  0.00     0.009 A 
ATOM      7  C   UNL     1      44.861 131.320  18.140  1.00  0.00    -0.004 A 
ATOM      8  C   UNL     1      44.931 131.006  16.760  1.00  0.00     0.040 A 
ATOM      9  C   UNL     1      43.985 131.558  15.861  1.00  0.00    -0.004 A 
ATOM     10  C   UNL     1      44.004 131.240  14.483  1.00  0.00     0.009 A 
ATOM     11  C   UNL     1      43.059 131.778  13.611  1.00  0.00     0.001 A 
ATOM     12  C   UNL     1      42.072 132.634  14.090  1.00  0.00     0.001 A 
ATOM     13  C   UNL     1      42.027 132.960  15.444  1.00  0.00     0.011 A 
ATOM     14  C   UNL     1      42.980 132.439  16.345  1.00  0.00     0.013 A 
ENDROOT
BRANCH   1  15
ATOM     15  N   UNL     1      41.966 133.726  18.187  1.00  0.00    -0.098 N 
ATOM     16  C   UNL     1      42.076 135.073  18.223  1.00  0.00     0.135 A 
ATOM     17  C   UNL     1      40.851 135.542  18.693  1.00  0.00     0.135 A 
ATOM     18  N   UNL     1      40.045 134.480  18.907  1.00  0.00     0.020 NA
ATOM     19  N   UNL     1      40.752 133.403  18.600  1.00  0.00    -0.012 N 
ATOM     20  C   UNL     1      40.378 136.954  18.819  1.00  0.00     0.076 C 
ATOM     21  H   UNL     1      40.384 132.427  18.657  1.00  0.00     0.527 HD
BRANCH  16  22
ATOM     22  C   UNL     1      43.312 135.855  17.806  1.00  0.00     0.141 C 
BRANCH  22  23
ATOM     23  N   UNL     1      42.909 137.103  17.150  1.00  0.00    -0.336 N 
ATOM     24  C   UNL     1      42.753 137.230  15.730  1.00  0.00     0.296 C 
ATOM     25  O   UNL     1      43.079 136.291  14.956  1.00  0.00    -0.260 OA
ATOM     26  H   UNL     1      42.727 137.944  17.740  1.00  0.00     0.165 HD
BRANCH  24  27
ATOM     27  C   UNL     1      42.235 138.449  15.172  1.00  0.00    -0.009 C 
ATOM     28  C   UNL     1      41.800 139.472  14.706  1.00  0.00     0.015 C 
ENDBRANCH  24  27
ENDBRANCH  22  23
BRANCH  22  29
ATOM     29  C   UNL     1      44.275 136.147  18.988  1.00  0.00     0.012 C 
ATOM     30  C   UNL     1      43.499 136.228  20.313  1.00  0.00     0.010 C 
ATOM     31  C   UNL     1      45.059 137.452  18.778  1.00  0.00     0.010 C 
ENDBRANCH  22  29
ENDBRANCH  16  22
ENDBRANCH   1  15
BRANCH   8  32
ATOM     32  C   UNL     1      45.984 130.086  16.256  1.00  0.00     0.250 C 
ATOM     33  O   UNL     1      47.077 130.002  16.874  1.00  0.00    -0.287 OA
BRANCH  32  34
ATOM     34  N   UNL     1      45.782 129.297  15.080  1.00  0.00    -0.017 NA
BRANCH  34  35
ATOM     35  N   UNL     1      46.589 129.313  14.147  1.00  0.00     0.009 N 
ATOM     36  N   UNL     1      47.393 129.330  13.218  1.00  0.00    -0.003 NA
ENDBRANCH  34  35
ENDBRANCH  32  34
ENDBRANCH   8  32
TORSDOF 8
ENDMDL
MODEL 8
REMARK VINA RESULT:      -6.3      2.418      3.783
REMARK SMILES C#CC(=O)N[C@H](c1c(C)n[nH+]n1-c1c2ccccc2c(C(=O)N=[N+]=[N-])c2ccccc12)C(C)C
REMARK SMILES IDX 13 1 14 2 15 3 16 4 17 5 18 6 19 7 20 8 26 9 27 10 28 11
REMARK SMILES IDX 29 12 30 13 31 14 12 15 7 16 8 17 10 18 11 19 9 20 6 22 5 23
REMARK SMILES IDX 3 24 4 25 2 27 1 28 32 29 33 30 34 31 21 32 22 33 23 34
REMARK SMILES IDX 24 35 25 36
REMARK H PARENT 11 21 5 26
ROOT
ATOM      1  C   UNL     1      42.966 133.645  19.486  1.00  0.00     0.123 A 
ATOM      2  C   UNL     1      42.569 133.988  18.177  1.00  0.00     0.013 A 
ATOM      3  C   UNL     1      41.565 134.956  17.961  1.00  0.00     0.011 A 
ATOM      4  C   UNL     1      41.146 135.273  16.669  1.00  0.00     0.001 A 
ATOM      5  C   UNL     1      41.719 134.635  15.574  1.00  0.00     0.001 A 
ATOM      6  C   UNL     1      42.720 133.683  15.761  1.00  0.00     0.009 A 
ATOM      7  C   UNL     1      43.172 133.350  17.061  1.00  0.00    -0.004 A 
ATOM      8  C   UNL     1      44.194 132.389  17.262  1.00  0.00     0.040 A 
ATOM      9  C   UNL     1      44.619 132.075  18.578  1.00  0.00    -0.004 A 
ATOM     10  C   UNL     1      45.658 131.146  18.815  1.00  0.00     0.009 A 
ATOM     11  C   UNL     1      46.077 130.856  20.112  1.00  0.00     0.001 A 
ATOM     12  C   UNL     1      45.480 131.488  21.198  1.00  0.00     0.001 A 
ATOM     13  C   UNL     1      44.457 132.412  20.993  1.00  0.00     0.011 A 
ATOM     14  C   UNL     1      44.006 132.713  19.690  1.00  0.00     0.013 A 
ENDROOT
BRANCH   1  15
ATOM     15  N   UNL     1      42.296 134.230  20.616  1.00  0.00    -0.098 N 
ATOM     16  C   UNL     1      42.545 135.422  21.201  1.00  0.00     0.135 A 
ATOM     17  C   UNL     1      41.583 135.563  22.199  1.00  0.00     0.135 A 
ATOM     18  N   UNL     1      40.785 134.474  22.175  1.00  0.00     0.020 NA
ATOM     19  N   UNL     1      41.248 133.689  21.216  1.00  0.00    -0.012 N 
ATOM     20  C   UNL     1      41.317 136.742  23.079  1.00  0.00     0.076 C 
ATOM     21  H   UNL     1      40.822 132.772  20.955  1.00  0.00     0.527 HD
BRANCH  16  22
ATOM     22  C   UNL     1      43.658 136.375  20.792  1.00  0.00     0.141 C 
BRANCH  22  23
ATOM     23  N   UNL     1      44.939 135.660  20.777  1.00  0.00    -0.336 N 
ATOM     24  C   UNL     1      45.941 135.822  21.790  1.00  0.00     0.296 C 
ATOM     25  O   UNL     1      45.816 136.691  22.693  1.00  0.00    -0.260 OA
ATOM     26  H   UNL     1      45.137 135.002  19.991  1.00  0.00     0.165 HD
BRANCH  24  27
ATOM     27  C   UNL     1      47.116 134.994  21.773  1.00  0.00    -0.009 C 
ATOM     28  C   UNL     1      48.102 134.302  21.758  1.00  0.00     0.015 C 
ENDBRANCH  24  27
ENDBRANCH  22  23
BRANCH  22  29
ATOM     29  C   UNL     1      43.400 137.061  19.423  1.00  0.00     0.012 C 
ATOM     30  C   UNL     1      44.720 137.265  18.661  1.00  0.00     0.010 C 
ATOM     31  C   UNL     1      42.694 138.416  19.587  1.00  0.00     0.010 C 
ENDBRANCH  22  29
ENDBRANCH  16  22
ENDBRANCH   1  15
BRANCH   8  32
ATOM     32  C   UNL     1      44.832 131.722  16.098  1.00  0.00     0.250 C 
ATOM     33  O   UNL     1      44.410 130.597  15.724  1.00  0.00    -0.287 OA
BRANCH  32  34
ATOM     34  N   UNL     1      45.921 132.330  15.397  1.00  0.00    -0.017 NA
BRANCH  34  35
ATOM     35  N   UNL     1      46.642 131.679  14.637  1.00  0.00     0.009 N 
ATOM     36  N   UNL     1      47.361 131.031  13.880  1.00  0.00    -0.003 NA
ENDBRANCH  34  35
ENDBRANCH  32  34
ENDBRANCH   8  32
TORSDOF 8
ENDMDL
MODEL 9
REMARK VINA RESULT:      -6.2      3.128      5.043
REMARK SMILES C#CC(=O)N[C@H](c1c(C)n[nH+]n1-c1c2ccccc2c(C(=O)N=[N+]=[N-])c2ccccc12)C(C)C
REMARK SMILES IDX 13 1 14 2 15 3 16 4 17 5 18 6 19 7 20 8 26 9 27 10 28 11
REMARK SMILES IDX 29 12 30 13 31 14 12 15 7 16 8 17 10 18 11 19 9 20 6 22 5 23
REMARK SMILES IDX 3 24 4 25 2 27 1 28 32 29 33 30 34 31 21 32 22 33 23 34
REMARK SMILES IDX 24 35 25 36
REMARK H PARENT 11 21 5 26
ROOT
ATOM      1  C   UNL     1      42.673 132.523  19.131  1.00  0.00     0.123 A 
ATOM      2  C   UNL     1      43.635 132.006  18.238  1.00  0.00     0.013 A 
ATOM      3  C   UNL     1      44.734 131.263  18.716  1.00  0.00     0.011 A 
ATOM      4  C   UNL     1      45.704 130.779  17.840  1.00  0.00     0.001 A 
ATOM      5  C   UNL     1      45.595 131.025  16.475  1.00  0.00     0.001 A 
ATOM      6  C   UNL     1      44.513 131.748  15.976  1.00  0.00     0.009 A 
ATOM      7  C   UNL     1      43.508 132.241  16.843  1.00  0.00    -0.004 A 
ATOM      8  C   UNL     1      42.400 132.971  16.346  1.00  0.00     0.040 A 
ATOM      9  C   UNL     1      41.414 133.455  17.242  1.00  0.00    -0.004 A 
ATOM     10  C   UNL     1      40.278 134.159  16.779  1.00  0.00     0.009 A 
ATOM     11  C   UNL     1      39.308 134.618  17.669  1.00  0.00     0.001 A 
ATOM     12  C   UNL     1      39.441 134.380  19.033  1.00  0.00     0.001 A 
ATOM     13  C   UNL     1      40.549 133.685  19.516  1.00  0.00     0.011 A 
ATOM     14  C   UNL     1      41.551 133.222  18.637  1.00  0.00     0.013 A 
ENDROOT
BRANCH   1  15
ATOM     15  N   UNL     1      42.848 132.357  20.548  1.00  0.00    -0.098 N 
ATOM     16  C   UNL     1      43.391 133.231  21.424  1.00  0.00     0.135 A 
ATOM     17  C   UNL     1      43.264 132.639  22.679  1.00  0.00     0.135 A 
ATOM     18  N   UNL     1      42.641 131.451  22.525  1.00  0.00     0.020 NA
ATOM     19  N   UNL     1      42.414 131.310  21.229  1.00  0.00    -0.012 N 
ATOM     20  C   UNL     1      43.589 133.214  24.020  1.00  0.00     0.076 C 
ATOM     21  H   UNL     1      41.931 130.485  20.807  1.00  0.00     0.527 HD
BRANCH  16  22
ATOM     22  C   UNL     1      43.989 134.578  21.049  1.00  0.00     0.141 C 
BRANCH  22  23
ATOM     23  N   UNL     1      43.346 135.639  21.832  1.00  0.00    -0.336 N 
ATOM     24  C   UNL     1      42.455 136.608  21.260  1.00  0.00     0.296 C 
ATOM     25  O   UNL     1      42.276 136.667  20.015  1.00  0.00    -0.260 OA
ATOM     26  H   UNL     1      43.544 135.698  22.855  1.00  0.00     0.165 HD
BRANCH  24  27
ATOM     27  C   UNL     1      41.767 137.538  22.112  1.00  0.00    -0.009 C 
ATOM     28  C   UNL     1      41.189 138.318  22.826  1.00  0.00     0.015 C 
ENDBRANCH  24  27
ENDBRANCH  22  23
BRANCH  22  29
ATOM     29  C   UNL     1      45.531 134.630  21.225  1.00  0.00     0.012 C 
ATOM     30  C   UNL     1      46.112 133.211  21.345  1.00  0.00     0.010 C 
ATOM     31  C   UNL     1      45.938 135.451  22.459  1.00  0.00     0.010 C 
ENDBRANCH  22  29
ENDBRANCH  16  22
ENDBRANCH   1  15
BRANCH   8  32
ATOM     32  C   UNL     1      42.259 133.215  14.887  1.00  0.00     0.250 C 
ATOM     33  O   UNL     1      41.626 132.387  14.181  1.00  0.00    -0.287 OA
BRANCH  32  34
ATOM     34  N   UNL     1      42.835 134.368  14.266  1.00  0.00    -0.017 NA
BRANCH  34  35
ATOM     35  N   UNL     1      43.047 135.403  14.901  1.00  0.00     0.009 N 
ATOM     36  N   UNL     1      43.259 136.435  15.534  1.00  0.00    -0.003 NA
ENDBRANCH  34  35
ENDBRANCH  32  34
ENDBRANCH   8  32
TORSDOF 8
ENDMDL


