REMARK SMILES Cc1nnn([C@@H]2O[C@@]2(O)Nc2cccc(C#N)c2C)c1-c1cc2ccccc2c2c1C[N+](C)(C)C2
REMARK SMILES IDX 6 1 7 2 8 3 5 4 2 5 3 6 20 7 4 8 1 9 21 10 22 11 30 12 23 13
REMARK SMILES IDX 29 14 31 15 24 16 28 17 35 18 32 19 25 20 27 21 26 22 33 23
REMARK SMILES IDX 34 24 9 25 10 27 11 29 12 30 18 31 13 32 15 33 14 34 19 35
REMARK SMILES IDX 16 36 17 37
REMARK H PARENT 9 26 10 28
ROOT
ATOM      1  C   UNL     1       0.228   1.054   2.880  1.00  0.00     0.327 C 
ATOM      2  O   UNL     1      -0.085   0.848   4.240  1.00  0.00    -0.295 OA
ATOM      3  C   UNL     1      -0.700  -0.015   3.312  1.00  0.00     0.298 C 
ENDROOT
BRANCH   1   4
ATOM      4  N   UNL     1       1.580   0.606   2.562  1.00  0.00    -0.208 N 
ATOM      5  C   UNL     1       3.389  -0.048   1.529  1.00  0.00     0.088 A 
ATOM      6  N   UNL     1       3.681   0.107   2.836  1.00  0.00    -0.135 NA
ATOM      7  C   UNL     1       2.053   0.260   1.351  1.00  0.00     0.095 A 
ATOM      8  N   UNL     1       2.569   0.507   3.438  1.00  0.00    -0.064 NA
ATOM      9  C   UNL     1       4.391  -0.433   0.490  1.00  0.00     0.071 C 
BRANCH   7  10
ATOM     10  C   UNL     1       1.284   0.294   0.093  1.00  0.00     0.012 A 
ATOM     11  C   UNL     1       0.727   1.505  -0.355  1.00  0.00     0.019 A 
ATOM     12  C   UNL     1       1.047  -0.868  -0.657  1.00  0.00     0.025 A 
ATOM     13  C   UNL     1      -0.038   1.546  -1.538  1.00  0.00    -0.017 A 
ATOM     14  C   UNL     1       0.301  -0.839  -1.802  1.00  0.00     0.024 A 
ATOM     15  C   UNL     1       1.463  -2.260  -0.353  1.00  0.00     0.301 C 
ATOM     16  C   UNL     1      -0.607   2.752  -1.977  1.00  0.00     0.009 A 
ATOM     17  C   UNL     1      -0.250   0.358  -2.286  1.00  0.00    -0.009 A 
ATOM     18  C   UNL     1       0.161  -2.209  -2.356  1.00  0.00     0.301 C 
ATOM     19  N   UNL     1       0.713  -3.126  -1.313  1.00  0.00    -0.321 N 
ATOM     20  C   UNL     1      -1.374   2.782  -3.144  1.00  0.00     0.001 A 
ATOM     21  C   UNL     1      -1.017   0.406  -3.462  1.00  0.00     0.009 A 
ATOM     22  C   UNL     1      -1.577   1.614  -3.885  1.00  0.00     0.001 A 
ATOM     23  C   UNL     1      -0.393  -3.821  -0.610  1.00  0.00     0.334 C 
ATOM     24  C   UNL     1       1.608  -4.137  -1.921  1.00  0.00     0.334 C 
ENDBRANCH   7  10
ENDBRANCH   1   4
BRANCH   3  25
ATOM     25  O   UNL     1      -0.265  -1.331   3.496  1.00  0.00    -0.345 OA
ATOM     26  H   UNL     1      -0.230  -1.728   2.590  1.00  0.00     0.216 HD
ENDBRANCH   3  25
BRANCH   3  27
ATOM     27  N   UNL     1      -2.137   0.220   3.245  1.00  0.00    -0.330 N 
ATOM     28  H   UNL     1      -2.667   0.228   4.145  1.00  0.00     0.166 HD
BRANCH  27  29
ATOM     29  C   UNL     1      -2.833   0.428   2.001  1.00  0.00     0.042 A 
ATOM     30  C   UNL     1      -2.386  -0.214   0.833  1.00  0.00     0.026 A 
ATOM     31  C   UNL     1      -3.987   1.251   1.946  1.00  0.00    -0.010 A 
ATOM     32  C   UNL     1      -3.086  -0.081  -0.363  1.00  0.00     0.004 A 
ATOM     33  C   UNL     1      -4.693   1.371   0.722  1.00  0.00     0.057 A 
ATOM     34  C   UNL     1      -4.232   0.708  -0.421  1.00  0.00     0.020 A 
ATOM     35  C   UNL     1      -4.462   1.964   3.192  1.00  0.00     0.048 C 
BRANCH  33  36
ATOM     36  C   UNL     1      -5.896   2.161   0.608  1.00  0.00     0.099 C 
ATOM     37  N   UNL     1      -6.861   2.794   0.516  1.00  0.00    -0.192 NA
ENDBRANCH  33  36
ENDBRANCH  27  29
ENDBRANCH   3  27
TORSDOF 6


