MODEL 1
REMARK VINA RESULT:      -6.4      0.000      0.000
REMARK SMILES Cc1cc(-n2cc(C[C@@H](C)/N=C(\O)[C@H](C)C#N)nn2)[nH+]c2ccc3ccccc3c12
REMARK SMILES IDX 11 1 12 2 13 3 14 5 15 6 16 7 17 8 9 9 10 10 8 11 7 12 18 13
REMARK SMILES IDX 6 14 19 15 5 16 4 17 3 18 20 19 2 20 21 21 30 22 22 23 29 24
REMARK SMILES IDX 23 25 28 26 24 27 27 28 25 29 26 30 1 32
REMARK H PARENT 13 4 20 31
ROOT
ATOM      1  N   UNL     1      39.341 136.630  17.780  1.00  0.00    -0.251 NA
ENDROOT
BRANCH   1   2
ATOM      2  C   UNL     1      38.206 136.052  17.519  1.00  0.00     0.198 C 
BRANCH   2   3
ATOM      3  O   UNL     1      37.771 134.973  18.290  1.00  0.00    -0.496 OA
ATOM      4  H   UNL     1      37.409 135.103  19.227  1.00  0.00     0.295 HD
ENDBRANCH   2   3
BRANCH   2   5
ATOM      5  C   UNL     1      37.365 136.546  16.371  1.00  0.00     0.175 C 
ATOM      6  C   UNL     1      36.432 135.445  15.857  1.00  0.00     0.034 C 
BRANCH   5   7
ATOM      7  C   UNL     1      38.231 137.030  15.286  1.00  0.00     0.075 C 
ATOM      8  N   UNL     1      38.911 137.411  14.430  1.00  0.00    -0.197 NA
ENDBRANCH   5   7
ENDBRANCH   2   5
ENDBRANCH   1   2
BRANCH   1   9
ATOM      9  C   UNL     1      39.511 137.739  18.722  1.00  0.00     0.112 C 
ATOM     10  C   UNL     1      40.170 138.926  18.015  1.00  0.00     0.034 C 
BRANCH   9  11
ATOM     11  C   UNL     1      40.372 137.275  19.907  1.00  0.00     0.089 C 
BRANCH  11  12
ATOM     12  C   UNL     1      40.878 135.882  19.685  1.00  0.00     0.111 A 
ATOM     13  N   UNL     1      40.291 134.770  20.167  1.00  0.00    -0.112 NA
ATOM     14  C   UNL     1      41.885 135.505  18.825  1.00  0.00     0.260 A 
ATOM     15  N   UNL     1      40.932 133.741  19.632  1.00  0.00     0.032 NA
ATOM     16  N   UNL     1      41.895 134.158  18.822  1.00  0.00    -0.084 N 
BRANCH  16  17
ATOM     17  C   UNL     1      42.726 133.282  18.034  1.00  0.00     0.306 A 
ATOM     18  C   UNL     1      43.783 132.577  18.620  1.00  0.00     0.105 A 
ATOM     19  N   UNL     1      42.455 133.092  16.716  1.00  0.00    -0.238 N 
ATOM     20  C   UNL     1      44.586 131.725  17.849  1.00  0.00    -0.031 A 
ATOM     21  C   UNL     1      43.239 132.314  15.915  1.00  0.00     0.133 A 
ATOM     22  C   UNL     1      44.411 131.691  16.431  1.00  0.00     0.032 A 
ATOM     23  C   UNL     1      42.865 132.121  14.579  1.00  0.00     0.053 A 
ATOM     24  C   UNL     1      45.299 131.051  15.502  1.00  0.00    -0.007 A 
ATOM     25  C   UNL     1      43.638 131.342  13.731  1.00  0.00     0.013 A 
ATOM     26  C   UNL     1      46.641 130.719  15.809  1.00  0.00     0.009 A 
ATOM     27  C   UNL     1      44.861 130.827  14.166  1.00  0.00    -0.017 A 
ATOM     28  C   UNL     1      47.447 130.045  14.888  1.00  0.00     0.001 A 
ATOM     29  C   UNL     1      45.677 130.138  13.254  1.00  0.00     0.009 A 
ATOM     30  C   UNL     1      46.957 129.732  13.623  1.00  0.00     0.001 A 
ATOM     31  H   UNL     1      41.624 133.572  16.298  1.00  0.00     0.312 HD
ATOM     32  C   UNL     1      45.485 130.787  18.617  1.00  0.00     0.045 C 
ENDBRANCH  16  17
ENDBRANCH  11  12
ENDBRANCH   9  11
ENDBRANCH   1   9
TORSDOF 8
ENDMDL
MODEL 2
REMARK VINA RESULT:      -6.4      1.261      1.488
REMARK SMILES Cc1cc(-n2cc(C[C@@H](C)/N=C(\O)[C@H](C)C#N)nn2)[nH+]c2ccc3ccccc3c12
REMARK SMILES IDX 11 1 12 2 13 3 14 5 15 6 16 7 17 8 9 9 10 10 8 11 7 12 18 13
REMARK SMILES IDX 6 14 19 15 5 16 4 17 3 18 20 19 2 20 21 21 30 22 22 23 29 24
REMARK SMILES IDX 23 25 28 26 24 27 27 28 25 29 26 30 1 32
REMARK H PARENT 13 4 20 31
ROOT
ATOM      1  N   UNL     1      39.253 137.973  18.085  1.00  0.00    -0.251 NA
ENDROOT
BRANCH   1   2
ATOM      2  C   UNL     1      39.568 137.385  16.969  1.00  0.00     0.198 C 
BRANCH   2   3
ATOM      3  O   UNL     1      40.893 137.371  16.531  1.00  0.00    -0.496 OA
ATOM      4  H   UNL     1      41.258 138.092  15.919  1.00  0.00     0.295 HD
ENDBRANCH   2   3
BRANCH   2   5
ATOM      5  C   UNL     1      38.494 136.728  16.143  1.00  0.00     0.175 C 
ATOM      6  C   UNL     1      37.288 137.657  15.969  1.00  0.00     0.034 C 
BRANCH   5   7
ATOM      7  C   UNL     1      38.079 135.465  16.771  1.00  0.00     0.075 C 
ATOM      8  N   UNL     1      37.752 134.471  17.266  1.00  0.00    -0.197 NA
ENDBRANCH   5   7
ENDBRANCH   2   5
ENDBRANCH   1   2
BRANCH   1   9
ATOM      9  C   UNL     1      39.101 137.288  19.371  1.00  0.00     0.112 C 
ATOM     10  C   UNL     1      38.308 138.168  20.340  1.00  0.00     0.034 C 
BRANCH   9  11
ATOM     11  C   UNL     1      40.490 136.971  19.948  1.00  0.00     0.089 C 
BRANCH  11  12
ATOM     12  C   UNL     1      40.905 135.574  19.599  1.00  0.00     0.111 A 
ATOM     13  N   UNL     1      40.151 134.479  19.809  1.00  0.00    -0.112 NA
ATOM     14  C   UNL     1      42.008 135.209  18.861  1.00  0.00     0.260 A 
ATOM     15  N   UNL     1      40.783 133.466  19.232  1.00  0.00     0.032 NA
ATOM     16  N   UNL     1      41.903 133.882  18.655  1.00  0.00    -0.084 N 
BRANCH  16  17
ATOM     17  C   UNL     1      42.778 133.034  17.884  1.00  0.00     0.306 A 
ATOM     18  C   UNL     1      43.834 132.350  18.494  1.00  0.00     0.105 A 
ATOM     19  N   UNL     1      42.548 132.850  16.557  1.00  0.00    -0.238 N 
ATOM     20  C   UNL     1      44.681 131.526  17.739  1.00  0.00    -0.031 A 
ATOM     21  C   UNL     1      43.375 132.100  15.773  1.00  0.00     0.133 A 
ATOM     22  C   UNL     1      44.547 131.501  16.316  1.00  0.00     0.032 A 
ATOM     23  C   UNL     1      43.044 131.910  14.425  1.00  0.00     0.053 A 
ATOM     24  C   UNL     1      45.477 130.892  15.408  1.00  0.00    -0.007 A 
ATOM     25  C   UNL     1      43.860 131.158  13.592  1.00  0.00     0.013 A 
ATOM     26  C   UNL     1      46.817 130.591  15.750  1.00  0.00     0.009 A 
ATOM     27  C   UNL     1      45.083 130.670  14.057  1.00  0.00    -0.017 A 
ATOM     28  C   UNL     1      47.666 129.946  14.847  1.00  0.00     0.001 A 
ATOM     29  C   UNL     1      45.942 130.011  13.163  1.00  0.00     0.009 A 
ATOM     30  C   UNL     1      47.221 129.633  13.565  1.00  0.00     0.001 A 
ATOM     31  H   UNL     1      41.718 133.313  16.120  1.00  0.00     0.312 HD
ATOM     32  C   UNL     1      45.581 130.603  18.525  1.00  0.00     0.045 C 
ENDBRANCH  16  17
ENDBRANCH  11  12
ENDBRANCH   9  11
ENDBRANCH   1   9
TORSDOF 8
ENDMDL
MODEL 3
REMARK VINA RESULT:      -6.4      3.196      4.879
REMARK SMILES Cc1cc(-n2cc(C[C@@H](C)/N=C(\O)[C@H](C)C#N)nn2)[nH+]c2ccc3ccccc3c12
REMARK SMILES IDX 11 1 12 2 13 3 14 5 15 6 16 7 17 8 9 9 10 10 8 11 7 12 18 13
REMARK SMILES IDX 6 14 19 15 5 16 4 17 3 18 20 19 2 20 21 21 30 22 22 23 29 24
REMARK SMILES IDX 23 25 28 26 24 27 27 28 25 29 26 30 1 32
REMARK H PARENT 13 4 20 31
ROOT
ATOM      1  N   UNL     1      42.298 136.005  22.355  1.00  0.00    -0.251 NA
ENDROOT
BRANCH   1   2
ATOM      2  C   UNL     1      43.296 135.665  23.119  1.00  0.00     0.198 C 
BRANCH   2   3
ATOM      3  O   UNL     1      43.950 136.627  23.890  1.00  0.00    -0.496 OA
ATOM      4  H   UNL     1      44.953 136.597  24.036  1.00  0.00     0.295 HD
ENDBRANCH   2   3
BRANCH   2   5
ATOM      5  C   UNL     1      43.748 134.229  23.158  1.00  0.00     0.175 C 
ATOM      6  C   UNL     1      43.653 133.661  24.577  1.00  0.00     0.034 C 
BRANCH   5   7
ATOM      7  C   UNL     1      45.125 134.122  22.656  1.00  0.00     0.075 C 
ATOM      8  N   UNL     1      46.210 134.039  22.261  1.00  0.00    -0.197 NA
ENDBRANCH   5   7
ENDBRANCH   2   5
ENDBRANCH   1   2
BRANCH   1   9
ATOM      9  C   UNL     1      40.897 136.027  22.781  1.00  0.00     0.112 C 
ATOM     10  C   UNL     1      40.815 135.962  24.308  1.00  0.00     0.034 C 
BRANCH   9  11
ATOM     11  C   UNL     1      40.153 134.838  22.152  1.00  0.00     0.089 C 
BRANCH  11  12
ATOM     12  C   UNL     1      40.633 134.589  20.755  1.00  0.00     0.111 A 
ATOM     13  N   UNL     1      40.523 135.469  19.742  1.00  0.00    -0.112 NA
ATOM     14  C   UNL     1      41.406 133.532  20.332  1.00  0.00     0.260 A 
ATOM     15  N   UNL     1      41.195 134.956  18.720  1.00  0.00     0.032 NA
ATOM     16  N   UNL     1      41.735 133.792  19.052  1.00  0.00    -0.084 N 
BRANCH  16  17
ATOM     17  C   UNL     1      42.585 133.017  18.183  1.00  0.00     0.306 A 
ATOM     18  C   UNL     1      43.697 132.335  18.688  1.00  0.00     0.105 A 
ATOM     19  N   UNL     1      42.281 132.899  16.863  1.00  0.00    -0.238 N 
ATOM     20  C   UNL     1      44.520 131.582  17.838  1.00  0.00    -0.031 A 
ATOM     21  C   UNL     1      43.079 132.221  15.989  1.00  0.00     0.133 A 
ATOM     22  C   UNL     1      44.300 131.632  16.427  1.00  0.00     0.032 A 
ATOM     23  C   UNL     1      42.673 132.096  14.655  1.00  0.00     0.053 A 
ATOM     24  C   UNL     1      45.190 131.105  15.432  1.00  0.00    -0.007 A 
ATOM     25  C   UNL     1      43.458 131.419  13.733  1.00  0.00     0.013 A 
ATOM     26  C   UNL     1      46.557 130.829  15.676  1.00  0.00     0.009 A 
ATOM     27  C   UNL     1      44.721 130.946  14.097  1.00  0.00    -0.017 A 
ATOM     28  C   UNL     1      47.367 130.263  14.689  1.00  0.00     0.001 A 
ATOM     29  C   UNL     1      45.543 130.365  13.117  1.00  0.00     0.009 A 
ATOM     30  C   UNL     1      46.854 130.008  13.420  1.00  0.00     0.001 A 
ATOM     31  H   UNL     1      41.412 133.359  16.504  1.00  0.00     0.312 HD
ATOM     32  C   UNL     1      45.492 130.647  18.515  1.00  0.00     0.045 C 
ENDBRANCH  16  17
ENDBRANCH  11  12
ENDBRANCH   9  11
ENDBRANCH   1   9
TORSDOF 8
ENDMDL
MODEL 4
REMARK VINA RESULT:      -6.3      3.108      4.157
REMARK SMILES Cc1cc(-n2cc(C[C@@H](C)/N=C(\O)[C@H](C)C#N)nn2)[nH+]c2ccc3ccccc3c12
REMARK SMILES IDX 11 1 12 2 13 3 14 5 15 6 16 7 17 8 9 9 10 10 8 11 7 12 18 13
REMARK SMILES IDX 6 14 19 15 5 16 4 17 3 18 20 19 2 20 21 21 30 22 22 23 29 24
REMARK SMILES IDX 23 25 28 26 24 27 27 28 25 29 26 30 1 32
REMARK H PARENT 13 4 20 31
ROOT
ATOM      1  N   UNL     1      42.969 135.942  21.819  1.00  0.00    -0.251 NA
ENDROOT
BRANCH   1   2
ATOM      2  C   UNL     1      42.967 137.200  21.488  1.00  0.00     0.198 C 
BRANCH   2   3
ATOM      3  O   UNL     1      42.217 138.120  22.222  1.00  0.00    -0.496 OA
ATOM      4  H   UNL     1      42.139 139.089  21.936  1.00  0.00     0.295 HD
ENDBRANCH   2   3
BRANCH   2   5
ATOM      5  C   UNL     1      43.771 137.658  20.299  1.00  0.00     0.175 C 
ATOM      6  C   UNL     1      43.194 137.097  18.996  1.00  0.00     0.034 C 
BRANCH   5   7
ATOM      7  C   UNL     1      45.174 137.251  20.454  1.00  0.00     0.075 C 
ATOM      8  N   UNL     1      46.280 136.931  20.577  1.00  0.00    -0.197 NA
ENDBRANCH   5   7
ENDBRANCH   2   5
ENDBRANCH   1   2
BRANCH   1   9
ATOM      9  C   UNL     1      42.208 135.377  22.936  1.00  0.00     0.112 C 
ATOM     10  C   UNL     1      43.035 134.295  23.636  1.00  0.00     0.034 C 
BRANCH   9  11
ATOM     11  C   UNL     1      40.890 134.787  22.409  1.00  0.00     0.089 C 
BRANCH  11  12
ATOM     12  C   UNL     1      41.058 134.276  21.010  1.00  0.00     0.111 A 
ATOM     13  N   UNL     1      40.339 134.697  19.952  1.00  0.00    -0.112 NA
ATOM     14  C   UNL     1      42.065 133.455  20.554  1.00  0.00     0.260 A 
ATOM     15  N   UNL     1      40.880 134.135  18.879  1.00  0.00     0.032 NA
ATOM     16  N   UNL     1      41.919 133.384  19.217  1.00  0.00    -0.084 N 
BRANCH  16  17
ATOM     17  C   UNL     1      42.762 132.698  18.271  1.00  0.00     0.306 A 
ATOM     18  C   UNL     1      43.921 132.037  18.690  1.00  0.00     0.105 A 
ATOM     19  N   UNL     1      42.407 132.642  16.959  1.00  0.00    -0.238 N 
ATOM     20  C   UNL     1      44.737 131.369  17.765  1.00  0.00    -0.031 A 
ATOM     21  C   UNL     1      43.194 132.049  16.016  1.00  0.00     0.133 A 
ATOM     22  C   UNL     1      44.455 131.490  16.370  1.00  0.00     0.032 A 
ATOM     23  C   UNL     1      42.736 131.983  14.694  1.00  0.00     0.053 A 
ATOM     24  C   UNL     1      45.323 131.058  15.310  1.00  0.00    -0.007 A 
ATOM     25  C   UNL     1      43.508 131.393  13.704  1.00  0.00     0.013 A 
ATOM     26  C   UNL     1      46.709 130.828  15.482  1.00  0.00     0.009 A 
ATOM     27  C   UNL     1      44.804 130.955  13.988  1.00  0.00    -0.017 A 
ATOM     28  C   UNL     1      47.499 130.355  14.432  1.00  0.00     0.001 A 
ATOM     29  C   UNL     1      45.606 130.467  12.943  1.00  0.00     0.009 A 
ATOM     30  C   UNL     1      46.943 130.150  13.172  1.00  0.00     0.001 A 
ATOM     31  H   UNL     1      41.506 133.084  16.663  1.00  0.00     0.312 HD
ATOM     32  C   UNL     1      45.775 130.440  18.347  1.00  0.00     0.045 C 
ENDBRANCH  16  17
ENDBRANCH  11  12
ENDBRANCH   9  11
ENDBRANCH   1   9
TORSDOF 8
ENDMDL
MODEL 5
REMARK VINA RESULT:      -6.2      3.839      5.748
REMARK SMILES Cc1cc(-n2cc(C[C@@H](C)/N=C(\O)[C@H](C)C#N)nn2)[nH+]c2ccc3ccccc3c12
REMARK SMILES IDX 11 1 12 2 13 3 14 5 15 6 16 7 17 8 9 9 10 10 8 11 7 12 18 13
REMARK SMILES IDX 6 14 19 15 5 16 4 17 3 18 20 19 2 20 21 21 30 22 22 23 29 24
REMARK SMILES IDX 23 25 28 26 24 27 27 28 25 29 26 30 1 32
REMARK H PARENT 13 4 20 31
ROOT
ATOM      1  N   UNL     1      44.743 136.539  22.497  1.00  0.00    -0.251 NA
ENDROOT
BRANCH   1   2
ATOM      2  C   UNL     1      46.029 136.547  22.694  1.00  0.00     0.198 C 
BRANCH   2   3
ATOM      3  O   UNL     1      46.570 137.231  23.783  1.00  0.00    -0.496 OA
ATOM      4  H   UNL     1      47.286 137.938  23.662  1.00  0.00     0.295 HD
ENDBRANCH   2   3
BRANCH   2   5
ATOM      5  C   UNL     1      46.934 135.821  21.732  1.00  0.00     0.175 C 
ATOM      6  C   UNL     1      46.950 134.317  22.021  1.00  0.00     0.034 C 
BRANCH   5   7
ATOM      7  C   UNL     1      48.294 136.372  21.809  1.00  0.00     0.075 C 
ATOM      8  N   UNL     1      49.366 136.804  21.870  1.00  0.00    -0.197 NA
ENDBRANCH   5   7
ENDBRANCH   2   5
ENDBRANCH   1   2
BRANCH   1   9
ATOM      9  C   UNL     1      43.744 136.314  23.544  1.00  0.00     0.112 C 
ATOM     10  C   UNL     1      43.945 134.930  24.167  1.00  0.00     0.034 C 
BRANCH   9  11
ATOM     11  C   UNL     1      42.336 136.431  22.940  1.00  0.00     0.089 C 
BRANCH  11  12
ATOM     12  C   UNL     1      42.300 135.854  21.557  1.00  0.00     0.111 A 
ATOM     13  N   UNL     1      41.739 136.458  20.493  1.00  0.00    -0.112 NA
ATOM     14  C   UNL     1      42.973 134.736  21.120  1.00  0.00     0.260 A 
ATOM     15  N   UNL     1      42.045 135.720  19.434  1.00  0.00     0.032 NA
ATOM     16  N   UNL     1      42.786 134.679  19.788  1.00  0.00    -0.084 N 
BRANCH  16  17
ATOM     17  C   UNL     1      43.339 133.727  18.857  1.00  0.00     0.306 A 
ATOM     18  C   UNL     1      44.309 132.806  19.265  1.00  0.00     0.105 A 
ATOM     19  N   UNL     1      42.880 133.682  17.578  1.00  0.00    -0.238 N 
ATOM     20  C   UNL     1      44.842 131.882  18.355  1.00  0.00    -0.031 A 
ATOM     21  C   UNL     1      43.405 132.836  16.646  1.00  0.00     0.133 A 
ATOM     22  C   UNL     1      44.494 131.979  16.973  1.00  0.00     0.032 A 
ATOM     23  C   UNL     1      42.843 132.807  15.363  1.00  0.00     0.053 A 
ATOM     24  C   UNL     1      45.130 131.258  15.907  1.00  0.00    -0.007 A 
ATOM     25  C   UNL     1      43.350 131.964  14.384  1.00  0.00     0.013 A 
ATOM     26  C   UNL     1      46.414 130.672  16.018  1.00  0.00     0.009 A 
ATOM     27  C   UNL     1      44.500 131.211  14.630  1.00  0.00    -0.017 A 
ATOM     28  C   UNL     1      46.964 129.933  14.969  1.00  0.00     0.001 A 
ATOM     29  C   UNL     1      45.059 130.454  13.587  1.00  0.00     0.009 A 
ATOM     30  C   UNL     1      46.276 129.802  13.765  1.00  0.00     0.001 A 
ATOM     31  H   UNL     1      42.108 134.331  17.297  1.00  0.00     0.312 HD
ATOM     32  C   UNL     1      45.638 130.746  18.954  1.00  0.00     0.045 C 
ENDBRANCH  16  17
ENDBRANCH  11  12
ENDBRANCH   9  11
ENDBRANCH   1   9
TORSDOF 8
ENDMDL
MODEL 6
REMARK VINA RESULT:      -6.2      3.804      5.449
REMARK SMILES Cc1cc(-n2cc(C[C@@H](C)/N=C(\O)[C@H](C)C#N)nn2)[nH+]c2ccc3ccccc3c12
REMARK SMILES IDX 11 1 12 2 13 3 14 5 15 6 16 7 17 8 9 9 10 10 8 11 7 12 18 13
REMARK SMILES IDX 6 14 19 15 5 16 4 17 3 18 20 19 2 20 21 21 30 22 22 23 29 24
REMARK SMILES IDX 23 25 28 26 24 27 27 28 25 29 26 30 1 32
REMARK H PARENT 13 4 20 31
ROOT
ATOM      1  N   UNL     1      44.454 138.318  22.262  1.00  0.00    -0.251 NA
ENDROOT
BRANCH   1   2
ATOM      2  C   UNL     1      45.591 137.739  22.008  1.00  0.00     0.198 C 
BRANCH   2   3
ATOM      3  O   UNL     1      45.933 137.406  20.697  1.00  0.00    -0.496 OA
ATOM      4  H   UNL     1      45.486 137.849  19.903  1.00  0.00     0.295 HD
ENDBRANCH   2   3
BRANCH   2   5
ATOM      5  C   UNL     1      46.534 137.421  23.138  1.00  0.00     0.175 C 
ATOM      6  C   UNL     1      45.765 137.121  24.429  1.00  0.00     0.034 C 
BRANCH   5   7
ATOM      7  C   UNL     1      47.466 138.538  23.346  1.00  0.00     0.075 C 
ATOM      8  N   UNL     1      48.199 139.419  23.509  1.00  0.00    -0.197 NA
ENDBRANCH   5   7
ENDBRANCH   2   5
ENDBRANCH   1   2
BRANCH   1   9
ATOM      9  C   UNL     1      43.239 138.149  21.463  1.00  0.00     0.112 C 
ATOM     10  C   UNL     1      42.514 139.491  21.327  1.00  0.00     0.034 C 
BRANCH   9  11
ATOM     11  C   UNL     1      42.326 137.111  22.134  1.00  0.00     0.089 C 
BRANCH  11  12
ATOM     12  C   UNL     1      42.186 135.891  21.276  1.00  0.00     0.111 A 
ATOM     13  N   UNL     1      41.012 135.334  20.927  1.00  0.00    -0.112 NA
ATOM     14  C   UNL     1      43.191 135.267  20.572  1.00  0.00     0.260 A 
ATOM     15  N   UNL     1      41.290 134.382  20.047  1.00  0.00     0.032 NA
ATOM     16  N   UNL     1      42.595 134.323  19.818  1.00  0.00    -0.084 N 
BRANCH  16  17
ATOM     17  C   UNL     1      43.209 133.441  18.858  1.00  0.00     0.306 A 
ATOM     18  C   UNL     1      44.219 132.553  19.243  1.00  0.00     0.105 A 
ATOM     19  N   UNL     1      42.771 133.426  17.571  1.00  0.00    -0.238 N 
ATOM     20  C   UNL     1      44.811 131.695  18.305  1.00  0.00    -0.031 A 
ATOM     21  C   UNL     1      43.351 132.648  16.613  1.00  0.00     0.133 A 
ATOM     22  C   UNL     1      44.478 131.834  16.922  1.00  0.00     0.032 A 
ATOM     23  C   UNL     1      42.810 132.645  15.321  1.00  0.00     0.053 A 
ATOM     24  C   UNL     1      45.165 131.191  15.837  1.00  0.00    -0.007 A 
ATOM     25  C   UNL     1      43.373 131.872  14.316  1.00  0.00     0.013 A 
ATOM     26  C   UNL     1      46.475 130.666  15.945  1.00  0.00     0.009 A 
ATOM     27  C   UNL     1      44.556 131.167  14.550  1.00  0.00    -0.017 A 
ATOM     28  C   UNL     1      47.077 130.000  14.875  1.00  0.00     0.001 A 
ATOM     29  C   UNL     1      45.168 130.483  13.485  1.00  0.00     0.009 A 
ATOM     30  C   UNL     1      46.414 129.886  13.656  1.00  0.00     0.001 A 
ATOM     31  H   UNL     1      41.972 134.047  17.304  1.00  0.00     0.312 HD
ATOM     32  C   UNL     1      45.654 130.577  18.869  1.00  0.00     0.045 C 
ENDBRANCH  16  17
ENDBRANCH  11  12
ENDBRANCH   9  11
ENDBRANCH   1   9
TORSDOF 8
ENDMDL
MODEL 7
REMARK VINA RESULT:      -6.2      3.689      4.946
REMARK SMILES Cc1cc(-n2cc(C[C@@H](C)/N=C(\O)[C@H](C)C#N)nn2)[nH+]c2ccc3ccccc3c12
REMARK SMILES IDX 11 1 12 2 13 3 14 5 15 6 16 7 17 8 9 9 10 10 8 11 7 12 18 13
REMARK SMILES IDX 6 14 19 15 5 16 4 17 3 18 20 19 2 20 21 21 30 22 22 23 29 24
REMARK SMILES IDX 23 25 28 26 24 27 27 28 25 29 26 30 1 32
REMARK H PARENT 13 4 20 31
ROOT
ATOM      1  N   UNL     1      45.056 137.287  23.053  1.00  0.00    -0.251 NA
ENDROOT
BRANCH   1   2
ATOM      2  C   UNL     1      45.907 137.022  22.105  1.00  0.00     0.198 C 
BRANCH   2   3
ATOM      3  O   UNL     1      46.587 135.803  22.090  1.00  0.00    -0.496 OA
ATOM      4  H   UNL     1      46.620 135.225  21.259  1.00  0.00     0.295 HD
ENDBRANCH   2   3
BRANCH   2   5
ATOM      5  C   UNL     1      46.163 138.042  21.027  1.00  0.00     0.175 C 
ATOM      6  C   UNL     1      46.311 139.446  21.623  1.00  0.00     0.034 C 
BRANCH   5   7
ATOM      7  C   UNL     1      45.072 138.018  20.042  1.00  0.00     0.075 C 
ATOM      8  N   UNL     1      44.214 138.000  19.266  1.00  0.00    -0.197 NA
ENDBRANCH   5   7
ENDBRANCH   2   5
ENDBRANCH   1   2
BRANCH   1   9
ATOM      9  C   UNL     1      43.655 137.653  22.833  1.00  0.00     0.112 C 
ATOM     10  C   UNL     1      43.245 138.757  23.811  1.00  0.00     0.034 C 
BRANCH   9  11
ATOM     11  C   UNL     1      42.767 136.412  23.021  1.00  0.00     0.089 C 
BRANCH  11  12
ATOM     12  C   UNL     1      42.564 135.701  21.717  1.00  0.00     0.111 A 
ATOM     13  N   UNL     1      41.669 136.067  20.781  1.00  0.00    -0.112 NA
ATOM     14  C   UNL     1      43.356 134.703  21.198  1.00  0.00     0.260 A 
ATOM     15  N   UNL     1      41.895 135.301  19.722  1.00  0.00     0.032 NA
ATOM     16  N   UNL     1      42.905 134.473  19.950  1.00  0.00    -0.084 N 
BRANCH  16  17
ATOM     17  C   UNL     1      43.442 133.563  18.970  1.00  0.00     0.306 A 
ATOM     18  C   UNL     1      44.414 132.621  19.322  1.00  0.00     0.105 A 
ATOM     19  N   UNL     1      42.965 133.577  17.696  1.00  0.00    -0.238 N 
ATOM     20  C   UNL     1      44.931 131.736  18.364  1.00  0.00    -0.031 A 
ATOM     21  C   UNL     1      43.473 132.771  16.720  1.00  0.00     0.133 A 
ATOM     22  C   UNL     1      44.564 131.898  16.993  1.00  0.00     0.032 A 
ATOM     23  C   UNL     1      42.894 132.802  15.445  1.00  0.00     0.053 A 
ATOM     24  C   UNL     1      45.182 131.223  15.886  1.00  0.00    -0.007 A 
ATOM     25  C   UNL     1      43.384 132.004  14.422  1.00  0.00     0.013 A 
ATOM     26  C   UNL     1      46.464 130.629  15.953  1.00  0.00     0.009 A 
ATOM     27  C   UNL     1      44.534 131.236  14.617  1.00  0.00    -0.017 A 
ATOM     28  C   UNL     1      46.997 129.935  14.864  1.00  0.00     0.001 A 
ATOM     29  C   UNL     1      45.075 130.525  13.534  1.00  0.00     0.009 A 
ATOM     30  C   UNL     1      46.292 129.861  13.665  1.00  0.00     0.001 A 
ATOM     31  H   UNL     1      42.192 134.240  17.455  1.00  0.00     0.312 HD
ATOM     32  C   UNL     1      45.729 130.572  18.900  1.00  0.00     0.045 C 
ENDBRANCH  16  17
ENDBRANCH  11  12
ENDBRANCH   9  11
ENDBRANCH   1   9
TORSDOF 8
ENDMDL
MODEL 8
REMARK VINA RESULT:      -6.1      1.560      1.956
REMARK SMILES Cc1cc(-n2cc(C[C@@H](C)/N=C(\O)[C@H](C)C#N)nn2)[nH+]c2ccc3ccccc3c12
REMARK SMILES IDX 11 1 12 2 13 3 14 5 15 6 16 7 17 8 9 9 10 10 8 11 7 12 18 13
REMARK SMILES IDX 6 14 19 15 5 16 4 17 3 18 20 19 2 20 21 21 30 22 22 23 29 24
REMARK SMILES IDX 23 25 28 26 24 27 27 28 25 29 26 30 1 32
REMARK H PARENT 13 4 20 31
ROOT
ATOM      1  N   UNL     1      37.123 133.982  18.329  1.00  0.00    -0.251 NA
ENDROOT
BRANCH   1   2
ATOM      2  C   UNL     1      36.953 135.014  17.555  1.00  0.00     0.198 C 
BRANCH   2   3
ATOM      3  O   UNL     1      36.380 136.183  18.057  1.00  0.00    -0.496 OA
ATOM      4  H   UNL     1      36.468 137.067  17.570  1.00  0.00     0.295 HD
ENDBRANCH   2   3
BRANCH   2   5
ATOM      5  C   UNL     1      37.370 134.937  16.110  1.00  0.00     0.175 C 
ATOM      6  C   UNL     1      38.522 133.944  15.921  1.00  0.00     0.034 C 
BRANCH   5   7
ATOM      7  C   UNL     1      37.760 136.269  15.627  1.00  0.00     0.075 C 
ATOM      8  N   UNL     1      38.066 137.319  15.247  1.00  0.00    -0.197 NA
ENDBRANCH   5   7
ENDBRANCH   2   5
ENDBRANCH   1   2
BRANCH   1   9
ATOM      9  C   UNL     1      38.092 133.916  19.425  1.00  0.00     0.112 C 
ATOM     10  C   UNL     1      37.359 133.772  20.762  1.00  0.00     0.034 C 
BRANCH   9  11
ATOM     11  C   UNL     1      38.955 135.187  19.421  1.00  0.00     0.089 C 
BRANCH  11  12
ATOM     12  C   UNL     1      40.374 134.866  19.061  1.00  0.00     0.111 A 
ATOM     13  N   UNL     1      41.453 135.350  19.703  1.00  0.00    -0.112 NA
ATOM     14  C   UNL     1      40.793 133.910  18.164  1.00  0.00     0.260 A 
ATOM     15  N   UNL     1      42.507 134.721  19.201  1.00  0.00     0.032 NA
ATOM     16  N   UNL     1      42.134 133.850  18.274  1.00  0.00    -0.084 N 
BRANCH  16  17
ATOM     17  C   UNL     1      43.039 132.960  17.591  1.00  0.00     0.306 A 
ATOM     18  C   UNL     1      44.078 132.326  18.279  1.00  0.00     0.105 A 
ATOM     19  N   UNL     1      42.855 132.685  16.271  1.00  0.00    -0.238 N 
ATOM     20  C   UNL     1      44.954 131.460  17.609  1.00  0.00    -0.031 A 
ATOM     21  C   UNL     1      43.711 131.891  15.567  1.00  0.00     0.133 A 
ATOM     22  C   UNL     1      44.868 131.339  16.188  1.00  0.00     0.032 A 
ATOM     23  C   UNL     1      43.426 131.609  14.224  1.00  0.00     0.053 A 
ATOM     24  C   UNL     1      45.831 130.677  15.353  1.00  0.00    -0.007 A 
ATOM     25  C   UNL     1      44.274 130.810  13.471  1.00  0.00     0.013 A 
ATOM     26  C   UNL     1      47.160 130.409  15.758  1.00  0.00     0.009 A 
ATOM     27  C   UNL     1      45.483 130.363  14.008  1.00  0.00    -0.017 A 
ATOM     28  C   UNL     1      48.042 129.712  14.929  1.00  0.00     0.001 A 
ATOM     29  C   UNL     1      46.375 129.651  13.189  1.00  0.00     0.009 A 
ATOM     30  C   UNL     1      47.641 129.311  13.657  1.00  0.00     0.001 A 
ATOM     31  H   UNL     1      42.037 133.113  15.777  1.00  0.00     0.312 HD
ATOM     32  C   UNL     1      45.832 130.598  18.484  1.00  0.00     0.045 C 
ENDBRANCH  16  17
ENDBRANCH  11  12
ENDBRANCH   9  11
ENDBRANCH   1   9
TORSDOF 8
ENDMDL
MODEL 9
REMARK VINA RESULT:      -6.1      3.019      8.149
REMARK SMILES Cc1cc(-n2cc(C[C@@H](C)/N=C(\O)[C@H](C)C#N)nn2)[nH+]c2ccc3ccccc3c12
REMARK SMILES IDX 11 1 12 2 13 3 14 5 15 6 16 7 17 8 9 9 10 10 8 11 7 12 18 13
REMARK SMILES IDX 6 14 19 15 5 16 4 17 3 18 20 19 2 20 21 21 30 22 22 23 29 24
REMARK SMILES IDX 23 25 28 26 24 27 27 28 25 29 26 30 1 32
REMARK H PARENT 13 4 20 31
ROOT
ATOM      1  N   UNL     1      44.365 130.282  16.226  1.00  0.00    -0.251 NA
ENDROOT
BRANCH   1   2
ATOM      2  C   UNL     1      44.804 129.585  15.219  1.00  0.00     0.198 C 
BRANCH   2   3
ATOM      3  O   UNL     1      45.301 128.297  15.418  1.00  0.00    -0.496 OA
ATOM      4  H   UNL     1      45.964 127.879  14.775  1.00  0.00     0.295 HD
ENDBRANCH   2   3
BRANCH   2   5
ATOM      5  C   UNL     1      44.785 130.182  13.836  1.00  0.00     0.175 C 
ATOM      6  C   UNL     1      46.090 130.928  13.540  1.00  0.00     0.034 C 
BRANCH   5   7
ATOM      7  C   UNL     1      43.636 131.087  13.695  1.00  0.00     0.075 C 
ATOM      8  N   UNL     1      42.730 131.799  13.583  1.00  0.00    -0.197 NA
ENDBRANCH   5   7
ENDBRANCH   2   5
ENDBRANCH   1   2
BRANCH   1   9
ATOM      9  C   UNL     1      45.208 131.096  17.104  1.00  0.00     0.112 C 
ATOM     10  C   UNL     1      46.493 130.337  17.444  1.00  0.00     0.034 C 
BRANCH   9  11
ATOM     11  C   UNL     1      44.431 131.439  18.385  1.00  0.00     0.089 C 
BRANCH  11  12
ATOM     12  C   UNL     1      43.114 132.074  18.055  1.00  0.00     0.111 A 
ATOM     13  N   UNL     1      42.051 132.100  18.880  1.00  0.00    -0.112 NA
ATOM     14  C   UNL     1      42.841 132.871  16.966  1.00  0.00     0.260 A 
ATOM     15  N   UNL     1      41.144 132.877  18.305  1.00  0.00     0.032 NA
ATOM     16  N   UNL     1      41.597 133.352  17.153  1.00  0.00    -0.084 N 
BRANCH  16  17
ATOM     17  C   UNL     1      40.875 134.283  16.322  1.00  0.00     0.306 A 
ATOM     18  C   UNL     1      39.704 133.898  15.662  1.00  0.00     0.105 A 
ATOM     19  N   UNL     1      41.302 135.570  16.215  1.00  0.00    -0.238 N 
ATOM     20  C   UNL     1      39.006 134.809  14.857  1.00  0.00    -0.031 A 
ATOM     21  C   UNL     1      40.685 136.476  15.404  1.00  0.00     0.133 A 
ATOM     22  C   UNL     1      39.575 136.094  14.598  1.00  0.00     0.032 A 
ATOM     23  C   UNL     1      41.148 137.799  15.387  1.00  0.00     0.053 A 
ATOM     24  C   UNL     1      39.094 137.031  13.623  1.00  0.00    -0.007 A 
ATOM     25  C   UNL     1      40.553 138.750  14.572  1.00  0.00     0.013 A 
ATOM     26  C   UNL     1      38.263 136.668  12.536  1.00  0.00     0.009 A 
ATOM     27  C   UNL     1      39.551 138.379  13.672  1.00  0.00    -0.017 A 
ATOM     28  C   UNL     1      37.776 137.628  11.647  1.00  0.00     0.001 A 
ATOM     29  C   UNL     1      39.044 139.337  12.779  1.00  0.00     0.009 A 
ATOM     30  C   UNL     1      38.145 138.964  11.784  1.00  0.00     0.001 A 
ATOM     31  H   UNL     1      42.142 135.869  16.763  1.00  0.00     0.312 HD
ATOM     32  C   UNL     1      37.612 134.398  14.447  1.00  0.00     0.045 C 
ENDBRANCH  16  17
ENDBRANCH  11  12
ENDBRANCH   9  11
ENDBRANCH   1   9
TORSDOF 8
ENDMDL


