REMARK SMILES [N-]=[N+]=Nc1c(Cl)c(Cl)c(OC(=O)[C@]2(N)C[C@@H](CO)C2)ccccc([O-])c1NC1(CF)COC1
REMARK SMILES IDX 10 1 11 2 12 3 13 4 16 5 19 6 15 7 17 8 18 9 14 11 9 14
REMARK SMILES IDX 20 15 7 16 21 17 5 18 22 19 4 20 23 21 26 22 24 23 8 24 6 25
REMARK SMILES IDX 25 26 3 27 2 28 1 29 27 30 28 32 31 33 33 34 32 35 29 36
REMARK SMILES IDX 30 37
REMARK H PARENT 18 10 14 12 14 13 27 31
ROOT
ATOM      1  O   UNL     1      -1.383  -1.148   0.961  1.00  0.00    -0.424 OA
ENDROOT
BRANCH   1   2
ATOM      2  C   UNL     1      -1.748  -0.028   1.720  1.00  0.00     0.331 C 
ATOM      3  O   UNL     1      -0.993   0.981   1.782  1.00  0.00    -0.250 OA
BRANCH   2   4
ATOM      4  C   UNL     1      -3.112   0.006   2.376  1.00  0.00     0.116 C 
ATOM      5  C   UNL     1      -4.652  -1.480   2.067  1.00  0.00     0.019 C 
ATOM      6  C   UNL     1      -4.268  -0.166   1.383  1.00  0.00     0.040 C 
ATOM      7  C   UNL     1      -3.504  -1.307   3.065  1.00  0.00     0.040 C 
BRANCH   5   8
ATOM      8  C   UNL     1      -6.054  -1.486   2.700  1.00  0.00     0.159 C 
BRANCH   8   9
ATOM      9  O   UNL     1      -6.242  -0.376   3.537  1.00  0.00    -0.396 OA
ATOM     10  H   UNL     1      -7.161  -0.459   3.901  1.00  0.00     0.210 HD
ENDBRANCH   8   9
ENDBRANCH   5   8
BRANCH   4  11
ATOM     11  N   UNL     1      -3.315   1.160   3.258  1.00  0.00    -0.316 NA
ATOM     12  H   UNL     1      -3.214   2.037   2.696  1.00  0.00     0.119 HD
ATOM     13  H   UNL     1      -2.563   1.163   3.986  1.00  0.00     0.119 HD
ENDBRANCH   4  11
ENDBRANCH   2   4
ENDBRANCH   1   2
BRANCH   1  14
ATOM     14  C   UNL     1      -0.090  -1.429   0.491  1.00  0.00     0.151 A 
ATOM     15  C   UNL     1       1.021  -1.197   1.324  1.00  0.00     0.049 A 
ATOM     16  C   UNL     1       0.016  -1.949  -0.819  1.00  0.00     0.102 A 
ATOM     17  C   UNL     1       2.234  -1.876   1.191  1.00  0.00     0.004 A 
ATOM     18  C   UNL     1       1.153  -1.824  -1.666  1.00  0.00     0.075 A 
ATOM     19  C   UNL     1       3.463  -1.219   1.292  1.00  0.00    -0.000 A 
ATOM     20  C   UNL     1       2.194  -0.877  -1.478  1.00  0.00     0.080 A 
ATOM     21  C   UNL     1       3.675   0.128   0.941  1.00  0.00    -0.006 A 
ATOM     22  C   UNL     1       1.966   0.378  -0.873  1.00  0.00     0.038 A 
ATOM     23  C   UNL     1       2.855   0.905   0.092  1.00  0.00    -0.084 A 
ATOM     24  Cl  UNL     1      -1.425  -2.746  -1.460  1.00  0.00    -0.079 Cl
ATOM     25  Cl  UNL     1       1.245  -2.875  -3.084  1.00  0.00    -0.082 Cl
ATOM     26  O   UNL     1       2.931   2.288   0.224  1.00  0.00    -0.871 OA
BRANCH  20  27
ATOM     27  N   UNL     1       3.546  -1.178  -1.866  1.00  0.00    -0.057 NA
BRANCH  27  28
ATOM     28  N   UNL     1       3.963  -2.330  -1.997  1.00  0.00     0.005 N 
ATOM     29  N   UNL     1       4.383  -3.479  -2.125  1.00  0.00    -0.003 NA
ENDBRANCH  27  28
ENDBRANCH  20  27
BRANCH  22  30
ATOM     30  N   UNL     1       0.834   1.180  -1.259  1.00  0.00    -0.373 N 
ATOM     31  H   UNL     1       0.358   1.729  -0.508  1.00  0.00     0.161 HD
BRANCH  30  32
ATOM     32  C   UNL     1       0.427   1.452  -2.647  1.00  0.00     0.113 C 
ATOM     33  C   UNL     1       0.344   2.945  -2.924  1.00  0.00     0.193 C 
ATOM     34  C   UNL     1       1.560   1.518  -3.661  1.00  0.00     0.193 C 
ATOM     35  O   UNL     1       1.391   2.901  -3.864  1.00  0.00    -0.376 OA
BRANCH  32  36
ATOM     36  C   UNL     1      -0.815   0.659  -3.086  1.00  0.00     0.247 C 
ATOM     37  F   UNL     1      -1.274   1.072  -4.326  1.00  0.00    -0.248 F 
ENDBRANCH  32  36
ENDBRANCH  30  32
ENDBRANCH  22  30
ENDBRANCH   1  14
TORSDOF 11


