REMARK SMILES [N-]=[N+]=Nc1c(Cl)c(Cl)c(Cl)c2cccc(OC(=O)[C@@H](N=C=O)c3ncc[nH]3)c12
REMARK SMILES IDX 17 1 18 2 19 3 23 4 25 5 24 6 26 7 27 8 20 10 21 11 22 12
REMARK SMILES IDX 16 13 15 14 14 15 28 16 13 17 4 18 11 19 12 20 5 21 9 22
REMARK SMILES IDX 7 23 6 24 10 25 8 26 3 27 2 28 1 29
REMARK H PARENT 27 9
ROOT
ATOM      1  C   UNL     1       1.822  -0.081  -2.162  1.00  0.00     0.345 C 
ATOM      2  O   UNL     1       1.578  -1.034  -2.953  1.00  0.00    -0.249 OA
ENDROOT
BRANCH   1   3
ATOM      3  C   UNL     1       3.136   0.638  -2.252  1.00  0.00     0.294 C 
BRANCH   3   4
ATOM      4  C   UNL     1       3.959   0.318  -1.040  1.00  0.00     0.143 A 
ATOM      5  C   UNL     1       4.743   0.369   0.937  1.00  0.00     0.131 A 
ATOM      6  N   UNL     1       3.925   1.040   0.101  1.00  0.00    -0.239 NA
ATOM      7  C   UNL     1       5.242  -0.743   0.298  1.00  0.00     0.104 A 
ATOM      8  N   UNL     1       4.742  -0.775  -0.945  1.00  0.00    -0.346 N 
ATOM      9  H   UNL     1       4.913  -1.501  -1.676  1.00  0.00     0.167 HD
ENDBRANCH   3   4
BRANCH   3  10
ATOM     10  N   UNL     1       2.922   2.081  -2.337  1.00  0.00    -0.182 NA
BRANCH  10  11
ATOM     11  C   UNL     1       2.382   2.623  -3.356  1.00  0.00     0.236 C 
ATOM     12  O   UNL     1       1.858   3.148  -4.345  1.00  0.00    -0.211 OA
ENDBRANCH  10  11
ENDBRANCH   3  10
ENDBRANCH   1   3
BRANCH   1  13
ATOM     13  O   UNL     1       0.912   0.268  -1.155  1.00  0.00    -0.424 OA
BRANCH  13  14
ATOM     14  C   UNL     1      -0.436  -0.122  -1.116  1.00  0.00     0.139 A 
ATOM     15  C   UNL     1      -1.166  -0.206  -2.312  1.00  0.00     0.048 A 
ATOM     16  C   UNL     1      -1.082  -0.388   0.128  1.00  0.00     0.037 A 
ATOM     17  C   UNL     1      -2.505  -0.573  -2.304  1.00  0.00     0.005 A 
ATOM     18  C   UNL     1      -0.397  -0.286   1.372  1.00  0.00     0.069 A 
ATOM     19  C   UNL     1      -2.458  -0.764   0.122  1.00  0.00     0.006 A 
ATOM     20  C   UNL     1      -3.146  -0.853  -1.105  1.00  0.00     0.010 A 
ATOM     21  C   UNL     1      -1.069  -0.615   2.573  1.00  0.00     0.071 A 
ATOM     22  C   UNL     1      -3.123  -1.041   1.337  1.00  0.00     0.069 A 
ATOM     23  C   UNL     1      -2.425  -0.975   2.551  1.00  0.00     0.079 A 
ATOM     24  Cl  UNL     1      -0.203  -0.677   4.114  1.00  0.00    -0.082 Cl
ATOM     25  Cl  UNL     1      -4.835  -1.495   1.364  1.00  0.00    -0.082 Cl
ATOM     26  Cl  UNL     1      -3.256  -1.361   4.064  1.00  0.00    -0.081 Cl
BRANCH  18  27
ATOM     27  N   UNL     1       0.984   0.115   1.393  1.00  0.00    -0.058 NA
BRANCH  27  28
ATOM     28  N   UNL     1       1.452   0.858   2.258  1.00  0.00     0.005 N 
ATOM     29  N   UNL     1       1.923   1.603   3.116  1.00  0.00    -0.003 NA
ENDBRANCH  27  28
ENDBRANCH  18  27
ENDBRANCH  13  14
ENDBRANCH   1  13
TORSDOF 8


