MODEL 1
REMARK VINA RESULT:      -5.9      0.000      0.000
REMARK SMILES C#C[C@](O)(c1cc(N)cc(SC(C)(C)C[NH2+]C[C@](C)(O)C=C)ccc2cc1CC2)C(C)(C)C
REMARK SMILES IDX 12 1 13 2 14 3 11 4 10 5 5 6 6 7 27 8 7 9 26 10 28 11 9 12
REMARK SMILES IDX 25 13 29 14 24 15 23 16 3 17 2 18 1 19 4 20 30 22 31 23
REMARK SMILES IDX 32 24 33 25 8 26 15 29 16 30 17 33 18 34 19 35 20 36 21 38
REMARK SMILES IDX 22 39
REMARK H PARENT 4 21 8 27 8 28 16 31 16 32 20 37
ROOT
ATOM      1  C   UNL     1      42.729 133.679  15.894  1.00  0.00     0.064 C 
ATOM      2  C   UNL     1      42.249 135.139  15.743  1.00  0.00     0.029 C 
ATOM      3  C   UNL     1      42.343 132.904  14.622  1.00  0.00     0.029 C 
ENDROOT
BRANCH   1   4
ATOM      4  S   UNL     1      41.965 132.772  17.319  1.00  0.00    -0.114 SA
BRANCH   4   5
ATOM      5  C   UNL     1      41.705 134.059  18.579  1.00  0.00     0.010 A 
ATOM      6  C   UNL     1      44.657 136.184  20.689  1.00  0.00     0.002 A 
ATOM      7  C   UNL     1      44.844 134.848  20.181  1.00  0.00     0.033 A 
ATOM      8  C   UNL     1      43.444 136.911  20.544  1.00  0.00    -0.040 A 
ATOM      9  C   UNL     1      43.910 133.905  19.680  1.00  0.00     0.033 A 
ATOM     10  C   UNL     1      42.656 136.843  19.421  1.00  0.00     0.007 A 
ATOM     11  C   UNL     1      42.607 137.353  21.712  1.00  0.00     0.041 C 
ATOM     12  C   UNL     1      42.530 134.113  19.718  1.00  0.00     0.040 A 
ATOM     13  C   UNL     1      41.321 136.878  19.767  1.00  0.00    -0.047 A 
ATOM     14  C   UNL     1      41.174 137.382  21.164  1.00  0.00     0.040 C 
ATOM     15  C   UNL     1      40.329 136.094  19.154  1.00  0.00     0.005 A 
ATOM     16  C   UNL     1      40.552 134.870  18.479  1.00  0.00     0.015 A 
BRANCH   6  17
ATOM     17  C   UNL     1      45.870 136.900  21.338  1.00  0.00     0.155 C 
BRANCH  17  18
ATOM     18  C   UNL     1      46.982 135.926  21.550  1.00  0.00    -0.066 C 
ATOM     19  C   UNL     1      47.872 135.133  21.724  1.00  0.00     0.007 C 
ENDBRANCH  17  18
BRANCH  17  20
ATOM     20  O   UNL     1      45.506 137.413  22.602  1.00  0.00    -0.373 OA
ATOM     21  H   UNL     1      46.248 137.972  22.953  1.00  0.00     0.213 HD
ENDBRANCH  17  20
BRANCH  17  22
ATOM     22  C   UNL     1      46.378 138.125  20.459  1.00  0.00     0.006 C 
ATOM     23  C   UNL     1      47.916 138.291  20.614  1.00  0.00     0.015 C 
ATOM     24  C   UNL     1      46.066 137.955  18.954  1.00  0.00     0.015 C 
ATOM     25  C   UNL     1      45.722 139.447  20.932  1.00  0.00     0.015 C 
ENDBRANCH  17  22
ENDBRANCH   6  17
BRANCH   9  26
ATOM     26  N   UNL     1      44.397 132.607  19.303  1.00  0.00    -0.399 N 
ATOM     27  H   UNL     1      45.400 132.466  19.061  1.00  0.00     0.156 HD
ATOM     28  H   UNL     1      43.742 131.818  19.107  1.00  0.00     0.156 HD
ENDBRANCH   9  26
ENDBRANCH   4   5
ENDBRANCH   1   4
BRANCH   1  29
ATOM     29  C   UNL     1      44.283 133.629  16.046  1.00  0.00     0.278 C 
BRANCH  29  30
ATOM     30  N   UNL     1      44.924 132.624  15.172  1.00  0.00    -0.342 N 
ATOM     31  H   UNL     1      45.372 133.099  14.359  1.00  0.00     0.346 HD
ATOM     32  H   UNL     1      44.191 131.963  14.834  1.00  0.00     0.346 HD
BRANCH  30  33
ATOM     33  C   UNL     1      45.949 131.857  15.913  1.00  0.00     0.300 C 
BRANCH  33  34
ATOM     34  C   UNL     1      46.338 130.515  15.224  1.00  0.00     0.128 C 
ATOM     35  C   UNL     1      45.080 129.670  14.908  1.00  0.00     0.053 C 
BRANCH  34  36
ATOM     36  O   UNL     1      47.141 129.796  16.138  1.00  0.00    -0.380 OA
ATOM     37  H   UNL     1      46.559 129.159  16.629  1.00  0.00     0.212 HD
ENDBRANCH  34  36
BRANCH  34  38
ATOM     38  C   UNL     1      47.130 130.772  13.946  1.00  0.00     0.005 C 
ATOM     39  C   UNL     1      46.624 130.525  12.736  1.00  0.00     0.007 C 
ENDBRANCH  34  38
ENDBRANCH  33  34
ENDBRANCH  30  33
ENDBRANCH  29  30
ENDBRANCH   1  29
TORSDOF 13
ENDMDL
MODEL 2
REMARK VINA RESULT:      -5.8      1.979      3.057
REMARK SMILES C#C[C@](O)(c1cc(N)cc(SC(C)(C)C[NH2+]C[C@](C)(O)C=C)ccc2cc1CC2)C(C)(C)C
REMARK SMILES IDX 12 1 13 2 14 3 11 4 10 5 5 6 6 7 27 8 7 9 26 10 28 11 9 12
REMARK SMILES IDX 25 13 29 14 24 15 23 16 3 17 2 18 1 19 4 20 30 22 31 23
REMARK SMILES IDX 32 24 33 25 8 26 15 29 16 30 17 33 18 34 19 35 20 36 21 38
REMARK SMILES IDX 22 39
REMARK H PARENT 4 21 8 27 8 28 16 31 16 32 20 37
ROOT
ATOM      1  C   UNL     1      42.524 133.678  15.390  1.00  0.00     0.064 C 
ATOM      2  C   UNL     1      42.990 134.967  14.680  1.00  0.00     0.029 C 
ATOM      3  C   UNL     1      41.406 133.036  14.551  1.00  0.00     0.029 C 
ENDROOT
BRANCH   1   4
ATOM      4  S   UNL     1      41.820 133.956  17.083  1.00  0.00    -0.114 SA
BRANCH   4   5
ATOM      5  C   UNL     1      43.161 133.463  18.209  1.00  0.00     0.010 A 
ATOM      6  C   UNL     1      45.246 135.920  20.912  1.00  0.00     0.002 A 
ATOM      7  C   UNL     1      44.656 136.400  19.687  1.00  0.00     0.033 A 
ATOM      8  C   UNL     1      45.200 134.559  21.318  1.00  0.00    -0.040 A 
ATOM      9  C   UNL     1      44.147 135.700  18.564  1.00  0.00     0.033 A 
ATOM     10  C   UNL     1      44.113 133.746  21.103  1.00  0.00     0.007 A 
ATOM     11  C   UNL     1      46.429 133.710  21.487  1.00  0.00     0.041 C 
ATOM     12  C   UNL     1      44.261 134.316  18.419  1.00  0.00     0.040 A 
ATOM     13  C   UNL     1      44.524 132.467  20.790  1.00  0.00    -0.047 A 
ATOM     14  C   UNL     1      45.952 132.284  21.181  1.00  0.00     0.040 C 
ATOM     15  C   UNL     1      43.915 131.665  19.810  1.00  0.00     0.005 A 
ATOM     16  C   UNL     1      43.162 132.141  18.710  1.00  0.00     0.015 A 
BRANCH   6  17
ATOM     17  C   UNL     1      45.876 136.956  21.879  1.00  0.00     0.155 C 
BRANCH  17  18
ATOM     18  C   UNL     1      45.868 136.420  23.273  1.00  0.00    -0.066 C 
ATOM     19  C   UNL     1      45.852 135.984  24.396  1.00  0.00     0.007 C 
ENDBRANCH  17  18
BRANCH  17  20
ATOM     20  O   UNL     1      45.115 138.144  21.874  1.00  0.00    -0.373 OA
ATOM     21  H   UNL     1      45.609 138.846  21.373  1.00  0.00     0.213 HD
ENDBRANCH  17  20
BRANCH  17  22
ATOM     22  C   UNL     1      47.359 137.342  21.452  1.00  0.00     0.006 C 
ATOM     23  C   UNL     1      47.823 138.610  22.223  1.00  0.00     0.015 C 
ATOM     24  C   UNL     1      48.379 136.214  21.733  1.00  0.00     0.015 C 
ATOM     25  C   UNL     1      47.425 137.672  19.939  1.00  0.00     0.015 C 
ENDBRANCH  17  22
ENDBRANCH   6  17
BRANCH   9  26
ATOM     26  N   UNL     1      43.674 136.468  17.445  1.00  0.00    -0.399 N 
ATOM     27  H   UNL     1      43.090 136.026  16.705  1.00  0.00     0.156 HD
ATOM     28  H   UNL     1      44.029 137.433  17.262  1.00  0.00     0.156 HD
ENDBRANCH   9  26
ENDBRANCH   4   5
ENDBRANCH   1   4
BRANCH   1  29
ATOM     29  C   UNL     1      43.702 132.658  15.500  1.00  0.00     0.278 C 
BRANCH  29  30
ATOM     30  N   UNL     1      43.871 131.827  14.289  1.00  0.00    -0.342 N 
ATOM     31  H   UNL     1      44.641 132.214  13.702  1.00  0.00     0.346 HD
ATOM     32  H   UNL     1      42.977 131.840  13.751  1.00  0.00     0.346 HD
BRANCH  30  33
ATOM     33  C   UNL     1      44.188 130.428  14.649  1.00  0.00     0.300 C 
BRANCH  33  34
ATOM     34  C   UNL     1      45.714 130.115  14.634  1.00  0.00     0.128 C 
ATOM     35  C   UNL     1      46.373 130.634  13.331  1.00  0.00     0.053 C 
BRANCH  34  36
ATOM     36  O   UNL     1      45.851 128.709  14.673  1.00  0.00    -0.380 OA
ATOM     37  H   UNL     1      45.636 128.402  15.592  1.00  0.00     0.212 HD
ENDBRANCH  34  36
BRANCH  34  38
ATOM     38  C   UNL     1      46.405 130.726  15.849  1.00  0.00     0.005 C 
ATOM     39  C   UNL     1      46.094 130.368  17.096  1.00  0.00     0.007 C 
ENDBRANCH  34  38
ENDBRANCH  33  34
ENDBRANCH  30  33
ENDBRANCH  29  30
ENDBRANCH   1  29
TORSDOF 13
ENDMDL
MODEL 3
REMARK VINA RESULT:      -5.8      3.522      6.193
REMARK SMILES C#C[C@](O)(c1cc(N)cc(SC(C)(C)C[NH2+]C[C@](C)(O)C=C)ccc2cc1CC2)C(C)(C)C
REMARK SMILES IDX 12 1 13 2 14 3 11 4 10 5 5 6 6 7 27 8 7 9 26 10 28 11 9 12
REMARK SMILES IDX 25 13 29 14 24 15 23 16 3 17 2 18 1 19 4 20 30 22 31 23
REMARK SMILES IDX 32 24 33 25 8 26 15 29 16 30 17 33 18 34 19 35 20 36 21 38
REMARK SMILES IDX 22 39
REMARK H PARENT 4 21 8 27 8 28 16 31 16 32 20 37
ROOT
ATOM      1  C   UNL     1      43.508 132.563  18.774  1.00  0.00     0.064 C 
ATOM      2  C   UNL     1      42.399 131.726  19.446  1.00  0.00     0.029 C 
ATOM      3  C   UNL     1      44.853 131.846  18.980  1.00  0.00     0.029 C 
ENDROOT
BRANCH   1   4
ATOM      4  S   UNL     1      43.704 134.268  19.476  1.00  0.00    -0.114 SA
BRANCH   4   5
ATOM      5  C   UNL     1      42.001 134.893  19.610  1.00  0.00     0.010 A 
ATOM      6  C   UNL     1      39.516 136.195  16.477  1.00  0.00     0.002 A 
ATOM      7  C   UNL     1      40.955 136.273  16.440  1.00  0.00     0.033 A 
ATOM      8  C   UNL     1      38.791 135.689  17.589  1.00  0.00    -0.040 A 
ATOM      9  C   UNL     1      41.921 136.120  17.468  1.00  0.00     0.033 A 
ATOM     10  C   UNL     1      39.225 134.630  18.351  1.00  0.00     0.007 A 
ATOM     11  C   UNL     1      37.835 136.523  18.396  1.00  0.00     0.041 C 
ATOM     12  C   UNL     1      41.578 135.974  18.813  1.00  0.00     0.040 A 
ATOM     13  C   UNL     1      38.919 134.838  19.680  1.00  0.00    -0.047 A 
ATOM     14  C   UNL     1      37.885 135.907  19.801  1.00  0.00     0.040 C 
ATOM     15  C   UNL     1      39.779 134.516  20.744  1.00  0.00     0.005 A 
ATOM     16  C   UNL     1      41.187 134.398  20.654  1.00  0.00     0.015 A 
BRANCH   6  17
ATOM     17  C   UNL     1      38.726 136.593  15.203  1.00  0.00     0.155 C 
BRANCH  17  18
ATOM     18  C   UNL     1      39.497 137.605  14.421  1.00  0.00    -0.066 C 
ATOM     19  C   UNL     1      40.126 138.414  13.788  1.00  0.00     0.007 C 
ENDBRANCH  17  18
BRANCH  17  20
ATOM     20  O   UNL     1      37.495 137.181  15.565  1.00  0.00    -0.373 OA
ATOM     21  H   UNL     1      37.669 138.018  16.072  1.00  0.00     0.213 HD
ENDBRANCH  17  20
BRANCH  17  22
ATOM     22  C   UNL     1      38.398 135.333  14.289  1.00  0.00     0.006 C 
ATOM     23  C   UNL     1      37.132 134.604  14.821  1.00  0.00     0.015 C 
ATOM     24  C   UNL     1      38.144 135.711  12.811  1.00  0.00     0.015 C 
ATOM     25  C   UNL     1      39.565 134.314  14.323  1.00  0.00     0.015 C 
ENDBRANCH  17  22
ENDBRANCH   6  17
BRANCH   9  26
ATOM     26  N   UNL     1      43.303 136.323  17.132  1.00  0.00    -0.399 N 
ATOM     27  H   UNL     1      44.001 136.556  17.870  1.00  0.00     0.156 HD
ATOM     28  H   UNL     1      43.614 136.400  16.138  1.00  0.00     0.156 HD
ENDBRANCH   9  26
ENDBRANCH   4   5
ENDBRANCH   1   4
BRANCH   1  29
ATOM     29  C   UNL     1      43.247 132.682  17.238  1.00  0.00     0.278 C 
BRANCH  29  30
ATOM     30  N   UNL     1      43.653 131.479  16.480  1.00  0.00    -0.342 N 
ATOM     31  H   UNL     1      42.835 130.840  16.371  1.00  0.00     0.346 HD
ATOM     32  H   UNL     1      44.411 130.996  17.009  1.00  0.00     0.346 HD
BRANCH  30  33
ATOM     33  C   UNL     1      44.166 131.847  15.143  1.00  0.00     0.300 C 
BRANCH  33  34
ATOM     34  C   UNL     1      45.563 131.235  14.825  1.00  0.00     0.128 C 
ATOM     35  C   UNL     1      45.971 130.197  15.900  1.00  0.00     0.053 C 
BRANCH  34  36
ATOM     36  O   UNL     1      46.497 132.296  14.852  1.00  0.00    -0.380 OA
ATOM     37  H   UNL     1      46.028 133.130  14.587  1.00  0.00     0.212 HD
ENDBRANCH  34  36
BRANCH  34  38
ATOM     38  C   UNL     1      45.570 130.588  13.444  1.00  0.00     0.005 C 
ATOM     39  C   UNL     1      46.690 130.449  12.731  1.00  0.00     0.007 C 
ENDBRANCH  34  38
ENDBRANCH  33  34
ENDBRANCH  30  33
ENDBRANCH  29  30
ENDBRANCH   1  29
TORSDOF 13
ENDMDL
MODEL 4
REMARK VINA RESULT:      -5.6      2.177      3.383
REMARK SMILES C#C[C@](O)(c1cc(N)cc(SC(C)(C)C[NH2+]C[C@](C)(O)C=C)ccc2cc1CC2)C(C)(C)C
REMARK SMILES IDX 12 1 13 2 14 3 11 4 10 5 5 6 6 7 27 8 7 9 26 10 28 11 9 12
REMARK SMILES IDX 25 13 29 14 24 15 23 16 3 17 2 18 1 19 4 20 30 22 31 23
REMARK SMILES IDX 32 24 33 25 8 26 15 29 16 30 17 33 18 34 19 35 20 36 21 38
REMARK SMILES IDX 22 39
REMARK H PARENT 4 21 8 27 8 28 16 31 16 32 20 37
ROOT
ATOM      1  C   UNL     1      42.336 134.116  15.328  1.00  0.00     0.064 C 
ATOM      2  C   UNL     1      42.919 135.380  14.660  1.00  0.00     0.029 C 
ATOM      3  C   UNL     1      41.752 133.210  14.230  1.00  0.00     0.029 C 
ENDROOT
BRANCH   1   4
ATOM      4  S   UNL     1      40.959 134.455  16.522  1.00  0.00    -0.114 SA
BRANCH   4   5
ATOM      5  C   UNL     1      41.762 135.356  17.883  1.00  0.00     0.010 A 
ATOM      6  C   UNL     1      44.383 133.789  20.774  1.00  0.00     0.002 A 
ATOM      7  C   UNL     1      43.355 133.015  20.125  1.00  0.00     0.033 A 
ATOM      8  C   UNL     1      44.599 135.170  20.517  1.00  0.00    -0.040 A 
ATOM      9  C   UNL     1      42.249 133.418  19.334  1.00  0.00     0.033 A 
ATOM     10  C   UNL     1      44.463 135.733  19.270  1.00  0.00     0.007 A 
ATOM     11  C   UNL     1      44.438 136.237  21.563  1.00  0.00     0.041 C 
ATOM     12  C   UNL     1      41.897 134.756  19.149  1.00  0.00     0.040 A 
ATOM     13  C   UNL     1      43.910 136.993  19.370  1.00  0.00    -0.047 A 
ATOM     14  C   UNL     1      44.023 137.486  20.774  1.00  0.00     0.040 C 
ATOM     15  C   UNL     1      42.947 137.501  18.482  1.00  0.00     0.005 A 
ATOM     16  C   UNL     1      42.068 136.723  17.692  1.00  0.00     0.015 A 
BRANCH   6  17
ATOM     17  C   UNL     1      45.363 133.057  21.728  1.00  0.00     0.155 C 
BRANCH  17  18
ATOM     18  C   UNL     1      46.691 133.739  21.715  1.00  0.00    -0.066 C 
ATOM     19  C   UNL     1      47.767 134.281  21.710  1.00  0.00     0.007 C 
ENDBRANCH  17  18
BRANCH  17  20
ATOM     20  O   UNL     1      45.559 131.730  21.290  1.00  0.00    -0.373 OA
ATOM     21  H   UNL     1      46.532 131.525  21.297  1.00  0.00     0.213 HD
ENDBRANCH  17  20
BRANCH  17  22
ATOM     22  C   UNL     1      44.802 132.986  23.215  1.00  0.00     0.006 C 
ATOM     23  C   UNL     1      45.009 131.558  23.795  1.00  0.00     0.015 C 
ATOM     24  C   UNL     1      45.491 133.992  24.167  1.00  0.00     0.015 C 
ATOM     25  C   UNL     1      43.280 133.277  23.241  1.00  0.00     0.015 C 
ENDBRANCH  17  22
ENDBRANCH   6  17
BRANCH   9  26
ATOM     26  N   UNL     1      41.344 132.401  18.870  1.00  0.00    -0.399 N 
ATOM     27  H   UNL     1      40.623 132.002  19.507  1.00  0.00     0.156 HD
ATOM     28  H   UNL     1      41.485 131.929  17.950  1.00  0.00     0.156 HD
ENDBRANCH   9  26
ENDBRANCH   4   5
ENDBRANCH   1   4
BRANCH   1  29
ATOM     29  C   UNL     1      43.459 133.324  16.071  1.00  0.00     0.278 C 
BRANCH  29  30
ATOM     30  N   UNL     1      44.388 132.628  15.155  1.00  0.00    -0.342 N 
ATOM     31  H   UNL     1      45.356 132.990  15.296  1.00  0.00     0.346 HD
ATOM     32  H   UNL     1      44.083 132.807  14.174  1.00  0.00     0.346 HD
BRANCH  30  33
ATOM     33  C   UNL     1      44.374 131.169  15.398  1.00  0.00     0.300 C 
BRANCH  33  34
ATOM     34  C   UNL     1      45.782 130.510  15.298  1.00  0.00     0.128 C 
ATOM     35  C   UNL     1      46.774 131.434  14.551  1.00  0.00     0.053 C 
BRANCH  34  36
ATOM     36  O   UNL     1      45.632 129.319  14.552  1.00  0.00    -0.380 OA
ATOM     37  H   UNL     1      45.854 129.517  13.604  1.00  0.00     0.212 HD
ENDBRANCH  34  36
BRANCH  34  38
ATOM     38  C   UNL     1      46.321 130.174  16.685  1.00  0.00     0.005 C 
ATOM     39  C   UNL     1      45.706 130.572  17.801  1.00  0.00     0.007 C 
ENDBRANCH  34  38
ENDBRANCH  33  34
ENDBRANCH  30  33
ENDBRANCH  29  30
ENDBRANCH   1  29
TORSDOF 13
ENDMDL
MODEL 5
REMARK VINA RESULT:      -5.5      3.221      5.969
REMARK SMILES C#C[C@](O)(c1cc(N)cc(SC(C)(C)C[NH2+]C[C@](C)(O)C=C)ccc2cc1CC2)C(C)(C)C
REMARK SMILES IDX 12 1 13 2 14 3 11 4 10 5 5 6 6 7 27 8 7 9 26 10 28 11 9 12
REMARK SMILES IDX 25 13 29 14 24 15 23 16 3 17 2 18 1 19 4 20 30 22 31 23
REMARK SMILES IDX 32 24 33 25 8 26 15 29 16 30 17 33 18 34 19 35 20 36 21 38
REMARK SMILES IDX 22 39
REMARK H PARENT 4 21 8 27 8 28 16 31 16 32 20 37
ROOT
ATOM      1  C   UNL     1      43.523 132.334  18.655  1.00  0.00     0.064 C 
ATOM      2  C   UNL     1      42.094 132.284  19.237  1.00  0.00     0.029 C 
ATOM      3  C   UNL     1      44.390 131.305  19.400  1.00  0.00     0.029 C 
ENDROOT
BRANCH   1   4
ATOM      4  S   UNL     1      44.365 133.974  18.849  1.00  0.00    -0.114 SA
BRANCH   4   5
ATOM      5  C   UNL     1      43.022 135.113  19.305  1.00  0.00     0.010 A 
ATOM      6  C   UNL     1      39.694 136.187  16.968  1.00  0.00     0.002 A 
ATOM      7  C   UNL     1      40.967 135.795  16.415  1.00  0.00     0.033 A 
ATOM      8  C   UNL     1      39.444 136.270  18.365  1.00  0.00    -0.040 A 
ATOM      9  C   UNL     1      42.239 135.645  17.024  1.00  0.00     0.033 A 
ATOM     10  C   UNL     1      39.975 135.390  19.277  1.00  0.00     0.007 A 
ATOM     11  C   UNL     1      39.089 137.554  19.061  1.00  0.00     0.041 C 
ATOM     12  C   UNL     1      42.489 136.000  18.350  1.00  0.00     0.040 A 
ATOM     13  C   UNL     1      40.313 136.050  20.440  1.00  0.00    -0.047 A 
ATOM     14  C   UNL     1      39.633 137.378  20.485  1.00  0.00     0.040 C 
ATOM     15  C   UNL     1      41.478 135.790  21.182  1.00  0.00     0.005 A 
ATOM     16  C   UNL     1      42.666 135.216  20.669  1.00  0.00     0.015 A 
BRANCH   6  17
ATOM     17  C   UNL     1      38.514 136.435  15.993  1.00  0.00     0.155 C 
BRANCH  17  18
ATOM     18  C   UNL     1      39.005 137.130  14.766  1.00  0.00    -0.066 C 
ATOM     19  C   UNL     1      39.390 137.691  13.772  1.00  0.00     0.007 C 
ENDBRANCH  17  18
BRANCH  17  20
ATOM     20  O   UNL     1      37.555 137.272  16.603  1.00  0.00    -0.373 OA
ATOM     21  H   UNL     1      36.738 137.299  16.037  1.00  0.00     0.213 HD
ENDBRANCH  17  20
BRANCH  17  22
ATOM     22  C   UNL     1      37.777 135.082  15.595  1.00  0.00     0.006 C 
ATOM     23  C   UNL     1      37.607 134.179  16.850  1.00  0.00     0.015 C 
ATOM     24  C   UNL     1      36.376 135.317  14.984  1.00  0.00     0.015 C 
ATOM     25  C   UNL     1      38.615 134.285  14.564  1.00  0.00     0.015 C 
ENDBRANCH  17  22
ENDBRANCH   6  17
BRANCH   9  26
ATOM     26  N   UNL     1      43.353 135.300  16.185  1.00  0.00    -0.399 N 
ATOM     27  H   UNL     1      43.201 134.963  15.211  1.00  0.00     0.156 HD
ATOM     28  H   UNL     1      44.321 135.226  16.571  1.00  0.00     0.156 HD
ENDBRANCH   9  26
ENDBRANCH   4   5
ENDBRANCH   1   4
BRANCH   1  29
ATOM     29  C   UNL     1      43.508 131.956  17.139  1.00  0.00     0.278 C 
BRANCH  29  30
ATOM     30  N   UNL     1      44.803 132.192  16.465  1.00  0.00    -0.342 N 
ATOM     31  H   UNL     1      45.364 132.879  17.013  1.00  0.00     0.346 HD
ATOM     32  H   UNL     1      44.616 132.570  15.510  1.00  0.00     0.346 HD
BRANCH  30  33
ATOM     33  C   UNL     1      45.567 130.932  16.335  1.00  0.00     0.300 C 
BRANCH  33  34
ATOM     34  C   UNL     1      45.845 130.525  14.857  1.00  0.00     0.128 C 
ATOM     35  C   UNL     1      44.547 130.580  14.014  1.00  0.00     0.053 C 
BRANCH  34  36
ATOM     36  O   UNL     1      46.311 129.191  14.873  1.00  0.00    -0.380 OA
ATOM     37  H   UNL     1      47.298 129.206  14.769  1.00  0.00     0.212 HD
ENDBRANCH  34  36
BRANCH  34  38
ATOM     38  C   UNL     1      46.909 131.427  14.238  1.00  0.00     0.005 C 
ATOM     39  C   UNL     1      47.604 131.065  13.157  1.00  0.00     0.007 C 
ENDBRANCH  34  38
ENDBRANCH  33  34
ENDBRANCH  30  33
ENDBRANCH  29  30
ENDBRANCH   1  29
TORSDOF 13
ENDMDL
MODEL 6
REMARK VINA RESULT:      -5.3      2.792      5.105
REMARK SMILES C#C[C@](O)(c1cc(N)cc(SC(C)(C)C[NH2+]C[C@](C)(O)C=C)ccc2cc1CC2)C(C)(C)C
REMARK SMILES IDX 12 1 13 2 14 3 11 4 10 5 5 6 6 7 27 8 7 9 26 10 28 11 9 12
REMARK SMILES IDX 25 13 29 14 24 15 23 16 3 17 2 18 1 19 4 20 30 22 31 23
REMARK SMILES IDX 32 24 33 25 8 26 15 29 16 30 17 33 18 34 19 35 20 36 21 38
REMARK SMILES IDX 22 39
REMARK H PARENT 4 21 8 27 8 28 16 31 16 32 20 37
ROOT
ATOM      1  C   UNL     1      45.076 131.386  16.101  1.00  0.00     0.064 C 
ATOM      2  C   UNL     1      46.154 131.872  15.108  1.00  0.00     0.029 C 
ATOM      3  C   UNL     1      45.129 129.850  16.166  1.00  0.00     0.029 C 
ENDROOT
BRANCH   1   4
ATOM      4  S   UNL     1      43.343 131.836  15.619  1.00  0.00    -0.114 SA
BRANCH   4   5
ATOM      5  C   UNL     1      43.112 133.508  16.297  1.00  0.00     0.010 A 
ATOM      6  C   UNL     1      41.938 134.528  20.205  1.00  0.00     0.002 A 
ATOM      7  C   UNL     1      41.557 133.301  19.551  1.00  0.00     0.033 A 
ATOM      8  C   UNL     1      42.734 135.529  19.583  1.00  0.00    -0.040 A 
ATOM      9  C   UNL     1      41.645 132.907  18.191  1.00  0.00     0.033 A 
ATOM     10  C   UNL     1      43.773 135.241  18.731  1.00  0.00     0.007 A 
ATOM     11  C   UNL     1      42.237 136.921  19.309  1.00  0.00     0.041 C 
ATOM     12  C   UNL     1      42.044 133.776  17.175  1.00  0.00     0.040 A 
ATOM     13  C   UNL     1      43.818 136.160  17.702  1.00  0.00    -0.047 A 
ATOM     14  C   UNL     1      43.016 137.365  18.064  1.00  0.00     0.040 C 
ATOM     15  C   UNL     1      44.097 135.830  16.366  1.00  0.00     0.005 A 
ATOM     16  C   UNL     1      43.905 134.556  15.778  1.00  0.00     0.015 A 
BRANCH   6  17
ATOM     17  C   UNL     1      41.542 134.722  21.692  1.00  0.00     0.155 C 
BRANCH  17  18
ATOM     18  C   UNL     1      42.620 135.463  22.413  1.00  0.00    -0.066 C 
ATOM     19  C   UNL     1      43.483 136.069  22.996  1.00  0.00     0.007 C 
ENDBRANCH  17  18
BRANCH  17  20
ATOM     20  O   UNL     1      41.395 133.466  22.318  1.00  0.00    -0.373 OA
ATOM     21  H   UNL     1      41.811 133.501  23.220  1.00  0.00     0.213 HD
ENDBRANCH  17  20
BRANCH  17  22
ATOM     22  C   UNL     1      40.158 135.492  21.843  1.00  0.00     0.006 C 
ATOM     23  C   UNL     1      40.414 136.994  22.153  1.00  0.00     0.015 C 
ATOM     24  C   UNL     1      39.283 135.410  20.570  1.00  0.00     0.015 C 
ATOM     25  C   UNL     1      39.335 134.912  23.021  1.00  0.00     0.015 C 
ENDBRANCH  17  22
ENDBRANCH   6  17
BRANCH   9  26
ATOM     26  N   UNL     1      41.113 131.623  17.825  1.00  0.00    -0.399 N 
ATOM     27  H   UNL     1      41.635 130.998  17.174  1.00  0.00     0.156 HD
ATOM     28  H   UNL     1      40.134 131.352  18.067  1.00  0.00     0.156 HD
ENDBRANCH   9  26
ENDBRANCH   4   5
ENDBRANCH   1   4
BRANCH   1  29
ATOM     29  C   UNL     1      45.358 131.947  17.532  1.00  0.00     0.278 C 
BRANCH  29  30
ATOM     30  N   UNL     1      44.758 131.131  18.609  1.00  0.00    -0.342 N 
ATOM     31  H   UNL     1      44.462 130.207  18.226  1.00  0.00     0.346 HD
ATOM     32  H   UNL     1      43.929 131.640  18.986  1.00  0.00     0.346 HD
BRANCH  30  33
ATOM     33  C   UNL     1      45.724 130.916  19.708  1.00  0.00     0.300 C 
BRANCH  33  34
ATOM     34  C   UNL     1      45.217 131.431  21.088  1.00  0.00     0.128 C 
ATOM     35  C   UNL     1      45.352 132.971  21.188  1.00  0.00     0.053 C 
BRANCH  34  36
ATOM     36  O   UNL     1      46.039 130.847  22.078  1.00  0.00    -0.380 OA
ATOM     37  H   UNL     1      46.264 129.924  21.790  1.00  0.00     0.212 HD
ENDBRANCH  34  36
BRANCH  34  38
ATOM     38  C   UNL     1      43.768 131.017  21.322  1.00  0.00     0.005 C 
ATOM     39  C   UNL     1      43.335 130.591  22.511  1.00  0.00     0.007 C 
ENDBRANCH  34  38
ENDBRANCH  33  34
ENDBRANCH  30  33
ENDBRANCH  29  30
ENDBRANCH   1  29
TORSDOF 13
ENDMDL
MODEL 7
REMARK VINA RESULT:      -5.2      2.408      7.153
REMARK SMILES C#C[C@](O)(c1cc(N)cc(SC(C)(C)C[NH2+]C[C@](C)(O)C=C)ccc2cc1CC2)C(C)(C)C
REMARK SMILES IDX 12 1 13 2 14 3 11 4 10 5 5 6 6 7 27 8 7 9 26 10 28 11 9 12
REMARK SMILES IDX 25 13 29 14 24 15 23 16 3 17 2 18 1 19 4 20 30 22 31 23
REMARK SMILES IDX 32 24 33 25 8 26 15 29 16 30 17 33 18 34 19 35 20 36 21 38
REMARK SMILES IDX 22 39
REMARK H PARENT 4 21 8 27 8 28 16 31 16 32 20 37
ROOT
ATOM      1  C   UNL     1      41.311 137.866  15.923  1.00  0.00     0.064 C 
ATOM      2  C   UNL     1      40.727 139.141  16.569  1.00  0.00     0.029 C 
ATOM      3  C   UNL     1      42.152 138.279  14.702  1.00  0.00     0.029 C 
ENDROOT
BRANCH   1   4
ATOM      4  S   UNL     1      40.033 136.673  15.307  1.00  0.00    -0.114 SA
BRANCH   4   5
ATOM      5  C   UNL     1      40.367 135.144  16.234  1.00  0.00     0.010 A 
ATOM      6  C   UNL     1      43.707 132.617  15.853  1.00  0.00     0.002 A 
ATOM      7  C   UNL     1      43.191 133.427  14.778  1.00  0.00     0.033 A 
ATOM      8  C   UNL     1      43.123 132.576  17.148  1.00  0.00    -0.040 A 
ATOM      9  C   UNL     1      41.965 134.128  14.648  1.00  0.00     0.033 A 
ATOM     10  C   UNL     1      42.576 133.678  17.761  1.00  0.00     0.007 A 
ATOM     11  C   UNL     1      42.527 131.331  17.742  1.00  0.00     0.041 C 
ATOM     12  C   UNL     1      40.934 134.031  15.585  1.00  0.00     0.040 A 
ATOM     13  C   UNL     1      41.449 133.322  18.473  1.00  0.00    -0.047 A 
ATOM     14  C   UNL     1      41.428 131.844  18.682  1.00  0.00     0.040 C 
ATOM     15  C   UNL     1      40.276 134.093  18.526  1.00  0.00     0.005 A 
ATOM     16  C   UNL     1      39.872 135.040  17.554  1.00  0.00     0.015 A 
BRANCH   6  17
ATOM     17  C   UNL     1      45.020 131.828  15.614  1.00  0.00     0.155 C 
BRANCH  17  18
ATOM     18  C   UNL     1      45.484 131.212  16.893  1.00  0.00    -0.066 C 
ATOM     19  C   UNL     1      45.856 130.725  17.930  1.00  0.00     0.007 C 
ENDBRANCH  17  18
BRANCH  17  20
ATOM     20  O   UNL     1      46.034 132.704  15.170  1.00  0.00    -0.373 OA
ATOM     21  H   UNL     1      45.617 133.531  14.812  1.00  0.00     0.213 HD
ENDBRANCH  17  20
BRANCH  17  22
ATOM     22  C   UNL     1      44.844 130.705  14.501  1.00  0.00     0.006 C 
ATOM     23  C   UNL     1      43.465 130.861  13.800  1.00  0.00     0.015 C 
ATOM     24  C   UNL     1      45.941 130.759  13.412  1.00  0.00     0.015 C 
ATOM     25  C   UNL     1      44.880 129.292  15.138  1.00  0.00     0.015 C 
ENDBRANCH  17  22
ENDBRANCH   6  17
BRANCH   9  26
ATOM     26  N   UNL     1      41.701 134.805  13.408  1.00  0.00    -0.399 N 
ATOM     27  H   UNL     1      41.239 134.306  12.619  1.00  0.00     0.156 HD
ATOM     28  H   UNL     1      42.101 135.749  13.210  1.00  0.00     0.156 HD
ENDBRANCH   9  26
ENDBRANCH   4   5
ENDBRANCH   1   4
BRANCH   1  29
ATOM     29  C   UNL     1      42.245 137.122  16.931  1.00  0.00     0.278 C 
BRANCH  29  30
ATOM     30  N   UNL     1      42.458 137.866  18.191  1.00  0.00    -0.342 N 
ATOM     31  H   UNL     1      41.594 138.397  18.435  1.00  0.00     0.346 HD
ATOM     32  H   UNL     1      43.252 138.528  18.054  1.00  0.00     0.346 HD
BRANCH  30  33
ATOM     33  C   UNL     1      42.793 136.945  19.298  1.00  0.00     0.300 C 
BRANCH  33  34
ATOM     34  C   UNL     1      43.399 137.664  20.540  1.00  0.00     0.128 C 
ATOM     35  C   UNL     1      43.279 136.777  21.805  1.00  0.00     0.053 C 
BRANCH  34  36
ATOM     36  O   UNL     1      42.647 138.842  20.748  1.00  0.00    -0.380 OA
ATOM     37  H   UNL     1      42.410 139.219  19.861  1.00  0.00     0.212 HD
ENDBRANCH  34  36
BRANCH  34  38
ATOM     38  C   UNL     1      44.859 138.031  20.295  1.00  0.00     0.005 C 
ATOM     39  C   UNL     1      45.791 137.107  20.048  1.00  0.00     0.007 C 
ENDBRANCH  34  38
ENDBRANCH  33  34
ENDBRANCH  30  33
ENDBRANCH  29  30
ENDBRANCH   1  29
TORSDOF 13
ENDMDL
MODEL 8
REMARK VINA RESULT:      -5.2      3.270      7.952
REMARK SMILES C#C[C@](O)(c1cc(N)cc(SC(C)(C)C[NH2+]C[C@](C)(O)C=C)ccc2cc1CC2)C(C)(C)C
REMARK SMILES IDX 12 1 13 2 14 3 11 4 10 5 5 6 6 7 27 8 7 9 26 10 28 11 9 12
REMARK SMILES IDX 25 13 29 14 24 15 23 16 3 17 2 18 1 19 4 20 30 22 31 23
REMARK SMILES IDX 32 24 33 25 8 26 15 29 16 30 17 33 18 34 19 35 20 36 21 38
REMARK SMILES IDX 22 39
REMARK H PARENT 4 21 8 27 8 28 16 31 16 32 20 37
ROOT
ATOM      1  C   UNL     1      42.322 136.798  16.650  1.00  0.00     0.064 C 
ATOM      2  C   UNL     1      42.007 137.886  15.601  1.00  0.00     0.029 C 
ATOM      3  C   UNL     1      43.825 136.474  16.581  1.00  0.00     0.029 C 
ENDROOT
BRANCH   1   4
ATOM      4  S   UNL     1      41.424 135.199  16.379  1.00  0.00    -0.114 SA
BRANCH   4   5
ATOM      5  C   UNL     1      42.272 134.019  17.474  1.00  0.00     0.010 A 
ATOM      6  C   UNL     1      44.972 130.997  16.352  1.00  0.00     0.002 A 
ATOM      7  C   UNL     1      43.921 131.487  15.496  1.00  0.00     0.033 A 
ATOM      8  C   UNL     1      45.188 131.474  17.673  1.00  0.00    -0.040 A 
ATOM      9  C   UNL     1      42.793 132.299  15.781  1.00  0.00     0.033 A 
ATOM     10  C   UNL     1      45.016 132.788  18.036  1.00  0.00     0.007 A 
ATOM     11  C   UNL     1      45.064 130.603  18.891  1.00  0.00     0.041 C 
ATOM     12  C   UNL     1      42.442 132.680  17.077  1.00  0.00     0.040 A 
ATOM     13  C   UNL     1      44.473 132.871  19.301  1.00  0.00    -0.047 A 
ATOM     14  C   UNL     1      44.632 131.565  20.006  1.00  0.00     0.040 C 
ATOM     15  C   UNL     1      43.486 133.798  19.674  1.00  0.00     0.005 A 
ATOM     16  C   UNL     1      42.579 134.431  18.791  1.00  0.00     0.015 A 
BRANCH   6  17
ATOM     17  C   UNL     1      45.977 129.970  15.768  1.00  0.00     0.155 C 
BRANCH  17  18
ATOM     18  C   UNL     1      45.342 128.620  15.699  1.00  0.00    -0.066 C 
ATOM     19  C   UNL     1      44.829 127.532  15.632  1.00  0.00     0.007 C 
ENDBRANCH  17  18
BRANCH  17  20
ATOM     20  O   UNL     1      47.105 129.868  16.610  1.00  0.00    -0.373 OA
ATOM     21  H   UNL     1      47.835 129.403  16.122  1.00  0.00     0.213 HD
ENDBRANCH  17  20
BRANCH  17  22
ATOM     22  C   UNL     1      46.498 130.401  14.328  1.00  0.00     0.006 C 
ATOM     23  C   UNL     1      45.321 130.399  13.312  1.00  0.00     0.015 C 
ATOM     24  C   UNL     1      47.136 131.810  14.315  1.00  0.00     0.015 C 
ATOM     25  C   UNL     1      47.558 129.398  13.806  1.00  0.00     0.015 C 
ENDBRANCH  17  22
ENDBRANCH   6  17
BRANCH   9  26
ATOM     26  N   UNL     1      41.869 132.571  14.714  1.00  0.00    -0.399 N 
ATOM     27  H   UNL     1      42.211 132.727  13.742  1.00  0.00     0.156 HD
ATOM     28  H   UNL     1      40.864 132.775  14.906  1.00  0.00     0.156 HD
ENDBRANCH   9  26
ENDBRANCH   4   5
ENDBRANCH   1   4
BRANCH   1  29
ATOM     29  C   UNL     1      41.998 137.315  18.088  1.00  0.00     0.278 C 
BRANCH  29  30
ATOM     30  N   UNL     1      40.813 138.198  18.139  1.00  0.00    -0.342 N 
ATOM     31  H   UNL     1      40.354 138.224  17.203  1.00  0.00     0.346 HD
ATOM     32  H   UNL     1      41.125 139.156  18.407  1.00  0.00     0.346 HD
BRANCH  30  33
ATOM     33  C   UNL     1      39.841 137.717  19.145  1.00  0.00     0.300 C 
BRANCH  33  34
ATOM     34  C   UNL     1      38.357 137.979  18.748  1.00  0.00     0.128 C 
ATOM     35  C   UNL     1      37.755 139.134  19.587  1.00  0.00     0.053 C 
BRANCH  34  36
ATOM     36  O   UNL     1      37.635 136.798  19.031  1.00  0.00    -0.380 OA
ATOM     37  H   UNL     1      38.249 136.159  19.478  1.00  0.00     0.212 HD
ENDBRANCH  34  36
BRANCH  34  38
ATOM     38  C   UNL     1      38.243 138.299  17.260  1.00  0.00     0.005 C 
ATOM     39  C   UNL     1      38.173 137.342  16.332  1.00  0.00     0.007 C 
ENDBRANCH  34  38
ENDBRANCH  33  34
ENDBRANCH  30  33
ENDBRANCH  29  30
ENDBRANCH   1  29
TORSDOF 13
ENDMDL
MODEL 9
REMARK VINA RESULT:      -5.1      3.268      6.219
REMARK SMILES C#C[C@](O)(c1cc(N)cc(SC(C)(C)C[NH2+]C[C@](C)(O)C=C)ccc2cc1CC2)C(C)(C)C
REMARK SMILES IDX 12 1 13 2 14 3 11 4 10 5 5 6 6 7 27 8 7 9 26 10 28 11 9 12
REMARK SMILES IDX 25 13 29 14 24 15 23 16 3 17 2 18 1 19 4 20 30 22 31 23
REMARK SMILES IDX 32 24 33 25 8 26 15 29 16 30 17 33 18 34 19 35 20 36 21 38
REMARK SMILES IDX 22 39
REMARK H PARENT 4 21 8 27 8 28 16 31 16 32 20 37
ROOT
ATOM      1  C   UNL     1      40.792 138.065  17.383  1.00  0.00     0.064 C 
ATOM      2  C   UNL     1      39.601 138.517  16.510  1.00  0.00     0.029 C 
ATOM      3  C   UNL     1      40.769 138.873  18.693  1.00  0.00     0.029 C 
ENDROOT
BRANCH   1   4
ATOM      4  S   UNL     1      42.452 138.356  16.611  1.00  0.00    -0.114 SA
BRANCH   4   5
ATOM      5  C   UNL     1      43.095 136.683  16.296  1.00  0.00     0.010 A 
ATOM      6  C   UNL     1      44.130 133.777  19.154  1.00  0.00     0.002 A 
ATOM      7  C   UNL     1      44.197 135.196  19.398  1.00  0.00     0.033 A 
ATOM      8  C   UNL     1      43.727 133.217  17.912  1.00  0.00    -0.040 A 
ATOM      9  C   UNL     1      44.130 136.297  18.505  1.00  0.00     0.033 A 
ATOM     10  C   UNL     1      42.737 133.761  17.128  1.00  0.00     0.007 A 
ATOM     11  C   UNL     1      44.633 132.377  17.056  1.00  0.00     0.041 C 
ATOM     12  C   UNL     1      44.104 136.145  17.117  1.00  0.00     0.040 A 
ATOM     13  C   UNL     1      43.063 133.642  15.792  1.00  0.00    -0.047 A 
ATOM     14  C   UNL     1      44.143 132.627  15.623  1.00  0.00     0.040 C 
ATOM     15  C   UNL     1      42.831 134.644  14.835  1.00  0.00     0.005 A 
ATOM     16  C   UNL     1      42.698 136.026  15.109  1.00  0.00     0.015 A 
BRANCH   6  17
ATOM     17  C   UNL     1      44.419 132.814  20.335  1.00  0.00     0.155 C 
BRANCH  17  18
ATOM     18  C   UNL     1      45.665 133.235  21.042  1.00  0.00    -0.066 C 
ATOM     19  C   UNL     1      46.677 133.570  21.604  1.00  0.00     0.007 C 
ENDBRANCH  17  18
BRANCH  17  20
ATOM     20  O   UNL     1      44.625 131.505  19.849  1.00  0.00    -0.373 OA
ATOM     21  H   UNL     1      44.477 130.856  20.587  1.00  0.00     0.213 HD
ENDBRANCH  17  20
BRANCH  17  22
ATOM     22  C   UNL     1      43.205 132.752  21.362  1.00  0.00     0.006 C 
ATOM     23  C   UNL     1      41.887 133.179  20.655  1.00  0.00     0.015 C 
ATOM     24  C   UNL     1      42.991 131.341  21.957  1.00  0.00     0.015 C 
ATOM     25  C   UNL     1      43.434 133.733  22.540  1.00  0.00     0.015 C 
ENDBRANCH  17  22
ENDBRANCH   6  17
BRANCH   9  26
ATOM     26  N   UNL     1      44.296 137.617  19.047  1.00  0.00    -0.399 N 
ATOM     27  H   UNL     1      44.044 138.458  18.485  1.00  0.00     0.156 HD
ATOM     28  H   UNL     1      44.814 137.776  19.940  1.00  0.00     0.156 HD
ENDBRANCH   9  26
ENDBRANCH   4   5
ENDBRANCH   1   4
BRANCH   1  29
ATOM     29  C   UNL     1      40.664 136.550  17.739  1.00  0.00     0.278 C 
BRANCH  29  30
ATOM     30  N   UNL     1      39.324 136.177  18.241  1.00  0.00    -0.342 N 
ATOM     31  H   UNL     1      38.617 136.310  17.486  1.00  0.00     0.346 HD
ATOM     32  H   UNL     1      39.093 136.790  19.054  1.00  0.00     0.346 HD
BRANCH  30  33
ATOM     33  C   UNL     1      39.301 134.768  18.689  1.00  0.00     0.300 C 
BRANCH  33  34
ATOM     34  C   UNL     1      38.392 133.854  17.814  1.00  0.00     0.128 C 
ATOM     35  C   UNL     1      37.074 133.515  18.553  1.00  0.00     0.053 C 
BRANCH  34  36
ATOM     36  O   UNL     1      39.100 132.652  17.590  1.00  0.00    -0.380 OA
ATOM     37  H   UNL     1      39.908 132.863  17.053  1.00  0.00     0.212 HD
ENDBRANCH  34  36
BRANCH  34  38
ATOM     38  C   UNL     1      38.085 134.519  16.475  1.00  0.00     0.005 C 
ATOM     39  C   UNL     1      38.484 133.993  15.315  1.00  0.00     0.007 C 
ENDBRANCH  34  38
ENDBRANCH  33  34
ENDBRANCH  30  33
ENDBRANCH  29  30
ENDBRANCH   1  29
TORSDOF 13
ENDMDL


