MODEL 1
REMARK VINA RESULT:      -8.2      0.000      0.000
REMARK SMILES C[C@H](Cl)[C@@H]1[C@H](C)N(C(=O)OCC(F)F)NN1c1ccc2c3c(ccc(N)c13)CC2
REMARK SMILES IDX 8 1 9 2 7 3 4 4 5 5 16 6 15 7 6 8 2 10 1 11 3 12 17 13 18 14
REMARK SMILES IDX 27 15 19 16 25 17 21 18 20 19 24 20 22 21 29 22 23 23 28 24
REMARK SMILES IDX 26 25 10 28 11 29 12 30 13 31 14 32
REMARK H PARENT 15 9 26 26 26 27
ROOT
ATOM      1  C   UNL     1      46.137 130.742  15.742  1.00  0.00     0.426 C 
ATOM      2  O   UNL     1      47.032 130.098  16.357  1.00  0.00    -0.223 OA
ENDROOT
BRANCH   1   3
ATOM      3  N   UNL     1      45.309 131.677  16.446  1.00  0.00    -0.220 N 
ATOM      4  C   UNL     1      43.514 132.558  17.671  1.00  0.00     0.144 C 
ATOM      5  C   UNL     1      44.454 131.329  17.571  1.00  0.00     0.131 C 
ATOM      6  N   UNL     1      44.200 133.558  16.839  1.00  0.00    -0.283 N 
ATOM      7  N   UNL     1      45.266 133.032  16.087  1.00  0.00    -0.139 NA
ATOM      8  C   UNL     1      45.359 131.063  18.790  1.00  0.00     0.035 C 
ATOM      9  H   UNL     1      44.984 133.070  15.078  1.00  0.00     0.175 HD
BRANCH   4  10
ATOM     10  C   UNL     1      43.173 133.041  19.119  1.00  0.00     0.104 C 
ATOM     11  C   UNL     1      41.825 133.775  19.144  1.00  0.00     0.027 C 
ATOM     12  Cl  UNL     1      44.380 134.174  19.795  1.00  0.00    -0.121 Cl
ENDBRANCH   4  10
BRANCH   6  13
ATOM     13  C   UNL     1      43.622 134.810  16.431  1.00  0.00     0.064 A 
ATOM     14  C   UNL     1      44.022 136.001  17.098  1.00  0.00     0.028 A 
ATOM     15  C   UNL     1      42.562 134.867  15.478  1.00  0.00     0.030 A 
ATOM     16  C   UNL     1      43.383 137.228  16.842  1.00  0.00     0.006 A 
ATOM     17  C   UNL     1      42.047 133.784  14.700  1.00  0.00     0.042 A 
ATOM     18  C   UNL     1      41.949 136.111  15.297  1.00  0.00    -0.008 A 
ATOM     19  C   UNL     1      42.331 137.251  15.933  1.00  0.00    -0.039 A 
ATOM     20  C   UNL     1      40.914 134.002  13.873  1.00  0.00     0.026 A 
ATOM     21  C   UNL     1      40.881 136.327  14.482  1.00  0.00    -0.039 A 
ATOM     22  C   UNL     1      41.462 138.400  15.530  1.00  0.00     0.041 C 
ATOM     23  C   UNL     1      40.326 135.274  13.762  1.00  0.00     0.006 A 
ATOM     24  C   UNL     1      40.457 137.760  14.533  1.00  0.00     0.041 C 
BRANCH  17  25
ATOM     25  N   UNL     1      42.673 132.496  14.659  1.00  0.00    -0.398 N 
ATOM     26  H   UNL     1      43.311 132.248  13.871  1.00  0.00     0.156 HD
ATOM     27  H   UNL     1      42.706 131.881  15.498  1.00  0.00     0.156 HD
ENDBRANCH  17  25
ENDBRANCH   6  13
ENDBRANCH   1   3
BRANCH   1  28
ATOM     28  O   UNL     1      45.940 130.544  14.372  1.00  0.00    -0.442 OA
BRANCH  28  29
ATOM     29  C   UNL     1      46.755 129.671  13.596  1.00  0.00     0.308 C 
BRANCH  29  30
ATOM     30  C   UNL     1      47.545 130.476  12.573  1.00  0.00     0.379 C 
ATOM     31  F   UNL     1      46.762 130.721  11.460  1.00  0.00    -0.207 F 
ATOM     32  F   UNL     1      47.945 131.680  13.126  1.00  0.00    -0.207 F 
ENDBRANCH  29  30
ENDBRANCH  28  29
ENDBRANCH   1  28
TORSDOF 7
ENDMDL
MODEL 2
REMARK VINA RESULT:      -8.1      0.901      1.091
REMARK SMILES C[C@H](Cl)[C@@H]1[C@H](C)N(C(=O)OCC(F)F)NN1c1ccc2c3c(ccc(N)c13)CC2
REMARK SMILES IDX 8 1 9 2 7 3 4 4 5 5 16 6 15 7 6 8 2 10 1 11 3 12 17 13 18 14
REMARK SMILES IDX 27 15 19 16 25 17 21 18 20 19 24 20 22 21 29 22 23 23 28 24
REMARK SMILES IDX 26 25 10 28 11 29 12 30 13 31 14 32
REMARK H PARENT 15 9 26 26 26 27
ROOT
ATOM      1  C   UNL     1      46.149 130.426  15.724  1.00  0.00     0.426 C 
ATOM      2  O   UNL     1      47.260 130.031  16.173  1.00  0.00    -0.223 OA
ENDROOT
BRANCH   1   3
ATOM      3  N   UNL     1      45.371 131.380  16.461  1.00  0.00    -0.220 N 
ATOM      4  C   UNL     1      43.646 132.301  17.755  1.00  0.00     0.144 C 
ATOM      5  C   UNL     1      44.551 131.050  17.617  1.00  0.00     0.131 C 
ATOM      6  N   UNL     1      44.325 133.286  16.899  1.00  0.00    -0.283 N 
ATOM      7  N   UNL     1      45.348 132.736  16.106  1.00  0.00    -0.139 NA
ATOM      8  C   UNL     1      45.495 130.758  18.801  1.00  0.00     0.035 C 
ATOM      9  H   UNL     1      45.028 132.784  15.109  1.00  0.00     0.175 HD
BRANCH   4  10
ATOM     10  C   UNL     1      43.373 132.789  19.216  1.00  0.00     0.104 C 
ATOM     11  C   UNL     1      44.674 133.251  19.887  1.00  0.00     0.027 C 
ATOM     12  Cl  UNL     1      42.680 131.523  20.272  1.00  0.00    -0.121 Cl
ENDBRANCH   4  10
BRANCH   6  13
ATOM     13  C   UNL     1      43.763 134.553  16.516  1.00  0.00     0.064 A 
ATOM     14  C   UNL     1      44.158 135.723  17.222  1.00  0.00     0.028 A 
ATOM     15  C   UNL     1      42.720 134.644  15.545  1.00  0.00     0.030 A 
ATOM     16  C   UNL     1      43.533 136.961  16.989  1.00  0.00     0.006 A 
ATOM     17  C   UNL     1      42.212 133.587  14.729  1.00  0.00     0.042 A 
ATOM     18  C   UNL     1      42.119 135.897  15.389  1.00  0.00    -0.008 A 
ATOM     19  C   UNL     1      42.497 137.016  16.062  1.00  0.00    -0.039 A 
ATOM     20  C   UNL     1      41.096 133.835  13.888  1.00  0.00     0.026 A 
ATOM     21  C   UNL     1      41.068 136.143  14.561  1.00  0.00    -0.039 A 
ATOM     22  C   UNL     1      41.643 138.182  15.676  1.00  0.00     0.041 C 
ATOM     23  C   UNL     1      40.518 135.115  13.802  1.00  0.00     0.006 A 
ATOM     24  C   UNL     1      40.652 137.577  14.643  1.00  0.00     0.041 C 
BRANCH  17  25
ATOM     25  N   UNL     1      42.830 132.296  14.664  1.00  0.00    -0.398 N 
ATOM     26  H   UNL     1      43.303 131.898  15.504  1.00  0.00     0.156 HD
ATOM     27  H   UNL     1      42.628 131.635  13.885  1.00  0.00     0.156 HD
ENDBRANCH  17  25
ENDBRANCH   6  13
ENDBRANCH   1   3
BRANCH   1  28
ATOM     28  O   UNL     1      45.662 129.933  14.510  1.00  0.00    -0.442 OA
BRANCH  28  29
ATOM     29  C   UNL     1      45.792 130.645  13.283  1.00  0.00     0.308 C 
BRANCH  29  30
ATOM     30  C   UNL     1      47.187 130.434  12.710  1.00  0.00     0.379 C 
ATOM     31  F   UNL     1      47.657 129.181  13.061  1.00  0.00    -0.207 F 
ATOM     32  F   UNL     1      47.152 130.540  11.331  1.00  0.00    -0.207 F 
ENDBRANCH  29  30
ENDBRANCH  28  29
ENDBRANCH   1  28
TORSDOF 7
ENDMDL
MODEL 3
REMARK VINA RESULT:      -7.8      1.313      2.560
REMARK SMILES C[C@H](Cl)[C@@H]1[C@H](C)N(C(=O)OCC(F)F)NN1c1ccc2c3c(ccc(N)c13)CC2
REMARK SMILES IDX 8 1 9 2 7 3 4 4 5 5 16 6 15 7 6 8 2 10 1 11 3 12 17 13 18 14
REMARK SMILES IDX 27 15 19 16 25 17 21 18 20 19 24 20 22 21 29 22 23 23 28 24
REMARK SMILES IDX 26 25 10 28 11 29 12 30 13 31 14 32
REMARK H PARENT 15 9 26 26 26 27
ROOT
ATOM      1  C   UNL     1      46.089 131.425  15.637  1.00  0.00     0.426 C 
ATOM      2  O   UNL     1      46.548 130.367  16.148  1.00  0.00    -0.223 OA
ENDROOT
BRANCH   1   3
ATOM      3  N   UNL     1      44.920 132.046  16.190  1.00  0.00    -0.220 N 
ATOM      4  C   UNL     1      42.865 132.310  17.287  1.00  0.00     0.144 C 
ATOM      5  C   UNL     1      44.225 131.571  17.377  1.00  0.00     0.131 C 
ATOM      6  N   UNL     1      43.129 133.351  16.281  1.00  0.00    -0.283 N 
ATOM      7  N   UNL     1      44.351 133.187  15.606  1.00  0.00    -0.139 NA
ATOM      8  C   UNL     1      45.100 131.900  18.602  1.00  0.00     0.035 C 
ATOM      9  H   UNL     1      44.127 132.940  14.612  1.00  0.00     0.175 HD
BRANCH   4  10
ATOM     10  C   UNL     1      42.288 132.844  18.639  1.00  0.00     0.104 C 
ATOM     11  C   UNL     1      42.233 131.724  19.687  1.00  0.00     0.027 C 
ATOM     12  Cl  UNL     1      40.626 133.490  18.500  1.00  0.00    -0.121 Cl
ENDBRANCH   4  10
BRANCH   6  13
ATOM     13  C   UNL     1      42.115 134.174  15.680  1.00  0.00     0.064 A 
ATOM     14  C   UNL     1      41.167 133.571  14.808  1.00  0.00     0.028 A 
ATOM     15  C   UNL     1      42.124 135.594  15.824  1.00  0.00     0.030 A 
ATOM     16  C   UNL     1      40.249 134.348  14.080  1.00  0.00     0.006 A 
ATOM     17  C   UNL     1      42.981 136.366  16.667  1.00  0.00     0.042 A 
ATOM     18  C   UNL     1      41.207 136.308  15.045  1.00  0.00    -0.008 A 
ATOM     19  C   UNL     1      40.300 135.732  14.213  1.00  0.00    -0.039 A 
ATOM     20  C   UNL     1      42.921 137.783  16.606  1.00  0.00     0.026 A 
ATOM     21  C   UNL     1      41.129 137.665  15.008  1.00  0.00    -0.039 A 
ATOM     22  C   UNL     1      39.483 136.773  13.516  1.00  0.00     0.041 C 
ATOM     23  C   UNL     1      41.995 138.438  15.775  1.00  0.00     0.006 A 
ATOM     24  C   UNL     1      40.060 138.109  14.061  1.00  0.00     0.041 C 
BRANCH  17  25
ATOM     25  N   UNL     1      43.855 135.771  17.633  1.00  0.00    -0.398 N 
ATOM     26  H   UNL     1      44.105 136.288  18.504  1.00  0.00     0.156 HD
ATOM     27  H   UNL     1      44.068 134.752  17.619  1.00  0.00     0.156 HD
ENDBRANCH  17  25
ENDBRANCH   6  13
ENDBRANCH   1   3
BRANCH   1  28
ATOM     28  O   UNL     1      46.710 131.999  14.523  1.00  0.00    -0.442 OA
BRANCH  28  29
ATOM     29  C   UNL     1      47.554 131.258  13.647  1.00  0.00     0.308 C 
BRANCH  29  30
ATOM     30  C   UNL     1      46.716 130.300  12.811  1.00  0.00     0.379 C 
ATOM     31  F   UNL     1      45.414 130.760  12.730  1.00  0.00    -0.207 F 
ATOM     32  F   UNL     1      47.246 130.197  11.538  1.00  0.00    -0.207 F 
ENDBRANCH  29  30
ENDBRANCH  28  29
ENDBRANCH   1  28
TORSDOF 7
ENDMDL
MODEL 4
REMARK VINA RESULT:      -7.7      1.638      2.855
REMARK SMILES C[C@H](Cl)[C@@H]1[C@H](C)N(C(=O)OCC(F)F)NN1c1ccc2c3c(ccc(N)c13)CC2
REMARK SMILES IDX 8 1 9 2 7 3 4 4 5 5 16 6 15 7 6 8 2 10 1 11 3 12 17 13 18 14
REMARK SMILES IDX 27 15 19 16 25 17 21 18 20 19 24 20 22 21 29 22 23 23 28 24
REMARK SMILES IDX 26 25 10 28 11 29 12 30 13 31 14 32
REMARK H PARENT 15 9 26 26 26 27
ROOT
ATOM      1  C   UNL     1      45.191 131.194  14.437  1.00  0.00     0.426 C 
ATOM      2  O   UNL     1      44.838 130.167  13.795  1.00  0.00    -0.223 OA
ENDROOT
BRANCH   1   3
ATOM      3  N   UNL     1      44.226 131.942  15.190  1.00  0.00    -0.220 N 
ATOM      4  C   UNL     1      42.470 132.435  16.663  1.00  0.00     0.144 C 
ATOM      5  C   UNL     1      43.738 131.557  16.506  1.00  0.00     0.131 C 
ATOM      6  N   UNL     1      42.632 133.431  15.592  1.00  0.00    -0.283 N 
ATOM      7  N   UNL     1      43.671 133.130  14.694  1.00  0.00    -0.139 NA
ATOM      8  C   UNL     1      44.869 131.805  17.523  1.00  0.00     0.035 C 
ATOM      9  H   UNL     1      43.229 132.898  13.773  1.00  0.00     0.175 HD
BRANCH   4  10
ATOM     10  C   UNL     1      42.233 133.043  18.084  1.00  0.00     0.104 C 
ATOM     11  C   UNL     1      42.104 131.932  19.135  1.00  0.00     0.027 C 
ATOM     12  Cl  UNL     1      40.743 134.025  18.201  1.00  0.00    -0.121 Cl
ENDBRANCH   4  10
BRANCH   6  13
ATOM     13  C   UNL     1      41.608 134.351  15.177  1.00  0.00     0.064 A 
ATOM     14  C   UNL     1      40.432 133.839  14.563  1.00  0.00     0.028 A 
ATOM     15  C   UNL     1      41.805 135.763  15.237  1.00  0.00     0.030 A 
ATOM     16  C   UNL     1      39.468 134.698  14.006  1.00  0.00     0.006 A 
ATOM     17  C   UNL     1      42.906 136.453  15.832  1.00  0.00     0.042 A 
ATOM     18  C   UNL     1      40.824 136.557  14.634  1.00  0.00    -0.008 A 
ATOM     19  C   UNL     1      39.698 136.069  14.048  1.00  0.00    -0.039 A 
ATOM     20  C   UNL     1      42.990 137.864  15.707  1.00  0.00     0.026 A 
ATOM     21  C   UNL     1      40.889 137.913  14.539  1.00  0.00    -0.039 A 
ATOM     22  C   UNL     1      38.868 137.179  13.486  1.00  0.00     0.041 C 
ATOM     23  C   UNL     1      41.982 138.600  15.058  1.00  0.00     0.006 A 
ATOM     24  C   UNL     1      39.694 138.452  13.820  1.00  0.00     0.041 C 
BRANCH  17  25
ATOM     25  N   UNL     1      43.899 135.786  16.621  1.00  0.00    -0.398 N 
ATOM     26  H   UNL     1      43.949 135.952  17.650  1.00  0.00     0.156 HD
ATOM     27  H   UNL     1      44.424 134.966  16.253  1.00  0.00     0.156 HD
ENDBRANCH  17  25
ENDBRANCH   6  13
ENDBRANCH   1   3
BRANCH   1  28
ATOM     28  O   UNL     1      46.524 131.617  14.415  1.00  0.00    -0.442 OA
BRANCH  28  29
ATOM     29  C   UNL     1      47.425 131.267  13.369  1.00  0.00     0.308 C 
BRANCH  29  30
ATOM     30  C   UNL     1      48.244 130.051  13.781  1.00  0.00     0.379 C 
ATOM     31  F   UNL     1      47.826 129.597  15.018  1.00  0.00    -0.207 F 
ATOM     32  F   UNL     1      48.094 129.042  12.847  1.00  0.00    -0.207 F 
ENDBRANCH  29  30
ENDBRANCH  28  29
ENDBRANCH   1  28
TORSDOF 7
ENDMDL
MODEL 5
REMARK VINA RESULT:      -7.5      1.386      1.536
REMARK SMILES C[C@H](Cl)[C@@H]1[C@H](C)N(C(=O)OCC(F)F)NN1c1ccc2c3c(ccc(N)c13)CC2
REMARK SMILES IDX 8 1 9 2 7 3 4 4 5 5 16 6 15 7 6 8 2 10 1 11 3 12 17 13 18 14
REMARK SMILES IDX 27 15 19 16 25 17 21 18 20 19 24 20 22 21 29 22 23 23 28 24
REMARK SMILES IDX 26 25 10 28 11 29 12 30 13 31 14 32
REMARK H PARENT 15 9 26 26 26 27
ROOT
ATOM      1  C   UNL     1      45.757 131.299  14.524  1.00  0.00     0.426 C 
ATOM      2  O   UNL     1      45.170 130.425  13.829  1.00  0.00    -0.223 OA
ENDROOT
BRANCH   1   3
ATOM      3  N   UNL     1      45.085 131.906  15.636  1.00  0.00    -0.220 N 
ATOM      4  C   UNL     1      43.559 132.242  17.384  1.00  0.00     0.144 C 
ATOM      5  C   UNL     1      44.447 131.163  16.712  1.00  0.00     0.131 C 
ATOM      6  N   UNL     1      44.095 133.494  16.828  1.00  0.00    -0.283 N 
ATOM      7  N   UNL     1      44.996 133.300  15.766  1.00  0.00    -0.139 NA
ATOM      8  C   UNL     1      45.557 130.551  17.590  1.00  0.00     0.035 C 
ATOM      9  H   UNL     1      44.534 133.657  14.896  1.00  0.00     0.175 HD
BRANCH   4  10
ATOM     10  C   UNL     1      43.497 132.199  18.946  1.00  0.00     0.104 C 
ATOM     11  C   UNL     1      42.175 132.791  19.454  1.00  0.00     0.027 C 
ATOM     12  Cl  UNL     1      44.805 133.128  19.737  1.00  0.00    -0.121 Cl
ENDBRANCH   4  10
BRANCH   6  13
ATOM     13  C   UNL     1      43.470 134.780  16.973  1.00  0.00     0.064 A 
ATOM     14  C   UNL     1      44.023 135.714  17.893  1.00  0.00     0.028 A 
ATOM     15  C   UNL     1      42.235 135.087  16.327  1.00  0.00     0.030 A 
ATOM     16  C   UNL     1      43.370 136.925  18.183  1.00  0.00     0.006 A 
ATOM     17  C   UNL     1      41.547 134.287  15.363  1.00  0.00     0.042 A 
ATOM     18  C   UNL     1      41.623 136.293  16.687  1.00  0.00    -0.008 A 
ATOM     19  C   UNL     1      42.151 137.186  17.565  1.00  0.00    -0.039 A 
ATOM     20  C   UNL     1      40.271 134.702  14.900  1.00  0.00     0.026 A 
ATOM     21  C   UNL     1      40.413 136.705  16.221  1.00  0.00    -0.039 A 
ATOM     22  C   UNL     1      41.241 138.359  17.741  1.00  0.00     0.041 C 
ATOM     23  C   UNL     1      39.698 135.912  15.328  1.00  0.00     0.006 A 
ATOM     24  C   UNL     1      40.037 138.024  16.817  1.00  0.00     0.041 C 
BRANCH  17  25
ATOM     25  N   UNL     1      42.125 133.112  14.781  1.00  0.00    -0.398 N 
ATOM     26  H   UNL     1      42.470 133.129  13.796  1.00  0.00     0.156 HD
ATOM     27  H   UNL     1      42.431 132.309  15.369  1.00  0.00     0.156 HD
ENDBRANCH  17  25
ENDBRANCH   6  13
ENDBRANCH   1   3
BRANCH   1  28
ATOM     28  O   UNL     1      47.062 131.690  14.212  1.00  0.00    -0.442 OA
BRANCH  28  29
ATOM     29  C   UNL     1      47.775 131.168  13.095  1.00  0.00     0.308 C 
BRANCH  29  30
ATOM     30  C   UNL     1      48.222 129.743  13.388  1.00  0.00     0.379 C 
ATOM     31  F   UNL     1      48.259 129.009  12.217  1.00  0.00    -0.207 F 
ATOM     32  F   UNL     1      49.480 129.750  13.964  1.00  0.00    -0.207 F 
ENDBRANCH  29  30
ENDBRANCH  28  29
ENDBRANCH   1  28
TORSDOF 7
ENDMDL
MODEL 6
REMARK VINA RESULT:      -7.5      1.064      1.396
REMARK SMILES C[C@H](Cl)[C@@H]1[C@H](C)N(C(=O)OCC(F)F)NN1c1ccc2c3c(ccc(N)c13)CC2
REMARK SMILES IDX 8 1 9 2 7 3 4 4 5 5 16 6 15 7 6 8 2 10 1 11 3 12 17 13 18 14
REMARK SMILES IDX 27 15 19 16 25 17 21 18 20 19 24 20 22 21 29 22 23 23 28 24
REMARK SMILES IDX 26 25 10 28 11 29 12 30 13 31 14 32
REMARK H PARENT 15 9 26 26 26 27
ROOT
ATOM      1  C   UNL     1      44.934 131.165  14.732  1.00  0.00     0.426 C 
ATOM      2  O   UNL     1      44.303 130.683  13.751  1.00  0.00    -0.223 OA
ENDROOT
BRANCH   1   3
ATOM      3  N   UNL     1      44.314 132.143  15.578  1.00  0.00    -0.220 N 
ATOM      4  C   UNL     1      42.816 133.135  17.084  1.00  0.00     0.144 C 
ATOM      5  C   UNL     1      43.607 131.830  16.811  1.00  0.00     0.131 C 
ATOM      6  N   UNL     1      43.465 134.101  16.183  1.00  0.00    -0.283 N 
ATOM      7  N   UNL     1      44.350 133.509  15.264  1.00  0.00    -0.139 NA
ATOM      8  C   UNL     1      44.654 131.433  17.870  1.00  0.00     0.035 C 
ATOM      9  H   UNL     1      43.925 133.614  14.312  1.00  0.00     0.175 HD
BRANCH   4  10
ATOM     10  C   UNL     1      42.744 133.589  18.579  1.00  0.00     0.104 C 
ATOM     11  C   UNL     1      41.511 134.471  18.820  1.00  0.00     0.027 C 
ATOM     12  Cl  UNL     1      44.161 134.545  19.104  1.00  0.00    -0.121 Cl
ENDBRANCH   4  10
BRANCH   6  13
ATOM     13  C   UNL     1      42.956 135.416  15.901  1.00  0.00     0.064 A 
ATOM     14  C   UNL     1      43.494 136.527  16.607  1.00  0.00     0.028 A 
ATOM     15  C   UNL     1      41.836 135.614  15.038  1.00  0.00     0.030 A 
ATOM     16  C   UNL     1      42.935 137.811  16.478  1.00  0.00     0.006 A 
ATOM     17  C   UNL     1      41.184 134.626  14.237  1.00  0.00     0.042 A 
ATOM     18  C   UNL     1      41.310 136.908  14.984  1.00  0.00    -0.008 A 
ATOM     19  C   UNL     1      41.824 137.972  15.658  1.00  0.00    -0.039 A 
ATOM     20  C   UNL     1      40.014 134.980  13.517  1.00  0.00     0.026 A 
ATOM     21  C   UNL     1      40.205 137.255  14.270  1.00  0.00    -0.039 A 
ATOM     22  C   UNL     1      41.018 139.205  15.397  1.00  0.00     0.041 C 
ATOM     23  C   UNL     1      39.519 136.297  13.531  1.00  0.00     0.006 A 
ATOM     24  C   UNL     1      39.897 138.708  14.443  1.00  0.00     0.041 C 
BRANCH  17  25
ATOM     25  N   UNL     1      41.704 133.302  14.067  1.00  0.00    -0.398 N 
ATOM     26  H   UNL     1      41.894 132.703  14.900  1.00  0.00     0.156 HD
ATOM     27  H   UNL     1      41.683 132.824  13.143  1.00  0.00     0.156 HD
ENDBRANCH  17  25
ENDBRANCH   6  13
ENDBRANCH   1   3
BRANCH   1  28
ATOM     28  O   UNL     1      46.243 130.754  14.999  1.00  0.00    -0.442 OA
BRANCH  28  29
ATOM     29  C   UNL     1      46.849 129.642  14.348  1.00  0.00     0.308 C 
BRANCH  29  30
ATOM     30  C   UNL     1      47.844 130.135  13.306  1.00  0.00     0.379 C 
ATOM     31  F   UNL     1      47.728 131.504  13.152  1.00  0.00    -0.207 F 
ATOM     32  F   UNL     1      49.133 129.825  13.699  1.00  0.00    -0.207 F 
ENDBRANCH  29  30
ENDBRANCH  28  29
ENDBRANCH   1  28
TORSDOF 7
ENDMDL
MODEL 7
REMARK VINA RESULT:      -7.3      1.353      1.577
REMARK SMILES C[C@H](Cl)[C@@H]1[C@H](C)N(C(=O)OCC(F)F)NN1c1ccc2c3c(ccc(N)c13)CC2
REMARK SMILES IDX 8 1 9 2 7 3 4 4 5 5 16 6 15 7 6 8 2 10 1 11 3 12 17 13 18 14
REMARK SMILES IDX 27 15 19 16 25 17 21 18 20 19 24 20 22 21 29 22 23 23 28 24
REMARK SMILES IDX 26 25 10 28 11 29 12 30 13 31 14 32
REMARK H PARENT 15 9 26 26 26 27
ROOT
ATOM      1  C   UNL     1      45.047 131.394  15.133  1.00  0.00     0.426 C 
ATOM      2  O   UNL     1      44.775 130.175  15.311  1.00  0.00    -0.223 OA
ENDROOT
BRANCH   1   3
ATOM      3  N   UNL     1      44.316 132.406  15.839  1.00  0.00    -0.220 N 
ATOM      4  C   UNL     1      42.659 133.439  17.136  1.00  0.00     0.144 C 
ATOM      5  C   UNL     1      43.533 132.162  17.041  1.00  0.00     0.131 C 
ATOM      6  N   UNL     1      43.325 134.357  16.200  1.00  0.00    -0.283 N 
ATOM      7  N   UNL     1      44.307 133.739  15.405  1.00  0.00    -0.139 NA
ATOM      8  C   UNL     1      44.514 131.920  18.205  1.00  0.00     0.035 C 
ATOM      9  H   UNL     1      43.952 133.736  14.419  1.00  0.00     0.175 HD
BRANCH   4  10
ATOM     10  C   UNL     1      42.449 134.017  18.575  1.00  0.00     0.104 C 
ATOM     11  C   UNL     1      42.009 132.912  19.545  1.00  0.00     0.027 C 
ATOM     12  Cl  UNL     1      41.196 135.291  18.656  1.00  0.00    -0.121 Cl
ENDBRANCH   4  10
BRANCH   6  13
ATOM     13  C   UNL     1      42.775 135.612  15.763  1.00  0.00     0.064 A 
ATOM     14  C   UNL     1      43.286 136.818  16.318  1.00  0.00     0.028 A 
ATOM     15  C   UNL     1      41.640 135.668  14.898  1.00  0.00     0.030 A 
ATOM     16  C   UNL     1      42.687 138.059  16.038  1.00  0.00     0.006 A 
ATOM     17  C   UNL     1      41.010 134.570  14.235  1.00  0.00     0.042 A 
ATOM     18  C   UNL     1      41.075 136.930  14.691  1.00  0.00    -0.008 A 
ATOM     19  C   UNL     1      41.563 138.084  15.219  1.00  0.00    -0.039 A 
ATOM     20  C   UNL     1      39.823 134.798  13.493  1.00  0.00     0.026 A 
ATOM     21  C   UNL     1      39.953 137.154  13.954  1.00  0.00    -0.039 A 
ATOM     22  C   UNL     1      40.719 139.251  14.817  1.00  0.00     0.041 C 
ATOM     23  C   UNL     1      39.288 136.091  13.350  1.00  0.00     0.006 A 
ATOM     24  C   UNL     1      39.603 138.607  13.948  1.00  0.00     0.041 C 
BRANCH  17  25
ATOM     25  N   UNL     1      41.568 133.251  14.225  1.00  0.00    -0.398 N 
ATOM     26  H   UNL     1      40.994 132.441  13.905  1.00  0.00     0.156 HD
ATOM     27  H   UNL     1      42.595 133.094  14.300  1.00  0.00     0.156 HD
ENDBRANCH  17  25
ENDBRANCH   6  13
ENDBRANCH   1   3
BRANCH   1  28
ATOM     28  O   UNL     1      46.056 131.770  14.242  1.00  0.00    -0.442 OA
BRANCH  28  29
ATOM     29  C   UNL     1      47.279 131.051  14.117  1.00  0.00     0.308 C 
BRANCH  29  30
ATOM     30  C   UNL     1      47.482 130.628  12.668  1.00  0.00     0.379 C 
ATOM     31  F   UNL     1      47.909 129.314  12.616  1.00  0.00    -0.207 F 
ATOM     32  F   UNL     1      46.296 130.753  11.969  1.00  0.00    -0.207 F 
ENDBRANCH  29  30
ENDBRANCH  28  29
ENDBRANCH   1  28
TORSDOF 7
ENDMDL
MODEL 8
REMARK VINA RESULT:      -7.3      1.597      2.816
REMARK SMILES C[C@H](Cl)[C@@H]1[C@H](C)N(C(=O)OCC(F)F)NN1c1ccc2c3c(ccc(N)c13)CC2
REMARK SMILES IDX 8 1 9 2 7 3 4 4 5 5 16 6 15 7 6 8 2 10 1 11 3 12 17 13 18 14
REMARK SMILES IDX 27 15 19 16 25 17 21 18 20 19 24 20 22 21 29 22 23 23 28 24
REMARK SMILES IDX 26 25 10 28 11 29 12 30 13 31 14 32
REMARK H PARENT 15 9 26 26 26 27
ROOT
ATOM      1  C   UNL     1      45.597 131.792  14.775  1.00  0.00     0.426 C 
ATOM      2  O   UNL     1      46.706 132.369  14.943  1.00  0.00    -0.223 OA
ENDROOT
BRANCH   1   3
ATOM      3  N   UNL     1      44.408 132.325  15.374  1.00  0.00    -0.220 N 
ATOM      4  C   UNL     1      42.322 132.426  16.438  1.00  0.00     0.144 C 
ATOM      5  C   UNL     1      43.686 131.689  16.465  1.00  0.00     0.131 C 
ATOM      6  N   UNL     1      42.603 133.595  15.591  1.00  0.00    -0.283 N 
ATOM      7  N   UNL     1      43.845 133.531  14.934  1.00  0.00    -0.139 NA
ATOM      8  C   UNL     1      44.524 131.855  17.749  1.00  0.00     0.035 C 
ATOM      9  H   UNL     1      43.650 133.420  13.910  1.00  0.00     0.175 HD
BRANCH   4  10
ATOM     10  C   UNL     1      41.703 132.769  17.833  1.00  0.00     0.104 C 
ATOM     11  C   UNL     1      41.223 131.495  18.542  1.00  0.00     0.027 C 
ATOM     12  Cl  UNL     1      40.289 133.859  17.738  1.00  0.00    -0.121 Cl
ENDBRANCH   4  10
BRANCH   6  13
ATOM     13  C   UNL     1      41.598 134.486  15.078  1.00  0.00     0.064 A 
ATOM     14  C   UNL     1      40.568 133.959  14.251  1.00  0.00     0.028 A 
ATOM     15  C   UNL     1      41.690 135.899  15.261  1.00  0.00     0.030 A 
ATOM     16  C   UNL     1      39.648 134.804  13.604  1.00  0.00     0.006 A 
ATOM     17  C   UNL     1      42.637 136.601  16.069  1.00  0.00     0.042 A 
ATOM     18  C   UNL     1      40.765 136.682  14.562  1.00  0.00    -0.008 A 
ATOM     19  C   UNL     1      39.779 136.178  13.772  1.00  0.00    -0.039 A 
ATOM     20  C   UNL     1      42.647 138.020  16.051  1.00  0.00     0.026 A 
ATOM     21  C   UNL     1      40.755 138.042  14.567  1.00  0.00    -0.039 A 
ATOM     22  C   UNL     1      38.976 137.281  13.159  1.00  0.00     0.041 C 
ATOM     23  C   UNL     1      41.707 138.746  15.299  1.00  0.00     0.006 A 
ATOM     24  C   UNL     1      39.654 138.568  13.703  1.00  0.00     0.041 C 
BRANCH  17  25
ATOM     25  N   UNL     1      43.536 135.932  16.961  1.00  0.00    -0.398 N 
ATOM     26  H   UNL     1      44.314 135.348  16.582  1.00  0.00     0.156 HD
ATOM     27  H   UNL     1      43.593 136.188  17.968  1.00  0.00     0.156 HD
ENDBRANCH  17  25
ENDBRANCH   6  13
ENDBRANCH   1   3
BRANCH   1  28
ATOM     28  O   UNL     1      45.519 130.624  14.010  1.00  0.00    -0.442 OA
BRANCH  28  29
ATOM     29  C   UNL     1      46.274 130.432  12.818  1.00  0.00     0.308 C 
BRANCH  29  30
ATOM     30  C   UNL     1      47.588 129.736  13.147  1.00  0.00     0.379 C 
ATOM     31  F   UNL     1      48.096 129.128  12.014  1.00  0.00    -0.207 F 
ATOM     32  F   UNL     1      48.505 130.657  13.622  1.00  0.00    -0.207 F 
ENDBRANCH  29  30
ENDBRANCH  28  29
ENDBRANCH   1  28
TORSDOF 7
ENDMDL
MODEL 9
REMARK VINA RESULT:      -7.3      1.210      1.439
REMARK SMILES C[C@H](Cl)[C@@H]1[C@H](C)N(C(=O)OCC(F)F)NN1c1ccc2c3c(ccc(N)c13)CC2
REMARK SMILES IDX 8 1 9 2 7 3 4 4 5 5 16 6 15 7 6 8 2 10 1 11 3 12 17 13 18 14
REMARK SMILES IDX 27 15 19 16 25 17 21 18 20 19 24 20 22 21 29 22 23 23 28 24
REMARK SMILES IDX 26 25 10 28 11 29 12 30 13 31 14 32
REMARK H PARENT 15 9 26 26 26 27
ROOT
ATOM      1  C   UNL     1      45.420 130.869  15.042  1.00  0.00     0.426 C 
ATOM      2  O   UNL     1      44.765 129.941  14.493  1.00  0.00    -0.223 OA
ENDROOT
BRANCH   1   3
ATOM      3  N   UNL     1      44.753 131.827  15.875  1.00  0.00    -0.220 N 
ATOM      4  C   UNL     1      43.191 132.774  17.345  1.00  0.00     0.144 C 
ATOM      5  C   UNL     1      44.021 131.490  17.087  1.00  0.00     0.131 C 
ATOM      6  N   UNL     1      43.839 133.760  16.466  1.00  0.00    -0.283 N 
ATOM      7  N   UNL     1      44.763 133.196  15.569  1.00  0.00    -0.139 NA
ATOM      8  C   UNL     1      45.049 131.114  18.173  1.00  0.00     0.035 C 
ATOM      9  H   UNL     1      44.362 133.295  14.606  1.00  0.00     0.175 HD
BRANCH   4  10
ATOM     10  C   UNL     1      43.067 133.217  18.839  1.00  0.00     0.104 C 
ATOM     11  C   UNL     1      44.433 133.642  19.395  1.00  0.00     0.027 C 
ATOM     12  Cl  UNL     1      42.460 131.927  19.919  1.00  0.00    -0.121 Cl
ENDBRANCH   4  10
BRANCH   6  13
ATOM     13  C   UNL     1      43.306 135.063  16.177  1.00  0.00     0.064 A 
ATOM     14  C   UNL     1      43.806 136.186  16.893  1.00  0.00     0.028 A 
ATOM     15  C   UNL     1      42.196 135.237  15.295  1.00  0.00     0.030 A 
ATOM     16  C   UNL     1      43.220 137.457  16.756  1.00  0.00     0.006 A 
ATOM     17  C   UNL     1      41.581 134.236  14.482  1.00  0.00     0.042 A 
ATOM     18  C   UNL     1      41.641 136.519  15.234  1.00  0.00    -0.008 A 
ATOM     19  C   UNL     1      42.119 137.593  15.917  1.00  0.00    -0.039 A 
ATOM     20  C   UNL     1      40.415 134.564  13.742  1.00  0.00     0.026 A 
ATOM     21  C   UNL     1      40.541 136.842  14.501  1.00  0.00    -0.039 A 
ATOM     22  C   UNL     1      41.291 138.808  15.643  1.00  0.00     0.041 C 
ATOM     23  C   UNL     1      39.890 135.869  13.750  1.00  0.00     0.006 A 
ATOM     24  C   UNL     1      40.197 138.287  14.670  1.00  0.00     0.041 C 
BRANCH  17  25
ATOM     25  N   UNL     1      42.134 132.924  14.320  1.00  0.00    -0.398 N 
ATOM     26  H   UNL     1      43.169 132.792  14.290  1.00  0.00     0.156 HD
ATOM     27  H   UNL     1      41.557 132.070  14.465  1.00  0.00     0.156 HD
ENDBRANCH  17  25
ENDBRANCH   6  13
ENDBRANCH   1   3
BRANCH   1  28
ATOM     28  O   UNL     1      46.799 130.976  14.837  1.00  0.00    -0.442 OA
BRANCH  28  29
ATOM     29  C   UNL     1      47.381 131.035  13.539  1.00  0.00     0.308 C 
BRANCH  29  30
ATOM     30  C   UNL     1      48.097 129.726  13.236  1.00  0.00     0.379 C 
ATOM     31  F   UNL     1      49.372 129.750  13.771  1.00  0.00    -0.207 F 
ATOM     32  F   UNL     1      47.393 128.665  13.777  1.00  0.00    -0.207 F 
ENDBRANCH  29  30
ENDBRANCH  28  29
ENDBRANCH   1  28
TORSDOF 7
ENDMDL


