MODEL 1
REMARK VINA RESULT:      -7.8      0.000      0.000
REMARK SMILES C#CCO/C([O-])=C\[C@H]1CC[C@@H]2C(=O)N([O-])C(=O)c3ccc(N=[N+]=[N-])c1c32
REMARK SMILES IDX 5 1 6 2 4 3 3 4 2 5 1 6 7 7 8 8 25 9 9 10 21 11 26 12 10 13
REMARK SMILES IDX 20 14 18 15 11 16 19 17 16 18 12 19 14 20 17 21 13 22 15 23
REMARK SMILES IDX 22 24 23 25 24 26
REMARK H PARENT
ROOT
ATOM      1  C   UNL     1      46.148 129.716  16.085  1.00  0.00     0.049 C 
ATOM      2  O   UNL     1      45.427 128.622  15.619  1.00  0.00    -0.547 OA
ENDROOT
BRANCH   1   3
ATOM      3  O   UNL     1      47.384 130.038  15.516  1.00  0.00    -0.601 OA
BRANCH   3   4
ATOM      4  C   UNL     1      47.871 129.398  14.344  1.00  0.00     0.160 C 
BRANCH   4   5
ATOM      5  C   UNL     1      47.347 130.089  13.165  1.00  0.00    -0.095 C 
ATOM      6  C   UNL     1      46.916 130.658  12.195  1.00  0.00     0.005 C 
ENDBRANCH   4   5
ENDBRANCH   3   4
ENDBRANCH   1   3
BRANCH   1   7
ATOM      7  C   UNL     1      45.647 130.454  17.079  1.00  0.00     0.005 C 
BRANCH   7   8
ATOM      8  C   UNL     1      45.104 131.851  16.864  1.00  0.00     0.044 C 
ATOM      9  C   UNL     1      43.841 132.078  17.703  1.00  0.00    -0.027 A 
ATOM     10  C   UNL     1      44.921 132.077  15.347  1.00  0.00     0.014 C 
ATOM     11  C   UNL     1      43.903 131.901  19.109  1.00  0.00     0.042 A 
ATOM     12  C   UNL     1      42.638 132.569  17.118  1.00  0.00    -0.019 A 
ATOM     13  C   UNL     1      43.912 133.177  15.047  1.00  0.00     0.019 C 
ATOM     14  C   UNL     1      42.757 132.110  19.891  1.00  0.00     0.011 A 
ATOM     15  C   UNL     1      41.504 132.794  17.934  1.00  0.00     0.043 A 
ATOM     16  C   UNL     1      42.544 132.769  15.611  1.00  0.00     0.109 C 
ATOM     17  C   UNL     1      41.571 132.541  19.309  1.00  0.00     0.014 A 
ATOM     18  C   UNL     1      40.273 133.364  17.350  1.00  0.00     0.250 C 
ATOM     19  C   UNL     1      41.468 133.758  15.218  1.00  0.00     0.226 C 
ATOM     20  N   UNL     1      40.302 133.906  16.030  1.00  0.00    -0.351 N 
ATOM     21  O   UNL     1      39.206 133.413  18.022  1.00  0.00    -0.269 OA
ATOM     22  O   UNL     1      41.540 134.374  14.120  1.00  0.00    -0.275 OA
ATOM     23  O   UNL     1      39.232 134.592  15.557  1.00  0.00    -0.749 OA
BRANCH  11  24
ATOM     24  N   UNL     1      45.146 131.526  19.728  1.00  0.00    -0.060 NA
BRANCH  24  25
ATOM     25  N   UNL     1      45.234 131.229  20.920  1.00  0.00     0.005 N 
ATOM     26  N   UNL     1      45.322 130.931  22.111  1.00  0.00    -0.003 NA
ENDBRANCH  24  25
ENDBRANCH  11  24
ENDBRANCH   7   8
ENDBRANCH   1   7
TORSDOF 7
ENDMDL
MODEL 2
REMARK VINA RESULT:      -7.7      3.130      4.877
REMARK SMILES C#CCO/C([O-])=C\[C@H]1CC[C@@H]2C(=O)N([O-])C(=O)c3ccc(N=[N+]=[N-])c1c32
REMARK SMILES IDX 5 1 6 2 4 3 3 4 2 5 1 6 7 7 8 8 25 9 9 10 21 11 26 12 10 13
REMARK SMILES IDX 20 14 18 15 11 16 19 17 16 18 12 19 14 20 17 21 13 22 15 23
REMARK SMILES IDX 22 24 23 25 24 26
REMARK H PARENT
ROOT
ATOM      1  C   UNL     1      45.930 130.552  15.854  1.00  0.00     0.049 C 
ATOM      2  O   UNL     1      47.109 129.936  16.265  1.00  0.00    -0.547 OA
ENDROOT
BRANCH   1   3
ATOM      3  O   UNL     1      45.089 129.916  14.937  1.00  0.00    -0.601 OA
BRANCH   3   4
ATOM      4  C   UNL     1      44.869 130.422  13.628  1.00  0.00     0.160 C 
BRANCH   4   5
ATOM      5  C   UNL     1      46.148 130.505  12.922  1.00  0.00    -0.095 C 
ATOM      6  C   UNL     1      47.202 130.575  12.342  1.00  0.00     0.005 C 
ENDBRANCH   4   5
ENDBRANCH   3   4
ENDBRANCH   1   3
BRANCH   1   7
ATOM      7  C   UNL     1      45.614 131.753  16.345  1.00  0.00     0.005 C 
BRANCH   7   8
ATOM      8  C   UNL     1      44.519 131.951  17.371  1.00  0.00     0.044 C 
ATOM      9  C   UNL     1      44.162 133.436  17.504  1.00  0.00    -0.027 A 
ATOM     10  C   UNL     1      44.952 131.271  18.687  1.00  0.00     0.014 C 
ATOM     11  C   UNL     1      43.746 134.154  16.353  1.00  0.00     0.042 A 
ATOM     12  C   UNL     1      44.129 134.082  18.773  1.00  0.00    -0.019 A 
ATOM     13  C   UNL     1      44.226 131.845  19.897  1.00  0.00     0.019 C 
ATOM     14  C   UNL     1      43.412 135.512  16.460  1.00  0.00     0.011 A 
ATOM     15  C   UNL     1      43.764 135.447  18.855  1.00  0.00     0.043 A 
ATOM     16  C   UNL     1      44.568 133.335  20.026  1.00  0.00     0.109 C 
ATOM     17  C   UNL     1      43.430 136.152  17.693  1.00  0.00     0.014 A 
ATOM     18  C   UNL     1      43.664 136.109  20.172  1.00  0.00     0.250 C 
ATOM     19  C   UNL     1      43.991 133.926  21.294  1.00  0.00     0.226 C 
ATOM     20  N   UNL     1      43.702 135.323  21.364  1.00  0.00    -0.351 N 
ATOM     21  O   UNL     1      43.507 137.359  20.253  1.00  0.00    -0.269 OA
ATOM     22  O   UNL     1      43.865 133.215  22.327  1.00  0.00    -0.275 OA
ATOM     23  O   UNL     1      43.429 135.898  22.560  1.00  0.00    -0.749 OA
BRANCH  11  24
ATOM     24  N   UNL     1      43.654 133.481  15.085  1.00  0.00    -0.060 NA
BRANCH  24  25
ATOM     25  N   UNL     1      42.584 133.096  14.611  1.00  0.00     0.005 N 
ATOM     26  N   UNL     1      41.515 132.711  14.140  1.00  0.00    -0.003 NA
ENDBRANCH  24  25
ENDBRANCH  11  24
ENDBRANCH   7   8
ENDBRANCH   1   7
TORSDOF 7
ENDMDL
MODEL 3
REMARK VINA RESULT:      -7.2      2.551      4.767
REMARK SMILES C#CCO/C([O-])=C\[C@H]1CC[C@@H]2C(=O)N([O-])C(=O)c3ccc(N=[N+]=[N-])c1c32
REMARK SMILES IDX 5 1 6 2 4 3 3 4 2 5 1 6 7 7 8 8 25 9 9 10 21 11 26 12 10 13
REMARK SMILES IDX 20 14 18 15 11 16 19 17 16 18 12 19 14 20 17 21 13 22 15 23
REMARK SMILES IDX 22 24 23 25 24 26
REMARK H PARENT
ROOT
ATOM      1  C   UNL     1      45.782 131.684  15.073  1.00  0.00     0.049 C 
ATOM      2  O   UNL     1      46.876 132.283  14.456  1.00  0.00    -0.547 OA
ENDROOT
BRANCH   1   3
ATOM      3  O   UNL     1      45.271 130.479  14.583  1.00  0.00    -0.601 OA
BRANCH   3   4
ATOM      4  C   UNL     1      45.958 129.244  14.733  1.00  0.00     0.160 C 
BRANCH   4   5
ATOM      5  C   UNL     1      47.205 129.291  13.970  1.00  0.00    -0.095 C 
ATOM      6  C   UNL     1      48.233 129.330  13.342  1.00  0.00     0.005 C 
ENDBRANCH   4   5
ENDBRANCH   3   4
ENDBRANCH   1   3
BRANCH   1   7
ATOM      7  C   UNL     1      45.229 132.272  16.137  1.00  0.00     0.005 C 
BRANCH   7   8
ATOM      8  C   UNL     1      44.554 131.488  17.242  1.00  0.00     0.044 C 
ATOM      9  C   UNL     1      43.342 132.252  17.788  1.00  0.00    -0.027 A 
ATOM     10  C   UNL     1      45.615 131.120  18.302  1.00  0.00     0.014 C 
ATOM     11  C   UNL     1      42.305 132.633  16.897  1.00  0.00     0.042 A 
ATOM     12  C   UNL     1      43.178 132.489  19.183  1.00  0.00    -0.019 A 
ATOM     13  C   UNL     1      44.994 130.830  19.661  1.00  0.00     0.019 C 
ATOM     14  C   UNL     1      41.188 133.329  17.382  1.00  0.00     0.011 A 
ATOM     15  C   UNL     1      42.029 133.171  19.647  1.00  0.00     0.043 A 
ATOM     16  C   UNL     1      44.274 132.089  20.163  1.00  0.00     0.109 C 
ATOM     17  C   UNL     1      41.056 133.602  18.738  1.00  0.00     0.014 A 
ATOM     18  C   UNL     1      41.818 133.365  21.097  1.00  0.00     0.250 C 
ATOM     19  C   UNL     1      43.760 131.905  21.574  1.00  0.00     0.226 C 
ATOM     20  N   UNL     1      42.640 132.665  22.031  1.00  0.00    -0.351 N 
ATOM     21  O   UNL     1      40.892 134.113  21.517  1.00  0.00    -0.269 OA
ATOM     22  O   UNL     1      44.380 131.167  22.386  1.00  0.00    -0.275 OA
ATOM     23  O   UNL     1      42.337 132.695  23.352  1.00  0.00    -0.749 OA
BRANCH  11  24
ATOM     24  N   UNL     1      42.399 132.289  15.503  1.00  0.00    -0.060 NA
BRANCH  24  25
ATOM     25  N   UNL     1      41.875 132.963  14.614  1.00  0.00     0.005 N 
ATOM     26  N   UNL     1      41.354 133.637  13.727  1.00  0.00    -0.003 NA
ENDBRANCH  24  25
ENDBRANCH  11  24
ENDBRANCH   7   8
ENDBRANCH   1   7
TORSDOF 7
ENDMDL
MODEL 4
REMARK VINA RESULT:      -7.1      3.098      5.147
REMARK SMILES C#CCO/C([O-])=C\[C@H]1CC[C@@H]2C(=O)N([O-])C(=O)c3ccc(N=[N+]=[N-])c1c32
REMARK SMILES IDX 5 1 6 2 4 3 3 4 2 5 1 6 7 7 8 8 25 9 9 10 21 11 26 12 10 13
REMARK SMILES IDX 20 14 18 15 11 16 19 17 16 18 12 19 14 20 17 21 13 22 15 23
REMARK SMILES IDX 22 24 23 25 24 26
REMARK H PARENT
ROOT
ATOM      1  C   UNL     1      44.903 131.586  14.670  1.00  0.00     0.049 C 
ATOM      2  O   UNL     1      45.851 132.466  15.182  1.00  0.00    -0.547 OA
ENDROOT
BRANCH   1   3
ATOM      3  O   UNL     1      45.308 130.411  14.029  1.00  0.00    -0.601 OA
BRANCH   3   4
ATOM      4  C   UNL     1      46.153 130.421  12.887  1.00  0.00     0.160 C 
BRANCH   4   5
ATOM      5  C   UNL     1      47.468 129.897  13.256  1.00  0.00    -0.095 C 
ATOM      6  C   UNL     1      48.552 129.466  13.561  1.00  0.00     0.005 C 
ENDBRANCH   4   5
ENDBRANCH   3   4
ENDBRANCH   1   3
BRANCH   1   7
ATOM      7  C   UNL     1      43.606 131.875  14.798  1.00  0.00     0.005 C 
BRANCH   7   8
ATOM      8  C   UNL     1      43.003 132.355  16.101  1.00  0.00     0.044 C 
ATOM      9  C   UNL     1      43.066 133.884  16.198  1.00  0.00    -0.027 A 
ATOM     10  C   UNL     1      43.688 131.606  17.264  1.00  0.00     0.014 C 
ATOM     11  C   UNL     1      42.462 134.668  15.182  1.00  0.00     0.042 A 
ATOM     12  C   UNL     1      43.618 134.534  17.339  1.00  0.00    -0.019 A 
ATOM     13  C   UNL     1      43.572 132.359  18.582  1.00  0.00     0.019 C 
ATOM     14  C   UNL     1      42.507 136.068  15.260  1.00  0.00     0.011 A 
ATOM     15  C   UNL     1      43.629 135.948  17.403  1.00  0.00     0.043 A 
ATOM     16  C   UNL     1      44.272 133.718  18.446  1.00  0.00     0.109 C 
ATOM     17  C   UNL     1      43.092 136.699  16.351  1.00  0.00     0.014 A 
ATOM     18  C   UNL     1      44.140 136.631  18.609  1.00  0.00     0.250 C 
ATOM     19  C   UNL     1      44.315 134.451  19.769  1.00  0.00     0.226 C 
ATOM     20  N   UNL     1      44.398 135.877  19.793  1.00  0.00    -0.351 N 
ATOM     21  O   UNL     1      44.313 137.881  18.614  1.00  0.00    -0.269 OA
ATOM     22  O   UNL     1      44.388 133.808  20.851  1.00  0.00    -0.275 OA
ATOM     23  O   UNL     1      44.691 136.517  20.951  1.00  0.00    -0.749 OA
BRANCH  11  24
ATOM     24  N   UNL     1      41.790 134.023  14.086  1.00  0.00    -0.060 NA
BRANCH  24  25
ATOM     25  N   UNL     1      40.583 133.776  14.097  1.00  0.00     0.005 N 
ATOM     26  N   UNL     1      39.378 133.528  14.109  1.00  0.00    -0.003 NA
ENDBRANCH  24  25
ENDBRANCH  11  24
ENDBRANCH   7   8
ENDBRANCH   1   7
TORSDOF 7
ENDMDL
MODEL 5
REMARK VINA RESULT:      -7.1      2.858      4.756
REMARK SMILES C#CCO/C([O-])=C\[C@H]1CC[C@@H]2C(=O)N([O-])C(=O)c3ccc(N=[N+]=[N-])c1c32
REMARK SMILES IDX 5 1 6 2 4 3 3 4 2 5 1 6 7 7 8 8 25 9 9 10 21 11 26 12 10 13
REMARK SMILES IDX 20 14 18 15 11 16 19 17 16 18 12 19 14 20 17 21 13 22 15 23
REMARK SMILES IDX 22 24 23 25 24 26
REMARK H PARENT
ROOT
ATOM      1  C   UNL     1      46.048 130.314  15.984  1.00  0.00     0.049 C 
ATOM      2  O   UNL     1      45.317 129.132  16.060  1.00  0.00    -0.547 OA
ENDROOT
BRANCH   1   3
ATOM      3  O   UNL     1      47.138 130.411  15.114  1.00  0.00    -0.601 OA
BRANCH   3   4
ATOM      4  C   UNL     1      47.254 131.450  14.152  1.00  0.00     0.160 C 
BRANCH   4   5
ATOM      5  C   UNL     1      47.288 130.863  12.812  1.00  0.00    -0.095 C 
ATOM      6  C   UNL     1      47.315 130.380  11.708  1.00  0.00     0.005 C 
ENDBRANCH   4   5
ENDBRANCH   3   4
ENDBRANCH   1   3
BRANCH   1   7
ATOM      7  C   UNL     1      45.695 131.351  16.748  1.00  0.00     0.005 C 
BRANCH   7   8
ATOM      8  C   UNL     1      44.793 131.204  17.955  1.00  0.00     0.044 C 
ATOM      9  C   UNL     1      43.934 132.459  18.147  1.00  0.00    -0.027 A 
ATOM     10  C   UNL     1      45.663 130.825  19.173  1.00  0.00     0.014 C 
ATOM     11  C   UNL     1      43.094 132.891  17.089  1.00  0.00     0.042 A 
ATOM     12  C   UNL     1      43.875 133.136  19.399  1.00  0.00    -0.019 A 
ATOM     13  C   UNL     1      44.989 131.176  20.493  1.00  0.00     0.019 C 
ATOM     14  C   UNL     1      42.298 134.035  17.251  1.00  0.00     0.011 A 
ATOM     15  C   UNL     1      43.045 134.273  19.542  1.00  0.00     0.043 A 
ATOM     16  C   UNL     1      44.765 132.693  20.553  1.00  0.00     0.109 C 
ATOM     17  C   UNL     1      42.281 134.722  18.459  1.00  0.00     0.014 A 
ATOM     18  C   UNL     1      42.926 134.943  20.854  1.00  0.00     0.250 C 
ATOM     19  C   UNL     1      44.229 133.117  21.903  1.00  0.00     0.226 C 
ATOM     20  N   UNL     1      43.454 134.312  22.021  1.00  0.00    -0.351 N 
ATOM     21  O   UNL     1      42.328 136.049  20.958  1.00  0.00    -0.269 OA
ATOM     22  O   UNL     1      44.554 132.485  22.945  1.00  0.00    -0.275 OA
ATOM     23  O   UNL     1      43.190 134.829  23.245  1.00  0.00    -0.749 OA
BRANCH  11  24
ATOM     24  N   UNL     1      43.050 132.144  15.860  1.00  0.00    -0.060 NA
BRANCH  24  25
ATOM     25  N   UNL     1      42.317 132.452  14.919  1.00  0.00     0.005 N 
ATOM     26  N   UNL     1      41.585 132.761  13.980  1.00  0.00    -0.003 NA
ENDBRANCH  24  25
ENDBRANCH  11  24
ENDBRANCH   7   8
ENDBRANCH   1   7
TORSDOF 7
ENDMDL
MODEL 6
REMARK VINA RESULT:      -7.0      2.946      4.907
REMARK SMILES C#CCO/C([O-])=C\[C@H]1CC[C@@H]2C(=O)N([O-])C(=O)c3ccc(N=[N+]=[N-])c1c32
REMARK SMILES IDX 5 1 6 2 4 3 3 4 2 5 1 6 7 7 8 8 25 9 9 10 21 11 26 12 10 13
REMARK SMILES IDX 20 14 18 15 11 16 19 17 16 18 12 19 14 20 17 21 13 22 15 23
REMARK SMILES IDX 22 24 23 25 24 26
REMARK H PARENT
ROOT
ATOM      1  C   UNL     1      45.052 130.147  15.062  1.00  0.00     0.049 C 
ATOM      2  O   UNL     1      45.128 128.856  15.577  1.00  0.00    -0.547 OA
ENDROOT
BRANCH   1   3
ATOM      3  O   UNL     1      44.938 130.348  13.684  1.00  0.00    -0.601 OA
BRANCH   3   4
ATOM      4  C   UNL     1      46.046 130.720  12.875  1.00  0.00     0.160 C 
BRANCH   4   5
ATOM      5  C   UNL     1      47.221 129.950  13.285  1.00  0.00    -0.095 C 
ATOM      6  C   UNL     1      48.188 129.316  13.622  1.00  0.00     0.005 C 
ENDBRANCH   4   5
ENDBRANCH   3   4
ENDBRANCH   1   3
BRANCH   1   7
ATOM      7  C   UNL     1      45.088 131.187  15.899  1.00  0.00     0.005 C 
BRANCH   7   8
ATOM      8  C   UNL     1      44.471 131.143  17.281  1.00  0.00     0.044 C 
ATOM      9  C   UNL     1      43.853 132.498  17.644  1.00  0.00    -0.027 A 
ATOM     10  C   UNL     1      45.535 130.631  18.276  1.00  0.00     0.014 C 
ATOM     11  C   UNL     1      42.860 133.055  16.797  1.00  0.00     0.042 A 
ATOM     12  C   UNL     1      44.170 133.156  18.867  1.00  0.00    -0.019 A 
ATOM     13  C   UNL     1      45.230 131.047  19.709  1.00  0.00     0.019 C 
ATOM     14  C   UNL     1      42.282 134.292  17.119  1.00  0.00     0.011 A 
ATOM     15  C   UNL     1      43.553 134.391  19.178  1.00  0.00     0.043 A 
ATOM     16  C   UNL     1      45.230 132.580  19.796  1.00  0.00     0.109 C 
ATOM     17  C   UNL     1      42.631 134.955  18.289  1.00  0.00     0.014 A 
ATOM     18  C   UNL     1      43.824 135.050  20.472  1.00  0.00     0.250 C 
ATOM     19  C   UNL     1      45.075 133.050  21.226  1.00  0.00     0.226 C 
ATOM     20  N   UNL     1      44.513 134.335  21.499  1.00  0.00    -0.351 N 
ATOM     21  O   UNL     1      43.418 136.224  20.693  1.00  0.00    -0.269 OA
ATOM     22  O   UNL     1      45.539 132.364  22.176  1.00  0.00    -0.275 OA
ATOM     23  O   UNL     1      44.605 134.863  22.743  1.00  0.00    -0.749 OA
BRANCH  11  24
ATOM     24  N   UNL     1      42.440 132.340  15.622  1.00  0.00    -0.060 NA
BRANCH  24  25
ATOM     25  N   UNL     1      41.940 132.899  14.645  1.00  0.00     0.005 N 
ATOM     26  N   UNL     1      41.439 133.459  13.671  1.00  0.00    -0.003 NA
ENDBRANCH  24  25
ENDBRANCH  11  24
ENDBRANCH   7   8
ENDBRANCH   1   7
TORSDOF 7
ENDMDL
MODEL 7
REMARK VINA RESULT:      -7.0      3.177      4.926
REMARK SMILES C#CCO/C([O-])=C\[C@H]1CC[C@@H]2C(=O)N([O-])C(=O)c3ccc(N=[N+]=[N-])c1c32
REMARK SMILES IDX 5 1 6 2 4 3 3 4 2 5 1 6 7 7 8 8 25 9 9 10 21 11 26 12 10 13
REMARK SMILES IDX 20 14 18 15 11 16 19 17 16 18 12 19 14 20 17 21 13 22 15 23
REMARK SMILES IDX 22 24 23 25 24 26
REMARK H PARENT
ROOT
ATOM      1  C   UNL     1      45.201 130.785  15.078  1.00  0.00     0.049 C 
ATOM      2  O   UNL     1      44.259 130.724  14.055  1.00  0.00    -0.547 OA
ENDROOT
BRANCH   1   3
ATOM      3  O   UNL     1      46.094 129.728  15.274  1.00  0.00    -0.601 OA
BRANCH   3   4
ATOM      4  C   UNL     1      46.873 129.185  14.217  1.00  0.00     0.160 C 
BRANCH   4   5
ATOM      5  C   UNL     1      47.458 130.277  13.439  1.00  0.00    -0.095 C 
ATOM      6  C   UNL     1      47.940 131.177  12.798  1.00  0.00     0.005 C 
ENDBRANCH   4   5
ENDBRANCH   3   4
ENDBRANCH   1   3
BRANCH   1   7
ATOM      7  C   UNL     1      45.240 131.862  15.867  1.00  0.00     0.005 C 
BRANCH   7   8
ATOM      8  C   UNL     1      44.251 132.085  16.992  1.00  0.00     0.044 C 
ATOM      9  C   UNL     1      44.046 133.583  17.245  1.00  0.00    -0.027 A 
ATOM     10  C   UNL     1      44.720 131.280  18.223  1.00  0.00     0.014 C 
ATOM     11  C   UNL     1      43.611 134.412  16.179  1.00  0.00     0.042 A 
ATOM     12  C   UNL     1      44.173 134.141  18.549  1.00  0.00    -0.019 A 
ATOM     13  C   UNL     1      44.148 131.832  19.522  1.00  0.00     0.019 C 
ATOM     14  C   UNL     1      43.414 135.784  16.396  1.00  0.00     0.011 A 
ATOM     15  C   UNL     1      43.944 135.524  18.745  1.00  0.00     0.043 A 
ATOM     16  C   UNL     1      44.636 133.274  19.713  1.00  0.00     0.109 C 
ATOM     17  C   UNL     1      43.587 136.333  17.660  1.00  0.00     0.014 A 
ATOM     18  C   UNL     1      44.009 136.100  20.103  1.00  0.00     0.250 C 
ATOM     19  C   UNL     1      44.217 133.825  21.058  1.00  0.00     0.226 C 
ATOM     20  N   UNL     1      44.066 135.235  21.238  1.00  0.00    -0.351 N 
ATOM     21  O   UNL     1      43.975 137.351  20.273  1.00  0.00    -0.269 OA
ATOM     22  O   UNL     1      44.106 133.059  22.054  1.00  0.00    -0.275 OA
ATOM     23  O   UNL     1      43.942 135.748  22.486  1.00  0.00    -0.749 OA
BRANCH  11  24
ATOM     24  N   UNL     1      43.358 133.838  14.884  1.00  0.00    -0.060 NA
BRANCH  24  25
ATOM     25  N   UNL     1      42.237 133.476  14.523  1.00  0.00     0.005 N 
ATOM     26  N   UNL     1      41.117 133.117  14.163  1.00  0.00    -0.003 NA
ENDBRANCH  24  25
ENDBRANCH  11  24
ENDBRANCH   7   8
ENDBRANCH   1   7
TORSDOF 7
ENDMDL
MODEL 8
REMARK VINA RESULT:      -6.9      3.036      4.954
REMARK SMILES C#CCO/C([O-])=C\[C@H]1CC[C@@H]2C(=O)N([O-])C(=O)c3ccc(N=[N+]=[N-])c1c32
REMARK SMILES IDX 5 1 6 2 4 3 3 4 2 5 1 6 7 7 8 8 25 9 9 10 21 11 26 12 10 13
REMARK SMILES IDX 20 14 18 15 11 16 19 17 16 18 12 19 14 20 17 21 13 22 15 23
REMARK SMILES IDX 22 24 23 25 24 26
REMARK H PARENT
ROOT
ATOM      1  C   UNL     1      45.602 132.178  15.693  1.00  0.00     0.049 C 
ATOM      2  O   UNL     1      45.558 133.563  15.569  1.00  0.00    -0.547 OA
ENDROOT
BRANCH   1   3
ATOM      3  O   UNL     1      46.794 131.488  15.452  1.00  0.00    -0.601 OA
BRANCH   3   4
ATOM      4  C   UNL     1      46.823 130.223  14.805  1.00  0.00     0.160 C 
BRANCH   4   5
ATOM      5  C   UNL     1      46.954 130.424  13.361  1.00  0.00    -0.095 C 
ATOM      6  C   UNL     1      47.062 130.590  12.173  1.00  0.00     0.005 C 
ENDBRANCH   4   5
ENDBRANCH   3   4
ENDBRANCH   1   3
BRANCH   1   7
ATOM      7  C   UNL     1      44.495 131.517  16.044  1.00  0.00     0.005 C 
BRANCH   7   8
ATOM      8  C   UNL     1      43.940 131.550  17.452  1.00  0.00     0.044 C 
ATOM      9  C   UNL     1      43.328 132.921  17.764  1.00  0.00    -0.027 A 
ATOM     10  C   UNL     1      45.049 131.102  18.428  1.00  0.00     0.014 C 
ATOM     11  C   UNL     1      42.296 133.424  16.930  1.00  0.00     0.042 A 
ATOM     12  C   UNL     1      43.693 133.650  18.932  1.00  0.00    -0.019 A 
ATOM     13  C   UNL     1      44.804 131.598  19.846  1.00  0.00     0.019 C 
ATOM     14  C   UNL     1      41.724 134.675  17.205  1.00  0.00     0.011 A 
ATOM     15  C   UNL     1      43.082 134.898  19.198  1.00  0.00     0.043 A 
ATOM     16  C   UNL     1      44.797 133.133  19.846  1.00  0.00     0.109 C 
ATOM     17  C   UNL     1      42.118 135.406  18.319  1.00  0.00     0.014 A 
ATOM     18  C   UNL     1      43.405 135.632  20.439  1.00  0.00     0.250 C 
ATOM     19  C   UNL     1      44.701 133.684  21.251  1.00  0.00     0.226 C 
ATOM     20  N   UNL     1      44.142 134.981  21.474  1.00  0.00    -0.351 N 
ATOM     21  O   UNL     1      43.001 136.815  20.610  1.00  0.00    -0.269 OA
ATOM     22  O   UNL     1      45.210 133.056  22.218  1.00  0.00    -0.275 OA
ATOM     23  O   UNL     1      44.284 135.579  22.681  1.00  0.00    -0.749 OA
BRANCH  11  24
ATOM     24  N   UNL     1      41.830 132.641  15.817  1.00  0.00    -0.060 NA
BRANCH  24  25
ATOM     25  N   UNL     1      41.163 133.119  14.899  1.00  0.00     0.005 N 
ATOM     26  N   UNL     1      40.496 133.597  13.983  1.00  0.00    -0.003 NA
ENDBRANCH  24  25
ENDBRANCH  11  24
ENDBRANCH   7   8
ENDBRANCH   1   7
TORSDOF 7
ENDMDL
MODEL 9
REMARK VINA RESULT:      -6.8      3.388      6.075
REMARK SMILES C#CCO/C([O-])=C\[C@H]1CC[C@@H]2C(=O)N([O-])C(=O)c3ccc(N=[N+]=[N-])c1c32
REMARK SMILES IDX 5 1 6 2 4 3 3 4 2 5 1 6 7 7 8 8 25 9 9 10 21 11 26 12 10 13
REMARK SMILES IDX 20 14 18 15 11 16 19 17 16 18 12 19 14 20 17 21 13 22 15 23
REMARK SMILES IDX 22 24 23 25 24 26
REMARK H PARENT
ROOT
ATOM      1  C   UNL     1      42.009 132.891  15.106  1.00  0.00     0.049 C 
ATOM      2  O   UNL     1      41.817 132.146  16.266  1.00  0.00    -0.547 OA
ENDROOT
BRANCH   1   3
ATOM      3  O   UNL     1      40.961 133.057  14.196  1.00  0.00    -0.601 OA
BRANCH   3   4
ATOM      4  C   UNL     1      40.520 134.339  13.769  1.00  0.00     0.160 C 
BRANCH   4   5
ATOM      5  C   UNL     1      39.058 134.380  13.801  1.00  0.00    -0.095 C 
ATOM      6  C   UNL     1      37.853 134.414  13.829  1.00  0.00     0.005 C 
ENDBRANCH   4   5
ENDBRANCH   3   4
ENDBRANCH   1   3
BRANCH   1   7
ATOM      7  C   UNL     1      43.202 133.445  14.875  1.00  0.00     0.005 C 
BRANCH   7   8
ATOM      8  C   UNL     1      44.100 133.941  15.989  1.00  0.00     0.044 C 
ATOM      9  C   UNL     1      44.613 132.771  16.835  1.00  0.00    -0.027 A 
ATOM     10  C   UNL     1      43.341 135.028  16.782  1.00  0.00     0.014 C 
ATOM     11  C   UNL     1      45.328 131.721  16.204  1.00  0.00     0.042 A 
ATOM     12  C   UNL     1      44.487 132.769  18.254  1.00  0.00    -0.019 A 
ATOM     13  C   UNL     1      43.892 135.202  18.191  1.00  0.00     0.019 C 
ATOM     14  C   UNL     1      45.808 130.646  16.966  1.00  0.00     0.011 A 
ATOM     15  C   UNL     1      45.003 131.682  19.001  1.00  0.00     0.043 A 
ATOM     16  C   UNL     1      43.727 133.884  18.960  1.00  0.00     0.109 C 
ATOM     17  C   UNL     1      45.640 130.623  18.345  1.00  0.00     0.014 A 
ATOM     18  C   UNL     1      44.936 131.700  20.477  1.00  0.00     0.250 C 
ATOM     19  C   UNL     1      44.125 134.039  20.411  1.00  0.00     0.226 C 
ATOM     20  N   UNL     1      44.573 132.904  21.154  1.00  0.00    -0.351 N 
ATOM     21  O   UNL     1      45.235 130.673  21.146  1.00  0.00    -0.269 OA
ATOM     22  O   UNL     1      43.960 135.140  21.003  1.00  0.00    -0.275 OA
ATOM     23  O   UNL     1      44.685 132.980  22.503  1.00  0.00    -0.749 OA
BRANCH  11  24
ATOM     24  N   UNL     1      45.571 131.773  14.787  1.00  0.00    -0.060 NA
BRANCH  24  25
ATOM     25  N   UNL     1      46.316 130.980  14.209  1.00  0.00     0.005 N 
ATOM     26  N   UNL     1      47.059 130.188  13.631  1.00  0.00    -0.003 NA
ENDBRANCH  24  25
ENDBRANCH  11  24
ENDBRANCH   7   8
ENDBRANCH   1   7
TORSDOF 7
ENDMDL


