MODEL 1
REMARK VINA RESULT:      -6.8      0.000      0.000
REMARK SMILES [N-]=[N+]=Nc1ccc2c3c(cc(/C(O)=N\[NH+]=[N-])c(OC(=O)[C@]4(N)C[C@H](CO)C4)c13)C=C2
REMARK SMILES IDX 18 1 17 2 11 3 10 4 9 5 28 6 8 7 29 8 4 9 7 10 30 11 5 12
REMARK SMILES IDX 6 13 12 14 13 15 14 17 15 18 16 20 3 21 2 22 1 23 19 24
REMARK SMILES IDX 20 25 21 26 27 27 23 28 24 29 22 30 25 33 26 34
REMARK H PARENT 13 16 15 19 22 31 22 32 26 35
ROOT
ATOM      1  O   UNL     1      42.432 132.328  15.537  1.00  0.00    -0.424 OA
ENDROOT
BRANCH   1   2
ATOM      2  C   UNL     1      43.365 131.962  16.513  1.00  0.00     0.150 A 
ATOM      3  C   UNL     1      44.684 131.538  16.145  1.00  0.00     0.062 A 
ATOM      4  C   UNL     1      45.625 131.177  17.143  1.00  0.00     0.024 A 
ATOM      5  C   UNL     1      45.233 131.257  18.476  1.00  0.00    -0.016 A 
ATOM      6  C   UNL     1      42.999 132.001  17.884  1.00  0.00     0.036 A 
ATOM      7  C   UNL     1      43.976 131.646  18.801  1.00  0.00     0.000 A 
ATOM      8  C   UNL     1      45.928 130.955  19.732  1.00  0.00     0.009 C 
ATOM      9  C   UNL     1      41.733 132.379  18.409  1.00  0.00     0.049 A 
ATOM     10  C   UNL     1      43.802 131.626  20.146  1.00  0.00    -0.017 A 
ATOM     11  C   UNL     1      45.067 131.179  20.737  1.00  0.00     0.009 C 
ATOM     12  C   UNL     1      41.537 132.364  19.825  1.00  0.00     0.011 A 
ATOM     13  C   UNL     1      42.577 131.984  20.702  1.00  0.00     0.009 A 
BRANCH   3  14
ATOM     14  C   UNL     1      45.040 131.348  14.723  1.00  0.00     0.172 C 
BRANCH  14  15
ATOM     15  O   UNL     1      44.155 130.646  13.909  1.00  0.00    -0.506 OA
ATOM     16  H   UNL     1      44.476 130.161  13.080  1.00  0.00     0.293 HD
ENDBRANCH  14  15
BRANCH  14  17
ATOM     17  N   UNL     1      46.147 131.802  14.209  1.00  0.00    -0.151 NA
BRANCH  17  18
ATOM     18  N   UNL     1      47.198 130.992  13.745  1.00  0.00    -0.169 N 
ATOM     19  H   UNL     1      48.197 131.250  13.905  1.00  0.00     0.475 HD
ATOM     20  N   UNL     1      46.935 129.980  13.028  1.00  0.00    -0.151 NA
ENDBRANCH  17  18
ENDBRANCH  14  17
ENDBRANCH   3  14
BRANCH   9  21
ATOM     21  N   UNL     1      40.673 132.766  17.523  1.00  0.00    -0.060 NA
BRANCH  21  22
ATOM     22  N   UNL     1      39.588 133.185  17.931  1.00  0.00     0.005 N 
ATOM     23  N   UNL     1      38.507 133.602  18.342  1.00  0.00    -0.003 NA
ENDBRANCH  21  22
ENDBRANCH   9  21
ENDBRANCH   1   2
BRANCH   1  24
ATOM     24  C   UNL     1      42.344 133.619  14.997  1.00  0.00     0.331 C 
ATOM     25  O   UNL     1      43.389 134.305  14.822  1.00  0.00    -0.250 OA
BRANCH  24  26
ATOM     26  C   UNL     1      41.000 134.190  14.592  1.00  0.00     0.116 C 
ATOM     27  C   UNL     1      41.038 135.220  13.455  1.00  0.00     0.040 C 
ATOM     28  C   UNL     1      40.497 135.271  15.552  1.00  0.00     0.040 C 
ATOM     29  C   UNL     1      40.552 136.301  14.422  1.00  0.00     0.019 C 
BRANCH  26  30
ATOM     30  N   UNL     1      39.989 133.157  14.345  1.00  0.00    -0.316 NA
ATOM     31  H   UNL     1      40.268 132.615  13.495  1.00  0.00     0.119 HD
ATOM     32  H   UNL     1      39.979 132.491  15.152  1.00  0.00     0.119 HD
ENDBRANCH  26  30
BRANCH  29  33
ATOM     33  C   UNL     1      41.573 137.422  14.671  1.00  0.00     0.159 C 
BRANCH  33  34
ATOM     34  O   UNL     1      41.194 138.584  13.986  1.00  0.00    -0.396 OA
ATOM     35  H   UNL     1      40.315 138.861  14.357  1.00  0.00     0.210 HD
ENDBRANCH  33  34
ENDBRANCH  29  33
ENDBRANCH  24  26
ENDBRANCH   1  24
TORSDOF 12
ENDMDL
MODEL 2
REMARK VINA RESULT:      -6.7      3.219      5.216
REMARK SMILES [N-]=[N+]=Nc1ccc2c3c(cc(/C(O)=N\[NH+]=[N-])c(OC(=O)[C@]4(N)C[C@H](CO)C4)c13)C=C2
REMARK SMILES IDX 18 1 17 2 11 3 10 4 9 5 28 6 8 7 29 8 4 9 7 10 30 11 5 12
REMARK SMILES IDX 6 13 12 14 13 15 14 17 15 18 16 20 3 21 2 22 1 23 19 24
REMARK SMILES IDX 20 25 21 26 27 27 23 28 24 29 22 30 25 33 26 34
REMARK H PARENT 13 16 15 19 22 31 22 32 26 35
ROOT
ATOM      1  O   UNL     1      42.221 133.406  18.310  1.00  0.00    -0.424 OA
ENDROOT
BRANCH   1   2
ATOM      2  C   UNL     1      42.709 132.819  17.137  1.00  0.00     0.150 A 
ATOM      3  C   UNL     1      42.098 133.094  15.870  1.00  0.00     0.062 A 
ATOM      4  C   UNL     1      42.606 132.500  14.686  1.00  0.00     0.024 A 
ATOM      5  C   UNL     1      43.709 131.658  14.793  1.00  0.00    -0.016 A 
ATOM      6  C   UNL     1      43.814 131.931  17.203  1.00  0.00     0.036 A 
ATOM      7  C   UNL     1      44.262 131.400  16.004  1.00  0.00     0.000 A 
ATOM      8  C   UNL     1      44.465 130.886  13.802  1.00  0.00     0.009 C 
ATOM      9  C   UNL     1      44.515 131.543  18.378  1.00  0.00     0.049 A 
ATOM     10  C   UNL     1      45.302 130.538  15.881  1.00  0.00    -0.017 A 
ATOM     11  C   UNL     1      45.426 130.213  14.457  1.00  0.00     0.009 C 
ATOM     12  C   UNL     1      45.616 130.637  18.261  1.00  0.00     0.011 A 
ATOM     13  C   UNL     1      46.013 130.129  17.005  1.00  0.00     0.009 A 
BRANCH   3  14
ATOM     14  C   UNL     1      40.858 133.895  15.794  1.00  0.00     0.172 C 
BRANCH  14  15
ATOM     15  O   UNL     1      39.728 133.425  16.458  1.00  0.00    -0.506 OA
ATOM     16  H   UNL     1      39.807 132.789  17.243  1.00  0.00     0.293 HD
ENDBRANCH  14  15
BRANCH  14  17
ATOM     17  N   UNL     1      40.782 135.011  15.126  1.00  0.00    -0.151 NA
BRANCH  17  18
ATOM     18  N   UNL     1      40.162 136.179  15.601  1.00  0.00    -0.169 N 
ATOM     19  H   UNL     1      40.470 136.638  16.487  1.00  0.00     0.475 HD
ATOM     20  N   UNL     1      39.140 136.632  15.001  1.00  0.00    -0.151 NA
ENDBRANCH  17  18
ENDBRANCH  14  17
ENDBRANCH   3  14
BRANCH   9  21
ATOM     21  N   UNL     1      44.116 132.056  19.657  1.00  0.00    -0.060 NA
BRANCH  21  22
ATOM     22  N   UNL     1      44.138 131.371  20.682  1.00  0.00     0.005 N 
ATOM     23  N   UNL     1      44.162 130.689  21.704  1.00  0.00    -0.003 NA
ENDBRANCH  21  22
ENDBRANCH   9  21
ENDBRANCH   1   2
BRANCH   1  24
ATOM     24  C   UNL     1      42.162 134.791  18.513  1.00  0.00     0.331 C 
ATOM     25  O   UNL     1      41.046 135.378  18.565  1.00  0.00    -0.250 OA
BRANCH  24  26
ATOM     26  C   UNL     1      43.435 135.592  18.701  1.00  0.00     0.116 C 
ATOM     27  C   UNL     1      43.235 137.071  19.060  1.00  0.00     0.040 C 
ATOM     28  C   UNL     1      44.083 136.003  17.377  1.00  0.00     0.040 C 
ATOM     29  C   UNL     1      43.868 137.476  17.727  1.00  0.00     0.019 C 
BRANCH  26  30
ATOM     30  N   UNL     1      44.390 134.946  19.607  1.00  0.00    -0.316 NA
ATOM     31  H   UNL     1      44.079 135.110  20.592  1.00  0.00     0.119 HD
ATOM     32  H   UNL     1      44.372 133.913  19.440  1.00  0.00     0.119 HD
ENDBRANCH  26  30
BRANCH  29  33
ATOM     33  C   UNL     1      42.903 138.194  16.770  1.00  0.00     0.159 C 
BRANCH  33  34
ATOM     34  O   UNL     1      43.371 139.484  16.487  1.00  0.00    -0.396 OA
ATOM     35  H   UNL     1      44.078 139.386  15.796  1.00  0.00     0.210 HD
ENDBRANCH  33  34
ENDBRANCH  29  33
ENDBRANCH  24  26
ENDBRANCH   1  24
TORSDOF 12
ENDMDL
MODEL 3
REMARK VINA RESULT:      -6.7      3.095      6.165
REMARK SMILES [N-]=[N+]=Nc1ccc2c3c(cc(/C(O)=N\[NH+]=[N-])c(OC(=O)[C@]4(N)C[C@H](CO)C4)c13)C=C2
REMARK SMILES IDX 18 1 17 2 11 3 10 4 9 5 28 6 8 7 29 8 4 9 7 10 30 11 5 12
REMARK SMILES IDX 6 13 12 14 13 15 14 17 15 18 16 20 3 21 2 22 1 23 19 24
REMARK SMILES IDX 20 25 21 26 27 27 23 28 24 29 22 30 25 33 26 34
REMARK H PARENT 13 16 15 19 22 31 22 32 26 35
ROOT
ATOM      1  O   UNL     1      43.627 132.898  16.445  1.00  0.00    -0.424 OA
ENDROOT
BRANCH   1   2
ATOM      2  C   UNL     1      43.731 134.077  17.191  1.00  0.00     0.150 A 
ATOM      3  C   UNL     1      44.209 134.051  18.542  1.00  0.00     0.062 A 
ATOM      4  C   UNL     1      44.319 135.253  19.287  1.00  0.00     0.024 A 
ATOM      5  C   UNL     1      43.959 136.446  18.667  1.00  0.00    -0.016 A 
ATOM      6  C   UNL     1      43.348 135.314  16.609  1.00  0.00     0.036 A 
ATOM      7  C   UNL     1      43.496 136.446  17.393  1.00  0.00     0.000 A 
ATOM      8  C   UNL     1      43.935 137.836  19.134  1.00  0.00     0.009 C 
ATOM      9  C   UNL     1      42.840 135.505  15.294  1.00  0.00     0.049 A 
ATOM     10  C   UNL     1      43.181 137.706  16.999  1.00  0.00    -0.017 A 
ATOM     11  C   UNL     1      43.469 138.595  18.128  1.00  0.00     0.009 C 
ATOM     12  C   UNL     1      42.507 136.828  14.866  1.00  0.00     0.011 A 
ATOM     13  C   UNL     1      42.676 137.938  15.723  1.00  0.00     0.009 A 
BRANCH   3  14
ATOM     14  C   UNL     1      44.472 132.763  19.219  1.00  0.00     0.172 C 
BRANCH  14  15
ATOM     15  O   UNL     1      45.051 131.735  18.479  1.00  0.00    -0.506 OA
ATOM     16  H   UNL     1      44.523 130.909  18.226  1.00  0.00     0.293 HD
ENDBRANCH  14  15
BRANCH  14  17
ATOM     17  N   UNL     1      44.177 132.553  20.470  1.00  0.00    -0.151 NA
BRANCH  17  18
ATOM     18  N   UNL     1      43.613 131.365  20.964  1.00  0.00    -0.169 N 
ATOM     19  H   UNL     1      42.590 131.172  20.882  1.00  0.00     0.475 HD
ATOM     20  N   UNL     1      44.337 130.553  21.615  1.00  0.00    -0.151 NA
ENDBRANCH  17  18
ENDBRANCH  14  17
ENDBRANCH   3  14
BRANCH   9  21
ATOM     21  N   UNL     1      42.666 134.382  14.419  1.00  0.00    -0.060 NA
BRANCH  21  22
ATOM     22  N   UNL     1      41.565 133.869  14.210  1.00  0.00     0.005 N 
ATOM     23  N   UNL     1      40.467 133.356  14.002  1.00  0.00    -0.003 NA
ENDBRANCH  21  22
ENDBRANCH   9  21
ENDBRANCH   1   2
BRANCH   1  24
ATOM     24  C   UNL     1      44.642 132.426  15.601  1.00  0.00     0.331 C 
ATOM     25  O   UNL     1      45.770 132.990  15.589  1.00  0.00    -0.250 OA
BRANCH  24  26
ATOM     26  C   UNL     1      44.403 131.218  14.718  1.00  0.00     0.116 C 
ATOM     27  C   UNL     1      44.774 129.865  15.339  1.00  0.00     0.040 C 
ATOM     28  C   UNL     1      45.491 131.029  13.658  1.00  0.00     0.040 C 
ATOM     29  C   UNL     1      45.872 129.688  14.288  1.00  0.00     0.019 C 
BRANCH  26  30
ATOM     30  N   UNL     1      43.056 131.189  14.138  1.00  0.00    -0.316 NA
ATOM     31  H   UNL     1      42.781 130.193  13.984  1.00  0.00     0.119 HD
ATOM     32  H   UNL     1      42.381 131.599  14.825  1.00  0.00     0.119 HD
ENDBRANCH  26  30
BRANCH  29  33
ATOM     33  C   UNL     1      47.295 129.671  14.869  1.00  0.00     0.159 C 
BRANCH  33  34
ATOM     34  O   UNL     1      48.133 128.874  14.078  1.00  0.00    -0.396 OA
ATOM     35  H   UNL     1      49.034 128.907  14.493  1.00  0.00     0.210 HD
ENDBRANCH  33  34
ENDBRANCH  29  33
ENDBRANCH  24  26
ENDBRANCH   1  24
TORSDOF 12
ENDMDL
MODEL 4
REMARK VINA RESULT:      -6.6      3.035      4.860
REMARK SMILES [N-]=[N+]=Nc1ccc2c3c(cc(/C(O)=N\[NH+]=[N-])c(OC(=O)[C@]4(N)C[C@H](CO)C4)c13)C=C2
REMARK SMILES IDX 18 1 17 2 11 3 10 4 9 5 28 6 8 7 29 8 4 9 7 10 30 11 5 12
REMARK SMILES IDX 6 13 12 14 13 15 14 17 15 18 16 20 3 21 2 22 1 23 19 24
REMARK SMILES IDX 20 25 21 26 27 27 23 28 24 29 22 30 25 33 26 34
REMARK H PARENT 13 16 15 19 22 31 22 32 26 35
ROOT
ATOM      1  O   UNL     1      42.172 133.696  17.153  1.00  0.00    -0.424 OA
ENDROOT
BRANCH   1   2
ATOM      2  C   UNL     1      42.844 132.860  16.255  1.00  0.00     0.150 A 
ATOM      3  C   UNL     1      42.514 132.866  14.860  1.00  0.00     0.062 A 
ATOM      4  C   UNL     1      43.208 132.020  13.956  1.00  0.00     0.024 A 
ATOM      5  C   UNL     1      44.213 131.201  14.461  1.00  0.00    -0.016 A 
ATOM      6  C   UNL     1      43.857 131.986  16.731  1.00  0.00     0.036 A 
ATOM      7  C   UNL     1      44.498 131.200  15.787  1.00  0.00     0.000 A 
ATOM      8  C   UNL     1      45.099 130.218  13.830  1.00  0.00     0.009 C 
ATOM      9  C   UNL     1      44.286 131.848  18.079  1.00  0.00     0.049 A 
ATOM     10  C   UNL     1      45.486 130.312  16.063  1.00  0.00    -0.017 A 
ATOM     11  C   UNL     1      45.867 129.685  14.794  1.00  0.00     0.009 C 
ATOM     12  C   UNL     1      45.328 130.918  18.383  1.00  0.00     0.011 A 
ATOM     13  C   UNL     1      45.933 130.142  17.369  1.00  0.00     0.009 A 
BRANCH   3  14
ATOM     14  C   UNL     1      41.367 133.656  14.365  1.00  0.00     0.172 C 
BRANCH  14  15
ATOM     15  O   UNL     1      40.165 132.994  14.127  1.00  0.00    -0.506 OA
ATOM     16  H   UNL     1      40.146 132.008  13.896  1.00  0.00     0.293 HD
ENDBRANCH  14  15
BRANCH  14  17
ATOM     17  N   UNL     1      41.440 134.936  14.137  1.00  0.00    -0.151 NA
BRANCH  17  18
ATOM     18  N   UNL     1      40.357 135.733  13.732  1.00  0.00    -0.169 N 
ATOM     19  H   UNL     1      40.452 136.435  12.965  1.00  0.00     0.475 HD
ATOM     20  N   UNL     1      39.266 135.678  14.377  1.00  0.00    -0.151 NA
ENDBRANCH  17  18
ENDBRANCH  14  17
ENDBRANCH   3  14
BRANCH   9  21
ATOM     21  N   UNL     1      43.675 132.633  19.114  1.00  0.00    -0.060 NA
BRANCH  21  22
ATOM     22  N   UNL     1      44.313 133.428  19.806  1.00  0.00     0.005 N 
ATOM     23  N   UNL     1      44.949 134.219  20.499  1.00  0.00    -0.003 NA
ENDBRANCH  21  22
ENDBRANCH   9  21
ENDBRANCH   1   2
BRANCH   1  24
ATOM     24  C   UNL     1      40.911 133.400  17.689  1.00  0.00     0.331 C 
ATOM     25  O   UNL     1      40.449 132.228  17.612  1.00  0.00    -0.250 OA
BRANCH  24  26
ATOM     26  C   UNL     1      40.105 134.475  18.388  1.00  0.00     0.116 C 
ATOM     27  C   UNL     1      40.358 135.909  17.903  1.00  0.00     0.040 C 
ATOM     28  C   UNL     1      40.667 134.843  19.764  1.00  0.00     0.040 C 
ATOM     29  C   UNL     1      40.935 136.267  19.274  1.00  0.00     0.019 C 
BRANCH  26  30
ATOM     30  N   UNL     1      38.670 134.174  18.441  1.00  0.00    -0.316 NA
ATOM     31  H   UNL     1      38.162 134.868  17.847  1.00  0.00     0.119 HD
ATOM     32  H   UNL     1      38.506 133.227  18.025  1.00  0.00     0.119 HD
ENDBRANCH  26  30
BRANCH  29  33
ATOM     33  C   UNL     1      42.429 136.630  19.247  1.00  0.00     0.159 C 
BRANCH  33  34
ATOM     34  O   UNL     1      42.610 137.967  19.623  1.00  0.00    -0.396 OA
ATOM     35  H   UNL     1      43.587 138.145  19.585  1.00  0.00     0.210 HD
ENDBRANCH  33  34
ENDBRANCH  29  33
ENDBRANCH  24  26
ENDBRANCH   1  24
TORSDOF 12
ENDMDL
MODEL 5
REMARK VINA RESULT:      -6.6      3.250      5.977
REMARK SMILES [N-]=[N+]=Nc1ccc2c3c(cc(/C(O)=N\[NH+]=[N-])c(OC(=O)[C@]4(N)C[C@H](CO)C4)c13)C=C2
REMARK SMILES IDX 18 1 17 2 11 3 10 4 9 5 28 6 8 7 29 8 4 9 7 10 30 11 5 12
REMARK SMILES IDX 6 13 12 14 13 15 14 17 15 18 16 20 3 21 2 22 1 23 19 24
REMARK SMILES IDX 20 25 21 26 27 27 23 28 24 29 22 30 25 33 26 34
REMARK H PARENT 13 16 15 19 22 31 22 32 26 35
ROOT
ATOM      1  O   UNL     1      44.190 132.156  16.681  1.00  0.00    -0.424 OA
ENDROOT
BRANCH   1   2
ATOM      2  C   UNL     1      44.240 133.146  17.668  1.00  0.00     0.150 A 
ATOM      3  C   UNL     1      44.671 132.833  18.999  1.00  0.00     0.062 A 
ATOM      4  C   UNL     1      44.726 133.847  19.990  1.00  0.00     0.024 A 
ATOM      5  C   UNL     1      44.361 135.140  19.630  1.00  0.00    -0.016 A 
ATOM      6  C   UNL     1      43.849 134.473  17.352  1.00  0.00     0.036 A 
ATOM      7  C   UNL     1      43.942 135.411  18.369  1.00  0.00     0.000 A 
ATOM      8  C   UNL     1      44.288 136.395  20.385  1.00  0.00     0.009 C 
ATOM      9  C   UNL     1      43.383 134.938  16.092  1.00  0.00     0.049 A 
ATOM     10  C   UNL     1      43.612 136.720  18.245  1.00  0.00    -0.017 A 
ATOM     11  C   UNL     1      43.839 137.347  19.551  1.00  0.00     0.009 C 
ATOM     12  C   UNL     1      43.034 136.317  15.948  1.00  0.00     0.011 A 
ATOM     13  C   UNL     1      43.147 137.217  17.031  1.00  0.00     0.009 A 
BRANCH   3  14
ATOM     14  C   UNL     1      44.941 131.434  19.390  1.00  0.00     0.172 C 
BRANCH  14  15
ATOM     15  O   UNL     1      45.986 130.763  18.761  1.00  0.00    -0.506 OA
ATOM     16  H   UNL     1      46.658 131.259  18.187  1.00  0.00     0.293 HD
ENDBRANCH  14  15
BRANCH  14  17
ATOM     17  N   UNL     1      44.235 130.807  20.288  1.00  0.00    -0.151 NA
BRANCH  17  18
ATOM     18  N   UNL     1      43.315 131.427  21.149  1.00  0.00    -0.169 N 
ATOM     19  H   UNL     1      43.232 132.467  21.202  1.00  0.00     0.475 HD
ATOM     20  N   UNL     1      42.640 130.720  21.957  1.00  0.00    -0.151 NA
ENDBRANCH  17  18
ENDBRANCH  14  17
ENDBRANCH   3  14
BRANCH   9  21
ATOM     21  N   UNL     1      43.266 134.029  14.987  1.00  0.00    -0.060 NA
BRANCH  21  22
ATOM     22  N   UNL     1      42.239 133.937  14.312  1.00  0.00     0.005 N 
ATOM     23  N   UNL     1      41.215 133.847  13.639  1.00  0.00    -0.003 NA
ENDBRANCH  21  22
ENDBRANCH   9  21
ENDBRANCH   1   2
BRANCH   1  24
ATOM     24  C   UNL     1      45.258 131.867  15.821  1.00  0.00     0.331 C 
ATOM     25  O   UNL     1      46.025 132.790  15.431  1.00  0.00    -0.250 OA
BRANCH  24  26
ATOM     26  C   UNL     1      45.520 130.443  15.376  1.00  0.00     0.116 C 
ATOM     27  C   UNL     1      46.996 130.081  15.159  1.00  0.00     0.040 C 
ATOM     28  C   UNL     1      45.249 130.223  13.886  1.00  0.00     0.040 C 
ATOM     29  C   UNL     1      46.724 129.880  13.667  1.00  0.00     0.019 C 
BRANCH  26  30
ATOM     30  N   UNL     1      44.843 129.447  16.213  1.00  0.00    -0.316 NA
ATOM     31  H   UNL     1      45.398 129.315  17.089  1.00  0.00     0.119 HD
ATOM     32  H   UNL     1      43.904 129.817  16.490  1.00  0.00     0.119 HD
ENDBRANCH  26  30
BRANCH  29  33
ATOM     33  C   UNL     1      47.453 130.883  12.758  1.00  0.00     0.159 C 
BRANCH  33  34
ATOM     34  O   UNL     1      47.299 130.520  11.414  1.00  0.00    -0.396 OA
ATOM     35  H   UNL     1      46.570 129.846  11.381  1.00  0.00     0.210 HD
ENDBRANCH  33  34
ENDBRANCH  29  33
ENDBRANCH  24  26
ENDBRANCH   1  24
TORSDOF 12
ENDMDL
MODEL 6
REMARK VINA RESULT:      -6.5      3.199      5.285
REMARK SMILES [N-]=[N+]=Nc1ccc2c3c(cc(/C(O)=N\[NH+]=[N-])c(OC(=O)[C@]4(N)C[C@H](CO)C4)c13)C=C2
REMARK SMILES IDX 18 1 17 2 11 3 10 4 9 5 28 6 8 7 29 8 4 9 7 10 30 11 5 12
REMARK SMILES IDX 6 13 12 14 13 15 14 17 15 18 16 20 3 21 2 22 1 23 19 24
REMARK SMILES IDX 20 25 21 26 27 27 23 28 24 29 22 30 25 33 26 34
REMARK H PARENT 13 16 15 19 22 31 22 32 26 35
ROOT
ATOM      1  O   UNL     1      42.514 132.888  18.251  1.00  0.00    -0.424 OA
ENDROOT
BRANCH   1   2
ATOM      2  C   UNL     1      43.573 132.090  17.803  1.00  0.00     0.150 A 
ATOM      3  C   UNL     1      44.555 131.592  18.721  1.00  0.00     0.062 A 
ATOM      4  C   UNL     1      45.620 130.778  18.257  1.00  0.00     0.024 A 
ATOM      5  C   UNL     1      45.674 130.474  16.900  1.00  0.00    -0.016 A 
ATOM      6  C   UNL     1      43.683 131.779  16.422  1.00  0.00     0.036 A 
ATOM      7  C   UNL     1      44.743 130.968  16.047  1.00  0.00     0.000 A 
ATOM      8  C   UNL     1      46.619 129.691  16.097  1.00  0.00     0.009 C 
ATOM      9  C   UNL     1      42.807 132.209  15.388  1.00  0.00     0.049 A 
ATOM     10  C   UNL     1      45.000 130.572  14.776  1.00  0.00    -0.017 A 
ATOM     11  C   UNL     1      46.212 129.749  14.819  1.00  0.00     0.009 C 
ATOM     12  C   UNL     1      43.066 131.796  14.044  1.00  0.00     0.011 A 
ATOM     13  C   UNL     1      44.171 130.973  13.733  1.00  0.00     0.009 A 
BRANCH   3  14
ATOM     14  C   UNL     1      44.546 132.023  20.135  1.00  0.00     0.172 C 
BRANCH  14  15
ATOM     15  O   UNL     1      45.420 133.035  20.521  1.00  0.00    -0.506 OA
ATOM     16  H   UNL     1      45.275 133.554  21.379  1.00  0.00     0.293 HD
ENDBRANCH  14  15
BRANCH  14  17
ATOM     17  N   UNL     1      43.762 131.488  21.027  1.00  0.00    -0.151 NA
BRANCH  17  18
ATOM     18  N   UNL     1      42.802 132.198  21.767  1.00  0.00    -0.169 N 
ATOM     19  H   UNL     1      41.861 131.793  21.971  1.00  0.00     0.475 HD
ATOM     20  N   UNL     1      43.037 133.397  22.108  1.00  0.00    -0.151 NA
ENDBRANCH  17  18
ENDBRANCH  14  17
ENDBRANCH   3  14
BRANCH   9  21
ATOM     21  N   UNL     1      41.682 133.045  15.698  1.00  0.00    -0.060 NA
BRANCH  21  22
ATOM     22  N   UNL     1      40.820 133.330  14.866  1.00  0.00     0.005 N 
ATOM     23  N   UNL     1      39.957 133.612  14.036  1.00  0.00    -0.003 NA
ENDBRANCH  21  22
ENDBRANCH   9  21
ENDBRANCH   1   2
BRANCH   1  24
ATOM     24  C   UNL     1      42.640 134.256  18.526  1.00  0.00     0.331 C 
ATOM     25  O   UNL     1      43.659 134.890  18.136  1.00  0.00    -0.250 OA
BRANCH  24  26
ATOM     26  C   UNL     1      41.541 134.993  19.266  1.00  0.00     0.116 C 
ATOM     27  C   UNL     1      40.427 134.108  19.841  1.00  0.00     0.040 C 
ATOM     28  C   UNL     1      40.530 135.655  18.327  1.00  0.00     0.040 C 
ATOM     29  C   UNL     1      39.423 134.761  18.888  1.00  0.00     0.019 C 
BRANCH  26  30
ATOM     30  N   UNL     1      42.055 135.927  20.272  1.00  0.00    -0.316 NA
ATOM     31  H   UNL     1      41.244 136.379  20.752  1.00  0.00     0.119 HD
ATOM     32  H   UNL     1      42.587 135.390  20.995  1.00  0.00     0.119 HD
ENDBRANCH  26  30
BRANCH  29  33
ATOM     33  C   UNL     1      38.833 133.797  17.846  1.00  0.00     0.159 C 
BRANCH  33  34
ATOM     34  O   UNL     1      37.620 133.267  18.307  1.00  0.00    -0.396 OA
ATOM     35  H   UNL     1      36.902 133.867  17.976  1.00  0.00     0.210 HD
ENDBRANCH  33  34
ENDBRANCH  29  33
ENDBRANCH  24  26
ENDBRANCH   1  24
TORSDOF 12
ENDMDL
MODEL 7
REMARK VINA RESULT:      -6.5      1.773      2.001
REMARK SMILES [N-]=[N+]=Nc1ccc2c3c(cc(/C(O)=N\[NH+]=[N-])c(OC(=O)[C@]4(N)C[C@H](CO)C4)c13)C=C2
REMARK SMILES IDX 18 1 17 2 11 3 10 4 9 5 28 6 8 7 29 8 4 9 7 10 30 11 5 12
REMARK SMILES IDX 6 13 12 14 13 15 14 17 15 18 16 20 3 21 2 22 1 23 19 24
REMARK SMILES IDX 20 25 21 26 27 27 23 28 24 29 22 30 25 33 26 34
REMARK H PARENT 13 16 15 19 22 31 22 32 26 35
ROOT
ATOM      1  O   UNL     1      43.405 133.396  16.805  1.00  0.00    -0.424 OA
ENDROOT
BRANCH   1   2
ATOM      2  C   UNL     1      44.083 132.672  17.792  1.00  0.00     0.150 A 
ATOM      3  C   UNL     1      44.979 131.611  17.439  1.00  0.00     0.062 A 
ATOM      4  C   UNL     1      45.668 130.890  18.447  1.00  0.00     0.024 A 
ATOM      5  C   UNL     1      45.455 131.248  19.775  1.00  0.00    -0.016 A 
ATOM      6  C   UNL     1      43.874 132.984  19.161  1.00  0.00     0.036 A 
ATOM      7  C   UNL     1      44.591 132.245  20.088  1.00  0.00     0.000 A 
ATOM      8  C   UNL     1      45.978 130.719  21.039  1.00  0.00     0.009 C 
ATOM      9  C   UNL     1      43.009 133.990  19.674  1.00  0.00     0.049 A 
ATOM     10  C   UNL     1      44.515 132.407  21.432  1.00  0.00    -0.017 A 
ATOM     11  C   UNL     1      45.413 131.420  22.037  1.00  0.00     0.009 C 
ATOM     12  C   UNL     1      42.921 134.173  21.090  1.00  0.00     0.011 A 
ATOM     13  C   UNL     1      43.678 133.376  21.977  1.00  0.00     0.009 A 
BRANCH   3  14
ATOM     14  C   UNL     1      45.101 131.170  16.033  1.00  0.00     0.172 C 
BRANCH  14  15
ATOM     15  O   UNL     1      45.433 132.120  15.071  1.00  0.00    -0.506 OA
ATOM     16  H   UNL     1      44.815 132.895  14.863  1.00  0.00     0.293 HD
ENDBRANCH  14  15
BRANCH  14  17
ATOM     17  N   UNL     1      44.901 129.937  15.664  1.00  0.00    -0.151 NA
BRANCH  17  18
ATOM     18  N   UNL     1      45.912 129.069  15.218  1.00  0.00    -0.169 N 
ATOM     19  H   UNL     1      46.225 128.255  15.793  1.00  0.00     0.475 HD
ATOM     20  N   UNL     1      46.533 129.332  14.144  1.00  0.00    -0.151 NA
ENDBRANCH  17  18
ENDBRANCH  14  17
ENDBRANCH   3  14
BRANCH   9  21
ATOM     21  N   UNL     1      42.237 134.803  18.777  1.00  0.00    -0.060 NA
BRANCH  21  22
ATOM     22  N   UNL     1      41.287 135.489  19.157  1.00  0.00     0.005 N 
ATOM     23  N   UNL     1      40.337 136.172  19.535  1.00  0.00    -0.003 NA
ENDBRANCH  21  22
ENDBRANCH   9  21
ENDBRANCH   1   2
BRANCH   1  24
ATOM     24  C   UNL     1      42.188 132.985  16.246  1.00  0.00     0.331 C 
ATOM     25  O   UNL     1      41.501 132.089  16.810  1.00  0.00    -0.250 OA
BRANCH  24  26
ATOM     26  C   UNL     1      41.672 133.632  14.976  1.00  0.00     0.116 C 
ATOM     27  C   UNL     1      42.507 134.807  14.449  1.00  0.00     0.040 C 
ATOM     28  C   UNL     1      40.496 134.580  15.224  1.00  0.00     0.040 C 
ATOM     29  C   UNL     1      41.335 135.754  14.715  1.00  0.00     0.019 C 
BRANCH  26  30
ATOM     30  N   UNL     1      41.383 132.661  13.914  1.00  0.00    -0.316 NA
ATOM     31  H   UNL     1      40.740 133.107  13.222  1.00  0.00     0.119 HD
ATOM     32  H   UNL     1      42.273 132.432  13.413  1.00  0.00     0.119 HD
ENDBRANCH  26  30
BRANCH  29  33
ATOM     33  C   UNL     1      41.620 136.811  15.794  1.00  0.00     0.159 C 
BRANCH  33  34
ATOM     34  O   UNL     1      41.248 138.082  15.338  1.00  0.00    -0.396 OA
ATOM     35  H   UNL     1      41.288 138.053  14.346  1.00  0.00     0.210 HD
ENDBRANCH  33  34
ENDBRANCH  29  33
ENDBRANCH  24  26
ENDBRANCH   1  24
TORSDOF 12
ENDMDL
MODEL 8
REMARK VINA RESULT:      -6.5      1.423      1.757
REMARK SMILES [N-]=[N+]=Nc1ccc2c3c(cc(/C(O)=N\[NH+]=[N-])c(OC(=O)[C@]4(N)C[C@H](CO)C4)c13)C=C2
REMARK SMILES IDX 18 1 17 2 11 3 10 4 9 5 28 6 8 7 29 8 4 9 7 10 30 11 5 12
REMARK SMILES IDX 6 13 12 14 13 15 14 17 15 18 16 20 3 21 2 22 1 23 19 24
REMARK SMILES IDX 20 25 21 26 27 27 23 28 24 29 22 30 25 33 26 34
REMARK H PARENT 13 16 15 19 22 31 22 32 26 35
ROOT
ATOM      1  O   UNL     1      42.320 131.887  16.270  1.00  0.00    -0.424 OA
ENDROOT
BRANCH   1   2
ATOM      2  C   UNL     1      43.316 131.664  17.226  1.00  0.00     0.150 A 
ATOM      3  C   UNL     1      44.546 131.021  16.868  1.00  0.00     0.062 A 
ATOM      4  C   UNL     1      45.553 130.807  17.844  1.00  0.00     0.024 A 
ATOM      5  C   UNL     1      45.314 131.245  19.143  1.00  0.00    -0.016 A 
ATOM      6  C   UNL     1      43.103 132.068  18.570  1.00  0.00     0.036 A 
ATOM      7  C   UNL     1      44.138 131.837  19.463  1.00  0.00     0.000 A 
ATOM      8  C   UNL     1      46.110 131.177  20.373  1.00  0.00     0.009 C 
ATOM      9  C   UNL     1      41.938 132.698  19.087  1.00  0.00     0.049 A 
ATOM     10  C   UNL     1      44.107 132.158  20.781  1.00  0.00    -0.017 A 
ATOM     11  C   UNL     1      45.383 131.729  21.359  1.00  0.00     0.009 C 
ATOM     12  C   UNL     1      41.893 133.043  20.474  1.00  0.00     0.011 A 
ATOM     13  C   UNL     1      42.984 132.771  21.329  1.00  0.00     0.009 A 
BRANCH   3  14
ATOM     14  C   UNL     1      44.731 130.459  15.513  1.00  0.00     0.172 C 
BRANCH  14  15
ATOM     15  O   UNL     1      44.430 131.265  14.419  1.00  0.00    -0.506 OA
ATOM     16  H   UNL     1      44.888 131.130  13.525  1.00  0.00     0.293 HD
ENDBRANCH  14  15
BRANCH  14  17
ATOM     17  N   UNL     1      45.154 129.244  15.308  1.00  0.00    -0.151 NA
BRANCH  17  18
ATOM     18  N   UNL     1      46.376 128.923  14.693  1.00  0.00    -0.169 N 
ATOM     19  H   UNL     1      46.567 127.963  14.327  1.00  0.00     0.475 HD
ATOM     20  N   UNL     1      47.309 129.781  14.672  1.00  0.00    -0.151 NA
ENDBRANCH  17  18
ENDBRANCH  14  17
ENDBRANCH   3  14
BRANCH   9  21
ATOM     21  N   UNL     1      40.827 132.976  18.222  1.00  0.00    -0.060 NA
BRANCH  21  22
ATOM     22  N   UNL     1      39.872 133.672  18.574  1.00  0.00     0.005 N 
ATOM     23  N   UNL     1      38.922 134.368  18.927  1.00  0.00    -0.003 NA
ENDBRANCH  21  22
ENDBRANCH   9  21
ENDBRANCH   1   2
BRANCH   1  24
ATOM     24  C   UNL     1      42.432 132.835  15.244  1.00  0.00     0.331 C 
ATOM     25  O   UNL     1      41.940 132.600  14.106  1.00  0.00    -0.250 OA
BRANCH  24  26
ATOM     26  C   UNL     1      43.119 134.162  15.500  1.00  0.00     0.116 C 
ATOM     27  C   UNL     1      42.418 135.082  16.510  1.00  0.00     0.040 C 
ATOM     28  C   UNL     1      42.867 135.188  14.392  1.00  0.00     0.040 C 
ATOM     29  C   UNL     1      42.154 136.096  15.395  1.00  0.00     0.019 C 
BRANCH  26  30
ATOM     30  N   UNL     1      44.546 134.019  15.806  1.00  0.00    -0.316 NA
ATOM     31  H   UNL     1      44.644 133.721  16.803  1.00  0.00     0.119 HD
ATOM     32  H   UNL     1      44.947 133.258  15.210  1.00  0.00     0.119 HD
ENDBRANCH  26  30
BRANCH  29  33
ATOM     33  C   UNL     1      40.663 136.301  15.078  1.00  0.00     0.159 C 
BRANCH  33  34
ATOM     34  O   UNL     1      40.510 137.246  14.056  1.00  0.00    -0.396 OA
ATOM     35  H   UNL     1      40.074 136.778  13.296  1.00  0.00     0.210 HD
ENDBRANCH  33  34
ENDBRANCH  29  33
ENDBRANCH  24  26
ENDBRANCH   1  24
TORSDOF 12
ENDMDL
MODEL 9
REMARK VINA RESULT:      -6.4      2.967      4.935
REMARK SMILES [N-]=[N+]=Nc1ccc2c3c(cc(/C(O)=N\[NH+]=[N-])c(OC(=O)[C@]4(N)C[C@H](CO)C4)c13)C=C2
REMARK SMILES IDX 18 1 17 2 11 3 10 4 9 5 28 6 8 7 29 8 4 9 7 10 30 11 5 12
REMARK SMILES IDX 6 13 12 14 13 15 14 17 15 18 16 20 3 21 2 22 1 23 19 24
REMARK SMILES IDX 20 25 21 26 27 27 23 28 24 29 22 30 25 33 26 34
REMARK H PARENT 13 16 15 19 22 31 22 32 26 35
ROOT
ATOM      1  O   UNL     1      42.278 133.194  17.588  1.00  0.00    -0.424 OA
ENDROOT
BRANCH   1   2
ATOM      2  C   UNL     1      43.387 132.377  17.342  1.00  0.00     0.150 A 
ATOM      3  C   UNL     1      44.304 132.049  18.393  1.00  0.00     0.062 A 
ATOM      4  C   UNL     1      45.421 131.213  18.134  1.00  0.00     0.024 A 
ATOM      5  C   UNL     1      45.589 130.720  16.843  1.00  0.00    -0.016 A 
ATOM      6  C   UNL     1      43.613 131.876  16.033  1.00  0.00     0.036 A 
ATOM      7  C   UNL     1      44.717 131.056  15.861  1.00  0.00     0.000 A 
ATOM      8  C   UNL     1      46.612 129.863  16.236  1.00  0.00     0.009 C 
ATOM      9  C   UNL     1      42.812 132.123  14.885  1.00  0.00     0.049 A 
ATOM     10  C   UNL     1      45.084 130.491  14.683  1.00  0.00    -0.017 A 
ATOM     11  C   UNL     1      46.306 129.723  14.936  1.00  0.00     0.009 C 
ATOM     12  C   UNL     1      43.186 131.531  13.638  1.00  0.00     0.011 A 
ATOM     13  C   UNL     1      44.331 130.710  13.533  1.00  0.00     0.009 A 
BRANCH   3  14
ATOM     14  C   UNL     1      44.173 132.677  19.725  1.00  0.00     0.172 C 
BRANCH  14  15
ATOM     15  O   UNL     1      43.450 132.002  20.704  1.00  0.00    -0.506 OA
ATOM     16  H   UNL     1      43.047 132.494  21.492  1.00  0.00     0.293 HD
ENDBRANCH  14  15
BRANCH  14  17
ATOM     17  N   UNL     1      44.698 133.834  20.011  1.00  0.00    -0.151 NA
BRANCH  17  18
ATOM     18  N   UNL     1      45.458 134.098  21.162  1.00  0.00    -0.169 N 
ATOM     19  H   UNL     1      45.417 135.023  21.644  1.00  0.00     0.475 HD
ATOM     20  N   UNL     1      46.293 133.234  21.571  1.00  0.00    -0.151 NA
ENDBRANCH  17  18
ENDBRANCH  14  17
ENDBRANCH   3  14
BRANCH   9  21
ATOM     21  N   UNL     1      41.648 132.957  14.984  1.00  0.00    -0.060 NA
BRANCH  21  22
ATOM     22  N   UNL     1      41.300 133.719  14.081  1.00  0.00     0.005 N 
ATOM     23  N   UNL     1      40.955 134.478  13.178  1.00  0.00    -0.003 NA
ENDBRANCH  21  22
ENDBRANCH   9  21
ENDBRANCH   1   2
BRANCH   1  24
ATOM     24  C   UNL     1      41.016 132.698  17.941  1.00  0.00     0.331 C 
ATOM     25  O   UNL     1      40.843 131.458  18.097  1.00  0.00    -0.250 OA
BRANCH  24  26
ATOM     26  C   UNL     1      39.856 133.646  18.168  1.00  0.00     0.116 C 
ATOM     27  C   UNL     1      40.012 135.039  17.541  1.00  0.00     0.040 C 
ATOM     28  C   UNL     1      39.863 134.275  19.563  1.00  0.00     0.040 C 
ATOM     29  C   UNL     1      40.036 135.661  18.939  1.00  0.00     0.019 C 
BRANCH  26  30
ATOM     30  N   UNL     1      38.557 133.053  17.836  1.00  0.00    -0.316 NA
ATOM     31  H   UNL     1      38.697 132.037  17.632  1.00  0.00     0.119 HD
ATOM     32  H   UNL     1      37.928 133.121  18.670  1.00  0.00     0.119 HD
ENDBRANCH  26  30
BRANCH  29  33
ATOM     33  C   UNL     1      41.371 136.329  19.302  1.00  0.00     0.159 C 
BRANCH  33  34
ATOM     34  O   UNL     1      41.144 137.582  19.887  1.00  0.00    -0.396 OA
ATOM     35  H   UNL     1      41.227 137.458  20.869  1.00  0.00     0.210 HD
ENDBRANCH  33  34
ENDBRANCH  29  33
ENDBRANCH  24  26
ENDBRANCH   1  24
TORSDOF 12
ENDMDL


