MODEL 1
REMARK VINA RESULT:      -7.9      0.000      0.000
REMARK SMILES Cc1n[nH+]n(/C=C(/O)Nc2cccc(C#N)c2C)c1-c1cc2ccccc2c2ccccc12
REMARK SMILES IDX 7 1 8 2 6 4 5 5 19 6 4 7 2 8 3 9 1 11 20 12 21 13 33 14
REMARK SMILES IDX 22 15 32 16 28 17 23 18 27 19 31 20 29 21 24 22 26 23 30 24
REMARK SMILES IDX 25 25 9 26 10 28 11 29 17 30 12 31 14 32 13 33 18 34 15 35
REMARK SMILES IDX 16 36
REMARK H PARENT 8 3 4 10 9 27
ROOT
ATOM      1  C   UNL     1      42.680 133.118  15.170  1.00  0.00     0.211 C 
ENDROOT
BRANCH   1   2
ATOM      2  O   UNL     1      41.497 132.636  15.731  1.00  0.00    -0.493 OA
ATOM      3  H   UNL     1      41.118 131.727  15.488  1.00  0.00     0.295 HD
ENDBRANCH   1   2
BRANCH   1   4
ATOM      4  C   UNL     1      42.983 134.421  15.272  1.00  0.00     0.225 C 
BRANCH   4   5
ATOM      5  N   UNL     1      42.143 135.374  15.946  1.00  0.00    -0.098 N 
ATOM      6  C   UNL     1      42.163 135.750  17.244  1.00  0.00     0.142 A 
ATOM      7  N   UNL     1      41.062 135.905  15.398  1.00  0.00    -0.012 N 
ATOM      8  C   UNL     1      41.046 136.547  17.441  1.00  0.00     0.137 A 
ATOM      9  N   UNL     1      40.371 136.618  16.275  1.00  0.00     0.020 NA
ATOM     10  H   UNL     1      40.765 135.755  14.408  1.00  0.00     0.527 HD
ATOM     11  C   UNL     1      40.504 137.040  18.743  1.00  0.00     0.076 C 
BRANCH   6  12
ATOM     12  C   UNL     1      43.051 135.201  18.297  1.00  0.00     0.015 A 
ATOM     13  C   UNL     1      42.894 133.860  18.643  1.00  0.00     0.020 A 
ATOM     14  C   UNL     1      44.050 135.980  18.930  1.00  0.00    -0.008 A 
ATOM     15  C   UNL     1      43.701 133.265  19.613  1.00  0.00    -0.017 A 
ATOM     16  C   UNL     1      44.263 137.325  18.552  1.00  0.00     0.009 A 
ATOM     17  C   UNL     1      44.891 135.392  19.924  1.00  0.00    -0.010 A 
ATOM     18  C   UNL     1      43.511 131.907  19.921  1.00  0.00     0.009 A 
ATOM     19  C   UNL     1      44.708 134.019  20.276  1.00  0.00    -0.010 A 
ATOM     20  C   UNL     1      45.263 138.085  19.148  1.00  0.00     0.001 A 
ATOM     21  C   UNL     1      45.903 136.196  20.507  1.00  0.00     0.009 A 
ATOM     22  C   UNL     1      44.306 131.283  20.878  1.00  0.00     0.001 A 
ATOM     23  C   UNL     1      45.497 133.355  21.249  1.00  0.00     0.009 A 
ATOM     24  C   UNL     1      46.080 137.523  20.119  1.00  0.00     0.001 A 
ATOM     25  C   UNL     1      45.293 132.005  21.540  1.00  0.00     0.001 A 
ENDBRANCH   6  12
ENDBRANCH   4   5
ENDBRANCH   1   4
BRANCH   1  26
ATOM     26  N   UNL     1      43.531 132.211  14.453  1.00  0.00    -0.325 N 
ATOM     27  H   UNL     1      43.441 132.175  13.414  1.00  0.00     0.170 HD
BRANCH  26  28
ATOM     28  C   UNL     1      44.537 131.403  15.095  1.00  0.00     0.045 A 
ATOM     29  C   UNL     1      44.620 131.368  16.499  1.00  0.00     0.026 A 
ATOM     30  C   UNL     1      45.521 130.728  14.324  1.00  0.00    -0.010 A 
ATOM     31  C   UNL     1      45.675 130.717  17.135  1.00  0.00     0.004 A 
ATOM     32  C   UNL     1      46.609 130.105  14.986  1.00  0.00     0.057 A 
ATOM     33  C   UNL     1      46.671 130.101  16.383  1.00  0.00     0.020 A 
ATOM     34  C   UNL     1      45.421 130.712  12.815  1.00  0.00     0.048 C 
BRANCH  32  35
ATOM     35  C   UNL     1      47.688 129.483  14.256  1.00  0.00     0.099 C 
ATOM     36  N   UNL     1      48.552 128.982  13.671  1.00  0.00    -0.192 NA
ENDBRANCH  32  35
ENDBRANCH  26  28
ENDBRANCH   1  26
TORSDOF 7
ENDMDL
MODEL 2
REMARK VINA RESULT:      -7.8      2.417      5.928
REMARK SMILES Cc1n[nH+]n(/C=C(/O)Nc2cccc(C#N)c2C)c1-c1cc2ccccc2c2ccccc12
REMARK SMILES IDX 7 1 8 2 6 4 5 5 19 6 4 7 2 8 3 9 1 11 20 12 21 13 33 14
REMARK SMILES IDX 22 15 32 16 28 17 23 18 27 19 31 20 29 21 24 22 26 23 30 24
REMARK SMILES IDX 25 25 9 26 10 28 11 29 17 30 12 31 14 32 13 33 18 34 15 35
REMARK SMILES IDX 16 36
REMARK H PARENT 8 3 4 10 9 27
ROOT
ATOM      1  C   UNL     1      43.827 132.204  15.048  1.00  0.00     0.211 C 
ENDROOT
BRANCH   1   2
ATOM      2  O   UNL     1      44.268 131.181  14.207  1.00  0.00    -0.493 OA
ATOM      3  H   UNL     1      44.045 130.208  14.381  1.00  0.00     0.295 HD
ENDBRANCH   1   2
BRANCH   1   4
ATOM      4  C   UNL     1      44.582 132.581  16.092  1.00  0.00     0.225 C 
BRANCH   4   5
ATOM      5  N   UNL     1      44.462 131.998  17.400  1.00  0.00    -0.098 N 
ATOM      6  C   UNL     1      43.553 132.265  18.365  1.00  0.00     0.142 A 
ATOM      7  N   UNL     1      45.382 131.211  17.934  1.00  0.00    -0.012 N 
ATOM      8  C   UNL     1      43.969 131.584  19.498  1.00  0.00     0.137 A 
ATOM      9  N   UNL     1      45.120 130.944  19.204  1.00  0.00     0.020 NA
ATOM     10  H   UNL     1      46.233 130.870  17.432  1.00  0.00     0.527 HD
ATOM     11  C   UNL     1      43.425 131.716  20.884  1.00  0.00     0.076 C 
BRANCH   6  12
ATOM     12  C   UNL     1      42.482 133.288  18.294  1.00  0.00     0.015 A 
ATOM     13  C   UNL     1      41.181 132.849  18.056  1.00  0.00     0.020 A 
ATOM     14  C   UNL     1      42.738 134.668  18.482  1.00  0.00    -0.008 A 
ATOM     15  C   UNL     1      40.116 133.748  17.990  1.00  0.00    -0.017 A 
ATOM     16  C   UNL     1      44.040 135.127  18.780  1.00  0.00     0.009 A 
ATOM     17  C   UNL     1      41.663 135.608  18.422  1.00  0.00    -0.010 A 
ATOM     18  C   UNL     1      38.820 133.257  17.757  1.00  0.00     0.009 A 
ATOM     19  C   UNL     1      40.337 135.142  18.164  1.00  0.00    -0.010 A 
ATOM     20  C   UNL     1      44.291 136.477  18.997  1.00  0.00     0.001 A 
ATOM     21  C   UNL     1      41.955 136.976  18.652  1.00  0.00     0.009 A 
ATOM     22  C   UNL     1      37.737 134.129  17.694  1.00  0.00     0.001 A 
ATOM     23  C   UNL     1      39.213 136.003  18.089  1.00  0.00     0.009 A 
ATOM     24  C   UNL     1      43.254 137.396  18.935  1.00  0.00     0.001 A 
ATOM     25  C   UNL     1      37.933 135.495  17.858  1.00  0.00     0.001 A 
ENDBRANCH   6  12
ENDBRANCH   4   5
ENDBRANCH   1   4
BRANCH   1  26
ATOM     26  N   UNL     1      42.547 132.804  14.802  1.00  0.00    -0.325 N 
ATOM     27  H   UNL     1      41.723 132.172  14.700  1.00  0.00     0.170 HD
BRANCH  26  28
ATOM     28  C   UNL     1      42.343 134.230  14.751  1.00  0.00     0.045 A 
ATOM     29  C   UNL     1      43.415 135.102  15.015  1.00  0.00     0.026 A 
ATOM     30  C   UNL     1      41.045 134.767  14.548  1.00  0.00    -0.010 A 
ATOM     31  C   UNL     1      43.206 136.476  15.121  1.00  0.00     0.004 A 
ATOM     32  C   UNL     1      40.843 136.162  14.699  1.00  0.00     0.057 A 
ATOM     33  C   UNL     1      41.926 137.002  14.977  1.00  0.00     0.020 A 
ATOM     34  C   UNL     1      39.889 133.850  14.213  1.00  0.00     0.048 C 
BRANCH  32  35
ATOM     35  C   UNL     1      39.531 136.757  14.596  1.00  0.00     0.099 C 
ATOM     36  N   UNL     1      38.480 137.233  14.511  1.00  0.00    -0.192 NA
ENDBRANCH  32  35
ENDBRANCH  26  28
ENDBRANCH   1  26
TORSDOF 7
ENDMDL
MODEL 3
REMARK VINA RESULT:      -7.7      2.805      6.577
REMARK SMILES Cc1n[nH+]n(/C=C(/O)Nc2cccc(C#N)c2C)c1-c1cc2ccccc2c2ccccc12
REMARK SMILES IDX 7 1 8 2 6 4 5 5 19 6 4 7 2 8 3 9 1 11 20 12 21 13 33 14
REMARK SMILES IDX 22 15 32 16 28 17 23 18 27 19 31 20 29 21 24 22 26 23 30 24
REMARK SMILES IDX 25 25 9 26 10 28 11 29 17 30 12 31 14 32 13 33 18 34 15 35
REMARK SMILES IDX 16 36
REMARK H PARENT 8 3 4 10 9 27
ROOT
ATOM      1  C   UNL     1      42.083 133.253  14.119  1.00  0.00     0.211 C 
ENDROOT
BRANCH   1   2
ATOM      2  O   UNL     1      41.823 131.917  13.809  1.00  0.00    -0.493 OA
ATOM      3  H   UNL     1      42.313 131.155  14.264  1.00  0.00     0.295 HD
ENDBRANCH   1   2
BRANCH   1   4
ATOM      4  C   UNL     1      43.095 133.561  14.945  1.00  0.00     0.225 C 
BRANCH   4   5
ATOM      5  N   UNL     1      43.408 132.799  16.123  1.00  0.00    -0.098 N 
ATOM      6  C   UNL     1      42.806 132.826  17.333  1.00  0.00     0.142 A 
ATOM      7  N   UNL     1      44.500 132.061  16.243  1.00  0.00    -0.012 N 
ATOM      8  C   UNL     1      43.586 132.053  18.180  1.00  0.00     0.137 A 
ATOM      9  N   UNL     1      44.643 131.598  17.476  1.00  0.00     0.020 NA
ATOM     10  H   UNL     1      45.188 131.892  15.475  1.00  0.00     0.527 HD
ATOM     11  C   UNL     1      43.466 131.935  19.664  1.00  0.00     0.076 C 
BRANCH   6  12
ATOM     12  C   UNL     1      41.690 133.717  17.731  1.00  0.00     0.015 A 
ATOM     13  C   UNL     1      40.408 133.171  17.774  1.00  0.00     0.020 A 
ATOM     14  C   UNL     1      41.891 135.074  18.085  1.00  0.00    -0.008 A 
ATOM     15  C   UNL     1      39.308 133.940  18.152  1.00  0.00    -0.017 A 
ATOM     16  C   UNL     1      43.189 135.630  18.103  1.00  0.00     0.009 A 
ATOM     17  C   UNL     1      40.779 135.881  18.479  1.00  0.00    -0.010 A 
ATOM     18  C   UNL     1      38.036 133.343  18.189  1.00  0.00     0.009 A 
ATOM     19  C   UNL     1      39.470 135.308  18.505  1.00  0.00    -0.010 A 
ATOM     20  C   UNL     1      43.396 136.952  18.480  1.00  0.00     0.001 A 
ATOM     21  C   UNL     1      41.028 137.223  18.861  1.00  0.00     0.009 A 
ATOM     22  C   UNL     1      36.920 134.082  18.571  1.00  0.00     0.001 A 
ATOM     23  C   UNL     1      38.313 136.034  18.884  1.00  0.00     0.009 A 
ATOM     24  C   UNL     1      42.321 137.744  18.858  1.00  0.00     0.001 A 
ATOM     25  C   UNL     1      37.058 135.422  18.915  1.00  0.00     0.001 A 
ENDBRANCH   6  12
ENDBRANCH   4   5
ENDBRANCH   1   4
BRANCH   1  26
ATOM     26  N   UNL     1      41.230 134.273  13.578  1.00  0.00    -0.325 N 
ATOM     27  H   UNL     1      41.473 134.666  12.642  1.00  0.00     0.170 HD
BRANCH  26  28
ATOM     28  C   UNL     1      40.031 134.727  14.236  1.00  0.00     0.045 A 
ATOM     29  C   UNL     1      38.870 133.932  14.208  1.00  0.00     0.026 A 
ATOM     30  C   UNL     1      39.972 136.021  14.817  1.00  0.00    -0.010 A 
ATOM     31  C   UNL     1      37.662 134.417  14.704  1.00  0.00     0.004 A 
ATOM     32  C   UNL     1      38.726 136.515  15.280  1.00  0.00     0.057 A 
ATOM     33  C   UNL     1      37.587 135.705  15.225  1.00  0.00     0.020 A 
ATOM     34  C   UNL     1      41.221 136.871  14.901  1.00  0.00     0.048 C 
BRANCH  32  35
ATOM     35  C   UNL     1      38.584 137.855  15.796  1.00  0.00     0.099 C 
ATOM     36  N   UNL     1      38.471 138.930  16.211  1.00  0.00    -0.192 NA
ENDBRANCH  32  35
ENDBRANCH  26  28
ENDBRANCH   1  26
TORSDOF 7
ENDMDL
MODEL 4
REMARK VINA RESULT:      -7.6      1.260      3.258
REMARK SMILES Cc1n[nH+]n(/C=C(/O)Nc2cccc(C#N)c2C)c1-c1cc2ccccc2c2ccccc12
REMARK SMILES IDX 7 1 8 2 6 4 5 5 19 6 4 7 2 8 3 9 1 11 20 12 21 13 33 14
REMARK SMILES IDX 22 15 32 16 28 17 23 18 27 19 31 20 29 21 24 22 26 23 30 24
REMARK SMILES IDX 25 25 9 26 10 28 11 29 17 30 12 31 14 32 13 33 18 34 15 35
REMARK SMILES IDX 16 36
REMARK H PARENT 8 3 4 10 9 27
ROOT
ATOM      1  C   UNL     1      43.310 133.756  15.244  1.00  0.00     0.211 C 
ENDROOT
BRANCH   1   2
ATOM      2  O   UNL     1      44.518 134.360  15.594  1.00  0.00    -0.493 OA
ATOM      3  H   UNL     1      45.393 133.848  15.602  1.00  0.00     0.295 HD
ENDBRANCH   1   2
BRANCH   1   4
ATOM      4  C   UNL     1      42.226 134.514  15.018  1.00  0.00     0.225 C 
BRANCH   4   5
ATOM      5  N   UNL     1      41.164 134.673  15.973  1.00  0.00    -0.098 N 
ATOM      6  C   UNL     1      41.216 135.204  17.216  1.00  0.00     0.142 A 
ATOM      7  N   UNL     1      39.967 134.128  15.829  1.00  0.00    -0.012 N 
ATOM      8  C   UNL     1      39.983 134.962  17.801  1.00  0.00     0.137 A 
ATOM      9  N   UNL     1      39.227 134.278  16.916  1.00  0.00     0.020 NA
ATOM     10  H   UNL     1      39.652 133.608  14.978  1.00  0.00     0.527 HD
ATOM     11  C   UNL     1      39.604 135.164  19.232  1.00  0.00     0.076 C 
BRANCH   6  12
ATOM     12  C   UNL     1      42.433 135.704  17.899  1.00  0.00     0.015 A 
ATOM     13  C   UNL     1      42.840 137.009  17.625  1.00  0.00     0.020 A 
ATOM     14  C   UNL     1      43.164 134.916  18.821  1.00  0.00    -0.008 A 
ATOM     15  C   UNL     1      43.967 137.558  18.239  1.00  0.00    -0.017 A 
ATOM     16  C   UNL     1      42.734 133.612  19.155  1.00  0.00     0.009 A 
ATOM     17  C   UNL     1      44.319 135.457  19.465  1.00  0.00    -0.010 A 
ATOM     18  C   UNL     1      44.333 138.880  17.938  1.00  0.00     0.009 A 
ATOM     19  C   UNL     1      44.730 136.792  19.163  1.00  0.00    -0.010 A 
ATOM     20  C   UNL     1      43.430 132.846  20.083  1.00  0.00     0.001 A 
ATOM     21  C   UNL     1      45.001 134.649  20.410  1.00  0.00     0.009 A 
ATOM     22  C   UNL     1      45.447 139.458  18.541  1.00  0.00     0.001 A 
ATOM     23  C   UNL     1      45.861 137.409  19.755  1.00  0.00     0.009 A 
ATOM     24  C   UNL     1      44.556 133.362  20.708  1.00  0.00     0.001 A 
ATOM     25  C   UNL     1      46.208 138.725  19.444  1.00  0.00     0.001 A 
ENDBRANCH   6  12
ENDBRANCH   4   5
ENDBRANCH   1   4
BRANCH   1  26
ATOM     26  N   UNL     1      43.242 132.324  15.175  1.00  0.00    -0.325 N 
ATOM     27  H   UNL     1      42.411 131.897  14.708  1.00  0.00     0.170 HD
BRANCH  26  28
ATOM     28  C   UNL     1      44.288 131.461  15.662  1.00  0.00     0.045 A 
ATOM     29  C   UNL     1      44.529 131.360  17.044  1.00  0.00     0.026 A 
ATOM     30  C   UNL     1      45.157 130.797  14.756  1.00  0.00    -0.010 A 
ATOM     31  C   UNL     1      45.628 130.655  17.527  1.00  0.00     0.004 A 
ATOM     32  C   UNL     1      46.294 130.117  15.262  1.00  0.00     0.057 A 
ATOM     33  C   UNL     1      46.513 130.047  16.641  1.00  0.00     0.020 A 
ATOM     34  C   UNL     1      44.887 130.852  13.269  1.00  0.00     0.048 C 
BRANCH  32  35
ATOM     35  C   UNL     1      47.263 129.502  14.387  1.00  0.00     0.099 C 
ATOM     36  N   UNL     1      48.040 129.010  13.684  1.00  0.00    -0.192 NA
ENDBRANCH  32  35
ENDBRANCH  26  28
ENDBRANCH   1  26
TORSDOF 7
ENDMDL
MODEL 5
REMARK VINA RESULT:      -7.6      1.054      1.212
REMARK SMILES Cc1n[nH+]n(/C=C(/O)Nc2cccc(C#N)c2C)c1-c1cc2ccccc2c2ccccc12
REMARK SMILES IDX 7 1 8 2 6 4 5 5 19 6 4 7 2 8 3 9 1 11 20 12 21 13 33 14
REMARK SMILES IDX 22 15 32 16 28 17 23 18 27 19 31 20 29 21 24 22 26 23 30 24
REMARK SMILES IDX 25 25 9 26 10 28 11 29 17 30 12 31 14 32 13 33 18 34 15 35
REMARK SMILES IDX 16 36
REMARK H PARENT 8 3 4 10 9 27
ROOT
ATOM      1  C   UNL     1      42.066 133.272  16.094  1.00  0.00     0.211 C 
ENDROOT
BRANCH   1   2
ATOM      2  O   UNL     1      40.742 133.004  16.444  1.00  0.00    -0.493 OA
ATOM      3  H   UNL     1      40.433 132.075  16.708  1.00  0.00     0.295 HD
ENDBRANCH   1   2
BRANCH   1   4
ATOM      4  C   UNL     1      42.614 134.454  16.418  1.00  0.00     0.225 C 
BRANCH   4   5
ATOM      5  N   UNL     1      41.957 135.424  17.251  1.00  0.00    -0.098 N 
ATOM      6  C   UNL     1      42.123 135.655  18.573  1.00  0.00     0.142 A 
ATOM      7  N   UNL     1      40.916 136.137  16.855  1.00  0.00    -0.012 N 
ATOM      8  C   UNL     1      41.137 136.556  18.943  1.00  0.00     0.137 A 
ATOM      9  N   UNL     1      40.390 136.831  17.853  1.00  0.00     0.020 NA
ATOM     10  H   UNL     1      40.528 136.131  15.885  1.00  0.00     0.527 HD
ATOM     11  C   UNL     1      40.763 136.969  20.329  1.00  0.00     0.076 C 
BRANCH   6  12
ATOM     12  C   UNL     1      43.010 134.894  19.485  1.00  0.00     0.015 A 
ATOM     13  C   UNL     1      42.624 133.601  19.835  1.00  0.00     0.020 A 
ATOM     14  C   UNL     1      44.226 135.425  19.981  1.00  0.00    -0.008 A 
ATOM     15  C   UNL     1      43.411 132.815  20.677  1.00  0.00    -0.017 A 
ATOM     16  C   UNL     1      44.662 136.711  19.592  1.00  0.00     0.009 A 
ATOM     17  C   UNL     1      45.051 134.638  20.842  1.00  0.00    -0.010 A 
ATOM     18  C   UNL     1      42.985 131.514  20.994  1.00  0.00     0.009 A 
ATOM     19  C   UNL     1      44.633 133.319  21.201  1.00  0.00    -0.010 A 
ATOM     20  C   UNL     1      45.870 137.226  20.051  1.00  0.00     0.001 A 
ATOM     21  C   UNL     1      46.277 135.193  21.287  1.00  0.00     0.009 A 
ATOM     22  C   UNL     1      43.753 130.703  21.825  1.00  0.00     0.001 A 
ATOM     23  C   UNL     1      45.389 132.469  22.048  1.00  0.00     0.009 A 
ATOM     24  C   UNL     1      46.674 136.469  20.892  1.00  0.00     0.001 A 
ATOM     25  C   UNL     1      44.949 131.179  22.350  1.00  0.00     0.001 A 
ENDBRANCH   6  12
ENDBRANCH   4   5
ENDBRANCH   1   4
BRANCH   1  26
ATOM     26  N   UNL     1      42.804 132.289  15.354  1.00  0.00    -0.325 N 
ATOM     27  H   UNL     1      42.548 132.138  14.353  1.00  0.00     0.170 HD
BRANCH  26  28
ATOM     28  C   UNL     1      43.912 131.553  15.910  1.00  0.00     0.045 A 
ATOM     29  C   UNL     1      44.129 131.555  17.300  1.00  0.00     0.026 A 
ATOM     30  C   UNL     1      44.855 130.917  15.060  1.00  0.00    -0.010 A 
ATOM     31  C   UNL     1      45.276 130.980  17.842  1.00  0.00     0.004 A 
ATOM     32  C   UNL     1      46.036 130.372  15.625  1.00  0.00     0.057 A 
ATOM     33  C   UNL     1      46.230 130.403  17.009  1.00  0.00     0.020 A 
ATOM     34  C   UNL     1      44.613 130.861  13.568  1.00  0.00     0.048 C 
BRANCH  32  35
ATOM     35  C   UNL     1      47.074 129.795  14.805  1.00  0.00     0.099 C 
ATOM     36  N   UNL     1      47.908 129.334  14.147  1.00  0.00    -0.192 NA
ENDBRANCH  32  35
ENDBRANCH  26  28
ENDBRANCH   1  26
TORSDOF 7
ENDMDL
MODEL 6
REMARK VINA RESULT:      -7.5      2.512      7.209
REMARK SMILES Cc1n[nH+]n(/C=C(/O)Nc2cccc(C#N)c2C)c1-c1cc2ccccc2c2ccccc12
REMARK SMILES IDX 7 1 8 2 6 4 5 5 19 6 4 7 2 8 3 9 1 11 20 12 21 13 33 14
REMARK SMILES IDX 22 15 32 16 28 17 23 18 27 19 31 20 29 21 24 22 26 23 30 24
REMARK SMILES IDX 25 25 9 26 10 28 11 29 17 30 12 31 14 32 13 33 18 34 15 35
REMARK SMILES IDX 16 36
REMARK H PARENT 8 3 4 10 9 27
ROOT
ATOM      1  C   UNL     1      41.646 132.440  18.905  1.00  0.00     0.211 C 
ENDROOT
BRANCH   1   2
ATOM      2  O   UNL     1      41.156 131.551  17.948  1.00  0.00    -0.493 OA
ATOM      3  H   UNL     1      41.744 131.175  17.212  1.00  0.00     0.295 HD
ENDBRANCH   1   2
BRANCH   1   4
ATOM      4  C   UNL     1      42.941 132.395  19.256  1.00  0.00     0.225 C 
BRANCH   4   5
ATOM      5  N   UNL     1      44.001 132.148  18.317  1.00  0.00    -0.098 N 
ATOM      6  C   UNL     1      44.418 132.920  17.289  1.00  0.00     0.142 A 
ATOM      7  N   UNL     1      44.627 130.986  18.216  1.00  0.00    -0.012 N 
ATOM      8  C   UNL     1      45.338 132.166  16.577  1.00  0.00     0.137 A 
ATOM      9  N   UNL     1      45.440 130.959  17.171  1.00  0.00     0.020 NA
ATOM     10  H   UNL     1      44.476 130.174  18.856  1.00  0.00     0.527 HD
ATOM     11  C   UNL     1      45.932 132.486  15.243  1.00  0.00     0.076 C 
BRANCH   6  12
ATOM     12  C   UNL     1      43.814 134.205  16.864  1.00  0.00     0.015 A 
ATOM     13  C   UNL     1      44.246 135.367  17.503  1.00  0.00     0.020 A 
ATOM     14  C   UNL     1      42.848 134.286  15.832  1.00  0.00    -0.008 A 
ATOM     15  C   UNL     1      43.736 136.617  17.151  1.00  0.00    -0.017 A 
ATOM     16  C   UNL     1      42.440 133.127  15.134  1.00  0.00     0.009 A 
ATOM     17  C   UNL     1      42.314 135.555  15.451  1.00  0.00    -0.010 A 
ATOM     18  C   UNL     1      44.209 137.760  17.816  1.00  0.00     0.009 A 
ATOM     19  C   UNL     1      42.758 136.735  16.125  1.00  0.00    -0.010 A 
ATOM     20  C   UNL     1      41.515 133.204  14.098  1.00  0.00     0.001 A 
ATOM     21  C   UNL     1      41.376 135.597  14.388  1.00  0.00     0.009 A 
ATOM     22  C   UNL     1      43.726 139.022  17.482  1.00  0.00     0.001 A 
ATOM     23  C   UNL     1      42.283 138.033  15.812  1.00  0.00     0.009 A 
ATOM     24  C   UNL     1      40.988 134.433  13.727  1.00  0.00     0.001 A 
ATOM     25  C   UNL     1      42.766 139.157  16.485  1.00  0.00     0.001 A 
ENDBRANCH   6  12
ENDBRANCH   4   5
ENDBRANCH   1   4
BRANCH   1  26
ATOM     26  N   UNL     1      40.740 133.361  19.529  1.00  0.00    -0.325 N 
ATOM     27  H   UNL     1      40.141 133.006  20.307  1.00  0.00     0.170 HD
BRANCH  26  28
ATOM     28  C   UNL     1      40.665 134.756  19.174  1.00  0.00     0.045 A 
ATOM     29  C   UNL     1      41.307 135.720  19.973  1.00  0.00     0.026 A 
ATOM     30  C   UNL     1      39.855 135.182  18.088  1.00  0.00    -0.010 A 
ATOM     31  C   UNL     1      41.122 137.080  19.736  1.00  0.00     0.004 A 
ATOM     32  C   UNL     1      39.646 136.569  17.885  1.00  0.00     0.057 A 
ATOM     33  C   UNL     1      40.286 137.503  18.707  1.00  0.00     0.020 A 
ATOM     34  C   UNL     1      39.198 134.161  17.187  1.00  0.00     0.048 C 
BRANCH  32  35
ATOM     35  C   UNL     1      38.761 137.063  16.857  1.00  0.00     0.099 C 
ATOM     36  N   UNL     1      38.050 137.459  16.034  1.00  0.00    -0.192 NA
ENDBRANCH  32  35
ENDBRANCH  26  28
ENDBRANCH   1  26
TORSDOF 7
ENDMDL
MODEL 7
REMARK VINA RESULT:      -7.4      0.989      1.046
REMARK SMILES Cc1n[nH+]n(/C=C(/O)Nc2cccc(C#N)c2C)c1-c1cc2ccccc2c2ccccc12
REMARK SMILES IDX 7 1 8 2 6 4 5 5 19 6 4 7 2 8 3 9 1 11 20 12 21 13 33 14
REMARK SMILES IDX 22 15 32 16 28 17 23 18 27 19 31 20 29 21 24 22 26 23 30 24
REMARK SMILES IDX 25 25 9 26 10 28 11 29 17 30 12 31 14 32 13 33 18 34 15 35
REMARK SMILES IDX 16 36
REMARK H PARENT 8 3 4 10 9 27
ROOT
ATOM      1  C   UNL     1      43.026 133.307  15.408  1.00  0.00     0.211 C 
ENDROOT
BRANCH   1   2
ATOM      2  O   UNL     1      43.787 134.471  15.291  1.00  0.00    -0.493 OA
ATOM      3  H   UNL     1      43.479 135.260  14.734  1.00  0.00     0.295 HD
ENDBRANCH   1   2
BRANCH   1   4
ATOM      4  C   UNL     1      41.900 133.318  16.139  1.00  0.00     0.225 C 
BRANCH   4   5
ATOM      5  N   UNL     1      41.338 134.517  16.700  1.00  0.00    -0.098 N 
ATOM      6  C   UNL     1      41.593 135.091  17.897  1.00  0.00     0.142 A 
ATOM      7  N   UNL     1      40.307 135.154  16.168  1.00  0.00    -0.012 N 
ATOM      8  C   UNL     1      40.671 136.116  18.047  1.00  0.00     0.137 A 
ATOM      9  N   UNL     1      39.874 136.125  16.958  1.00  0.00     0.020 NA
ATOM     10  H   UNL     1      39.862 134.905  15.257  1.00  0.00     0.527 HD
ATOM     11  C   UNL     1      40.399 136.915  19.280  1.00  0.00     0.076 C 
BRANCH   6  12
ATOM     12  C   UNL     1      42.498 134.559  18.943  1.00  0.00     0.015 A 
ATOM     13  C   UNL     1      42.201 133.307  19.482  1.00  0.00     0.020 A 
ATOM     14  C   UNL     1      43.645 135.262  19.385  1.00  0.00    -0.008 A 
ATOM     15  C   UNL     1      43.012 132.731  20.460  1.00  0.00    -0.017 A 
ATOM     16  C   UNL     1      43.994 136.505  18.811  1.00  0.00     0.009 A 
ATOM     17  C   UNL     1      44.493 134.691  20.383  1.00  0.00    -0.010 A 
ATOM     18  C   UNL     1      42.677 131.464  20.965  1.00  0.00     0.009 A 
ATOM     19  C   UNL     1      44.166 133.412  20.933  1.00  0.00    -0.010 A 
ATOM     20  C   UNL     1      45.137 137.185  19.217  1.00  0.00     0.001 A 
ATOM     21  C   UNL     1      45.652 135.410  20.770  1.00  0.00     0.009 A 
ATOM     22  C   UNL     1      43.471 130.859  21.936  1.00  0.00     0.001 A 
ATOM     23  C   UNL     1      44.951 132.772  21.925  1.00  0.00     0.009 A 
ATOM     24  C   UNL     1      45.962 136.639  20.191  1.00  0.00     0.001 A 
ATOM     25  C   UNL     1      44.602 131.511  22.414  1.00  0.00     0.001 A 
ENDBRANCH   6  12
ENDBRANCH   4   5
ENDBRANCH   1   4
BRANCH   1  26
ATOM     26  N   UNL     1      43.490 132.105  14.777  1.00  0.00    -0.325 N 
ATOM     27  H   UNL     1      43.062 131.838  13.863  1.00  0.00     0.170 HD
BRANCH  26  28
ATOM     28  C   UNL     1      44.552 131.292  15.314  1.00  0.00     0.045 A 
ATOM     29  C   UNL     1      44.727 131.197  16.707  1.00  0.00     0.026 A 
ATOM     30  C   UNL     1      45.496 130.675  14.452  1.00  0.00    -0.010 A 
ATOM     31  C   UNL     1      45.834 130.544  17.243  1.00  0.00     0.004 A 
ATOM     32  C   UNL     1      46.638 130.049  15.013  1.00  0.00     0.057 A 
ATOM     33  C   UNL     1      46.791 129.984  16.402  1.00  0.00     0.020 A 
ATOM     34  C   UNL     1      45.298 130.723  12.953  1.00  0.00     0.048 C 
BRANCH  32  35
ATOM     35  C   UNL     1      47.679 129.485  14.187  1.00  0.00     0.099 C 
ATOM     36  N   UNL     1      48.515 129.032  13.527  1.00  0.00    -0.192 NA
ENDBRANCH  32  35
ENDBRANCH  26  28
ENDBRANCH   1  26
TORSDOF 7
ENDMDL
MODEL 8
REMARK VINA RESULT:      -7.4      2.751      6.482
REMARK SMILES Cc1n[nH+]n(/C=C(/O)Nc2cccc(C#N)c2C)c1-c1cc2ccccc2c2ccccc12
REMARK SMILES IDX 7 1 8 2 6 4 5 5 19 6 4 7 2 8 3 9 1 11 20 12 21 13 33 14
REMARK SMILES IDX 22 15 32 16 28 17 23 18 27 19 31 20 29 21 24 22 26 23 30 24
REMARK SMILES IDX 25 25 9 26 10 28 11 29 17 30 12 31 14 32 13 33 18 34 15 35
REMARK SMILES IDX 16 36
REMARK H PARENT 8 3 4 10 9 27
ROOT
ATOM      1  C   UNL     1      43.602 135.959  16.144  1.00  0.00     0.211 C 
ENDROOT
BRANCH   1   2
ATOM      2  O   UNL     1      44.728 135.309  15.634  1.00  0.00    -0.493 OA
ATOM      3  H   UNL     1      44.776 134.300  15.557  1.00  0.00     0.295 HD
ENDBRANCH   1   2
BRANCH   1   4
ATOM      4  C   UNL     1      43.235 135.754  17.419  1.00  0.00     0.225 C 
BRANCH   4   5
ATOM      5  N   UNL     1      42.113 134.937  17.792  1.00  0.00    -0.098 N 
ATOM      6  C   UNL     1      42.027 133.588  17.840  1.00  0.00     0.142 A 
ATOM      7  N   UNL     1      40.893 135.416  17.974  1.00  0.00    -0.012 N 
ATOM      8  C   UNL     1      40.695 133.286  18.077  1.00  0.00     0.137 A 
ATOM      9  N   UNL     1      40.007 134.445  18.144  1.00  0.00     0.020 NA
ATOM     10  H   UNL     1      40.645 136.431  17.951  1.00  0.00     0.527 HD
ATOM     11  C   UNL     1      40.046 131.942  18.011  1.00  0.00     0.076 C 
BRANCH   6  12
ATOM     12  C   UNL     1      43.092 132.633  17.453  1.00  0.00     0.015 A 
ATOM     13  C   UNL     1      43.212 132.308  16.103  1.00  0.00     0.020 A 
ATOM     14  C   UNL     1      43.988 132.072  18.396  1.00  0.00    -0.008 A 
ATOM     15  C   UNL     1      44.199 131.428  15.657  1.00  0.00    -0.017 A 
ATOM     16  C   UNL     1      43.919 132.433  19.760  1.00  0.00     0.009 A 
ATOM     17  C   UNL     1      45.009 131.172  17.963  1.00  0.00    -0.010 A 
ATOM     18  C   UNL     1      44.286 131.138  14.285  1.00  0.00     0.009 A 
ATOM     19  C   UNL     1      45.110 130.839  16.576  1.00  0.00    -0.010 A 
ATOM     20  C   UNL     1      44.816 131.911  20.685  1.00  0.00     0.001 A 
ATOM     21  C   UNL     1      45.909 130.662  18.932  1.00  0.00     0.009 A 
ATOM     22  C   UNL     1      45.265 130.271  13.808  1.00  0.00     0.001 A 
ATOM     23  C   UNL     1      46.091 129.957  16.059  1.00  0.00     0.009 A 
ATOM     24  C   UNL     1      45.807 131.031  20.272  1.00  0.00     0.001 A 
ATOM     25  C   UNL     1      46.163 129.682  14.692  1.00  0.00     0.001 A 
ENDBRANCH   6  12
ENDBRANCH   4   5
ENDBRANCH   1   4
BRANCH   1  26
ATOM     26  N   UNL     1      42.833 136.804  15.276  1.00  0.00    -0.325 N 
ATOM     27  H   UNL     1      43.238 137.727  15.009  1.00  0.00     0.170 HD
BRANCH  26  28
ATOM     28  C   UNL     1      41.565 136.409  14.715  1.00  0.00     0.045 A 
ATOM     29  C   UNL     1      41.362 135.078  14.307  1.00  0.00     0.026 A 
ATOM     30  C   UNL     1      40.556 137.375  14.461  1.00  0.00    -0.010 A 
ATOM     31  C   UNL     1      40.204 134.711  13.625  1.00  0.00     0.004 A 
ATOM     32  C   UNL     1      39.402 136.994  13.731  1.00  0.00     0.057 A 
ATOM     33  C   UNL     1      39.236 135.665  13.327  1.00  0.00     0.020 A 
ATOM     34  C   UNL     1      40.735 138.800  14.936  1.00  0.00     0.048 C 
BRANCH  32  35
ATOM     35  C   UNL     1      38.385 137.949  13.362  1.00  0.00     0.099 C 
ATOM     36  N   UNL     1      37.567 138.714  13.067  1.00  0.00    -0.192 NA
ENDBRANCH  32  35
ENDBRANCH  26  28
ENDBRANCH   1  26
TORSDOF 7
ENDMDL
MODEL 9
REMARK VINA RESULT:      -7.3      2.530      7.068
REMARK SMILES Cc1n[nH+]n(/C=C(/O)Nc2cccc(C#N)c2C)c1-c1cc2ccccc2c2ccccc12
REMARK SMILES IDX 7 1 8 2 6 4 5 5 19 6 4 7 2 8 3 9 1 11 20 12 21 13 33 14
REMARK SMILES IDX 22 15 32 16 28 17 23 18 27 19 31 20 29 21 24 22 26 23 30 24
REMARK SMILES IDX 25 25 9 26 10 28 11 29 17 30 12 31 14 32 13 33 18 34 15 35
REMARK SMILES IDX 16 36
REMARK H PARENT 8 3 4 10 9 27
ROOT
ATOM      1  C   UNL     1      41.617 132.311  18.935  1.00  0.00     0.211 C 
ENDROOT
BRANCH   1   2
ATOM      2  O   UNL     1      41.189 131.297  18.078  1.00  0.00    -0.493 OA
ATOM      3  H   UNL     1      41.779 130.934  17.338  1.00  0.00     0.295 HD
ENDBRANCH   1   2
BRANCH   1   4
ATOM      4  C   UNL     1      42.914 132.396  19.271  1.00  0.00     0.225 C 
BRANCH   4   5
ATOM      5  N   UNL     1      43.985 132.159  18.341  1.00  0.00    -0.098 N 
ATOM      6  C   UNL     1      44.246 132.786  17.173  1.00  0.00     0.142 A 
ATOM      7  N   UNL     1      44.797 131.117  18.419  1.00  0.00    -0.012 N 
ATOM      8  C   UNL     1      45.268 132.076  16.562  1.00  0.00     0.137 A 
ATOM      9  N   UNL     1      45.584 131.032  17.357  1.00  0.00     0.020 NA
ATOM     10  H   UNL     1      44.798 130.422  19.199  1.00  0.00     0.527 HD
ATOM     11  C   UNL     1      45.774 132.238  15.166  1.00  0.00     0.076 C 
BRANCH   6  12
ATOM     12  C   UNL     1      43.424 133.855  16.555  1.00  0.00     0.015 A 
ATOM     13  C   UNL     1      42.493 133.479  15.588  1.00  0.00     0.020 A 
ATOM     14  C   UNL     1      43.540 135.215  16.932  1.00  0.00    -0.008 A 
ATOM     15  C   UNL     1      41.672 134.423  14.970  1.00  0.00    -0.017 A 
ATOM     16  C   UNL     1      44.436 135.608  17.951  1.00  0.00     0.009 A 
ATOM     17  C   UNL     1      42.707 136.199  16.317  1.00  0.00    -0.010 A 
ATOM     18  C   UNL     1      40.743 133.995  14.008  1.00  0.00     0.009 A 
ATOM     19  C   UNL     1      41.767 135.799  15.317  1.00  0.00    -0.010 A 
ATOM     20  C   UNL     1      44.531 136.937  18.347  1.00  0.00     0.001 A 
ATOM     21  C   UNL     1      42.828 137.545  16.748  1.00  0.00     0.009 A 
ATOM     22  C   UNL     1      39.904 134.912  13.381  1.00  0.00     0.001 A 
ATOM     23  C   UNL     1      40.902 136.707  14.656  1.00  0.00     0.009 A 
ATOM     24  C   UNL     1      43.730 137.900  17.749  1.00  0.00     0.001 A 
ATOM     25  C   UNL     1      39.984 136.262  13.703  1.00  0.00     0.001 A 
ENDBRANCH   6  12
ENDBRANCH   4   5
ENDBRANCH   1   4
BRANCH   1  26
ATOM     26  N   UNL     1      40.649 133.221  19.477  1.00  0.00    -0.325 N 
ATOM     27  H   UNL     1      40.610 133.332  20.514  1.00  0.00     0.170 HD
BRANCH  26  28
ATOM     28  C   UNL     1      39.780 134.027  18.656  1.00  0.00     0.045 A 
ATOM     29  C   UNL     1      38.920 133.410  17.729  1.00  0.00     0.026 A 
ATOM     30  C   UNL     1      39.862 135.443  18.691  1.00  0.00    -0.010 A 
ATOM     31  C   UNL     1      38.185 134.171  16.823  1.00  0.00     0.004 A 
ATOM     32  C   UNL     1      39.139 136.201  17.736  1.00  0.00     0.057 A 
ATOM     33  C   UNL     1      38.303 135.557  16.817  1.00  0.00     0.020 A 
ATOM     34  C   UNL     1      40.743 136.127  19.713  1.00  0.00     0.048 C 
BRANCH  32  35
ATOM     35  C   UNL     1      39.252 137.638  17.660  1.00  0.00     0.099 C 
ATOM     36  N   UNL     1      39.341 138.791  17.601  1.00  0.00    -0.192 NA
ENDBRANCH  32  35
ENDBRANCH  26  28
ENDBRANCH   1  26
TORSDOF 7
ENDMDL


