REMARK SMILES CCN(CC/N=C(/OC(=O)[C@H]1C[C@@H]1CO)C1(C#N)CC1)c1cc(N=[N+]=[N-])c2c3c(cccc13)C(=O)[N-]2
REMARK SMILES IDX 6 1 7 2 8 3 9 4 10 5 11 6 13 7 12 8 14 9 15 10 16 12 19 13
REMARK SMILES IDX 20 14 17 15 18 16 5 17 4 18 3 19 21 20 22 21 33 22 23 23
REMARK SMILES IDX 32 24 28 25 27 26 31 27 29 28 36 29 30 30 34 31 35 32 24 33
REMARK SMILES IDX 25 34 26 35 2 36 1 37
REMARK H PARENT 15 11
ROOT
ATOM      1  N   UNL     1       0.339  -1.081  -1.357  1.00  0.00    -0.252 NA
ENDROOT
BRANCH   1   2
ATOM      2  C   UNL     1       1.463  -0.429  -1.461  1.00  0.00     0.214 C 
BRANCH   2   3
ATOM      3  O   UNL     1       1.544   0.911  -1.060  1.00  0.00    -0.410 OA
BRANCH   3   4
ATOM      4  C   UNL     1       0.464   1.694  -0.628  1.00  0.00     0.315 C 
ATOM      5  O   UNL     1      -0.727   1.296  -0.749  1.00  0.00    -0.251 OA
BRANCH   4   6
ATOM      6  C   UNL     1       0.735   3.010   0.029  1.00  0.00     0.105 C 
ATOM      7  C   UNL     1      -0.036   4.183  -0.559  1.00  0.00     0.030 C 
ATOM      8  C   UNL     1       1.446   4.021  -0.862  1.00  0.00     0.022 C 
BRANCH   7   9
ATOM      9  C   UNL     1      -0.379   5.300   0.433  1.00  0.00     0.160 C 
BRANCH   9  10
ATOM     10  O   UNL     1      -1.635   5.061   1.007  1.00  0.00    -0.396 OA
ATOM     11  H   UNL     1      -1.508   4.331   1.667  1.00  0.00     0.210 HD
ENDBRANCH   9  10
ENDBRANCH   7   9
ENDBRANCH   4   6
ENDBRANCH   3   4
ENDBRANCH   2   3
BRANCH   2  12
ATOM     12  C   UNL     1       2.727  -1.097  -1.933  1.00  0.00     0.133 C 
ATOM     13  C   UNL     1       2.811  -1.522  -3.391  1.00  0.00     0.034 C 
ATOM     14  C   UNL     1       3.559  -0.284  -2.916  1.00  0.00     0.034 C 
BRANCH  12  15
ATOM     15  C   UNL     1       3.515  -1.874  -0.967  1.00  0.00     0.079 C 
ATOM     16  N   UNL     1       4.136  -2.481  -0.202  1.00  0.00    -0.197 NA
ENDBRANCH  12  15
ENDBRANCH   2  12
ENDBRANCH   1   2
BRANCH   1  17
ATOM     17  C   UNL     1       0.129  -2.493  -1.668  1.00  0.00     0.167 C 
BRANCH  17  18
ATOM     18  C   UNL     1      -1.276  -2.918  -1.235  1.00  0.00     0.140 C 
BRANCH  18  19
ATOM     19  N   UNL     1      -1.399  -2.973   0.233  1.00  0.00    -0.369 N 
BRANCH  19  20
ATOM     20  C   UNL     1      -1.439  -1.744   0.978  1.00  0.00     0.045 A 
ATOM     21  C   UNL     1      -2.640  -0.976   0.992  1.00  0.00     0.035 A 
ATOM     22  C   UNL     1      -0.305  -1.272   1.689  1.00  0.00     0.005 A 
ATOM     23  C   UNL     1      -2.721   0.250   1.709  1.00  0.00     0.026 A 
ATOM     24  C   UNL     1       0.969  -1.885   1.735  1.00  0.00     0.011 A 
ATOM     25  C   UNL     1      -0.445  -0.079   2.377  1.00  0.00    -0.021 A 
ATOM     26  C   UNL     1      -1.587   0.670   2.407  1.00  0.00    -0.116 A 
ATOM     27  C   UNL     1       2.020  -1.281   2.474  1.00  0.00     0.001 A 
ATOM     28  C   UNL     1       0.548   0.518   3.082  1.00  0.00     0.006 A 
ATOM     29  N   UNL     1      -1.415   1.868   3.175  1.00  0.00    -0.622 NA
ATOM     30  C   UNL     1       1.812  -0.062   3.160  1.00  0.00     0.011 A 
ATOM     31  C   UNL     1      -0.045   1.748   3.597  1.00  0.00     0.086 C 
ATOM     32  O   UNL     1       0.545   2.604   4.306  1.00  0.00    -0.315 OA
BRANCH  23  33
ATOM     33  N   UNL     1      -3.906   1.059   1.724  1.00  0.00    -0.062 NA
BRANCH  33  34
ATOM     34  N   UNL     1      -4.907   0.769   1.066  1.00  0.00     0.005 N 
ATOM     35  N   UNL     1      -5.907   0.484   0.407  1.00  0.00    -0.003 NA
ENDBRANCH  33  34
ENDBRANCH  23  33
ENDBRANCH  19  20
BRANCH  19  36
ATOM     36  C   UNL     1      -1.858  -4.204   0.890  1.00  0.00     0.113 C 
ATOM     37  C   UNL     1      -0.723  -4.861   1.660  1.00  0.00     0.027 C 
ENDBRANCH  19  36
ENDBRANCH  18  19
ENDBRANCH  17  18
ENDBRANCH   1  17
TORSDOF 15


