REMARK SMILES CCc1[nH+]nn(CC2(C#N)CCCC2)c1C[N+](C)(C)Cc1cccc2ccccc12
REMARK SMILES IDX 3 1 4 2 5 3 6 4 15 5 2 7 1 8 16 9 17 10 18 11 19 12 20 13
REMARK SMILES IDX 21 14 22 15 30 16 23 17 29 18 25 19 24 20 28 21 26 22 27 23
REMARK SMILES IDX 7 24 8 25 11 26 14 27 12 28 13 29 9 30 10 31
REMARK H PARENT 4 6
ROOT
ATOM      1  C   UNL     1      -0.286   0.879   3.321  1.00  0.00     0.173 A 
ATOM      2  N   UNL     1      -0.554  -0.240   4.018  1.00  0.00    -0.147 N 
ATOM      3  N   UNL     1      -0.491  -1.269   3.191  1.00  0.00     0.088 NA
ATOM      4  N   UNL     1      -0.182  -0.855   1.971  1.00  0.00    -0.127 N 
ATOM      5  C   UNL     1      -0.023   0.494   2.013  1.00  0.00     0.224 A 
ATOM      6  H   UNL     1      -0.827  -0.304   5.023  1.00  0.00     0.342 HD
ENDROOT
BRANCH   1   7
ATOM      7  C   UNL     1      -0.492   2.265   3.864  1.00  0.00     0.083 C 
ATOM      8  C   UNL     1      -1.979   2.562   4.021  1.00  0.00     0.013 C 
ENDBRANCH   1   7
BRANCH   5   9
ATOM      9  C   UNL     1       0.333   1.387   0.837  1.00  0.00     0.351 C 
BRANCH   9  10
ATOM     10  N   UNL     1       1.797   1.666   0.658  1.00  0.00    -0.318 N 
ATOM     11  C   UNL     1       2.266   2.573   1.735  1.00  0.00     0.334 C 
ATOM     12  C   UNL     1       2.613   0.426   0.731  1.00  0.00     0.334 C 
BRANCH  10  13
ATOM     13  C   UNL     1       2.036   2.366  -0.650  1.00  0.00     0.301 C 
BRANCH  13  14
ATOM     14  C   UNL     1       1.663   1.555  -1.897  1.00  0.00     0.014 A 
ATOM     15  C   UNL     1       2.645   0.700  -2.434  1.00  0.00     0.010 A 
ATOM     16  C   UNL     1       0.382   1.607  -2.529  1.00  0.00    -0.010 A 
ATOM     17  C   UNL     1       2.364  -0.140  -3.508  1.00  0.00     0.001 A 
ATOM     18  C   UNL     1      -0.638   2.497  -2.118  1.00  0.00     0.009 A 
ATOM     19  C   UNL     1       0.106   0.724  -3.612  1.00  0.00    -0.018 A 
ATOM     20  C   UNL     1       1.099  -0.144  -4.083  1.00  0.00     0.009 A 
ATOM     21  C   UNL     1      -1.892   2.480  -2.733  1.00  0.00     0.001 A 
ATOM     22  C   UNL     1      -1.162   0.720  -4.215  1.00  0.00     0.009 A 
ATOM     23  C   UNL     1      -2.156   1.591  -3.772  1.00  0.00     0.001 A 
ENDBRANCH  13  14
ENDBRANCH  10  13
ENDBRANCH   9  10
ENDBRANCH   5   9
BRANCH   4  24
ATOM     24  C   UNL     1      -0.185  -1.747   0.803  1.00  0.00     0.292 C 
BRANCH  24  25
ATOM     25  C   UNL     1      -1.618  -2.190   0.409  1.00  0.00     0.097 C 
ATOM     26  C   UNL     1      -2.550  -1.009   0.110  1.00  0.00     0.026 C 
ATOM     27  C   UNL     1      -1.617  -2.978  -0.907  1.00  0.00     0.026 C 
ATOM     28  C   UNL     1      -3.596  -1.534  -0.868  1.00  0.00     0.002 C 
ATOM     29  C   UNL     1      -3.009  -2.795  -1.504  1.00  0.00     0.002 C 
BRANCH  25  30
ATOM     30  C   UNL     1      -2.200  -3.031   1.480  1.00  0.00     0.073 C 
ATOM     31  N   UNL     1      -2.657  -3.689   2.316  1.00  0.00    -0.198 NA
ENDBRANCH  25  30
ENDBRANCH  24  25
ENDBRANCH   4  24
TORSDOF 8


