MODEL 1
REMARK VINA RESULT:      -6.4      0.000      0.000
REMARK SMILES [H]/N=C(\C#C)N[C@H](c1c(C)nnn1-c1c2ccccc2c(C=O)c2ccccc12)C(C)C
REMARK SMILES IDX 8 1 9 2 10 3 11 4 12 5 13 6 7 7 6 8 3 9 4 11 5 12 2 13 1 14
REMARK SMILES IDX 30 15 31 16 32 17 14 18 15 19 29 20 16 21 20 22 28 23 24 24
REMARK SMILES IDX 17 25 19 26 21 27 27 28 25 29 18 30 26 31 22 32 23 33
REMARK H PARENT 6 10
ROOT
ATOM      1  C   UNL     1      43.620 133.095  21.170  1.00  0.00     0.090 A 
ATOM      2  C   UNL     1      43.381 132.501  22.411  1.00  0.00     0.085 A 
ATOM      3  C   UNL     1      43.775 132.945  23.786  1.00  0.00     0.071 C 
ATOM      4  N   UNL     1      42.654 131.384  22.207  1.00  0.00    -0.135 NA
ATOM      5  N   UNL     1      42.437 131.286  20.905  1.00  0.00    -0.062 NA
ATOM      6  N   UNL     1      43.004 132.296  20.267  1.00  0.00    -0.214 N 
ENDROOT
BRANCH   1   7
ATOM      7  C   UNL     1      44.360 134.382  20.812  1.00  0.00     0.135 C 
BRANCH   7   8
ATOM      8  N   UNL     1      43.470 135.551  20.877  1.00  0.00    -0.355 N 
ATOM      9  C   UNL     1      43.250 136.442  19.770  1.00  0.00     0.171 C 
ATOM     10  H   UNL     1      42.861 135.691  21.713  1.00  0.00     0.163 HD
BRANCH   9  11
ATOM     11  C   UNL     1      43.784 136.152  18.460  1.00  0.00    -0.033 C 
ATOM     12  C   UNL     1      44.231 135.914  17.366  1.00  0.00     0.013 C 
ENDBRANCH   9  11
BRANCH   9  13
ATOM     13  N   UNL     1      42.523 137.499  19.943  1.00  0.00    -0.277 NA
ATOM     14  H   UNL     1      42.596 138.331  19.315  1.00  0.00     0.190 HD
ENDBRANCH   9  13
ENDBRANCH   7   8
BRANCH   7  15
ATOM     15  C   UNL     1      45.688 134.607  21.595  1.00  0.00     0.011 C 
ATOM     16  C   UNL     1      46.719 133.486  21.431  1.00  0.00     0.010 C 
ATOM     17  C   UNL     1      46.324 135.963  21.256  1.00  0.00     0.010 C 
ENDBRANCH   7  15
ENDBRANCH   1   7
BRANCH   6  18
ATOM     18  C   UNL     1      42.902 132.485  18.843  1.00  0.00     0.082 A 
ATOM     19  C   UNL     1      41.833 133.232  18.306  1.00  0.00     0.009 A 
ATOM     20  C   UNL     1      43.871 131.918  17.984  1.00  0.00     0.009 A 
ATOM     21  C   UNL     1      40.884 133.842  19.156  1.00  0.00     0.011 A 
ATOM     22  C   UNL     1      41.685 133.357  16.897  1.00  0.00    -0.005 A 
ATOM     23  C   UNL     1      44.987 131.234  18.513  1.00  0.00     0.011 A 
ATOM     24  C   UNL     1      43.736 132.046  16.574  1.00  0.00    -0.005 A 
ATOM     25  C   UNL     1      39.805 134.550  18.632  1.00  0.00     0.001 A 
ATOM     26  C   UNL     1      40.570 134.070  16.393  1.00  0.00     0.009 A 
ATOM     27  C   UNL     1      42.625 132.743  16.029  1.00  0.00     0.030 A 
ATOM     28  C   UNL     1      45.949 130.679  17.672  1.00  0.00     0.001 A 
ATOM     29  C   UNL     1      44.745 131.495  15.747  1.00  0.00     0.009 A 
ATOM     30  C   UNL     1      39.646 134.660  17.256  1.00  0.00     0.001 A 
ATOM     31  C   UNL     1      45.830 130.812  16.295  1.00  0.00     0.001 A 
BRANCH  27  32
ATOM     32  C   UNL     1      42.439 132.836  14.560  1.00  0.00     0.261 C 
ATOM     33  O   UNL     1      41.483 132.244  13.993  1.00  0.00    -0.298 OA
ENDBRANCH  27  32
ENDBRANCH   6  18
TORSDOF 7
ENDMDL
MODEL 2
REMARK VINA RESULT:      -6.3      3.037      5.398
REMARK SMILES [H]/N=C(\C#C)N[C@H](c1c(C)nnn1-c1c2ccccc2c(C=O)c2ccccc12)C(C)C
REMARK SMILES IDX 8 1 9 2 10 3 11 4 12 5 13 6 7 7 6 8 3 9 4 11 5 12 2 13 1 14
REMARK SMILES IDX 30 15 31 16 32 17 14 18 15 19 29 20 16 21 20 22 28 23 24 24
REMARK SMILES IDX 17 25 19 26 21 27 27 28 25 29 18 30 26 31 22 32 23 33
REMARK H PARENT 6 10
ROOT
ATOM      1  C   UNL     1      43.912 133.239  17.262  1.00  0.00     0.090 A 
ATOM      2  C   UNL     1      44.873 132.293  16.899  1.00  0.00     0.085 A 
ATOM      3  C   UNL     1      45.185 130.956  17.496  1.00  0.00     0.071 C 
ATOM      4  N   UNL     1      45.532 132.759  15.819  1.00  0.00    -0.135 NA
ATOM      5  N   UNL     1      45.005 133.934  15.512  1.00  0.00    -0.062 NA
ATOM      6  N   UNL     1      44.038 134.240  16.359  1.00  0.00    -0.214 N 
ENDROOT
BRANCH   1   7
ATOM      7  C   UNL     1      42.875 133.221  18.382  1.00  0.00     0.135 C 
BRANCH   7   8
ATOM      8  N   UNL     1      41.632 132.559  17.956  1.00  0.00    -0.355 N 
ATOM      9  C   UNL     1      40.347 133.203  17.969  1.00  0.00     0.171 C 
ATOM     10  H   UNL     1      41.677 131.622  17.498  1.00  0.00     0.163 HD
BRANCH   9  11
ATOM     11  C   UNL     1      40.219 134.611  18.267  1.00  0.00    -0.033 C 
ATOM     12  C   UNL     1      40.108 135.785  18.516  1.00  0.00     0.013 C 
ENDBRANCH   9  11
BRANCH   9  13
ATOM     13  N   UNL     1      39.292 132.517  17.664  1.00  0.00    -0.277 NA
ATOM     14  H   UNL     1      38.413 132.572  18.228  1.00  0.00     0.190 HD
ENDBRANCH   9  13
ENDBRANCH   7   8
BRANCH   7  15
ATOM     15  C   UNL     1      43.398 132.672  19.743  1.00  0.00     0.011 C 
ATOM     16  C   UNL     1      43.649 133.745  20.806  1.00  0.00     0.010 C 
ATOM     17  C   UNL     1      42.479 131.577  20.304  1.00  0.00     0.010 C 
ENDBRANCH   7  15
ENDBRANCH   1   7
BRANCH   6  18
ATOM     18  C   UNL     1      43.247 135.439  16.252  1.00  0.00     0.082 A 
ATOM     19  C   UNL     1      42.143 135.479  15.374  1.00  0.00     0.009 A 
ATOM     20  C   UNL     1      43.580 136.576  17.022  1.00  0.00     0.009 A 
ATOM     21  C   UNL     1      41.772 134.335  14.634  1.00  0.00     0.011 A 
ATOM     22  C   UNL     1      41.407 136.684  15.208  1.00  0.00    -0.005 A 
ATOM     23  C   UNL     1      44.635 136.524  17.959  1.00  0.00     0.011 A 
ATOM     24  C   UNL     1      42.844 137.783  16.869  1.00  0.00    -0.005 A 
ATOM     25  C   UNL     1      40.705 134.379  13.738  1.00  0.00     0.001 A 
ATOM     26  C   UNL     1      40.337 136.702  14.280  1.00  0.00     0.009 A 
ATOM     27  C   UNL     1      41.772 137.845  15.938  1.00  0.00     0.030 A 
ATOM     28  C   UNL     1      44.965 137.639  18.726  1.00  0.00     0.001 A 
ATOM     29  C   UNL     1      43.185 138.890  17.682  1.00  0.00     0.009 A 
ATOM     30  C   UNL     1      39.993 135.559  13.559  1.00  0.00     0.001 A 
ATOM     31  C   UNL     1      44.240 138.816  18.591  1.00  0.00     0.001 A 
BRANCH  27  32
ATOM     32  C   UNL     1      41.030 139.112  15.725  1.00  0.00     0.261 C 
ATOM     33  O   UNL     1      40.009 139.383  16.412  1.00  0.00    -0.298 OA
ENDBRANCH  27  32
ENDBRANCH   6  18
TORSDOF 7
ENDMDL
MODEL 3
REMARK VINA RESULT:      -6.1      3.142      5.712
REMARK SMILES [H]/N=C(\C#C)N[C@H](c1c(C)nnn1-c1c2ccccc2c(C=O)c2ccccc12)C(C)C
REMARK SMILES IDX 8 1 9 2 10 3 11 4 12 5 13 6 7 7 6 8 3 9 4 11 5 12 2 13 1 14
REMARK SMILES IDX 30 15 31 16 32 17 14 18 15 19 29 20 16 21 20 22 28 23 24 24
REMARK SMILES IDX 17 25 19 26 21 27 27 28 25 29 18 30 26 31 22 32 23 33
REMARK H PARENT 6 10
ROOT
ATOM      1  C   UNL     1      43.720 133.459  17.241  1.00  0.00     0.090 A 
ATOM      2  C   UNL     1      44.670 132.498  16.889  1.00  0.00     0.085 A 
ATOM      3  C   UNL     1      44.933 131.143  17.468  1.00  0.00     0.071 C 
ATOM      4  N   UNL     1      45.373 132.970  15.840  1.00  0.00    -0.135 NA
ATOM      5  N   UNL     1      44.884 134.162  15.541  1.00  0.00    -0.062 NA
ATOM      6  N   UNL     1      43.897 134.475  16.363  1.00  0.00    -0.214 N 
ENDROOT
BRANCH   1   7
ATOM      7  C   UNL     1      42.647 133.443  18.328  1.00  0.00     0.135 C 
BRANCH   7   8
ATOM      8  N   UNL     1      41.453 132.702  17.895  1.00  0.00    -0.355 N 
ATOM      9  C   UNL     1      40.130 133.266  17.888  1.00  0.00     0.171 C 
ATOM     10  H   UNL     1      41.560 131.764  17.448  1.00  0.00     0.163 HD
BRANCH   9  11
ATOM     11  C   UNL     1      39.913 134.666  18.170  1.00  0.00    -0.033 C 
ATOM     12  C   UNL     1      39.728 135.833  18.407  1.00  0.00     0.013 C 
ENDBRANCH   9  11
BRANCH   9  13
ATOM     13  N   UNL     1      39.123 132.513  17.579  1.00  0.00    -0.277 NA
ATOM     14  H   UNL     1      38.990 131.565  17.999  1.00  0.00     0.190 HD
ENDBRANCH   9  13
ENDBRANCH   7   8
BRANCH   7  15
ATOM     15  C   UNL     1      43.150 132.985  19.730  1.00  0.00     0.011 C 
ATOM     16  C   UNL     1      43.014 134.043  20.829  1.00  0.00     0.010 C 
ATOM     17  C   UNL     1      42.482 131.675  20.171  1.00  0.00     0.010 C 
ENDBRANCH   7  15
ENDBRANCH   1   7
BRANCH   6  18
ATOM     18  C   UNL     1      43.138 135.694  16.256  1.00  0.00     0.082 A 
ATOM     19  C   UNL     1      43.487 136.813  17.041  1.00  0.00     0.009 A 
ATOM     20  C   UNL     1      42.041 135.767  15.368  1.00  0.00     0.009 A 
ATOM     21  C   UNL     1      44.608 136.768  17.898  1.00  0.00     0.011 A 
ATOM     22  C   UNL     1      42.693 137.992  16.995  1.00  0.00    -0.005 A 
ATOM     23  C   UNL     1      41.729 134.680  14.521  1.00  0.00     0.011 A 
ATOM     24  C   UNL     1      41.248 136.945  15.309  1.00  0.00    -0.005 A 
ATOM     25  C   UNL     1      44.936 137.856  18.703  1.00  0.00     0.001 A 
ATOM     26  C   UNL     1      43.043 139.077  17.836  1.00  0.00     0.009 A 
ATOM     27  C   UNL     1      41.558 138.050  16.145  1.00  0.00     0.030 A 
ATOM     28  C   UNL     1      40.653 134.747  13.639  1.00  0.00     0.001 A 
ATOM     29  C   UNL     1      40.178 136.994  14.382  1.00  0.00     0.009 A 
ATOM     30  C   UNL     1      44.155 139.005  18.675  1.00  0.00     0.001 A 
ATOM     31  C   UNL     1      39.883 135.901  13.568  1.00  0.00     0.001 A 
BRANCH  27  32
ATOM     32  C   UNL     1      40.707 139.266  16.138  1.00  0.00     0.261 C 
ATOM     33  O   UNL     1      39.697 139.349  16.885  1.00  0.00    -0.298 OA
ENDBRANCH  27  32
ENDBRANCH   6  18
TORSDOF 7
ENDMDL
MODEL 4
REMARK VINA RESULT:      -6.0      0.806      3.383
REMARK SMILES [H]/N=C(\C#C)N[C@H](c1c(C)nnn1-c1c2ccccc2c(C=O)c2ccccc12)C(C)C
REMARK SMILES IDX 8 1 9 2 10 3 11 4 12 5 13 6 7 7 6 8 3 9 4 11 5 12 2 13 1 14
REMARK SMILES IDX 30 15 31 16 32 17 14 18 15 19 29 20 16 21 20 22 28 23 24 24
REMARK SMILES IDX 17 25 19 26 21 27 27 28 25 29 18 30 26 31 22 32 23 33
REMARK H PARENT 6 10
ROOT
ATOM      1  C   UNL     1      43.962 132.971  21.448  1.00  0.00     0.090 A 
ATOM      2  C   UNL     1      43.773 132.292  22.653  1.00  0.00     0.085 A 
ATOM      3  C   UNL     1      44.273 132.610  24.028  1.00  0.00     0.071 C 
ATOM      4  N   UNL     1      42.983 131.227  22.414  1.00  0.00    -0.135 NA
ATOM      5  N   UNL     1      42.681 131.241  21.126  1.00  0.00    -0.062 NA
ATOM      6  N   UNL     1      43.254 132.272  20.529  1.00  0.00    -0.214 N 
ENDROOT
BRANCH   1   7
ATOM      7  C   UNL     1      44.739 134.250  21.139  1.00  0.00     0.135 C 
BRANCH   7   8
ATOM      8  N   UNL     1      43.936 135.449  21.424  1.00  0.00    -0.355 N 
ATOM      9  C   UNL     1      43.677 136.477  20.453  1.00  0.00     0.171 C 
ATOM     10  H   UNL     1      43.415 135.520  22.326  1.00  0.00     0.163 HD
BRANCH   9  11
ATOM     11  C   UNL     1      44.071 136.319  19.073  1.00  0.00    -0.033 C 
ATOM     12  C   UNL     1      44.398 136.190  17.920  1.00  0.00     0.013 C 
ENDBRANCH   9  11
BRANCH   9  13
ATOM     13  N   UNL     1      43.038 137.544  20.816  1.00  0.00    -0.277 NA
ATOM     14  H   UNL     1      43.474 138.269  21.430  1.00  0.00     0.190 HD
ENDBRANCH   9  13
ENDBRANCH   7   8
BRANCH   7  15
ATOM     15  C   UNL     1      46.155 134.321  21.784  1.00  0.00     0.011 C 
ATOM     16  C   UNL     1      47.083 133.162  21.407  1.00  0.00     0.010 C 
ATOM     17  C   UNL     1      46.843 135.663  21.495  1.00  0.00     0.010 C 
ENDBRANCH   7  15
ENDBRANCH   1   7
BRANCH   6  18
ATOM     18  C   UNL     1      43.072 132.576  19.134  1.00  0.00     0.082 A 
ATOM     19  C   UNL     1      43.965 132.052  18.175  1.00  0.00     0.009 A 
ATOM     20  C   UNL     1      42.002 133.404  18.725  1.00  0.00     0.009 A 
ATOM     21  C   UNL     1      45.011 131.187  18.566  1.00  0.00     0.011 A 
ATOM     22  C   UNL     1      43.835 132.412  16.806  1.00  0.00    -0.005 A 
ATOM     23  C   UNL     1      41.057 133.871  19.665  1.00  0.00     0.011 A 
ATOM     24  C   UNL     1      41.858 133.762  17.357  1.00  0.00    -0.005 A 
ATOM     25  C   UNL     1      45.918 130.695  17.630  1.00  0.00     0.001 A 
ATOM     26  C   UNL     1      44.782 131.909  15.880  1.00  0.00     0.009 A 
ATOM     27  C   UNL     1      42.795 133.288  16.399  1.00  0.00     0.030 A 
ATOM     28  C   UNL     1      39.996 134.682  19.268  1.00  0.00     0.001 A 
ATOM     29  C   UNL     1      40.754 134.564  16.980  1.00  0.00     0.009 A 
ATOM     30  C   UNL     1      45.806 131.058  16.293  1.00  0.00     0.001 A 
ATOM     31  C   UNL     1      39.843 135.024  17.930  1.00  0.00     0.001 A 
BRANCH  27  32
ATOM     32  C   UNL     1      42.693 133.697  14.977  1.00  0.00     0.261 C 
ATOM     33  O   UNL     1      43.252 134.749  14.568  1.00  0.00    -0.298 OA
ENDBRANCH  27  32
ENDBRANCH   6  18
TORSDOF 7
ENDMDL
MODEL 5
REMARK VINA RESULT:      -5.9      2.982      6.221
REMARK SMILES [H]/N=C(\C#C)N[C@H](c1c(C)nnn1-c1c2ccccc2c(C=O)c2ccccc12)C(C)C
REMARK SMILES IDX 8 1 9 2 10 3 11 4 12 5 13 6 7 7 6 8 3 9 4 11 5 12 2 13 1 14
REMARK SMILES IDX 30 15 31 16 32 17 14 18 15 19 29 20 16 21 20 22 28 23 24 24
REMARK SMILES IDX 17 25 19 26 21 27 27 28 25 29 18 30 26 31 22 32 23 33
REMARK H PARENT 6 10
ROOT
ATOM      1  C   UNL     1      42.038 135.454  16.043  1.00  0.00     0.090 A 
ATOM      2  C   UNL     1      42.056 136.499  15.117  1.00  0.00     0.085 A 
ATOM      3  C   UNL     1      40.929 137.310  14.555  1.00  0.00     0.071 C 
ATOM      4  N   UNL     1      43.339 136.737  14.778  1.00  0.00    -0.135 NA
ATOM      5  N   UNL     1      44.091 135.891  15.463  1.00  0.00    -0.062 NA
ATOM      6  N   UNL     1      43.337 135.117  16.224  1.00  0.00    -0.214 N 
ENDROOT
BRANCH   1   7
ATOM      7  C   UNL     1      40.871 134.798  16.778  1.00  0.00     0.135 C 
BRANCH   7   8
ATOM      8  N   UNL     1      40.063 135.792  17.501  1.00  0.00    -0.355 N 
ATOM      9  C   UNL     1      39.783 135.712  18.909  1.00  0.00     0.171 C 
ATOM     10  H   UNL     1      39.774 136.673  17.020  1.00  0.00     0.163 HD
BRANCH   9  11
ATOM     11  C   UNL     1      40.412 134.713  19.740  1.00  0.00    -0.033 C 
ATOM     12  C   UNL     1      40.935 133.880  20.438  1.00  0.00     0.013 C 
ENDBRANCH   9  11
BRANCH   9  13
ATOM     13  N   UNL     1      38.986 136.579  19.446  1.00  0.00    -0.277 NA
ATOM     14  H   UNL     1      38.781 136.584  20.471  1.00  0.00     0.190 HD
ENDBRANCH   9  13
ENDBRANCH   7   8
BRANCH   7  15
ATOM     15  C   UNL     1      39.997 133.855  15.898  1.00  0.00     0.011 C 
ATOM     16  C   UNL     1      38.536 134.293  15.757  1.00  0.00     0.010 C 
ATOM     17  C   UNL     1      40.619 133.634  14.512  1.00  0.00     0.010 C 
ENDBRANCH   7  15
ENDBRANCH   1   7
BRANCH   6  18
ATOM     18  C   UNL     1      43.876 134.126  17.120  1.00  0.00     0.082 A 
ATOM     19  C   UNL     1      44.224 132.849  16.632  1.00  0.00     0.009 A 
ATOM     20  C   UNL     1      44.053 134.433  18.489  1.00  0.00     0.009 A 
ATOM     21  C   UNL     1      44.095 132.545  15.259  1.00  0.00     0.011 A 
ATOM     22  C   UNL     1      44.684 131.844  17.527  1.00  0.00    -0.005 A 
ATOM     23  C   UNL     1      43.781 135.731  18.973  1.00  0.00     0.011 A 
ATOM     24  C   UNL     1      44.521 133.437  19.388  1.00  0.00    -0.005 A 
ATOM     25  C   UNL     1      44.401 131.275  14.777  1.00  0.00     0.001 A 
ATOM     26  C   UNL     1      44.973 130.557  17.009  1.00  0.00     0.009 A 
ATOM     27  C   UNL     1      44.810 132.131  18.911  1.00  0.00     0.030 A 
ATOM     28  C   UNL     1      43.959 136.042  20.320  1.00  0.00     0.001 A 
ATOM     29  C   UNL     1      44.718 133.791  20.745  1.00  0.00     0.009 A 
ATOM     30  C   UNL     1      44.835 130.283  15.649  1.00  0.00     0.001 A 
ATOM     31  C   UNL     1      44.429 135.077  21.201  1.00  0.00     0.001 A 
BRANCH  27  32
ATOM     32  C   UNL     1      45.245 131.064  19.846  1.00  0.00     0.261 C 
ATOM     33  O   UNL     1      46.415 131.054  20.311  1.00  0.00    -0.298 OA
ENDBRANCH  27  32
ENDBRANCH   6  18
TORSDOF 7
ENDMDL
MODEL 6
REMARK VINA RESULT:      -5.7      2.559      4.967
REMARK SMILES [H]/N=C(\C#C)N[C@H](c1c(C)nnn1-c1c2ccccc2c(C=O)c2ccccc12)C(C)C
REMARK SMILES IDX 8 1 9 2 10 3 11 4 12 5 13 6 7 7 6 8 3 9 4 11 5 12 2 13 1 14
REMARK SMILES IDX 30 15 31 16 32 17 14 18 15 19 29 20 16 21 20 22 28 23 24 24
REMARK SMILES IDX 17 25 19 26 21 27 27 28 25 29 18 30 26 31 22 32 23 33
REMARK H PARENT 6 10
ROOT
ATOM      1  C   UNL     1      43.936 132.686  17.943  1.00  0.00     0.090 A 
ATOM      2  C   UNL     1      44.623 131.806  18.782  1.00  0.00     0.085 A 
ATOM      3  C   UNL     1      45.517 130.652  18.446  1.00  0.00     0.071 C 
ATOM      4  N   UNL     1      44.387 132.174  20.057  1.00  0.00    -0.135 NA
ATOM      5  N   UNL     1      43.601 133.237  20.022  1.00  0.00    -0.062 NA
ATOM      6  N   UNL     1      43.318 133.560  18.772  1.00  0.00    -0.214 N 
ENDROOT
BRANCH   1   7
ATOM      7  C   UNL     1      43.869 132.756  16.418  1.00  0.00     0.135 C 
BRANCH   7   8
ATOM      8  N   UNL     1      44.176 134.109  15.928  1.00  0.00    -0.355 N 
ATOM      9  C   UNL     1      43.343 134.822  14.998  1.00  0.00     0.171 C 
ATOM     10  H   UNL     1      44.961 134.648  16.355  1.00  0.00     0.163 HD
BRANCH   9  11
ATOM     11  C   UNL     1      42.056 134.303  14.598  1.00  0.00    -0.033 C 
ATOM     12  C   UNL     1      40.984 133.867  14.261  1.00  0.00     0.013 C 
ENDBRANCH   9  11
BRANCH   9  13
ATOM     13  N   UNL     1      43.736 135.970  14.548  1.00  0.00    -0.277 NA
ATOM     14  H   UNL     1      43.068 136.753  14.365  1.00  0.00     0.190 HD
ENDBRANCH   9  13
ENDBRANCH   7   8
BRANCH   7  15
ATOM     15  C   UNL     1      44.695 131.660  15.680  1.00  0.00     0.011 C 
ATOM     16  C   UNL     1      43.994 131.050  14.463  1.00  0.00     0.010 C 
ATOM     17  C   UNL     1      46.089 132.167  15.289  1.00  0.00     0.010 C 
ENDBRANCH   7  15
ENDBRANCH   1   7
BRANCH   6  18
ATOM     18  C   UNL     1      42.518 134.703  18.414  1.00  0.00     0.082 A 
ATOM     19  C   UNL     1      41.160 134.534  18.074  1.00  0.00     0.009 A 
ATOM     20  C   UNL     1      43.096 135.993  18.401  1.00  0.00     0.009 A 
ATOM     21  C   UNL     1      40.559 133.257  18.128  1.00  0.00     0.011 A 
ATOM     22  C   UNL     1      40.387 135.649  17.646  1.00  0.00    -0.005 A 
ATOM     23  C   UNL     1      44.433 136.185  18.813  1.00  0.00     0.011 A 
ATOM     24  C   UNL     1      42.328 137.114  17.983  1.00  0.00    -0.005 A 
ATOM     25  C   UNL     1      39.228 133.077  17.758  1.00  0.00     0.001 A 
ATOM     26  C   UNL     1      39.041 135.432  17.262  1.00  0.00     0.009 A 
ATOM     27  C   UNL     1      40.978 136.937  17.578  1.00  0.00     0.030 A 
ATOM     28  C   UNL     1      45.007 137.455  18.808  1.00  0.00     0.001 A 
ATOM     29  C   UNL     1      42.931 138.396  18.015  1.00  0.00     0.009 A 
ATOM     30  C   UNL     1      38.473 134.160  17.323  1.00  0.00     0.001 A 
ATOM     31  C   UNL     1      44.257 138.556  18.414  1.00  0.00     0.001 A 
BRANCH  27  32
ATOM     32  C   UNL     1      40.180 138.087  17.086  1.00  0.00     0.261 C 
ATOM     33  O   UNL     1      40.164 138.382  15.861  1.00  0.00    -0.298 OA
ENDBRANCH  27  32
ENDBRANCH   6  18
TORSDOF 7
ENDMDL
MODEL 7
REMARK VINA RESULT:      -5.6      2.138      4.186
REMARK SMILES [H]/N=C(\C#C)N[C@H](c1c(C)nnn1-c1c2ccccc2c(C=O)c2ccccc12)C(C)C
REMARK SMILES IDX 8 1 9 2 10 3 11 4 12 5 13 6 7 7 6 8 3 9 4 11 5 12 2 13 1 14
REMARK SMILES IDX 30 15 31 16 32 17 14 18 15 19 29 20 16 21 20 22 28 23 24 24
REMARK SMILES IDX 17 25 19 26 21 27 27 28 25 29 18 30 26 31 22 32 23 33
REMARK H PARENT 6 10
ROOT
ATOM      1  C   UNL     1      41.170 135.408  19.078  1.00  0.00     0.090 A 
ATOM      2  C   UNL     1      39.929 135.721  19.637  1.00  0.00     0.085 A 
ATOM      3  C   UNL     1      39.357 137.046  20.038  1.00  0.00     0.071 C 
ATOM      4  N   UNL     1      39.224 134.579  19.756  1.00  0.00    -0.135 NA
ATOM      5  N   UNL     1      39.978 133.598  19.287  1.00  0.00    -0.062 NA
ATOM      6  N   UNL     1      41.143 134.069  18.877  1.00  0.00    -0.214 N 
ENDROOT
BRANCH   1   7
ATOM      7  C   UNL     1      42.344 136.309  18.699  1.00  0.00     0.135 C 
BRANCH   7   8
ATOM      8  N   UNL     1      41.886 137.540  18.037  1.00  0.00    -0.355 N 
ATOM      9  C   UNL     1      42.236 137.889  16.687  1.00  0.00     0.171 C 
ATOM     10  H   UNL     1      41.171 138.142  18.502  1.00  0.00     0.163 HD
BRANCH   9  11
ATOM     11  C   UNL     1      42.948 136.966  15.836  1.00  0.00    -0.033 C 
ATOM     12  C   UNL     1      43.543 136.192  15.129  1.00  0.00     0.013 C 
ENDBRANCH   9  11
BRANCH   9  13
ATOM     13  N   UNL     1      41.866 139.037  16.214  1.00  0.00    -0.277 NA
ATOM     14  H   UNL     1      40.858 139.286  16.089  1.00  0.00     0.190 HD
ENDBRANCH   9  13
ENDBRANCH   7   8
BRANCH   7  15
ATOM     15  C   UNL     1      43.341 136.599  19.860  1.00  0.00     0.011 C 
ATOM     16  C   UNL     1      42.825 136.218  21.251  1.00  0.00     0.010 C 
ATOM     17  C   UNL     1      44.709 135.951  19.608  1.00  0.00     0.010 C 
ENDBRANCH   7  15
ENDBRANCH   1   7
BRANCH   6  18
ATOM     18  C   UNL     1      42.158 133.245  18.273  1.00  0.00     0.082 A 
ATOM     19  C   UNL     1      43.119 132.604  19.084  1.00  0.00     0.009 A 
ATOM     20  C   UNL     1      42.194 133.082  16.870  1.00  0.00     0.009 A 
ATOM     21  C   UNL     1      43.067 132.722  20.490  1.00  0.00     0.011 A 
ATOM     22  C   UNL     1      44.169 131.853  18.487  1.00  0.00    -0.005 A 
ATOM     23  C   UNL     1      41.193 133.655  16.056  1.00  0.00     0.011 A 
ATOM     24  C   UNL     1      43.235 132.326  16.266  1.00  0.00    -0.005 A 
ATOM     25  C   UNL     1      44.035 132.123  21.294  1.00  0.00     0.001 A 
ATOM     26  C   UNL     1      45.147 131.268  19.329  1.00  0.00     0.009 A 
ATOM     27  C   UNL     1      44.241 131.733  17.075  1.00  0.00     0.030 A 
ATOM     28  C   UNL     1      41.218 133.494  14.672  1.00  0.00     0.001 A 
ATOM     29  C   UNL     1      43.218 132.156  14.860  1.00  0.00     0.009 A 
ATOM     30  C   UNL     1      45.072 131.402  20.715  1.00  0.00     0.001 A 
ATOM     31  C   UNL     1      42.225 132.743  14.077  1.00  0.00     0.001 A 
BRANCH  27  32
ATOM     32  C   UNL     1      45.365 130.988  16.457  1.00  0.00     0.261 C 
ATOM     33  O   UNL     1      45.294 129.742  16.284  1.00  0.00    -0.298 OA
ENDBRANCH  27  32
ENDBRANCH   6  18
TORSDOF 7
ENDMDL
MODEL 8
REMARK VINA RESULT:      -5.6      2.116      3.253
REMARK SMILES [H]/N=C(\C#C)N[C@H](c1c(C)nnn1-c1c2ccccc2c(C=O)c2ccccc12)C(C)C
REMARK SMILES IDX 8 1 9 2 10 3 11 4 12 5 13 6 7 7 6 8 3 9 4 11 5 12 2 13 1 14
REMARK SMILES IDX 30 15 31 16 32 17 14 18 15 19 29 20 16 21 20 22 28 23 24 24
REMARK SMILES IDX 17 25 19 26 21 27 27 28 25 29 18 30 26 31 22 32 23 33
REMARK H PARENT 6 10
ROOT
ATOM      1  C   UNL     1      41.409 135.594  19.524  1.00  0.00     0.090 A 
ATOM      2  C   UNL     1      40.388 135.794  20.454  1.00  0.00     0.085 A 
ATOM      3  C   UNL     1      40.011 137.022  21.225  1.00  0.00     0.071 C 
ATOM      4  N   UNL     1      39.692 134.646  20.565  1.00  0.00    -0.135 NA
ATOM      5  N   UNL     1      40.241 133.770  19.738  1.00  0.00    -0.062 NA
ATOM      6  N   UNL     1      41.267 134.314  19.107  1.00  0.00    -0.214 N 
ENDROOT
BRANCH   1   7
ATOM      7  C   UNL     1      42.472 136.555  18.993  1.00  0.00     0.135 C 
BRANCH   7   8
ATOM      8  N   UNL     1      41.865 137.761  18.410  1.00  0.00    -0.355 N 
ATOM      9  C   UNL     1      42.074 138.174  17.049  1.00  0.00     0.171 C 
ATOM     10  H   UNL     1      41.144 138.290  18.950  1.00  0.00     0.163 HD
BRANCH   9  11
ATOM     11  C   UNL     1      42.786 137.334  16.114  1.00  0.00    -0.033 C 
ATOM     12  C   UNL     1      43.380 136.631  15.337  1.00  0.00     0.013 C 
ENDBRANCH   9  11
BRANCH   9  13
ATOM     13  N   UNL     1      41.575 139.299  16.645  1.00  0.00    -0.277 NA
ATOM     14  H   UNL     1      42.032 139.871  15.899  1.00  0.00     0.190 HD
ENDBRANCH   9  13
ENDBRANCH   7   8
BRANCH   7  15
ATOM     15  C   UNL     1      43.604 136.897  20.008  1.00  0.00     0.011 C 
ATOM     16  C   UNL     1      45.019 136.602  19.503  1.00  0.00     0.010 C 
ATOM     17  C   UNL     1      43.509 138.349  20.496  1.00  0.00     0.010 C 
ENDBRANCH   7  15
ENDBRANCH   1   7
BRANCH   6  18
ATOM     18  C   UNL     1      42.036 133.618  18.108  1.00  0.00     0.082 A 
ATOM     19  C   UNL     1      41.682 133.723  16.746  1.00  0.00     0.009 A 
ATOM     20  C   UNL     1      43.143 132.828  18.492  1.00  0.00     0.009 A 
ATOM     21  C   UNL     1      40.607 134.546  16.344  1.00  0.00     0.011 A 
ATOM     22  C   UNL     1      42.391 132.976  15.765  1.00  0.00    -0.005 A 
ATOM     23  C   UNL     1      43.553 132.777  19.842  1.00  0.00     0.011 A 
ATOM     24  C   UNL     1      43.863 132.086  17.517  1.00  0.00    -0.005 A 
ATOM     25  C   UNL     1      40.229 134.624  15.006  1.00  0.00     0.001 A 
ATOM     26  C   UNL     1      41.974 133.065  14.414  1.00  0.00     0.009 A 
ATOM     27  C   UNL     1      43.468 132.138  16.153  1.00  0.00     0.030 A 
ATOM     28  C   UNL     1      44.647 132.005  20.228  1.00  0.00     0.001 A 
ATOM     29  C   UNL     1      44.987 131.332  17.935  1.00  0.00     0.009 A 
ATOM     30  C   UNL     1      40.907 133.884  14.045  1.00  0.00     0.001 A 
ATOM     31  C   UNL     1      45.363 131.289  19.277  1.00  0.00     0.001 A 
BRANCH  27  32
ATOM     32  C   UNL     1      44.173 131.326  15.131  1.00  0.00     0.261 C 
ATOM     33  O   UNL     1      45.210 131.763  14.565  1.00  0.00    -0.298 OA
ENDBRANCH  27  32
ENDBRANCH   6  18
TORSDOF 7
ENDMDL
MODEL 9
REMARK VINA RESULT:      -5.6      2.715      5.386
REMARK SMILES [H]/N=C(\C#C)N[C@H](c1c(C)nnn1-c1c2ccccc2c(C=O)c2ccccc12)C(C)C
REMARK SMILES IDX 8 1 9 2 10 3 11 4 12 5 13 6 7 7 6 8 3 9 4 11 5 12 2 13 1 14
REMARK SMILES IDX 30 15 31 16 32 17 14 18 15 19 29 20 16 21 20 22 28 23 24 24
REMARK SMILES IDX 17 25 19 26 21 27 27 28 25 29 18 30 26 31 22 32 23 33
REMARK H PARENT 6 10
ROOT
ATOM      1  C   UNL     1      43.928 132.606  17.915  1.00  0.00     0.090 A 
ATOM      2  C   UNL     1      44.627 131.733  18.751  1.00  0.00     0.085 A 
ATOM      3  C   UNL     1      45.541 130.597  18.412  1.00  0.00     0.071 C 
ATOM      4  N   UNL     1      44.381 132.090  20.027  1.00  0.00    -0.135 NA
ATOM      5  N   UNL     1      43.577 133.140  19.996  1.00  0.00    -0.062 NA
ATOM      6  N   UNL     1      43.293 133.466  18.747  1.00  0.00    -0.214 N 
ENDROOT
BRANCH   1   7
ATOM      7  C   UNL     1      43.865 132.685  16.391  1.00  0.00     0.135 C 
BRANCH   7   8
ATOM      8  N   UNL     1      44.169 134.040  15.908  1.00  0.00    -0.355 N 
ATOM      9  C   UNL     1      43.321 134.767  15.002  1.00  0.00     0.171 C 
ATOM     10  H   UNL     1      44.965 134.571  16.325  1.00  0.00     0.163 HD
BRANCH   9  11
ATOM     11  C   UNL     1      42.024 134.259  14.622  1.00  0.00    -0.033 C 
ATOM     12  C   UNL     1      40.941 133.832  14.308  1.00  0.00     0.013 C 
ENDBRANCH   9  11
BRANCH   9  13
ATOM     13  N   UNL     1      43.711 135.918  14.556  1.00  0.00    -0.277 NA
ATOM     14  H   UNL     1      43.071 136.554  14.028  1.00  0.00     0.190 HD
ENDBRANCH   9  13
ENDBRANCH   7   8
BRANCH   7  15
ATOM     15  C   UNL     1      44.696 131.595  15.649  1.00  0.00     0.011 C 
ATOM     16  C   UNL     1      44.001 130.992  14.424  1.00  0.00     0.010 C 
ATOM     17  C   UNL     1      46.091 132.107  15.267  1.00  0.00     0.010 C 
ENDBRANCH   7  15
ENDBRANCH   1   7
BRANCH   6  18
ATOM     18  C   UNL     1      42.475 134.598  18.393  1.00  0.00     0.082 A 
ATOM     19  C   UNL     1      43.034 135.893  18.378  1.00  0.00     0.009 A 
ATOM     20  C   UNL     1      41.113 134.410  18.066  1.00  0.00     0.009 A 
ATOM     21  C   UNL     1      44.404 136.089  18.658  1.00  0.00     0.011 A 
ATOM     22  C   UNL     1      42.212 137.021  18.105  1.00  0.00    -0.005 A 
ATOM     23  C   UNL     1      40.563 133.111  18.003  1.00  0.00     0.011 A 
ATOM     24  C   UNL     1      40.287 135.531  17.783  1.00  0.00    -0.005 A 
ATOM     25  C   UNL     1      44.953 137.369  18.682  1.00  0.00     0.001 A 
ATOM     26  C   UNL     1      42.795 138.311  18.151  1.00  0.00     0.009 A 
ATOM     27  C   UNL     1      40.831 136.843  17.831  1.00  0.00     0.030 A 
ATOM     28  C   UNL     1      39.223 132.919  17.675  1.00  0.00     0.001 A 
ATOM     29  C   UNL     1      38.936 135.302  17.426  1.00  0.00     0.009 A 
ATOM     30  C   UNL     1      44.151 138.476  18.432  1.00  0.00     0.001 A 
ATOM     31  C   UNL     1      38.414 134.010  17.384  1.00  0.00     0.001 A 
BRANCH  27  32
ATOM     32  C   UNL     1      39.970 138.027  17.593  1.00  0.00     0.261 C 
ATOM     33  O   UNL     1      39.383 138.598  18.550  1.00  0.00    -0.298 OA
ENDBRANCH  27  32
ENDBRANCH   6  18
TORSDOF 7
ENDMDL


