REMARK SMILES Cc1n[nH+]n([C@@H]2O[C@@]2(C#N)[NH2+]c2cccc(C#N)c2C)c1-c1cc2ccccc2c2ccccc12
REMARK SMILES IDX 11 1 8 4 6 5 7 6 5 7 2 8 3 9 21 10 4 11 1 12 22 14 23 15
REMARK SMILES IDX 35 16 24 17 34 18 30 19 25 20 29 21 33 22 31 23 26 24 28 25
REMARK SMILES IDX 32 26 27 27 9 28 10 29 12 30 13 31 19 32 14 33 16 34 15 35
REMARK SMILES IDX 20 36 17 37 18 38
REMARK H PARENT 11 2 11 3 4 13
ROOT
ATOM      1  N   UNL     1       3.243  -0.562   0.869  1.00  0.00    -0.269 N 
ATOM      2  H   UNL     1       3.671  -0.124   1.713  1.00  0.00     0.356 HD
ATOM      3  H   UNL     1       4.058  -0.945   0.333  1.00  0.00     0.356 HD
ENDROOT
BRANCH   1   4
ATOM      4  C   UNL     1       2.338  -1.659   1.253  1.00  0.00     0.349 C 
ATOM      5  C   UNL     1       2.045  -2.713   0.243  1.00  0.00     0.395 C 
ATOM      6  O   UNL     1       3.007  -2.901   1.258  1.00  0.00    -0.270 OA
BRANCH   5   7
ATOM      7  N   UNL     1       0.847  -3.510   0.497  1.00  0.00    -0.088 N 
ATOM      8  C   UNL     1      -1.214  -4.206   0.711  1.00  0.00     0.137 A 
ATOM      9  N   UNL     1      -0.397  -5.194   1.131  1.00  0.00     0.020 NA
ATOM     10  C   UNL     1      -0.432  -3.141   0.306  1.00  0.00     0.140 A 
ATOM     11  N   UNL     1       0.840  -4.743   0.978  1.00  0.00    -0.014 N 
ATOM     12  C   UNL     1      -2.706  -4.263   0.760  1.00  0.00     0.076 C 
ATOM     13  H   UNL     1       1.695  -5.291   1.222  1.00  0.00     0.526 HD
BRANCH  10  14
ATOM     14  C   UNL     1      -0.891  -1.825  -0.186  1.00  0.00     0.015 A 
ATOM     15  C   UNL     1      -1.522  -0.977   0.722  1.00  0.00     0.020 A 
ATOM     16  C   UNL     1      -0.723  -1.422  -1.531  1.00  0.00    -0.008 A 
ATOM     17  C   UNL     1      -1.996   0.276   0.330  1.00  0.00    -0.017 A 
ATOM     18  C   UNL     1      -0.093  -2.274  -2.464  1.00  0.00     0.009 A 
ATOM     19  C   UNL     1      -1.216  -0.152  -1.961  1.00  0.00    -0.010 A 
ATOM     20  C   UNL     1      -2.613   1.102   1.283  1.00  0.00     0.009 A 
ATOM     21  C   UNL     1      -1.861   0.706  -1.018  1.00  0.00    -0.010 A 
ATOM     22  C   UNL     1       0.071  -1.884  -3.789  1.00  0.00     0.001 A 
ATOM     23  C   UNL     1      -1.040   0.208  -3.321  1.00  0.00     0.009 A 
ATOM     24  C   UNL     1      -3.112   2.349   0.917  1.00  0.00     0.001 A 
ATOM     25  C   UNL     1      -2.382   1.981  -1.359  1.00  0.00     0.009 A 
ATOM     26  C   UNL     1      -0.400  -0.650  -4.216  1.00  0.00     0.001 A 
ATOM     27  C   UNL     1      -3.001   2.784  -0.400  1.00  0.00     0.001 A 
ENDBRANCH  10  14
ENDBRANCH   5   7
BRANCH   4  28
ATOM     28  C   UNL     1       1.524  -1.510   2.470  1.00  0.00     0.168 C 
ATOM     29  N   UNL     1       0.883  -1.397   3.428  1.00  0.00    -0.188 NA
ENDBRANCH   4  28
ENDBRANCH   1   4
BRANCH   1  30
ATOM     30  C   UNL     1       2.551   0.413   0.050  1.00  0.00     0.137 A 
ATOM     31  C   UNL     1       2.626   0.277  -1.350  1.00  0.00     0.068 A 
ATOM     32  C   UNL     1       1.804   1.502   0.599  1.00  0.00     0.028 A 
ATOM     33  C   UNL     1       2.009   1.192  -2.197  1.00  0.00     0.008 A 
ATOM     34  C   UNL     1       1.169   2.412  -0.285  1.00  0.00     0.061 A 
ATOM     35  C   UNL     1       1.285   2.254  -1.669  1.00  0.00     0.020 A 
ATOM     36  C   UNL     1       1.608   1.689   2.090  1.00  0.00     0.052 C 
BRANCH  34  37
ATOM     37  C   UNL     1       0.392   3.527   0.205  1.00  0.00     0.100 C 
ATOM     38  N   UNL     1      -0.229   4.422   0.597  1.00  0.00    -0.192 NA
ENDBRANCH  34  37
ENDBRANCH   1  30
TORSDOF 6


