REMARK SMILES C#CCO/C([O-])=C\[C@@H]1CC[C@@H]2C(OC(=O)[C@H](C)C(F)(F)F)=Nc3c(N=[N+]=[N-])cc(Cl)c1c32
REMARK SMILES IDX 8 1 31 2 29 3 30 4 28 5 24 6 23 7 32 8 11 9 12 10 22 11
REMARK SMILES IDX 10 12 9 13 7 14 5 15 6 16 4 17 3 18 2 19 1 20 25 21 26 22
REMARK SMILES IDX 27 23 13 24 14 25 15 26 16 27 17 28 18 29 19 30 20 31 21 32
REMARK H PARENT
ROOT
ATOM      1  C   UNL     1      -1.320   1.555  -3.528  1.00  0.00     0.045 C 
ATOM      2  C   UNL     1      -0.775   1.945  -2.155  1.00  0.00    -0.016 A 
ATOM      3  C   UNL     1      -1.331   2.978  -1.357  1.00  0.00     0.045 A 
ATOM      4  Cl  UNL     1      -2.421   4.180  -2.038  1.00  0.00    -0.084 Cl
ATOM      5  C   UNL     1      -1.053   3.025   0.028  1.00  0.00     0.033 A 
ATOM      6  C   UNL     1      -0.249   2.030   0.634  1.00  0.00     0.065 A 
ATOM      7  C   UNL     1       0.356   1.091  -0.201  1.00  0.00     0.081 A 
ATOM      8  C   UNL     1       0.177   1.125  -1.553  1.00  0.00    -0.004 A 
ATOM      9  C   UNL     1       0.835  -0.048  -2.156  1.00  0.00     0.109 C 
ATOM     10  C   UNL     1       1.197  -0.796  -0.899  1.00  0.00     0.206 C 
ATOM     11  N   UNL     1       0.975  -0.123   0.195  1.00  0.00    -0.216 NA
ATOM     12  C   UNL     1      -0.133  -0.739  -3.113  1.00  0.00     0.019 C 
ATOM     13  C   UNL     1      -0.630   0.294  -4.150  1.00  0.00     0.014 C 
ENDROOT
BRANCH   1  14
ATOM     14  C   UNL     1      -2.826   1.370  -3.521  1.00  0.00     0.005 C 
BRANCH  14  15
ATOM     15  C   UNL     1      -3.508   0.667  -2.608  1.00  0.00     0.049 C 
ATOM     16  O   UNL     1      -4.890   0.560  -2.730  1.00  0.00    -0.547 OA
BRANCH  15  17
ATOM     17  O   UNL     1      -2.853   0.060  -1.535  1.00  0.00    -0.601 OA
BRANCH  17  18
ATOM     18  C   UNL     1      -3.542  -0.674  -0.533  1.00  0.00     0.160 C 
BRANCH  18  19
ATOM     19  C   UNL     1      -2.572  -1.210   0.422  1.00  0.00    -0.095 C 
ATOM     20  C   UNL     1      -1.772  -1.653   1.207  1.00  0.00     0.005 C 
ENDBRANCH  18  19
ENDBRANCH  17  18
ENDBRANCH  15  17
ENDBRANCH  14  15
ENDBRANCH   1  14
BRANCH   6  21
ATOM     21  N   UNL     1      -0.065   1.947   2.053  1.00  0.00    -0.058 NA
BRANCH  21  22
ATOM     22  N   UNL     1      -0.599   2.740   2.830  1.00  0.00     0.005 N 
ATOM     23  N   UNL     1      -1.132   3.530   3.607  1.00  0.00    -0.003 NA
ENDBRANCH  21  22
ENDBRANCH   6  21
BRANCH  10  24
ATOM     24  O   UNL     1       1.759  -2.078  -0.918  1.00  0.00    -0.410 OA
BRANCH  24  25
ATOM     25  C   UNL     1       2.086  -2.829   0.220  1.00  0.00     0.324 C 
ATOM     26  O   UNL     1       1.905  -2.366   1.380  1.00  0.00    -0.251 OA
BRANCH  25  27
ATOM     27  C   UNL     1       2.664  -4.207   0.042  1.00  0.00     0.201 C 
ATOM     28  C   UNL     1       1.782  -5.250   0.740  1.00  0.00     0.030 C 
BRANCH  27  29
ATOM     29  C   UNL     1       4.118  -4.264   0.540  1.00  0.00     0.401 C 
ATOM     30  F   UNL     1       4.657  -5.511   0.279  1.00  0.00    -0.170 F 
ATOM     31  F   UNL     1       4.181  -4.026   1.903  1.00  0.00    -0.170 F 
ATOM     32  F   UNL     1       4.878  -3.312  -0.117  1.00  0.00    -0.170 F 
ENDBRANCH  27  29
ENDBRANCH  25  27
ENDBRANCH  24  25
ENDBRANCH  10  24
TORSDOF 11


