MODEL 1
REMARK VINA RESULT:      -6.5      0.000      0.000
REMARK SMILES Cc1nnn(/C=C(\O)Nc2cccc(C#N)c2C)c1-c1cc2ccccc2c2ccccc12
REMARK SMILES IDX 7 1 8 2 6 4 5 5 4 6 19 7 3 8 2 9 1 10 20 11 21 12 33 13
REMARK SMILES IDX 22 14 32 15 28 16 23 17 27 18 31 19 29 20 24 21 26 22 30 23
REMARK SMILES IDX 25 24 9 25 10 27 11 28 17 29 12 30 14 31 13 32 18 33 15 34
REMARK SMILES IDX 16 35
REMARK H PARENT 8 3 9 26
ROOT
ATOM      1  C   UNL     1      44.993 132.653  15.718  1.00  0.00     0.207 C 
ENDROOT
BRANCH   1   2
ATOM      2  O   UNL     1      46.212 132.379  15.094  1.00  0.00    -0.493 OA
ATOM      3  H   UNL     1      46.266 132.120  14.118  1.00  0.00     0.295 HD
ENDBRANCH   1   2
BRANCH   1   4
ATOM      4  C   UNL     1      44.362 131.701  16.420  1.00  0.00     0.181 C 
BRANCH   4   5
ATOM      5  N   UNL     1      44.511 131.540  17.843  1.00  0.00    -0.214 N 
ATOM      6  N   UNL     1      45.421 130.784  18.441  1.00  0.00    -0.062 NA
ATOM      7  C   UNL     1      43.818 132.186  18.802  1.00  0.00     0.097 A 
ATOM      8  N   UNL     1      45.346 130.913  19.759  1.00  0.00    -0.135 NA
ATOM      9  C   UNL     1      44.347 131.783  20.011  1.00  0.00     0.088 A 
ATOM     10  C   UNL     1      43.966 132.260  21.374  1.00  0.00     0.071 C 
BRANCH   7  11
ATOM     11  C   UNL     1      42.736 133.172  18.579  1.00  0.00     0.011 A 
ATOM     12  C   UNL     1      41.486 132.690  18.197  1.00  0.00     0.019 A 
ATOM     13  C   UNL     1      42.931 134.562  18.761  1.00  0.00    -0.008 A 
ATOM     14  C   UNL     1      40.404 133.553  18.014  1.00  0.00    -0.017 A 
ATOM     15  C   UNL     1      44.205 135.073  19.094  1.00  0.00     0.009 A 
ATOM     16  C   UNL     1      41.837 135.465  18.589  1.00  0.00    -0.010 A 
ATOM     17  C   UNL     1      39.160 133.019  17.638  1.00  0.00     0.009 A 
ATOM     18  C   UNL     1      40.556 134.952  18.214  1.00  0.00    -0.010 A 
ATOM     19  C   UNL     1      44.400 136.437  19.286  1.00  0.00     0.001 A 
ATOM     20  C   UNL     1      42.072 136.848  18.793  1.00  0.00     0.009 A 
ATOM     21  C   UNL     1      38.060 133.853  17.457  1.00  0.00     0.001 A 
ATOM     22  C   UNL     1      39.416 135.775  18.026  1.00  0.00     0.009 A 
ATOM     23  C   UNL     1      43.338 137.319  19.139  1.00  0.00     0.001 A 
ATOM     24  C   UNL     1      38.188 135.226  17.652  1.00  0.00     0.001 A 
ENDBRANCH   7  11
ENDBRANCH   4   5
ENDBRANCH   1   4
BRANCH   1  25
ATOM     25  N   UNL     1      44.411 133.964  15.627  1.00  0.00    -0.325 N 
ATOM     26  H   UNL     1      44.966 134.778  15.975  1.00  0.00     0.170 HD
BRANCH  25  27
ATOM     27  C   UNL     1      43.086 134.207  15.121  1.00  0.00     0.045 A 
ATOM     28  C   UNL     1      42.274 133.125  14.741  1.00  0.00     0.026 A 
ATOM     29  C   UNL     1      42.563 135.525  15.069  1.00  0.00    -0.010 A 
ATOM     30  C   UNL     1      40.966 133.333  14.309  1.00  0.00     0.004 A 
ATOM     31  C   UNL     1      41.218 135.718  14.663  1.00  0.00     0.057 A 
ATOM     32  C   UNL     1      40.437 134.622  14.276  1.00  0.00     0.020 A 
ATOM     33  C   UNL     1      43.428 136.696  15.480  1.00  0.00     0.048 C 
BRANCH  31  34
ATOM     34  C   UNL     1      40.611 137.029  14.639  1.00  0.00     0.099 C 
ATOM     35  N   UNL     1      40.126 138.081  14.620  1.00  0.00    -0.192 NA
ENDBRANCH  31  34
ENDBRANCH  25  27
ENDBRANCH   1  25
TORSDOF 7
ENDMDL
MODEL 2
REMARK VINA RESULT:      -6.4      0.809      1.516
REMARK SMILES Cc1nnn(/C=C(\O)Nc2cccc(C#N)c2C)c1-c1cc2ccccc2c2ccccc12
REMARK SMILES IDX 7 1 8 2 6 4 5 5 4 6 19 7 3 8 2 9 1 10 20 11 21 12 33 13
REMARK SMILES IDX 22 14 32 15 28 16 23 17 27 18 31 19 29 20 24 21 26 22 30 23
REMARK SMILES IDX 25 24 9 25 10 27 11 28 17 29 12 30 14 31 13 32 18 33 15 34
REMARK SMILES IDX 16 35
REMARK H PARENT 8 3 9 26
ROOT
ATOM      1  C   UNL     1      44.171 132.829  15.468  1.00  0.00     0.207 C 
ENDROOT
BRANCH   1   2
ATOM      2  O   UNL     1      45.400 133.483  15.579  1.00  0.00    -0.493 OA
ATOM      3  H   UNL     1      46.049 133.277  16.328  1.00  0.00     0.295 HD
ENDBRANCH   1   2
BRANCH   1   4
ATOM      4  C   UNL     1      43.932 131.712  16.168  1.00  0.00     0.181 C 
BRANCH   4   5
ATOM      5  N   UNL     1      44.222 131.582  17.572  1.00  0.00    -0.214 N 
ATOM      6  N   UNL     1      45.172 130.821  18.095  1.00  0.00    -0.062 NA
ATOM      7  C   UNL     1      43.642 132.266  18.579  1.00  0.00     0.097 A 
ATOM      8  N   UNL     1      45.234 130.984  19.410  1.00  0.00    -0.135 NA
ATOM      9  C   UNL     1      44.283 131.881  19.738  1.00  0.00     0.088 A 
ATOM     10  C   UNL     1      44.052 132.400  21.119  1.00  0.00     0.071 C 
BRANCH   7  11
ATOM     11  C   UNL     1      42.563 133.271  18.440  1.00  0.00     0.011 A 
ATOM     12  C   UNL     1      41.268 132.807  18.218  1.00  0.00     0.019 A 
ATOM     13  C   UNL     1      42.806 134.661  18.546  1.00  0.00    -0.008 A 
ATOM     14  C   UNL     1      40.190 133.690  18.125  1.00  0.00    -0.017 A 
ATOM     15  C   UNL     1      44.120 135.152  18.714  1.00  0.00     0.009 A 
ATOM     16  C   UNL     1      41.719 135.584  18.462  1.00  0.00    -0.010 A 
ATOM     17  C   UNL     1      38.901 133.174  17.910  1.00  0.00     0.009 A 
ATOM     18  C   UNL     1      40.393 135.090  18.253  1.00  0.00    -0.010 A 
ATOM     19  C   UNL     1      44.363 136.516  18.831  1.00  0.00     0.001 A 
ATOM     20  C   UNL     1      42.004 136.967  18.585  1.00  0.00     0.009 A 
ATOM     21  C   UNL     1      37.805 134.028  17.822  1.00  0.00     0.001 A 
ATOM     22  C   UNL     1      39.257 135.935  18.161  1.00  0.00     0.009 A 
ATOM     23  C   UNL     1      43.311 137.419  18.770  1.00  0.00     0.001 A 
ATOM     24  C   UNL     1      37.983 135.403  17.948  1.00  0.00     0.001 A 
ENDBRANCH   7  11
ENDBRANCH   4   5
ENDBRANCH   1   4
BRANCH   1  25
ATOM     25  N   UNL     1      43.144 133.359  14.613  1.00  0.00    -0.325 N 
ATOM     26  H   UNL     1      42.822 132.778  13.806  1.00  0.00     0.170 HD
BRANCH  25  27
ATOM     27  C   UNL     1      42.566 134.666  14.787  1.00  0.00     0.045 A 
ATOM     28  C   UNL     1      43.401 135.772  15.019  1.00  0.00     0.026 A 
ATOM     29  C   UNL     1      41.167 134.861  14.654  1.00  0.00    -0.010 A 
ATOM     30  C   UNL     1      42.870 137.056  15.125  1.00  0.00     0.004 A 
ATOM     31  C   UNL     1      40.645 136.177  14.727  1.00  0.00     0.057 A 
ATOM     32  C   UNL     1      41.499 137.259  14.974  1.00  0.00     0.020 A 
ATOM     33  C   UNL     1      40.262 133.677  14.400  1.00  0.00     0.048 C 
BRANCH  31  34
ATOM     34  C   UNL     1      39.237 136.448  14.548  1.00  0.00     0.099 C 
ATOM     35  N   UNL     1      38.108 136.666  14.404  1.00  0.00    -0.192 NA
ENDBRANCH  31  34
ENDBRANCH  25  27
ENDBRANCH   1  25
TORSDOF 7
ENDMDL
MODEL 3
REMARK VINA RESULT:      -6.1      2.592      5.698
REMARK SMILES Cc1nnn(/C=C(\O)Nc2cccc(C#N)c2C)c1-c1cc2ccccc2c2ccccc12
REMARK SMILES IDX 7 1 8 2 6 4 5 5 4 6 19 7 3 8 2 9 1 10 20 11 21 12 33 13
REMARK SMILES IDX 22 14 32 15 28 16 23 17 27 18 31 19 29 20 24 21 26 22 30 23
REMARK SMILES IDX 25 24 9 25 10 27 11 28 17 29 12 30 14 31 13 32 18 33 15 34
REMARK SMILES IDX 16 35
REMARK H PARENT 8 3 9 26
ROOT
ATOM      1  C   UNL     1      42.078 132.497  14.589  1.00  0.00     0.207 C 
ENDROOT
BRANCH   1   2
ATOM      2  O   UNL     1      40.867 132.541  13.896  1.00  0.00    -0.493 OA
ATOM      3  H   UNL     1      40.163 133.240  14.094  1.00  0.00     0.295 HD
ENDBRANCH   1   2
BRANCH   1   4
ATOM      4  C   UNL     1      42.204 133.110  15.774  1.00  0.00     0.181 C 
BRANCH   4   5
ATOM      5  N   UNL     1      41.080 133.530  16.569  1.00  0.00    -0.214 N 
ATOM      6  N   UNL     1      39.827 133.621  16.145  1.00  0.00    -0.062 NA
ATOM      7  C   UNL     1      41.090 133.818  17.887  1.00  0.00     0.097 A 
ATOM      8  N   UNL     1      39.018 133.959  17.140  1.00  0.00    -0.135 NA
ATOM      9  C   UNL     1      39.785 134.093  18.240  1.00  0.00     0.088 A 
ATOM     10  C   UNL     1      39.260 134.406  19.603  1.00  0.00     0.071 C 
BRANCH   7  11
ATOM     11  C   UNL     1      42.274 133.790  18.774  1.00  0.00     0.011 A 
ATOM     12  C   UNL     1      42.557 132.600  19.442  1.00  0.00     0.019 A 
ATOM     13  C   UNL     1      43.120 134.912  18.943  1.00  0.00    -0.008 A 
ATOM     14  C   UNL     1      43.684 132.480  20.259  1.00  0.00    -0.017 A 
ATOM     15  C   UNL     1      42.817 136.142  18.319  1.00  0.00     0.009 A 
ATOM     16  C   UNL     1      44.283 134.811  19.766  1.00  0.00    -0.010 A 
ATOM     17  C   UNL     1      43.933 131.257  20.903  1.00  0.00     0.009 A 
ATOM     18  C   UNL     1      44.570 133.577  20.430  1.00  0.00    -0.010 A 
ATOM     19  C   UNL     1      43.652 137.245  18.471  1.00  0.00     0.001 A 
ATOM     20  C   UNL     1      45.111 135.954  19.898  1.00  0.00     0.009 A 
ATOM     21  C   UNL     1      45.052 131.103  21.717  1.00  0.00     0.001 A 
ATOM     22  C   UNL     1      45.703 133.389  21.262  1.00  0.00     0.009 A 
ATOM     23  C   UNL     1      44.794 137.150  19.254  1.00  0.00     0.001 A 
ATOM     24  C   UNL     1      45.934 132.165  21.894  1.00  0.00     0.001 A 
ENDBRANCH   7  11
ENDBRANCH   4   5
ENDBRANCH   1   4
BRANCH   1  25
ATOM     25  N   UNL     1      43.198 131.779  14.045  1.00  0.00    -0.325 N 
ATOM     26  H   UNL     1      43.183 131.532  13.029  1.00  0.00     0.170 HD
BRANCH  25  27
ATOM     27  C   UNL     1      44.320 131.345  14.836  1.00  0.00     0.045 A 
ATOM     28  C   UNL     1      44.248 131.401  16.238  1.00  0.00     0.026 A 
ATOM     29  C   UNL     1      45.470 130.792  14.217  1.00  0.00    -0.010 A 
ATOM     30  C   UNL     1      45.295 130.926  17.025  1.00  0.00     0.004 A 
ATOM     31  C   UNL     1      46.512 130.279  15.030  1.00  0.00     0.057 A 
ATOM     32  C   UNL     1      46.419 130.362  16.425  1.00  0.00     0.020 A 
ATOM     33  C   UNL     1      45.554 130.724  12.708  1.00  0.00     0.048 C 
BRANCH  31  34
ATOM     34  C   UNL     1      47.685 129.657  14.461  1.00  0.00     0.099 C 
ATOM     35  N   UNL     1      48.627 129.159  14.005  1.00  0.00    -0.192 NA
ENDBRANCH  31  34
ENDBRANCH  25  27
ENDBRANCH   1  25
TORSDOF 7
ENDMDL
MODEL 4
REMARK VINA RESULT:      -5.8      1.156      1.767
REMARK SMILES Cc1nnn(/C=C(\O)Nc2cccc(C#N)c2C)c1-c1cc2ccccc2c2ccccc12
REMARK SMILES IDX 7 1 8 2 6 4 5 5 4 6 19 7 3 8 2 9 1 10 20 11 21 12 33 13
REMARK SMILES IDX 22 14 32 15 28 16 23 17 27 18 31 19 29 20 24 21 26 22 30 23
REMARK SMILES IDX 25 24 9 25 10 27 11 28 17 29 12 30 14 31 13 32 18 33 15 34
REMARK SMILES IDX 16 35
REMARK H PARENT 8 3 9 26
ROOT
ATOM      1  C   UNL     1      44.495 131.903  16.612  1.00  0.00     0.207 C 
ENDROOT
BRANCH   1   2
ATOM      2  O   UNL     1      43.892 130.649  16.496  1.00  0.00    -0.493 OA
ATOM      3  H   UNL     1      44.258 129.935  15.879  1.00  0.00     0.295 HD
ENDBRANCH   1   2
BRANCH   1   4
ATOM      4  C   UNL     1      45.094 132.264  17.754  1.00  0.00     0.181 C 
BRANCH   4   5
ATOM      5  N   UNL     1      44.634 131.849  19.053  1.00  0.00    -0.214 N 
ATOM      6  N   UNL     1      45.270 131.018  19.867  1.00  0.00    -0.062 NA
ATOM      7  C   UNL     1      43.535 132.294  19.697  1.00  0.00     0.097 A 
ATOM      8  N   UNL     1      44.624 130.903  21.020  1.00  0.00    -0.135 NA
ATOM      9  C   UNL     1      43.532 131.689  20.937  1.00  0.00     0.088 A 
ATOM     10  C   UNL     1      42.557 131.901  22.048  1.00  0.00     0.071 C 
BRANCH   7  11
ATOM     11  C   UNL     1      42.561 133.279  19.176  1.00  0.00     0.011 A 
ATOM     12  C   UNL     1      41.442 132.794  18.503  1.00  0.00     0.019 A 
ATOM     13  C   UNL     1      42.724 134.673  19.358  1.00  0.00    -0.008 A 
ATOM     14  C   UNL     1      40.454 133.657  18.024  1.00  0.00    -0.017 A 
ATOM     15  C   UNL     1      43.880 135.186  19.988  1.00  0.00     0.009 A 
ATOM     16  C   UNL     1      41.723 135.577  18.886  1.00  0.00    -0.010 A 
ATOM     17  C   UNL     1      39.339 133.120  17.360  1.00  0.00     0.009 A 
ATOM     18  C   UNL     1      40.572 135.061  18.213  1.00  0.00    -0.010 A 
ATOM     19  C   UNL     1      44.040 136.555  20.181  1.00  0.00     0.001 A 
ATOM     20  C   UNL     1      41.920 136.964  19.100  1.00  0.00     0.009 A 
ATOM     21  C   UNL     1      38.334 133.955  16.880  1.00  0.00     0.001 A 
ATOM     22  C   UNL     1      39.530 135.885  17.716  1.00  0.00     0.009 A 
ATOM     23  C   UNL     1      43.064 137.438  19.743  1.00  0.00     0.001 A 
ATOM     24  C   UNL     1      38.429 135.332  17.059  1.00  0.00     0.001 A 
ENDBRANCH   7  11
ENDBRANCH   4   5
ENDBRANCH   1   4
BRANCH   1  25
ATOM     25  N   UNL     1      44.492 132.813  15.499  1.00  0.00    -0.325 N 
ATOM     26  H   UNL     1      45.156 132.636  14.712  1.00  0.00     0.170 HD
BRANCH  25  27
ATOM     27  C   UNL     1      43.651 133.980  15.434  1.00  0.00     0.045 A 
ATOM     28  C   UNL     1      44.109 135.200  15.960  1.00  0.00     0.026 A 
ATOM     29  C   UNL     1      42.394 133.929  14.779  1.00  0.00    -0.010 A 
ATOM     30  C   UNL     1      43.341 136.357  15.850  1.00  0.00     0.004 A 
ATOM     31  C   UNL     1      41.639 135.122  14.642  1.00  0.00     0.057 A 
ATOM     32  C   UNL     1      42.114 136.320  15.189  1.00  0.00     0.020 A 
ATOM     33  C   UNL     1      41.895 132.622  14.206  1.00  0.00     0.048 C 
BRANCH  31  34
ATOM     34  C   UNL     1      40.376 135.146  13.941  1.00  0.00     0.099 C 
ATOM     35  N   UNL     1      39.363 135.168  13.378  1.00  0.00    -0.192 NA
ENDBRANCH  31  34
ENDBRANCH  25  27
ENDBRANCH   1  25
TORSDOF 7
ENDMDL
MODEL 5
REMARK VINA RESULT:      -5.8      2.555      5.703
REMARK SMILES Cc1nnn(/C=C(\O)Nc2cccc(C#N)c2C)c1-c1cc2ccccc2c2ccccc12
REMARK SMILES IDX 7 1 8 2 6 4 5 5 4 6 19 7 3 8 2 9 1 10 20 11 21 12 33 13
REMARK SMILES IDX 22 14 32 15 28 16 23 17 27 18 31 19 29 20 24 21 26 22 30 23
REMARK SMILES IDX 25 24 9 25 10 27 11 28 17 29 12 30 14 31 13 32 18 33 15 34
REMARK SMILES IDX 16 35
REMARK H PARENT 8 3 9 26
ROOT
ATOM      1  C   UNL     1      42.295 133.001  14.998  1.00  0.00     0.207 C 
ENDROOT
BRANCH   1   2
ATOM      2  O   UNL     1      41.106 133.318  14.338  1.00  0.00    -0.493 OA
ATOM      3  H   UNL     1      40.430 132.610  14.083  1.00  0.00     0.295 HD
ENDBRANCH   1   2
BRANCH   1   4
ATOM      4  C   UNL     1      42.772 133.802  15.960  1.00  0.00     0.181 C 
BRANCH   4   5
ATOM      5  N   UNL     1      41.998 134.852  16.568  1.00  0.00    -0.214 N 
ATOM      6  N   UNL     1      41.095 135.601  15.950  1.00  0.00    -0.062 NA
ATOM      7  C   UNL     1      41.994 135.196  17.872  1.00  0.00     0.097 A 
ATOM      8  N   UNL     1      40.501 136.423  16.805  1.00  0.00    -0.135 NA
ATOM      9  C   UNL     1      41.049 136.191  18.015  1.00  0.00     0.088 A 
ATOM     10  C   UNL     1      40.622 136.863  19.279  1.00  0.00     0.071 C 
BRANCH   7  11
ATOM     11  C   UNL     1      42.814 134.577  18.938  1.00  0.00     0.011 A 
ATOM     12  C   UNL     1      42.440 133.315  19.396  1.00  0.00     0.019 A 
ATOM     13  C   UNL     1      43.958 135.212  19.477  1.00  0.00    -0.008 A 
ATOM     14  C   UNL     1      43.191 132.645  20.364  1.00  0.00    -0.017 A 
ATOM     15  C   UNL     1      44.320 136.514  19.065  1.00  0.00     0.009 A 
ATOM     16  C   UNL     1      44.748 134.544  20.462  1.00  0.00    -0.010 A 
ATOM     17  C   UNL     1      42.779 131.371  20.788  1.00  0.00     0.009 A 
ATOM     18  C   UNL     1      44.360 133.242  20.908  1.00  0.00    -0.010 A 
ATOM     19  C   UNL     1      45.450 137.139  19.583  1.00  0.00     0.001 A 
ATOM     20  C   UNL     1      45.892 135.210  20.967  1.00  0.00     0.009 A 
ATOM     21  C   UNL     1      43.512 130.675  21.745  1.00  0.00     0.001 A 
ATOM     22  C   UNL     1      45.087 132.507  21.879  1.00  0.00     0.009 A 
ATOM     23  C   UNL     1      46.234 136.489  20.526  1.00  0.00     0.001 A 
ATOM     24  C   UNL     1      44.662 131.240  22.287  1.00  0.00     0.001 A 
ENDBRANCH   7  11
ENDBRANCH   4   5
ENDBRANCH   1   4
BRANCH   1  25
ATOM     25  N   UNL     1      43.011 131.800  14.662  1.00  0.00    -0.325 N 
ATOM     26  H   UNL     1      42.631 131.193  13.900  1.00  0.00     0.170 HD
BRANCH  25  27
ATOM     27  C   UNL     1      44.200 131.370  15.349  1.00  0.00     0.045 A 
ATOM     28  C   UNL     1      44.243 131.396  16.753  1.00  0.00     0.026 A 
ATOM     29  C   UNL     1      45.305 130.850  14.626  1.00  0.00    -0.010 A 
ATOM     30  C   UNL     1      45.358 130.924  17.441  1.00  0.00     0.004 A 
ATOM     31  C   UNL     1      46.418 130.339  15.340  1.00  0.00     0.057 A 
ATOM     32  C   UNL     1      46.438 130.391  16.740  1.00  0.00     0.020 A 
ATOM     33  C   UNL     1      45.266 130.814  13.114  1.00  0.00     0.048 C 
BRANCH  31  34
ATOM     34  C   UNL     1      47.550 129.749  14.664  1.00  0.00     0.099 C 
ATOM     35  N   UNL     1      48.458 129.275  14.122  1.00  0.00    -0.192 NA
ENDBRANCH  31  34
ENDBRANCH  25  27
ENDBRANCH   1  25
TORSDOF 7
ENDMDL
MODEL 6
REMARK VINA RESULT:      -5.8      1.431      2.106
REMARK SMILES Cc1nnn(/C=C(\O)Nc2cccc(C#N)c2C)c1-c1cc2ccccc2c2ccccc12
REMARK SMILES IDX 7 1 8 2 6 4 5 5 4 6 19 7 3 8 2 9 1 10 20 11 21 12 33 13
REMARK SMILES IDX 22 14 32 15 28 16 23 17 27 18 31 19 29 20 24 21 26 22 30 23
REMARK SMILES IDX 25 24 9 25 10 27 11 28 17 29 12 30 14 31 13 32 18 33 15 34
REMARK SMILES IDX 16 35
REMARK H PARENT 8 3 9 26
ROOT
ATOM      1  C   UNL     1      42.794 132.526  14.337  1.00  0.00     0.207 C 
ENDROOT
BRANCH   1   2
ATOM      2  O   UNL     1      42.948 131.230  13.842  1.00  0.00    -0.493 OA
ATOM      3  H   UNL     1      42.889 130.418  14.443  1.00  0.00     0.295 HD
ENDBRANCH   1   2
BRANCH   1   4
ATOM      4  C   UNL     1      43.667 133.021  15.225  1.00  0.00     0.181 C 
BRANCH   4   5
ATOM      5  N   UNL     1      44.026 132.341  16.442  1.00  0.00    -0.214 N 
ATOM      6  N   UNL     1      45.025 131.481  16.578  1.00  0.00    -0.062 NA
ATOM      7  C   UNL     1      43.471 132.523  17.658  1.00  0.00     0.097 A 
ATOM      8  N   UNL     1      45.143 131.093  17.842  1.00  0.00    -0.135 NA
ATOM      9  C   UNL     1      44.178 131.729  18.537  1.00  0.00     0.088 A 
ATOM     10  C   UNL     1      43.995 131.624  20.015  1.00  0.00     0.071 C 
BRANCH   7  11
ATOM     11  C   UNL     1      42.354 133.441  17.976  1.00  0.00     0.011 A 
ATOM     12  C   UNL     1      41.055 132.958  17.834  1.00  0.00     0.019 A 
ATOM     13  C   UNL     1      42.568 134.764  18.431  1.00  0.00    -0.008 A 
ATOM     14  C   UNL     1      39.950 133.747  18.161  1.00  0.00    -0.017 A 
ATOM     15  C   UNL     1      43.877 135.289  18.527  1.00  0.00     0.009 A 
ATOM     16  C   UNL     1      41.455 135.588  18.780  1.00  0.00    -0.010 A 
ATOM     17  C   UNL     1      38.660 133.212  18.010  1.00  0.00     0.009 A 
ATOM     18  C   UNL     1      40.129 135.070  18.646  1.00  0.00    -0.010 A 
ATOM     19  C   UNL     1      44.094 136.584  18.986  1.00  0.00     0.001 A 
ATOM     20  C   UNL     1      41.714 136.902  19.243  1.00  0.00     0.009 A 
ATOM     21  C   UNL     1      37.539 133.971  18.335  1.00  0.00     0.001 A 
ATOM     22  C   UNL     1      38.968 135.818  18.972  1.00  0.00     0.009 A 
ATOM     23  C   UNL     1      43.019 137.385  19.345  1.00  0.00     0.001 A 
ATOM     24  C   UNL     1      37.694 135.268  18.816  1.00  0.00     0.001 A 
ENDBRANCH   7  11
ENDBRANCH   4   5
ENDBRANCH   1   4
BRANCH   1  25
ATOM     25  N   UNL     1      41.706 133.349  13.885  1.00  0.00    -0.325 N 
ATOM     26  H   UNL     1      41.164 133.039  13.047  1.00  0.00     0.170 HD
BRANCH  25  27
ATOM     27  C   UNL     1      41.351 134.600  14.502  1.00  0.00     0.045 A 
ATOM     28  C   UNL     1      42.354 135.534  14.815  1.00  0.00     0.026 A 
ATOM     29  C   UNL     1      39.991 134.933  14.733  1.00  0.00    -0.010 A 
ATOM     30  C   UNL     1      42.029 136.777  15.352  1.00  0.00     0.004 A 
ATOM     31  C   UNL     1      39.672 136.215  15.246  1.00  0.00     0.057 A 
ATOM     32  C   UNL     1      40.694 137.119  15.562  1.00  0.00     0.020 A 
ATOM     33  C   UNL     1      38.905 133.936  14.396  1.00  0.00     0.048 C 
BRANCH  31  34
ATOM     34  C   UNL     1      38.305 136.633  15.454  1.00  0.00     0.099 C 
ATOM     35  N   UNL     1      37.208 136.969  15.620  1.00  0.00    -0.192 NA
ENDBRANCH  31  34
ENDBRANCH  25  27
ENDBRANCH   1  25
TORSDOF 7
ENDMDL
MODEL 7
REMARK VINA RESULT:      -5.6      3.797      6.315
REMARK SMILES Cc1nnn(/C=C(\O)Nc2cccc(C#N)c2C)c1-c1cc2ccccc2c2ccccc12
REMARK SMILES IDX 7 1 8 2 6 4 5 5 4 6 19 7 3 8 2 9 1 10 20 11 21 12 33 13
REMARK SMILES IDX 22 14 32 15 28 16 23 17 27 18 31 19 29 20 24 21 26 22 30 23
REMARK SMILES IDX 25 24 9 25 10 27 11 28 17 29 12 30 14 31 13 32 18 33 15 34
REMARK SMILES IDX 16 35
REMARK H PARENT 8 3 9 26
ROOT
ATOM      1  C   UNL     1      44.101 131.808  20.301  1.00  0.00     0.207 C 
ENDROOT
BRANCH   1   2
ATOM      2  O   UNL     1      42.804 131.548  20.748  1.00  0.00    -0.493 OA
ATOM      3  H   UNL     1      42.011 132.089  20.429  1.00  0.00     0.295 HD
ENDBRANCH   1   2
BRANCH   1   4
ATOM      4  C   UNL     1      44.909 132.619  20.997  1.00  0.00     0.181 C 
BRANCH   4   5
ATOM      5  N   UNL     1      44.493 133.316  22.186  1.00  0.00    -0.214 N 
ATOM      6  N   UNL     1      43.805 132.787  23.188  1.00  0.00    -0.062 NA
ATOM      7  C   UNL     1      44.801 134.585  22.524  1.00  0.00     0.097 A 
ATOM      8  N   UNL     1      43.652 133.667  24.169  1.00  0.00    -0.135 NA
ATOM      9  C   UNL     1      44.263 134.802  23.775  1.00  0.00     0.088 A 
ATOM     10  C   UNL     1      44.383 136.032  24.614  1.00  0.00     0.071 C 
BRANCH   7  11
ATOM     11  C   UNL     1      45.606 135.529  21.716  1.00  0.00     0.011 A 
ATOM     12  C   UNL     1      44.932 136.358  20.822  1.00  0.00     0.019 A 
ATOM     13  C   UNL     1      47.013 135.622  21.840  1.00  0.00    -0.008 A 
ATOM     14  C   UNL     1      45.616 137.308  20.061  1.00  0.00    -0.017 A 
ATOM     15  C   UNL     1      47.719 134.750  22.699  1.00  0.00     0.009 A 
ATOM     16  C   UNL     1      47.734 136.591  21.078  1.00  0.00    -0.010 A 
ATOM     17  C   UNL     1      44.891 138.129  19.180  1.00  0.00     0.009 A 
ATOM     18  C   UNL     1      47.025 137.448  20.180  1.00  0.00    -0.010 A 
ATOM     19  C   UNL     1      49.100 134.845  22.835  1.00  0.00     0.001 A 
ATOM     20  C   UNL     1      49.141 136.660  21.242  1.00  0.00     0.009 A 
ATOM     21  C   UNL     1      45.544 139.091  18.414  1.00  0.00     0.001 A 
ATOM     22  C   UNL     1      47.661 138.439  19.388  1.00  0.00     0.009 A 
ATOM     23  C   UNL     1      49.807 135.797  22.113  1.00  0.00     0.001 A 
ATOM     24  C   UNL     1      46.923 139.246  18.520  1.00  0.00     0.001 A 
ENDBRANCH   7  11
ENDBRANCH   4   5
ENDBRANCH   1   4
BRANCH   1  25
ATOM     25  N   UNL     1      44.588 131.194  19.095  1.00  0.00    -0.325 N 
ATOM     26  H   UNL     1      44.888 130.194  19.134  1.00  0.00     0.170 HD
BRANCH  25  27
ATOM     27  C   UNL     1      44.725 131.899  17.848  1.00  0.00     0.045 A 
ATOM     28  C   UNL     1      44.119 133.156  17.687  1.00  0.00     0.026 A 
ATOM     29  C   UNL     1      45.527 131.370  16.803  1.00  0.00    -0.010 A 
ATOM     30  C   UNL     1      44.292 133.885  16.512  1.00  0.00     0.004 A 
ATOM     31  C   UNL     1      45.724 132.139  15.628  1.00  0.00     0.057 A 
ATOM     32  C   UNL     1      45.095 133.383  15.490  1.00  0.00     0.020 A 
ATOM     33  C   UNL     1      46.186 130.020  16.970  1.00  0.00     0.048 C 
BRANCH  31  34
ATOM     34  C   UNL     1      46.570 131.680  14.552  1.00  0.00     0.099 C 
ATOM     35  N   UNL     1      47.250 131.313  13.688  1.00  0.00    -0.192 NA
ENDBRANCH  31  34
ENDBRANCH  25  27
ENDBRANCH   1  25
TORSDOF 7
ENDMDL
MODEL 8
REMARK VINA RESULT:      -5.6      2.697      5.517
REMARK SMILES Cc1nnn(/C=C(\O)Nc2cccc(C#N)c2C)c1-c1cc2ccccc2c2ccccc12
REMARK SMILES IDX 7 1 8 2 6 4 5 5 4 6 19 7 3 8 2 9 1 10 20 11 21 12 33 13
REMARK SMILES IDX 22 14 32 15 28 16 23 17 27 18 31 19 29 20 24 21 26 22 30 23
REMARK SMILES IDX 25 24 9 25 10 27 11 28 17 29 12 30 14 31 13 32 18 33 15 34
REMARK SMILES IDX 16 35
REMARK H PARENT 8 3 9 26
ROOT
ATOM      1  C   UNL     1      39.832 134.094  15.059  1.00  0.00     0.207 C 
ENDROOT
BRANCH   1   2
ATOM      2  O   UNL     1      39.169 133.249  14.166  1.00  0.00    -0.493 OA
ATOM      3  H   UNL     1      39.009 132.272  14.374  1.00  0.00     0.295 HD
ENDBRANCH   1   2
BRANCH   1   4
ATOM      4  C   UNL     1      41.159 134.003  15.220  1.00  0.00     0.181 C 
BRANCH   4   5
ATOM      5  N   UNL     1      41.997 135.134  15.524  1.00  0.00    -0.214 N 
ATOM      6  N   UNL     1      41.955 136.310  14.914  1.00  0.00    -0.062 NA
ATOM      7  C   UNL     1      42.897 135.222  16.525  1.00  0.00     0.097 A 
ATOM      8  N   UNL     1      42.797 137.163  15.481  1.00  0.00    -0.135 NA
ATOM      9  C   UNL     1      43.402 136.505  16.489  1.00  0.00     0.088 A 
ATOM     10  C   UNL     1      44.385 137.120  17.431  1.00  0.00     0.071 C 
BRANCH   7  11
ATOM     11  C   UNL     1      43.226 134.153  17.495  1.00  0.00     0.011 A 
ATOM     12  C   UNL     1      42.617 134.201  18.747  1.00  0.00     0.019 A 
ATOM     13  C   UNL     1      44.111 133.093  17.182  1.00  0.00    -0.008 A 
ATOM     14  C   UNL     1      42.839 133.204  19.699  1.00  0.00    -0.017 A 
ATOM     15  C   UNL     1      44.781 133.059  15.939  1.00  0.00     0.009 A 
ATOM     16  C   UNL     1      44.348 132.056  18.135  1.00  0.00    -0.010 A 
ATOM     17  C   UNL     1      42.195 133.291  20.944  1.00  0.00     0.009 A 
ATOM     18  C   UNL     1      43.700 132.111  19.408  1.00  0.00    -0.010 A 
ATOM     19  C   UNL     1      45.642 132.013  15.620  1.00  0.00     0.001 A 
ATOM     20  C   UNL     1      45.231 131.007  17.777  1.00  0.00     0.009 A 
ATOM     21  C   UNL     1      42.389 132.307  21.909  1.00  0.00     0.001 A 
ATOM     22  C   UNL     1      43.876 131.123  20.411  1.00  0.00     0.009 A 
ATOM     23  C   UNL     1      45.863 130.992  16.533  1.00  0.00     0.001 A 
ATOM     24  C   UNL     1      43.226 131.227  21.643  1.00  0.00     0.001 A 
ENDBRANCH   7  11
ENDBRANCH   4   5
ENDBRANCH   1   4
BRANCH   1  25
ATOM     25  N   UNL     1      39.098 135.081  15.803  1.00  0.00    -0.325 N 
ATOM     26  H   UNL     1      38.851 135.978  15.327  1.00  0.00     0.170 HD
BRANCH  25  27
ATOM     27  C   UNL     1      38.723 134.914  17.183  1.00  0.00     0.045 A 
ATOM     28  C   UNL     1      37.967 133.795  17.571  1.00  0.00     0.026 A 
ATOM     29  C   UNL     1      39.170 135.831  18.169  1.00  0.00    -0.010 A 
ATOM     30  C   UNL     1      37.648 133.580  18.909  1.00  0.00     0.004 A 
ATOM     31  C   UNL     1      38.870 135.580  19.532  1.00  0.00     0.057 A 
ATOM     32  C   UNL     1      38.102 134.464  19.887  1.00  0.00     0.020 A 
ATOM     33  C   UNL     1      39.987 137.037  17.761  1.00  0.00     0.048 C 
BRANCH  31  34
ATOM     34  C   UNL     1      39.340 136.447  20.587  1.00  0.00     0.099 C 
ATOM     35  N   UNL     1      39.717 137.142  21.434  1.00  0.00    -0.192 NA
ENDBRANCH  31  34
ENDBRANCH  25  27
ENDBRANCH   1  25
TORSDOF 7
ENDMDL
MODEL 9
REMARK VINA RESULT:      -5.6      2.416      4.991
REMARK SMILES Cc1nnn(/C=C(\O)Nc2cccc(C#N)c2C)c1-c1cc2ccccc2c2ccccc12
REMARK SMILES IDX 7 1 8 2 6 4 5 5 4 6 19 7 3 8 2 9 1 10 20 11 21 12 33 13
REMARK SMILES IDX 22 14 32 15 28 16 23 17 27 18 31 19 29 20 24 21 26 22 30 23
REMARK SMILES IDX 25 24 9 25 10 27 11 28 17 29 12 30 14 31 13 32 18 33 15 34
REMARK SMILES IDX 16 35
REMARK H PARENT 8 3 9 26
ROOT
ATOM      1  C   UNL     1      42.375 132.826  14.658  1.00  0.00     0.207 C 
ENDROOT
BRANCH   1   2
ATOM      2  O   UNL     1      41.972 131.800  13.802  1.00  0.00    -0.493 OA
ATOM      3  H   UNL     1      41.586 131.989  12.886  1.00  0.00     0.295 HD
ENDBRANCH   1   2
BRANCH   1   4
ATOM      4  C   UNL     1      41.727 133.998  14.664  1.00  0.00     0.181 C 
BRANCH   4   5
ATOM      5  N   UNL     1      40.291 134.107  14.646  1.00  0.00    -0.214 N 
ATOM      6  N   UNL     1      39.492 133.602  13.716  1.00  0.00    -0.062 NA
ATOM      7  C   UNL     1      39.514 134.657  15.601  1.00  0.00     0.097 A 
ATOM      8  N   UNL     1      38.219 133.805  14.030  1.00  0.00    -0.135 NA
ATOM      9  C   UNL     1      38.207 134.467  15.204  1.00  0.00     0.088 A 
ATOM     10  C   UNL     1      36.968 134.840  15.950  1.00  0.00     0.071 C 
BRANCH   7  11
ATOM     11  C   UNL     1      39.990 135.292  16.851  1.00  0.00     0.011 A 
ATOM     12  C   UNL     1      39.791 134.604  18.046  1.00  0.00     0.019 A 
ATOM     13  C   UNL     1      40.648 136.545  16.860  1.00  0.00    -0.008 A 
ATOM     14  C   UNL     1      40.254 135.115  19.260  1.00  0.00    -0.017 A 
ATOM     15  C   UNL     1      40.809 137.282  15.665  1.00  0.00     0.009 A 
ATOM     16  C   UNL     1      41.140 137.084  18.088  1.00  0.00    -0.010 A 
ATOM     17  C   UNL     1      40.038 134.380  20.438  1.00  0.00     0.009 A 
ATOM     18  C   UNL     1      40.943 136.357  19.303  1.00  0.00    -0.010 A 
ATOM     19  C   UNL     1      41.466 138.508  15.666  1.00  0.00     0.001 A 
ATOM     20  C   UNL     1      41.804 138.336  18.051  1.00  0.00     0.009 A 
ATOM     21  C   UNL     1      40.496 134.859  21.662  1.00  0.00     0.001 A 
ATOM     22  C   UNL     1      41.400 136.817  20.565  1.00  0.00     0.009 A 
ATOM     23  C   UNL     1      41.963 139.031  16.851  1.00  0.00     0.001 A 
ATOM     24  C   UNL     1      41.176 136.072  21.724  1.00  0.00     0.001 A 
ENDBRANCH   7  11
ENDBRANCH   4   5
ENDBRANCH   1   4
BRANCH   1  25
ATOM     25  N   UNL     1      43.481 132.628  15.555  1.00  0.00    -0.325 N 
ATOM     26  H   UNL     1      44.338 132.154  15.190  1.00  0.00     0.170 HD
BRANCH  25  27
ATOM     27  C   UNL     1      43.453 133.011  16.943  1.00  0.00     0.045 A 
ATOM     28  C   UNL     1      43.009 132.094  17.911  1.00  0.00     0.026 A 
ATOM     29  C   UNL     1      43.937 134.280  17.352  1.00  0.00    -0.010 A 
ATOM     30  C   UNL     1      43.034 132.420  19.265  1.00  0.00     0.004 A 
ATOM     31  C   UNL     1      43.991 134.584  18.736  1.00  0.00     0.057 A 
ATOM     32  C   UNL     1      43.528 133.656  19.677  1.00  0.00     0.020 A 
ATOM     33  C   UNL     1      44.420 135.271  16.317  1.00  0.00     0.048 C 
BRANCH  31  34
ATOM     34  C   UNL     1      44.521 135.838  19.219  1.00  0.00     0.099 C 
ATOM     35  N   UNL     1      44.946 136.844  19.607  1.00  0.00    -0.192 NA
ENDBRANCH  31  34
ENDBRANCH  25  27
ENDBRANCH   1  25
TORSDOF 7
ENDMDL


