REMARK SMILES CC[C@H]1C[C@]1(N)C(=O)Oc1ccccc(O)c(NC2(CF)COC2)c(N=[N+]=[N-])c(Cl)c1Cl
REMARK SMILES IDX 15 1 14 2 13 3 12 4 11 5 10 6 31 7 32 8 29 9 30 10 25 11
REMARK SMILES IDX 17 12 16 13 18 15 19 17 22 18 24 19 23 20 20 21 21 22 26 23
REMARK SMILES IDX 27 24 28 25 9 26 7 27 8 28 5 29 4 30 3 31 6 32 2 35 1 36
REMARK H PARENT 16 14 18 16 6 33 6 34
ROOT
ATOM      1  C   UNL     1      -3.187  -0.985   0.283  1.00  0.00     0.139 A 
ATOM      2  C   UNL     1      -3.270  -1.408   1.639  1.00  0.00     0.048 A 
ATOM      3  C   UNL     1      -2.251  -2.019   2.401  1.00  0.00     0.004 A 
ATOM      4  C   UNL     1      -0.887  -1.935   2.117  1.00  0.00     0.004 A 
ATOM      5  C   UNL     1      -0.334  -0.789   1.548  1.00  0.00     0.049 A 
ATOM      6  C   UNL     1       0.638  -0.801   0.528  1.00  0.00     0.151 A 
ATOM      7  C   UNL     1       0.782  -1.852  -0.412  1.00  0.00     0.102 A 
ATOM      8  Cl  UNL     1       2.307  -1.902  -1.292  1.00  0.00    -0.079 Cl
ATOM      9  C   UNL     1      -0.191  -2.842  -0.712  1.00  0.00     0.075 A 
ATOM     10  Cl  UNL     1       0.363  -4.363  -1.422  1.00  0.00    -0.082 Cl
ATOM     11  C   UNL     1      -1.583  -2.674  -0.507  1.00  0.00     0.085 A 
ATOM     12  C   UNL     1      -2.183  -1.409  -0.627  1.00  0.00     0.088 A 
ENDROOT
BRANCH   1  13
ATOM     13  O   UNL     1      -4.176  -0.121  -0.196  1.00  0.00    -0.506 OA
ATOM     14  H   UNL     1      -4.921   0.224   0.404  1.00  0.00     0.293 HD
ENDBRANCH   1  13
BRANCH  12  15
ATOM     15  N   UNL     1      -1.953  -0.696  -1.868  1.00  0.00    -0.369 N 
ATOM     16  H   UNL     1      -1.899  -1.299  -2.748  1.00  0.00     0.161 HD
BRANCH  15  17
ATOM     17  C   UNL     1      -1.947   0.759  -2.091  1.00  0.00     0.113 C 
ATOM     18  C   UNL     1      -0.565   1.213  -2.509  1.00  0.00     0.193 C 
ATOM     19  C   UNL     1      -1.681   1.650  -0.892  1.00  0.00     0.193 C 
ATOM     20  O   UNL     1      -0.398   1.989  -1.353  1.00  0.00    -0.376 OA
BRANCH  17  21
ATOM     21  C   UNL     1      -3.078   1.208  -3.038  1.00  0.00     0.247 C 
ATOM     22  F   UNL     1      -3.085   2.586  -3.218  1.00  0.00    -0.248 F 
ENDBRANCH  17  21
ENDBRANCH  15  17
ENDBRANCH  12  15
BRANCH  11  23
ATOM     23  N   UNL     1      -2.415  -3.786  -0.156  1.00  0.00    -0.057 NA
BRANCH  23  24
ATOM     24  N   UNL     1      -1.972  -4.754   0.468  1.00  0.00     0.005 N 
ATOM     25  N   UNL     1      -1.532  -5.720   1.099  1.00  0.00    -0.003 NA
ENDBRANCH  23  24
ENDBRANCH  11  23
BRANCH   6  26
ATOM     26  O   UNL     1       1.475   0.318   0.363  1.00  0.00    -0.424 OA
BRANCH  26  27
ATOM     27  C   UNL     1       1.816   1.236   1.363  1.00  0.00     0.331 C 
ATOM     28  O   UNL     1       1.755   0.918   2.586  1.00  0.00    -0.250 OA
BRANCH  27  29
ATOM     29  C   UNL     1       2.327   2.588   0.977  1.00  0.00     0.118 C 
ATOM     30  C   UNL     1       3.756   2.904   1.391  1.00  0.00     0.040 C 
ATOM     31  C   UNL     1       3.422   2.674  -0.085  1.00  0.00     0.022 C 
BRANCH  29  32
ATOM     32  N   UNL     1       1.413   3.717   1.111  1.00  0.00    -0.316 NA
ATOM     33  H   UNL     1       0.929   3.672   2.033  1.00  0.00     0.119 HD
ATOM     34  H   UNL     1       0.692   3.636   0.369  1.00  0.00     0.119 HD
ENDBRANCH  29  32
BRANCH  31  35
ATOM     35  C   UNL     1       3.493   3.931  -0.961  1.00  0.00     0.003 C 
ATOM     36  C   UNL     1       2.718   3.719  -2.256  1.00  0.00     0.004 C 
ENDBRANCH  31  35
ENDBRANCH  27  29
ENDBRANCH  26  27
ENDBRANCH   6  26
TORSDOF 11


