REMARK SMILES C#C[C@@](O)(c1cc(N=[N+]=[N-])cc(OC(=O)[C@]2([NH3+])C[C@H](CO)C2)c(C(=O)N=[N+]=[N-])cc2cc1CC2)C(C)(C)C
REMARK SMILES IDX 13 1 12 2 5 3 6 4 32 5 7 6 31 7 33 8 11 9 30 10 34 11 29 12
REMARK SMILES IDX 23 13 3 14 2 15 1 16 4 17 35 19 36 20 37 21 38 22 8 23 9 24
REMARK SMILES IDX 10 25 24 26 25 27 26 28 27 29 28 30 14 31 15 32 16 33 22 34
REMARK SMILES IDX 18 35 19 36 17 37 20 41 21 42
REMARK H PARENT 4 18 17 38 17 39 17 40 21 43
ROOT
ATOM      1  O   UNL     1      -1.351   0.536  -0.769  1.00  0.00    -0.421 OA
ENDROOT
BRANCH   1   2
ATOM      2  C   UNL     1      -2.191   0.451   0.355  1.00  0.00     0.142 A 
ATOM      3  C   UNL     1       0.880  -0.199   1.608  1.00  0.00    -0.000 A 
ATOM      4  C   UNL     1       0.518   1.186   1.733  1.00  0.00     0.018 A 
ATOM      5  C   UNL     1      -0.048  -1.266   1.802  1.00  0.00    -0.040 A 
ATOM      6  C   UNL     1      -0.733   1.848   1.818  1.00  0.00     0.042 A 
ATOM      7  C   UNL     1      -1.233  -1.172   2.502  1.00  0.00     0.008 A 
ATOM      8  C   UNL     1      -0.046  -2.563   1.048  1.00  0.00     0.041 C 
ATOM      9  C   UNL     1      -1.979   1.328   1.417  1.00  0.00     0.058 A 
ATOM     10  C   UNL     1      -2.175  -2.013   1.949  1.00  0.00    -0.047 A 
ATOM     11  C   UNL     1      -1.455  -3.120   1.253  1.00  0.00     0.040 C 
ATOM     12  C   UNL     1      -3.335  -1.499   1.339  1.00  0.00     0.019 A 
ATOM     13  C   UNL     1      -3.301  -0.415   0.418  1.00  0.00     0.067 A 
BRANCH   3  14
ATOM     14  C   UNL     1       2.410  -0.497   1.463  1.00  0.00     0.155 C 
BRANCH  14  15
ATOM     15  C   UNL     1       2.685  -1.666   0.590  1.00  0.00    -0.066 C 
ATOM     16  C   UNL     1       2.957  -2.610  -0.110  1.00  0.00     0.007 C 
ENDBRANCH  14  15
BRANCH  14  17
ATOM     17  O   UNL     1       3.052   0.600   0.845  1.00  0.00    -0.373 OA
ATOM     18  H   UNL     1       2.628   0.750  -0.043  1.00  0.00     0.213 HD
ENDBRANCH  14  17
BRANCH  14  19
ATOM     19  C   UNL     1       3.100  -0.728   2.877  1.00  0.00     0.006 C 
ATOM     20  C   UNL     1       2.541  -1.975   3.607  1.00  0.00     0.015 C 
ATOM     21  C   UNL     1       4.631  -0.925   2.710  1.00  0.00     0.015 C 
ATOM     22  C   UNL     1       2.894   0.493   3.806  1.00  0.00     0.015 C 
ENDBRANCH  14  19
ENDBRANCH   3  14
BRANCH   6  23
ATOM     23  N   UNL     1      -0.704   3.137   2.454  1.00  0.00    -0.061 NA
BRANCH  23  24
ATOM     24  N   UNL     1      -1.705   3.847   2.570  1.00  0.00     0.005 N 
ATOM     25  N   UNL     1      -2.703   4.557   2.686  1.00  0.00    -0.003 NA
ENDBRANCH  23  24
ENDBRANCH   6  23
BRANCH  13  26
ATOM     26  C   UNL     1      -4.370  -0.279  -0.602  1.00  0.00     0.252 C 
ATOM     27  O   UNL     1      -5.235  -1.188  -0.743  1.00  0.00    -0.287 OA
BRANCH  26  28
ATOM     28  N   UNL     1      -4.413   0.882  -1.438  1.00  0.00    -0.017 NA
BRANCH  28  29
ATOM     29  N   UNL     1      -5.232   0.980  -2.354  1.00  0.00     0.009 N 
ATOM     30  N   UNL     1      -6.048   1.077  -3.270  1.00  0.00    -0.003 NA
ENDBRANCH  28  29
ENDBRANCH  26  28
ENDBRANCH  13  26
ENDBRANCH   1   2
BRANCH   1  31
ATOM     31  C   UNL     1      -1.364  -0.320  -1.879  1.00  0.00     0.373 C 
ATOM     32  O   UNL     1      -1.925  -1.447  -1.825  1.00  0.00    -0.244 OA
BRANCH  31  33
ATOM     33  C   UNL     1      -0.785   0.175  -3.183  1.00  0.00     0.194 C 
ATOM     34  C   UNL     1      -0.231  -0.919  -4.110  1.00  0.00     0.087 C 
ATOM     35  C   UNL     1       0.624   0.765  -3.039  1.00  0.00     0.087 C 
ATOM     36  C   UNL     1       1.167  -0.309  -3.984  1.00  0.00     0.028 C 
BRANCH  33  37
ATOM     37  N   UNL     1      -1.711   1.086  -3.871  1.00  0.00    -0.343 N 
ATOM     38  H   UNL     1      -2.605   0.584  -4.081  1.00  0.00     0.345 HD
ATOM     39  H   UNL     1      -1.302   1.431  -4.772  1.00  0.00     0.345 HD
ATOM     40  H   UNL     1      -1.919   1.909  -3.260  1.00  0.00     0.345 HD
ENDBRANCH  33  37
BRANCH  36  41
ATOM     41  C   UNL     1       2.184  -1.249  -3.332  1.00  0.00     0.160 C 
BRANCH  41  42
ATOM     42  O   UNL     1       3.381  -0.558  -3.100  1.00  0.00    -0.396 OA
ATOM     43  H   UNL     1       3.979  -1.194  -2.631  1.00  0.00     0.210 HD
ENDBRANCH  41  42
ENDBRANCH  36  41
ENDBRANCH  31  33
ENDBRANCH   1  31
TORSDOF 15


