REMARK SMILES [H]/N=C(\C#C)[NH2+][C@H](c1c(C)[nH+]nn1-c1c2ccccc2c(C=O)c2ccccc12)C(C)C
REMARK SMILES IDX 7 1 6 2 3 5 4 6 5 7 2 8 1 9 8 10 9 11 13 12 11 13 12 14
REMARK SMILES IDX 10 15 14 17 15 18 29 19 16 20 20 21 28 22 24 23 17 24 19 25
REMARK SMILES IDX 21 26 27 27 25 28 18 29 26 30 22 31 23 32 30 33 31 34 32 35
REMARK H PARENT 6 3 6 4 11 16
ROOT
ATOM      1  C   UNL     1       1.498   0.111  -0.816  1.00  0.00     0.270 C 
ENDROOT
BRANCH   1   2
ATOM      2  N   UNL     1       2.012  -0.675  -1.963  1.00  0.00    -0.281 N 
ATOM      3  H   UNL     1       1.403  -0.519  -2.801  1.00  0.00     0.354 HD
ATOM      4  H   UNL     1       2.978  -0.375  -2.216  1.00  0.00     0.354 HD
BRANCH   2   5
ATOM      5  C   UNL     1       2.008  -2.091  -1.685  1.00  0.00     0.270 C 
BRANCH   5   6
ATOM      6  C   UNL     1       3.255  -2.806  -1.542  1.00  0.00     0.009 C 
ATOM      7  C   UNL     1       4.296  -3.400  -1.420  1.00  0.00     0.017 C 
ENDBRANCH   5   6
BRANCH   5   8
ATOM      8  N   UNL     1       0.884  -2.733  -1.604  1.00  0.00    -0.242 NA
ATOM      9  H   UNL     1       0.846  -3.761  -1.419  1.00  0.00     0.194 HD
ENDBRANCH   5   8
ENDBRANCH   2   5
ENDBRANCH   1   2
BRANCH   1  10
ATOM     10  C   UNL     1       1.037   1.504  -1.253  1.00  0.00     0.234 A 
ATOM     11  C   UNL     1       1.637   2.400  -2.141  1.00  0.00     0.171 A 
ATOM     12  N   UNL     1      -0.135   2.083  -0.884  1.00  0.00    -0.091 N 
ATOM     13  N   UNL     1       0.812   3.457  -2.260  1.00  0.00    -0.147 N 
ATOM     14  N   UNL     1      -0.249   3.247  -1.502  1.00  0.00     0.094 NA
ATOM     15  C   UNL     1       2.846   2.211  -3.006  1.00  0.00     0.100 C 
ATOM     16  H   UNL     1       0.942   4.290  -2.876  1.00  0.00     0.342 HD
BRANCH  12  17
ATOM     17  C   UNL     1      -1.180   1.530  -0.061  1.00  0.00     0.172 A 
ATOM     18  C   UNL     1      -1.428   2.067   1.220  1.00  0.00     0.032 A 
ATOM     19  C   UNL     1      -1.966   0.456  -0.540  1.00  0.00     0.032 A 
ATOM     20  C   UNL     1      -0.699   3.184   1.685  1.00  0.00     0.013 A 
ATOM     21  C   UNL     1      -2.417   1.486   2.059  1.00  0.00    -0.003 A 
ATOM     22  C   UNL     1      -1.795  -0.029  -1.856  1.00  0.00     0.013 A 
ATOM     23  C   UNL     1      -2.933  -0.153   0.304  1.00  0.00    -0.003 A 
ATOM     24  C   UNL     1      -0.936   3.717   2.950  1.00  0.00     0.001 A 
ATOM     25  C   UNL     1      -2.645   2.058   3.335  1.00  0.00     0.009 A 
ATOM     26  C   UNL     1      -3.167   0.370   1.604  1.00  0.00     0.030 A 
ATOM     27  C   UNL     1      -2.512  -1.134  -2.308  1.00  0.00     0.001 A 
ATOM     28  C   UNL     1      -3.623  -1.294  -0.172  1.00  0.00     0.009 A 
ATOM     29  C   UNL     1      -1.908   3.158   3.771  1.00  0.00     0.001 A 
ATOM     30  C   UNL     1      -3.412  -1.774  -1.464  1.00  0.00     0.001 A 
BRANCH  26  31
ATOM     31  C   UNL     1      -4.202  -0.226   2.485  1.00  0.00     0.261 C 
ATOM     32  O   UNL     1      -5.389  -0.362   2.086  1.00  0.00    -0.298 OA
ENDBRANCH  26  31
ENDBRANCH  12  17
ENDBRANCH   1  10
BRANCH   1  33
ATOM     33  C   UNL     1       2.481   0.124   0.403  1.00  0.00     0.050 C 
ATOM     34  C   UNL     1       3.791   0.888   0.161  1.00  0.00     0.014 C 
ATOM     35  C   UNL     1       1.801   0.664   1.669  1.00  0.00     0.014 C 
ENDBRANCH   1  33
TORSDOF 8


