MODEL 1
REMARK VINA RESULT:      -6.9      0.000      0.000
REMARK SMILES CC[C@H]1C[C@@]1([NH3+])C(=O)Oc1c(C(=O)N=[N+]=[N-])cccc([O-])c([NH2+]C2(CF)COC2)c(N=[N+]=[N-])c(Cl)c1Cl
REMARK SMILES IDX 18 1 19 2 20 3 21 4 22 5 30 6 34 7 35 8 36 9 37 10 10 11
REMARK SMILES IDX 11 12 17 13 12 14 13 15 14 16 15 17 16 18 23 19 24 22 27 23
REMARK SMILES IDX 29 24 28 25 25 26 26 27 9 28 7 29 8 30 5 31 4 32 3 33 6 34
REMARK SMILES IDX 2 38 1 39 31 40 32 41 33 42
REMARK H PARENT 23 20 23 21 6 35 6 36 6 37
ROOT
ATOM      1  C   UNL     1      44.339 134.589  16.147  1.00  0.00     0.000 A 
ATOM      2  C   UNL     1      43.687 135.781  15.814  1.00  0.00    -0.002 A 
ATOM      3  C   UNL     1      42.414 136.172  16.280  1.00  0.00    -0.045 A 
ATOM      4  O   UNL     1      42.083 137.515  16.135  1.00  0.00    -0.868 OA
ATOM      5  C   UNL     1      41.449 135.297  16.863  1.00  0.00     0.133 A 
ATOM      6  C   UNL     1      41.337 133.922  16.481  1.00  0.00     0.118 A 
ATOM      7  C   UNL     1      41.858 133.441  15.261  1.00  0.00     0.079 A 
ATOM      8  Cl  UNL     1      41.414 134.299  13.783  1.00  0.00    -0.082 Cl
ATOM      9  C   UNL     1      42.662 132.278  15.174  1.00  0.00     0.103 A 
ATOM     10  Cl  UNL     1      42.722 131.421  13.636  1.00  0.00    -0.079 Cl
ATOM     11  C   UNL     1      43.448 131.755  16.235  1.00  0.00     0.162 A 
ATOM     12  C   UNL     1      43.846 132.509  17.375  1.00  0.00     0.069 A 
ATOM     13  C   UNL     1      44.072 133.897  17.329  1.00  0.00     0.016 A 
ENDROOT
BRANCH  12  14
ATOM     14  C   UNL     1      43.866 131.851  18.704  1.00  0.00     0.252 C 
ATOM     15  O   UNL     1      44.947 131.392  19.168  1.00  0.00    -0.287 OA
BRANCH  14  16
ATOM     16  N   UNL     1      42.652 131.694  19.446  1.00  0.00    -0.017 NA
BRANCH  16  17
ATOM     17  N   UNL     1      42.662 131.608  20.673  1.00  0.00     0.009 N 
ATOM     18  N   UNL     1      42.672 131.524  21.899  1.00  0.00    -0.003 NA
ENDBRANCH  16  17
ENDBRANCH  14  16
ENDBRANCH  12  14
BRANCH   5  19
ATOM     19  N   UNL     1      40.489 135.849  17.809  1.00  0.00    -0.303 N 
ATOM     20  H   UNL     1      39.675 135.197  17.904  1.00  0.00     0.353 HD
ATOM     21  H   UNL     1      40.079 136.725  17.410  1.00  0.00     0.353 HD
BRANCH  19  22
ATOM     22  C   UNL     1      41.061 136.160  19.150  1.00  0.00     0.176 C 
ATOM     23  C   UNL     1      42.105 135.177  19.665  1.00  0.00     0.234 C 
ATOM     24  C   UNL     1      40.226 135.567  20.284  1.00  0.00     0.234 C 
ATOM     25  O   UNL     1      41.254 134.687  20.674  1.00  0.00    -0.368 OA
BRANCH  22  26
ATOM     26  C   UNL     1      41.425 137.648  19.370  1.00  0.00     0.288 C 
ATOM     27  F   UNL     1      42.378 137.798  20.367  1.00  0.00    -0.244 F 
ENDBRANCH  22  26
ENDBRANCH  19  22
ENDBRANCH   5  19
BRANCH  11  28
ATOM     28  O   UNL     1      43.804 130.400  16.146  1.00  0.00    -0.419 OA
BRANCH  28  29
ATOM     29  C   UNL     1      44.892 129.921  15.404  1.00  0.00     0.373 C 
ATOM     30  O   UNL     1      44.739 128.994  14.561  1.00  0.00    -0.244 OA
BRANCH  29  31
ATOM     31  C   UNL     1      46.247 130.537  15.593  1.00  0.00     0.196 C 
ATOM     32  C   UNL     1      46.373 132.014  15.214  1.00  0.00     0.092 C 
ATOM     33  C   UNL     1      47.105 130.948  14.390  1.00  0.00     0.069 C 
BRANCH  31  34
ATOM     34  N   UNL     1      46.991 130.141  16.792  1.00  0.00    -0.343 N 
ATOM     35  H   UNL     1      46.394 129.503  17.368  1.00  0.00     0.345 HD
ATOM     36  H   UNL     1      47.265 130.963  17.380  1.00  0.00     0.345 HD
ATOM     37  H   UNL     1      47.854 129.630  16.500  1.00  0.00     0.345 HD
ENDBRANCH  31  34
BRANCH  33  38
ATOM     38  C   UNL     1      46.542 130.758  12.975  1.00  0.00     0.007 C 
ATOM     39  C   UNL     1      47.600 130.152  12.062  1.00  0.00     0.004 C 
ENDBRANCH  33  38
ENDBRANCH  29  31
ENDBRANCH  28  29
ENDBRANCH  11  28
BRANCH   6  40
ATOM     40  N   UNL     1      40.618 133.019  17.339  1.00  0.00    -0.053 NA
BRANCH  40  41
ATOM     41  N   UNL     1      39.428 133.168  17.619  1.00  0.00     0.006 N 
ATOM     42  N   UNL     1      38.239 133.318  17.899  1.00  0.00    -0.003 NA
ENDBRANCH  40  41
ENDBRANCH   6  40
TORSDOF 13
ENDMDL
MODEL 2
REMARK VINA RESULT:      -6.8      1.524      1.795
REMARK SMILES CC[C@H]1C[C@@]1([NH3+])C(=O)Oc1c(C(=O)N=[N+]=[N-])cccc([O-])c([NH2+]C2(CF)COC2)c(N=[N+]=[N-])c(Cl)c1Cl
REMARK SMILES IDX 18 1 19 2 20 3 21 4 22 5 30 6 34 7 35 8 36 9 37 10 10 11
REMARK SMILES IDX 11 12 17 13 12 14 13 15 14 16 15 17 16 18 23 19 24 22 27 23
REMARK SMILES IDX 29 24 28 25 25 26 26 27 9 28 7 29 8 30 5 31 4 32 3 33 6 34
REMARK SMILES IDX 2 38 1 39 31 40 32 41 33 42
REMARK H PARENT 23 20 23 21 6 35 6 36 6 37
ROOT
ATOM      1  C   UNL     1      43.928 135.274  15.833  1.00  0.00     0.000 A 
ATOM      2  C   UNL     1      43.079 136.301  15.406  1.00  0.00    -0.002 A 
ATOM      3  C   UNL     1      41.764 136.519  15.869  1.00  0.00    -0.045 A 
ATOM      4  O   UNL     1      41.209 137.767  15.605  1.00  0.00    -0.868 OA
ATOM      5  C   UNL     1      40.968 135.558  16.561  1.00  0.00     0.133 A 
ATOM      6  C   UNL     1      41.085 134.152  16.317  1.00  0.00     0.118 A 
ATOM      7  C   UNL     1      41.665 133.646  15.134  1.00  0.00     0.079 A 
ATOM      8  Cl  UNL     1      41.064 134.266  13.594  1.00  0.00    -0.082 Cl
ATOM      9  C   UNL     1      42.653 132.630  15.136  1.00  0.00     0.103 A 
ATOM     10  Cl  UNL     1      42.838 131.646  13.686  1.00  0.00    -0.079 Cl
ATOM     11  C   UNL     1      43.529 132.354  16.219  1.00  0.00     0.162 A 
ATOM     12  C   UNL     1      43.808 133.275  17.270  1.00  0.00     0.069 A 
ATOM     13  C   UNL     1      43.796 134.669  17.083  1.00  0.00     0.016 A 
ENDROOT
BRANCH  12  14
ATOM     14  C   UNL     1      43.955 132.764  18.654  1.00  0.00     0.252 C 
ATOM     15  O   UNL     1      43.381 131.694  19.000  1.00  0.00    -0.287 OA
BRANCH  14  16
ATOM     16  N   UNL     1      44.712 133.506  19.617  1.00  0.00    -0.017 NA
BRANCH  16  17
ATOM     17  N   UNL     1      44.987 133.029  20.716  1.00  0.00     0.009 N 
ATOM     18  N   UNL     1      45.259 132.551  21.815  1.00  0.00    -0.003 NA
ENDBRANCH  16  17
ENDBRANCH  14  16
ENDBRANCH  12  14
BRANCH   5  19
ATOM     19  N   UNL     1      39.940 136.033  17.477  1.00  0.00    -0.303 N 
ATOM     20  H   UNL     1      39.192 135.308  17.571  1.00  0.00     0.353 HD
ATOM     21  H   UNL     1      39.456 136.858  17.051  1.00  0.00     0.353 HD
BRANCH  19  22
ATOM     22  C   UNL     1      40.452 136.425  18.821  1.00  0.00     0.176 C 
ATOM     23  C   UNL     1      40.069 137.823  19.290  1.00  0.00     0.234 C 
ATOM     24  C   UNL     1      41.847 137.042  18.749  1.00  0.00     0.234 C 
ATOM     25  O   UNL     1      41.387 138.303  19.179  1.00  0.00    -0.368 OA
BRANCH  22  26
ATOM     26  C   UNL     1      40.321 135.332  19.908  1.00  0.00     0.288 C 
ATOM     27  F   UNL     1      41.536 134.710  20.157  1.00  0.00    -0.244 F 
ENDBRANCH  22  26
ENDBRANCH  19  22
ENDBRANCH   5  19
BRANCH  11  28
ATOM     28  O   UNL     1      44.108 131.076  16.251  1.00  0.00    -0.419 OA
BRANCH  28  29
ATOM     29  C   UNL     1      45.454 130.816  15.959  1.00  0.00     0.373 C 
ATOM     30  O   UNL     1      46.352 131.650  16.265  1.00  0.00    -0.244 OA
BRANCH  29  31
ATOM     31  C   UNL     1      45.835 129.522  15.302  1.00  0.00     0.196 C 
ATOM     32  C   UNL     1      47.308 129.372  14.918  1.00  0.00     0.092 C 
ATOM     33  C   UNL     1      46.239 129.474  13.824  1.00  0.00     0.069 C 
BRANCH  31  34
ATOM     34  N   UNL     1      45.205 128.306  15.823  1.00  0.00    -0.343 N 
ATOM     35  H   UNL     1      45.952 127.628  16.102  1.00  0.00     0.345 HD
ATOM     36  H   UNL     1      44.583 127.847  15.118  1.00  0.00     0.345 HD
ATOM     37  H   UNL     1      44.638 128.555  16.666  1.00  0.00     0.345 HD
ENDBRANCH  31  34
BRANCH  33  38
ATOM     38  C   UNL     1      46.289 130.783  13.023  1.00  0.00     0.007 C 
ATOM     39  C   UNL     1      47.296 130.669  11.886  1.00  0.00     0.004 C 
ENDBRANCH  33  38
ENDBRANCH  29  31
ENDBRANCH  28  29
ENDBRANCH  11  28
BRANCH   6  40
ATOM     40  N   UNL     1      40.540 133.233  17.278  1.00  0.00    -0.053 NA
BRANCH  40  41
ATOM     41  N   UNL     1      39.349 133.223  17.593  1.00  0.00     0.006 N 
ATOM     42  N   UNL     1      38.159 133.213  17.907  1.00  0.00    -0.003 NA
ENDBRANCH  40  41
ENDBRANCH   6  40
TORSDOF 13
ENDMDL
MODEL 3
REMARK VINA RESULT:      -6.8      1.393      1.508
REMARK SMILES CC[C@H]1C[C@@]1([NH3+])C(=O)Oc1c(C(=O)N=[N+]=[N-])cccc([O-])c([NH2+]C2(CF)COC2)c(N=[N+]=[N-])c(Cl)c1Cl
REMARK SMILES IDX 18 1 19 2 20 3 21 4 22 5 30 6 34 7 35 8 36 9 37 10 10 11
REMARK SMILES IDX 11 12 17 13 12 14 13 15 14 16 15 17 16 18 23 19 24 22 27 23
REMARK SMILES IDX 29 24 28 25 25 26 26 27 9 28 7 29 8 30 5 31 4 32 3 33 6 34
REMARK SMILES IDX 2 38 1 39 31 40 32 41 33 42
REMARK H PARENT 23 20 23 21 6 35 6 36 6 37
ROOT
ATOM      1  C   UNL     1      43.902 135.144  16.245  1.00  0.00     0.000 A 
ATOM      2  C   UNL     1      43.100 136.226  15.867  1.00  0.00    -0.002 A 
ATOM      3  C   UNL     1      41.764 136.433  16.273  1.00  0.00    -0.045 A 
ATOM      4  O   UNL     1      41.250 137.714  16.095  1.00  0.00    -0.868 OA
ATOM      5  C   UNL     1      40.911 135.434  16.829  1.00  0.00     0.133 A 
ATOM      6  C   UNL     1      41.014 134.054  16.463  1.00  0.00     0.118 A 
ATOM      7  C   UNL     1      41.653 133.642  15.273  1.00  0.00     0.079 A 
ATOM      8  Cl  UNL     1      41.154 134.414  13.766  1.00  0.00    -0.082 Cl
ATOM      9  C   UNL     1      42.618 132.606  15.238  1.00  0.00     0.103 A 
ATOM     10  Cl  UNL     1      42.869 131.754  13.716  1.00  0.00    -0.079 Cl
ATOM     11  C   UNL     1      43.424 132.212  16.338  1.00  0.00     0.162 A 
ATOM     12  C   UNL     1      43.660 133.026  17.483  1.00  0.00     0.069 A 
ATOM     13  C   UNL     1      43.685 134.431  17.425  1.00  0.00     0.016 A 
ENDROOT
BRANCH  12  14
ATOM     14  C   UNL     1      43.716 132.389  18.821  1.00  0.00     0.252 C 
ATOM     15  O   UNL     1      42.714 131.763  19.268  1.00  0.00    -0.287 OA
BRANCH  14  16
ATOM     16  N   UNL     1      44.891 132.517  19.629  1.00  0.00    -0.017 NA
BRANCH  16  17
ATOM     17  N   UNL     1      44.847 133.052  20.736  1.00  0.00     0.009 N 
ATOM     18  N   UNL     1      44.807 133.586  21.842  1.00  0.00    -0.003 NA
ENDBRANCH  16  17
ENDBRANCH  14  16
ENDBRANCH  12  14
BRANCH   5  19
ATOM     19  N   UNL     1      39.841 135.849  17.726  1.00  0.00    -0.303 N 
ATOM     20  H   UNL     1      39.161 135.063  17.849  1.00  0.00     0.353 HD
ATOM     21  H   UNL     1      39.285 136.609  17.267  1.00  0.00     0.353 HD
BRANCH  19  22
ATOM     22  C   UNL     1      40.311 136.340  19.053  1.00  0.00     0.176 C 
ATOM     23  C   UNL     1      41.807 136.213  19.309  1.00  0.00     0.234 C 
ATOM     24  C   UNL     1      40.231 135.258  20.127  1.00  0.00     0.234 C 
ATOM     25  O   UNL     1      41.630 135.209  20.281  1.00  0.00    -0.368 OA
BRANCH  22  26
ATOM     26  C   UNL     1      39.702 137.691  19.496  1.00  0.00     0.288 C 
ATOM     27  F   UNL     1      39.749 138.631  18.477  1.00  0.00    -0.244 F 
ENDBRANCH  22  26
ENDBRANCH  19  22
ENDBRANCH   5  19
BRANCH  11  28
ATOM     28  O   UNL     1      43.976 130.922  16.285  1.00  0.00    -0.419 OA
BRANCH  28  29
ATOM     29  C   UNL     1      45.333 130.657  16.061  1.00  0.00     0.373 C 
ATOM     30  O   UNL     1      46.222 131.446  16.488  1.00  0.00    -0.244 OA
BRANCH  29  31
ATOM     31  C   UNL     1      45.736 129.409  15.332  1.00  0.00     0.196 C 
ATOM     32  C   UNL     1      47.224 129.275  15.002  1.00  0.00     0.092 C 
ATOM     33  C   UNL     1      46.204 129.461  13.872  1.00  0.00     0.069 C 
BRANCH  31  34
ATOM     34  N   UNL     1      45.078 128.165  15.739  1.00  0.00    -0.343 N 
ATOM     35  H   UNL     1      45.382 127.920  16.710  1.00  0.00     0.345 HD
ATOM     36  H   UNL     1      45.310 127.365  15.105  1.00  0.00     0.345 HD
ATOM     37  H   UNL     1      44.043 128.313  15.733  1.00  0.00     0.345 HD
ENDBRANCH  31  34
BRANCH  33  38
ATOM     38  C   UNL     1      46.295 130.823  13.168  1.00  0.00     0.007 C 
ATOM     39  C   UNL     1      47.306 130.763  12.031  1.00  0.00     0.004 C 
ENDBRANCH  33  38
ENDBRANCH  29  31
ENDBRANCH  28  29
ENDBRANCH  11  28
BRANCH   6  40
ATOM     40  N   UNL     1      40.396 133.064  17.304  1.00  0.00    -0.053 NA
BRANCH  40  41
ATOM     41  N   UNL     1      39.213 133.119  17.642  1.00  0.00     0.006 N 
ATOM     42  N   UNL     1      38.031 133.173  17.980  1.00  0.00    -0.003 NA
ENDBRANCH  40  41
ENDBRANCH   6  40
TORSDOF 13
ENDMDL
MODEL 4
REMARK VINA RESULT:      -6.5      2.058      2.519
REMARK SMILES CC[C@H]1C[C@@]1([NH3+])C(=O)Oc1c(C(=O)N=[N+]=[N-])cccc([O-])c([NH2+]C2(CF)COC2)c(N=[N+]=[N-])c(Cl)c1Cl
REMARK SMILES IDX 18 1 19 2 20 3 21 4 22 5 30 6 34 7 35 8 36 9 37 10 10 11
REMARK SMILES IDX 11 12 17 13 12 14 13 15 14 16 15 17 16 18 23 19 24 22 27 23
REMARK SMILES IDX 29 24 28 25 25 26 26 27 9 28 7 29 8 30 5 31 4 32 3 33 6 34
REMARK SMILES IDX 2 38 1 39 31 40 32 41 33 42
REMARK H PARENT 23 20 23 21 6 35 6 36 6 37
ROOT
ATOM      1  C   UNL     1      44.180 136.145  18.335  1.00  0.00     0.000 A 
ATOM      2  C   UNL     1      43.467 137.332  18.533  1.00  0.00    -0.002 A 
ATOM      3  C   UNL     1      42.188 137.428  19.120  1.00  0.00    -0.045 A 
ATOM      4  O   UNL     1      41.793 138.690  19.553  1.00  0.00    -0.868 OA
ATOM      5  C   UNL     1      41.276 136.342  19.282  1.00  0.00     0.133 A 
ATOM      6  C   UNL     1      41.219 135.250  18.359  1.00  0.00     0.118 A 
ATOM      7  C   UNL     1      41.736 135.352  17.049  1.00  0.00     0.079 A 
ATOM      8  Cl  UNL     1      41.222 136.727  16.068  1.00  0.00    -0.082 Cl
ATOM      9  C   UNL     1      42.589 134.374  16.482  1.00  0.00     0.103 A 
ATOM     10  Cl  UNL     1      42.657 134.245  14.726  1.00  0.00    -0.079 Cl
ATOM     11  C   UNL     1      43.420 133.495  17.225  1.00  0.00     0.162 A 
ATOM     12  C   UNL     1      43.808 133.720  18.577  1.00  0.00     0.069 A 
ATOM     13  C   UNL     1      43.969 135.009  19.117  1.00  0.00     0.016 A 
ENDROOT
BRANCH  12  14
ATOM     14  C   UNL     1      43.885 132.567  19.507  1.00  0.00     0.252 C 
ATOM     15  O   UNL     1      42.828 132.006  19.910  1.00  0.00    -0.287 OA
BRANCH  14  16
ATOM     16  N   UNL     1      45.156 132.114  19.985  1.00  0.00    -0.017 NA
BRANCH  16  17
ATOM     17  N   UNL     1      45.720 132.673  20.923  1.00  0.00     0.009 N 
ATOM     18  N   UNL     1      46.283 133.230  21.863  1.00  0.00    -0.003 NA
ENDBRANCH  16  17
ENDBRANCH  14  16
ENDBRANCH  12  14
BRANCH   5  19
ATOM     19  N   UNL     1      40.312 136.397  20.373  1.00  0.00    -0.303 N 
ATOM     20  H   UNL     1      39.445 135.878  20.101  1.00  0.00     0.353 HD
ATOM     21  H   UNL     1      39.997 137.387  20.501  1.00  0.00     0.353 HD
BRANCH  19  22
ATOM     22  C   UNL     1      40.831 135.892  21.675  1.00  0.00     0.176 C 
ATOM     23  C   UNL     1      40.434 134.465  22.033  1.00  0.00     0.234 C 
ATOM     24  C   UNL     1      39.903 136.235  22.838  1.00  0.00     0.234 C 
ATOM     25  O   UNL     1      39.591 134.883  23.080  1.00  0.00    -0.368 OA
BRANCH  22  26
ATOM     26  C   UNL     1      42.316 136.228  21.955  1.00  0.00     0.288 C 
ATOM     27  F   UNL     1      42.464 137.519  22.439  1.00  0.00    -0.244 F 
ENDBRANCH  22  26
ENDBRANCH  19  22
ENDBRANCH   5  19
BRANCH  11  28
ATOM     28  O   UNL     1      43.836 132.321  16.576  1.00  0.00    -0.419 OA
BRANCH  28  29
ATOM     29  C   UNL     1      45.134 132.110  16.092  1.00  0.00     0.373 C 
ATOM     30  O   UNL     1      45.782 133.050  15.554  1.00  0.00    -0.244 OA
BRANCH  29  31
ATOM     31  C   UNL     1      45.771 130.759  16.241  1.00  0.00     0.196 C 
ATOM     32  C   UNL     1      47.054 130.530  15.440  1.00  0.00     0.092 C 
ATOM     33  C   UNL     1      45.780 129.756  15.082  1.00  0.00     0.069 C 
BRANCH  31  34
ATOM     34  N   UNL     1      45.767 130.172  17.584  1.00  0.00    -0.343 N 
ATOM     35  H   UNL     1      44.842 129.710  17.751  1.00  0.00     0.345 HD
ATOM     36  H   UNL     1      45.923 130.887  18.332  1.00  0.00     0.345 HD
ATOM     37  H   UNL     1      46.522 129.452  17.639  1.00  0.00     0.345 HD
ENDBRANCH  31  34
BRANCH  33  38
ATOM     38  C   UNL     1      45.158 130.165  13.739  1.00  0.00     0.007 C 
ATOM     39  C   UNL     1      46.250 130.515  12.736  1.00  0.00     0.004 C 
ENDBRANCH  33  38
ENDBRANCH  29  31
ENDBRANCH  28  29
ENDBRANCH  11  28
BRANCH   6  40
ATOM     40  N   UNL     1      40.560 134.036  18.758  1.00  0.00    -0.053 NA
BRANCH  40  41
ATOM     41  N   UNL     1      39.675 133.504  18.087  1.00  0.00     0.006 N 
ATOM     42  N   UNL     1      38.792 132.972  17.415  1.00  0.00    -0.003 NA
ENDBRANCH  40  41
ENDBRANCH   6  40
TORSDOF 13
ENDMDL
MODEL 5
REMARK VINA RESULT:      -6.5      2.251      2.648
REMARK SMILES CC[C@H]1C[C@@]1([NH3+])C(=O)Oc1c(C(=O)N=[N+]=[N-])cccc([O-])c([NH2+]C2(CF)COC2)c(N=[N+]=[N-])c(Cl)c1Cl
REMARK SMILES IDX 18 1 19 2 20 3 21 4 22 5 30 6 34 7 35 8 36 9 37 10 10 11
REMARK SMILES IDX 11 12 17 13 12 14 13 15 14 16 15 17 16 18 23 19 24 22 27 23
REMARK SMILES IDX 29 24 28 25 25 26 26 27 9 28 7 29 8 30 5 31 4 32 3 33 6 34
REMARK SMILES IDX 2 38 1 39 31 40 32 41 33 42
REMARK H PARENT 23 20 23 21 6 35 6 36 6 37
ROOT
ATOM      1  C   UNL     1      43.744 135.644  15.946  1.00  0.00     0.000 A 
ATOM      2  C   UNL     1      42.790 136.626  15.660  1.00  0.00    -0.002 A 
ATOM      3  C   UNL     1      41.518 136.728  16.262  1.00  0.00    -0.045 A 
ATOM      4  O   UNL     1      40.858 137.944  16.121  1.00  0.00    -0.868 OA
ATOM      5  C   UNL     1      40.863 135.683  16.980  1.00  0.00     0.133 A 
ATOM      6  C   UNL     1      41.047 134.302  16.653  1.00  0.00     0.118 A 
ATOM      7  C   UNL     1      41.534 133.892  15.392  1.00  0.00     0.079 A 
ATOM      8  Cl  UNL     1      40.737 134.536  13.955  1.00  0.00    -0.082 Cl
ATOM      9  C   UNL     1      42.582 132.950  15.244  1.00  0.00     0.103 A 
ATOM     10  Cl  UNL     1      42.681 132.048  13.733  1.00  0.00    -0.079 Cl
ATOM     11  C   UNL     1      43.581 132.688  16.217  1.00  0.00     0.162 A 
ATOM     12  C   UNL     1      43.906 133.578  17.281  1.00  0.00     0.069 A 
ATOM     13  C   UNL     1      43.782 134.975  17.170  1.00  0.00     0.016 A 
ENDROOT
BRANCH  12  14
ATOM     14  C   UNL     1      44.229 133.018  18.616  1.00  0.00     0.252 C 
ATOM     15  O   UNL     1      44.200 131.769  18.803  1.00  0.00    -0.287 OA
BRANCH  14  16
ATOM     16  N   UNL     1      44.532 133.892  19.708  1.00  0.00    -0.017 NA
BRANCH  16  17
ATOM     17  N   UNL     1      45.325 133.562  20.588  1.00  0.00     0.009 N 
ATOM     18  N   UNL     1      46.119 133.234  21.466  1.00  0.00    -0.003 NA
ENDBRANCH  16  17
ENDBRANCH  14  16
ENDBRANCH  12  14
BRANCH   5  19
ATOM     19  N   UNL     1      39.906 136.042  18.018  1.00  0.00    -0.303 N 
ATOM     20  H   UNL     1      40.149 136.983  18.407  1.00  0.00     0.353 HD
ATOM     21  H   UNL     1      40.015 135.386  18.826  1.00  0.00     0.353 HD
BRANCH  19  22
ATOM     22  C   UNL     1      38.484 136.017  17.574  1.00  0.00     0.176 C 
ATOM     23  C   UNL     1      38.265 135.986  16.067  1.00  0.00     0.234 C 
ATOM     24  C   UNL     1      37.899 137.421  17.434  1.00  0.00     0.234 C 
ATOM     25  O   UNL     1      37.749 137.295  16.039  1.00  0.00    -0.368 OA
BRANCH  22  26
ATOM     26  C   UNL     1      37.574 135.050  18.368  1.00  0.00     0.288 C 
ATOM     27  F   UNL     1      37.808 133.728  18.020  1.00  0.00    -0.244 F 
ENDBRANCH  22  26
ENDBRANCH  19  22
ENDBRANCH   5  19
BRANCH  11  28
ATOM     28  O   UNL     1      44.244 131.454  16.124  1.00  0.00    -0.419 OA
BRANCH  28  29
ATOM     29  C   UNL     1      45.492 131.278  15.513  1.00  0.00     0.373 C 
ATOM     30  O   UNL     1      46.251 132.265  15.300  1.00  0.00    -0.244 OA
BRANCH  29  31
ATOM     31  C   UNL     1      45.944 129.898  15.132  1.00  0.00     0.196 C 
ATOM     32  C   UNL     1      47.454 129.653  15.164  1.00  0.00     0.092 C 
ATOM     33  C   UNL     1      46.706 129.647  13.826  1.00  0.00     0.069 C 
BRANCH  31  34
ATOM     34  N   UNL     1      45.126 128.780  15.611  1.00  0.00    -0.343 N 
ATOM     35  H   UNL     1      44.905 128.150  14.804  1.00  0.00     0.345 HD
ATOM     36  H   UNL     1      44.227 129.100  16.041  1.00  0.00     0.345 HD
ATOM     37  H   UNL     1      45.672 128.244  16.323  1.00  0.00     0.345 HD
ENDBRANCH  31  34
BRANCH  33  38
ATOM     38  C   UNL     1      47.041 130.839  12.918  1.00  0.00     0.007 C 
ATOM     39  C   UNL     1      47.365 130.357  11.511  1.00  0.00     0.004 C 
ENDBRANCH  33  38
ENDBRANCH  29  31
ENDBRANCH  28  29
ENDBRANCH  11  28
BRANCH   6  40
ATOM     40  N   UNL     1      40.666 133.303  17.614  1.00  0.00    -0.053 NA
BRANCH  40  41
ATOM     41  N   UNL     1      40.837 133.443  18.826  1.00  0.00     0.006 N 
ATOM     42  N   UNL     1      41.009 133.583  20.036  1.00  0.00    -0.003 NA
ENDBRANCH  40  41
ENDBRANCH   6  40
TORSDOF 13
ENDMDL
MODEL 6
REMARK VINA RESULT:      -6.4      1.420      1.584
REMARK SMILES CC[C@H]1C[C@@]1([NH3+])C(=O)Oc1c(C(=O)N=[N+]=[N-])cccc([O-])c([NH2+]C2(CF)COC2)c(N=[N+]=[N-])c(Cl)c1Cl
REMARK SMILES IDX 18 1 19 2 20 3 21 4 22 5 30 6 34 7 35 8 36 9 37 10 10 11
REMARK SMILES IDX 11 12 17 13 12 14 13 15 14 16 15 17 16 18 23 19 24 22 27 23
REMARK SMILES IDX 29 24 28 25 25 26 26 27 9 28 7 29 8 30 5 31 4 32 3 33 6 34
REMARK SMILES IDX 2 38 1 39 31 40 32 41 33 42
REMARK H PARENT 23 20 23 21 6 35 6 36 6 37
ROOT
ATOM      1  C   UNL     1      44.451 134.941  16.093  1.00  0.00     0.000 A 
ATOM      2  C   UNL     1      43.872 136.214  16.118  1.00  0.00    -0.002 A 
ATOM      3  C   UNL     1      42.802 136.607  16.949  1.00  0.00    -0.045 A 
ATOM      4  O   UNL     1      42.595 137.975  17.093  1.00  0.00    -0.868 OA
ATOM      5  C   UNL     1      41.917 135.715  17.626  1.00  0.00     0.133 A 
ATOM      6  C   UNL     1      41.565 134.436  17.088  1.00  0.00     0.118 A 
ATOM      7  C   UNL     1      41.718 134.135  15.717  1.00  0.00     0.079 A 
ATOM      8  Cl  UNL     1      41.025 135.261  14.547  1.00  0.00    -0.082 Cl
ATOM      9  C   UNL     1      42.344 132.950  15.256  1.00  0.00     0.103 A 
ATOM     10  Cl  UNL     1      41.934 132.366  13.645  1.00  0.00    -0.079 Cl
ATOM     11  C   UNL     1      43.302 132.202  15.989  1.00  0.00     0.162 A 
ATOM     12  C   UNL     1      44.046 132.722  17.087  1.00  0.00     0.069 A 
ATOM     13  C   UNL     1      44.405 134.078  17.189  1.00  0.00     0.016 A 
ENDROOT
BRANCH  12  14
ATOM     14  C   UNL     1      44.315 131.847  18.254  1.00  0.00     0.252 C 
ATOM     15  O   UNL     1      45.336 131.103  18.266  1.00  0.00    -0.287 OA
BRANCH  14  16
ATOM     16  N   UNL     1      43.396 131.809  19.351  1.00  0.00    -0.017 NA
BRANCH  16  17
ATOM     17  N   UNL     1      43.746 131.411  20.461  1.00  0.00     0.009 N 
ATOM     18  N   UNL     1      44.094 131.015  21.571  1.00  0.00    -0.003 NA
ENDBRANCH  16  17
ENDBRANCH  14  16
ENDBRANCH  12  14
BRANCH   5  19
ATOM     19  N   UNL     1      41.282 136.163  18.858  1.00  0.00    -0.303 N 
ATOM     20  H   UNL     1      41.958 136.740  19.410  1.00  0.00     0.353 HD
ATOM     21  H   UNL     1      41.088 135.332  19.464  1.00  0.00     0.353 HD
BRANCH  19  22
ATOM     22  C   UNL     1      40.009 136.911  18.653  1.00  0.00     0.176 C 
ATOM     23  C   UNL     1      38.747 136.203  19.126  1.00  0.00     0.234 C 
ATOM     24  C   UNL     1      39.405 136.653  17.275  1.00  0.00     0.234 C 
ATOM     25  O   UNL     1      38.278 136.002  17.814  1.00  0.00    -0.368 OA
BRANCH  22  26
ATOM     26  C   UNL     1      40.073 138.412  19.024  1.00  0.00     0.288 C 
ATOM     27  F   UNL     1      41.055 138.662  19.971  1.00  0.00    -0.244 F 
ENDBRANCH  22  26
ENDBRANCH  19  22
ENDBRANCH   5  19
BRANCH  11  28
ATOM     28  O   UNL     1      43.475 130.860  15.613  1.00  0.00    -0.419 OA
BRANCH  28  29
ATOM     29  C   UNL     1      44.401 130.426  14.656  1.00  0.00     0.373 C 
ATOM     30  O   UNL     1      44.315 130.810  13.456  1.00  0.00    -0.244 OA
BRANCH  29  31
ATOM     31  C   UNL     1      45.524 129.520  15.067  1.00  0.00     0.196 C 
ATOM     32  C   UNL     1      46.829 130.208  15.472  1.00  0.00     0.092 C 
ATOM     33  C   UNL     1      46.774 129.362  14.194  1.00  0.00     0.069 C 
BRANCH  31  34
ATOM     34  N   UNL     1      45.166 128.349  15.873  1.00  0.00    -0.343 N 
ATOM     35  H   UNL     1      45.362 127.482  15.320  1.00  0.00     0.345 HD
ATOM     36  H   UNL     1      44.156 128.349  16.147  1.00  0.00     0.345 HD
ATOM     37  H   UNL     1      45.753 128.343  16.737  1.00  0.00     0.345 HD
ENDBRANCH  31  34
BRANCH  33  38
ATOM     38  C   UNL     1      46.886 130.181  12.899  1.00  0.00     0.007 C 
ATOM     39  C   UNL     1      47.857 131.339  13.089  1.00  0.00     0.004 C 
ENDBRANCH  33  38
ENDBRANCH  29  31
ENDBRANCH  28  29
ENDBRANCH  11  28
BRANCH   6  40
ATOM     40  N   UNL     1      40.982 133.453  17.959  1.00  0.00    -0.053 NA
BRANCH  40  41
ATOM     41  N   UNL     1      39.844 133.008  17.799  1.00  0.00     0.006 N 
ATOM     42  N   UNL     1      38.708 132.564  17.638  1.00  0.00    -0.003 NA
ENDBRANCH  40  41
ENDBRANCH   6  40
TORSDOF 13
ENDMDL
MODEL 7
REMARK VINA RESULT:      -6.4      2.121      2.616
REMARK SMILES CC[C@H]1C[C@@]1([NH3+])C(=O)Oc1c(C(=O)N=[N+]=[N-])cccc([O-])c([NH2+]C2(CF)COC2)c(N=[N+]=[N-])c(Cl)c1Cl
REMARK SMILES IDX 18 1 19 2 20 3 21 4 22 5 30 6 34 7 35 8 36 9 37 10 10 11
REMARK SMILES IDX 11 12 17 13 12 14 13 15 14 16 15 17 16 18 23 19 24 22 27 23
REMARK SMILES IDX 29 24 28 25 25 26 26 27 9 28 7 29 8 30 5 31 4 32 3 33 6 34
REMARK SMILES IDX 2 38 1 39 31 40 32 41 33 42
REMARK H PARENT 23 20 23 21 6 35 6 36 6 37
ROOT
ATOM      1  C   UNL     1      44.156 136.358  17.965  1.00  0.00     0.000 A 
ATOM      2  C   UNL     1      43.437 137.555  18.048  1.00  0.00    -0.002 A 
ATOM      3  C   UNL     1      42.169 137.706  18.647  1.00  0.00    -0.045 A 
ATOM      4  O   UNL     1      41.772 139.005  18.948  1.00  0.00    -0.868 OA
ATOM      5  C   UNL     1      41.269 136.638  18.945  1.00  0.00     0.133 A 
ATOM      6  C   UNL     1      41.203 135.453  18.146  1.00  0.00     0.118 A 
ATOM      7  C   UNL     1      41.693 135.415  16.823  1.00  0.00     0.079 A 
ATOM      8  Cl  UNL     1      41.149 136.673  15.709  1.00  0.00    -0.082 Cl
ATOM      9  C   UNL     1      42.544 134.387  16.348  1.00  0.00     0.103 A 
ATOM     10  Cl  UNL     1      42.578 134.069  14.615  1.00  0.00    -0.079 Cl
ATOM     11  C   UNL     1      43.397 133.598  17.164  1.00  0.00     0.162 A 
ATOM     12  C   UNL     1      43.808 133.971  18.476  1.00  0.00     0.069 A 
ATOM     13  C   UNL     1      43.970 135.312  18.870  1.00  0.00     0.016 A 
ENDROOT
BRANCH  12  14
ATOM     14  C   UNL     1      43.914 132.927  19.523  1.00  0.00     0.252 C 
ATOM     15  O   UNL     1      43.056 132.001  19.583  1.00  0.00    -0.287 OA
BRANCH  14  16
ATOM     16  N   UNL     1      44.962 132.987  20.496  1.00  0.00    -0.017 NA
BRANCH  16  17
ATOM     17  N   UNL     1      45.739 132.048  20.654  1.00  0.00     0.009 N 
ATOM     18  N   UNL     1      46.515 131.107  20.811  1.00  0.00    -0.003 NA
ENDBRANCH  16  17
ENDBRANCH  14  16
ENDBRANCH  12  14
BRANCH   5  19
ATOM     19  N   UNL     1      40.326 136.806  20.042  1.00  0.00    -0.303 N 
ATOM     20  H   UNL     1      39.456 136.261  19.842  1.00  0.00     0.353 HD
ATOM     21  H   UNL     1      40.011 137.804  20.073  1.00  0.00     0.353 HD
BRANCH  19  22
ATOM     22  C   UNL     1      40.872 136.438  21.379  1.00  0.00     0.176 C 
ATOM     23  C   UNL     1      41.299 137.605  22.260  1.00  0.00     0.234 C 
ATOM     24  C   UNL     1      42.375 136.174  21.335  1.00  0.00     0.234 C 
ATOM     25  O   UNL     1      42.665 137.286  22.149  1.00  0.00    -0.368 OA
BRANCH  22  26
ATOM     26  C   UNL     1      40.077 135.338  22.123  1.00  0.00     0.288 C 
ATOM     27  F   UNL     1      38.753 135.704  22.312  1.00  0.00    -0.244 F 
ENDBRANCH  22  26
ENDBRANCH  19  22
ENDBRANCH   5  19
BRANCH  11  28
ATOM     28  O   UNL     1      43.809 132.364  16.638  1.00  0.00    -0.419 OA
BRANCH  28  29
ATOM     29  C   UNL     1      45.100 132.109  16.155  1.00  0.00     0.373 C 
ATOM     30  O   UNL     1      45.755 133.009  15.559  1.00  0.00    -0.244 OA
BRANCH  29  31
ATOM     31  C   UNL     1      45.721 130.760  16.375  1.00  0.00     0.196 C 
ATOM     32  C   UNL     1      46.978 130.459  15.556  1.00  0.00     0.092 C 
ATOM     33  C   UNL     1      45.683 129.684  15.283  1.00  0.00     0.069 C 
BRANCH  31  34
ATOM     34  N   UNL     1      45.746 130.261  17.752  1.00  0.00    -0.343 N 
ATOM     35  H   UNL     1      46.738 130.222  18.083  1.00  0.00     0.345 HD
ATOM     36  H   UNL     1      45.328 129.305  17.837  1.00  0.00     0.345 HD
ATOM     37  H   UNL     1      45.210 130.921  18.360  1.00  0.00     0.345 HD
ENDBRANCH  31  34
BRANCH  33  38
ATOM     38  C   UNL     1      45.030 130.016  13.933  1.00  0.00     0.007 C 
ATOM     39  C   UNL     1      46.089 130.438  12.924  1.00  0.00     0.004 C 
ENDBRANCH  33  38
ENDBRANCH  29  31
ENDBRANCH  28  29
ENDBRANCH  11  28
BRANCH   6  40
ATOM     40  N   UNL     1      40.562 134.285  18.688  1.00  0.00    -0.053 NA
BRANCH  40  41
ATOM     41  N   UNL     1      39.789 133.583  18.035  1.00  0.00     0.006 N 
ATOM     42  N   UNL     1      39.018 132.882  17.382  1.00  0.00    -0.003 NA
ENDBRANCH  40  41
ENDBRANCH   6  40
TORSDOF 13
ENDMDL
MODEL 8
REMARK VINA RESULT:      -6.0      1.574      1.778
REMARK SMILES CC[C@H]1C[C@@]1([NH3+])C(=O)Oc1c(C(=O)N=[N+]=[N-])cccc([O-])c([NH2+]C2(CF)COC2)c(N=[N+]=[N-])c(Cl)c1Cl
REMARK SMILES IDX 18 1 19 2 20 3 21 4 22 5 30 6 34 7 35 8 36 9 37 10 10 11
REMARK SMILES IDX 11 12 17 13 12 14 13 15 14 16 15 17 16 18 23 19 24 22 27 23
REMARK SMILES IDX 29 24 28 25 25 26 26 27 9 28 7 29 8 30 5 31 4 32 3 33 6 34
REMARK SMILES IDX 2 38 1 39 31 40 32 41 33 42
REMARK H PARENT 23 20 23 21 6 35 6 36 6 37
ROOT
ATOM      1  C   UNL     1      43.852 135.771  16.641  1.00  0.00     0.000 A 
ATOM      2  C   UNL     1      43.318 137.059  16.757  1.00  0.00    -0.002 A 
ATOM      3  C   UNL     1      42.280 137.436  17.635  1.00  0.00    -0.045 A 
ATOM      4  O   UNL     1      42.124 138.798  17.868  1.00  0.00    -0.868 OA
ATOM      5  C   UNL     1      41.380 136.533  18.278  1.00  0.00     0.133 A 
ATOM      6  C   UNL     1      40.972 135.303  17.671  1.00  0.00     0.118 A 
ATOM      7  C   UNL     1      41.085 135.082  16.281  1.00  0.00     0.079 A 
ATOM      8  Cl  UNL     1      40.406 136.300  15.199  1.00  0.00    -0.082 Cl
ATOM      9  C   UNL     1      41.659 133.908  15.735  1.00  0.00     0.103 A 
ATOM     10  Cl  UNL     1      41.194 133.437  14.101  1.00  0.00    -0.079 Cl
ATOM     11  C   UNL     1      42.606 133.084  16.397  1.00  0.00     0.162 A 
ATOM     12  C   UNL     1      43.391 133.510  17.507  1.00  0.00     0.069 A 
ATOM     13  C   UNL     1      43.799 134.844  17.682  1.00  0.00     0.016 A 
ENDROOT
BRANCH  12  14
ATOM     14  C   UNL     1      43.656 132.556  18.611  1.00  0.00     0.252 C 
ATOM     15  O   UNL     1      42.783 131.701  18.934  1.00  0.00    -0.287 OA
BRANCH  14  16
ATOM     16  N   UNL     1      44.883 132.629  19.345  1.00  0.00    -0.017 NA
BRANCH  16  17
ATOM     17  N   UNL     1      44.892 132.607  20.575  1.00  0.00     0.009 N 
ATOM     18  N   UNL     1      44.904 132.585  21.803  1.00  0.00    -0.003 NA
ENDBRANCH  16  17
ENDBRANCH  14  16
ENDBRANCH  12  14
BRANCH   5  19
ATOM     19  N   UNL     1      40.788 136.925  19.550  1.00  0.00    -0.303 N 
ATOM     20  H   UNL     1      39.914 136.374  19.714  1.00  0.00     0.353 HD
ATOM     21  H   UNL     1      40.465 137.919  19.485  1.00  0.00     0.353 HD
BRANCH  19  22
ATOM     22  C   UNL     1      41.707 136.799  20.717  1.00  0.00     0.176 C 
ATOM     23  C   UNL     1      42.786 135.731  20.592  1.00  0.00     0.234 C 
ATOM     24  C   UNL     1      41.161 135.847  21.779  1.00  0.00     0.234 C 
ATOM     25  O   UNL     1      42.199 134.916  21.578  1.00  0.00    -0.368 OA
BRANCH  22  26
ATOM     26  C   UNL     1      42.207 138.143  21.296  1.00  0.00     0.288 C 
ATOM     27  F   UNL     1      43.551 138.085  21.635  1.00  0.00    -0.244 F 
ENDBRANCH  22  26
ENDBRANCH  19  22
ENDBRANCH   5  19
BRANCH  11  28
ATOM     28  O   UNL     1      42.724 131.763  15.936  1.00  0.00    -0.419 OA
BRANCH  28  29
ATOM     29  C   UNL     1      43.712 131.329  15.042  1.00  0.00     0.373 C 
ATOM     30  O   UNL     1      43.475 131.262  13.804  1.00  0.00    -0.244 OA
BRANCH  29  31
ATOM     31  C   UNL     1      45.074 130.968  15.559  1.00  0.00     0.196 C 
ATOM     32  C   UNL     1      46.199 131.953  15.232  1.00  0.00     0.092 C 
ATOM     33  C   UNL     1      46.199 130.555  14.603  1.00  0.00     0.069 C 
BRANCH  31  34
ATOM     34  N   UNL     1      45.137 130.380  16.900  1.00  0.00    -0.343 N 
ATOM     35  H   UNL     1      44.567 130.965  17.555  1.00  0.00     0.345 HD
ATOM     36  H   UNL     1      46.116 130.327  17.265  1.00  0.00     0.345 HD
ATOM     37  H   UNL     1      44.734 129.417  16.865  1.00  0.00     0.345 HD
ENDBRANCH  31  34
BRANCH  33  38
ATOM     38  C   UNL     1      45.927 130.550  13.092  1.00  0.00     0.007 C 
ATOM     39  C   UNL     1      47.239 130.579  12.319  1.00  0.00     0.004 C 
ENDBRANCH  33  38
ENDBRANCH  29  31
ENDBRANCH  28  29
ENDBRANCH  11  28
BRANCH   6  40
ATOM     40  N   UNL     1      40.374 134.287  18.495  1.00  0.00    -0.053 NA
BRANCH  40  41
ATOM     41  N   UNL     1      39.192 133.955  18.395  1.00  0.00     0.006 N 
ATOM     42  N   UNL     1      38.012 133.623  18.293  1.00  0.00    -0.003 NA
ENDBRANCH  40  41
ENDBRANCH   6  40
TORSDOF 13
ENDMDL
MODEL 9
REMARK VINA RESULT:      -5.9      3.244      7.664
REMARK SMILES CC[C@H]1C[C@@]1([NH3+])C(=O)Oc1c(C(=O)N=[N+]=[N-])cccc([O-])c([NH2+]C2(CF)COC2)c(N=[N+]=[N-])c(Cl)c1Cl
REMARK SMILES IDX 18 1 19 2 20 3 21 4 22 5 30 6 34 7 35 8 36 9 37 10 10 11
REMARK SMILES IDX 11 12 17 13 12 14 13 15 14 16 15 17 16 18 23 19 24 22 27 23
REMARK SMILES IDX 29 24 28 25 25 26 26 27 9 28 7 29 8 30 5 31 4 32 3 33 6 34
REMARK SMILES IDX 2 38 1 39 31 40 32 41 33 42
REMARK H PARENT 23 20 23 21 6 35 6 36 6 37
ROOT
ATOM      1  C   UNL     1      43.360 134.431  19.453  1.00  0.00     0.000 A 
ATOM      2  C   UNL     1      44.031 133.210  19.573  1.00  0.00    -0.002 A 
ATOM      3  C   UNL     1      44.643 132.507  18.513  1.00  0.00    -0.045 A 
ATOM      4  O   UNL     1      45.550 131.514  18.866  1.00  0.00    -0.868 OA
ATOM      5  C   UNL     1      44.387 132.727  17.126  1.00  0.00     0.133 A 
ATOM      6  C   UNL     1      43.108 133.155  16.646  1.00  0.00     0.118 A 
ATOM      7  C   UNL     1      41.932 132.998  17.411  1.00  0.00     0.079 A 
ATOM      8  Cl  UNL     1      41.591 131.398  18.074  1.00  0.00    -0.082 Cl
ATOM      9  C   UNL     1      41.001 134.047  17.611  1.00  0.00     0.103 A 
ATOM     10  Cl  UNL     1      39.336 133.619  18.000  1.00  0.00    -0.079 Cl
ATOM     11  C   UNL     1      41.312 135.431  17.545  1.00  0.00     0.162 A 
ATOM     12  C   UNL     1      42.631 135.955  17.657  1.00  0.00     0.069 A 
ATOM     13  C   UNL     1      43.633 135.336  18.426  1.00  0.00     0.016 A 
ENDROOT
BRANCH  12  14
ATOM     14  C   UNL     1      43.026 137.104  16.806  1.00  0.00     0.252 C 
ATOM     15  O   UNL     1      43.568 138.120  17.324  1.00  0.00    -0.287 OA
BRANCH  14  16
ATOM     16  N   UNL     1      42.753 137.083  15.401  1.00  0.00    -0.017 NA
BRANCH  16  17
ATOM     17  N   UNL     1      42.370 138.092  14.811  1.00  0.00     0.009 N 
ATOM     18  N   UNL     1      41.988 139.101  14.224  1.00  0.00    -0.003 NA
ENDBRANCH  16  17
ENDBRANCH  14  16
ENDBRANCH  12  14
BRANCH   5  19
ATOM     19  N   UNL     1      45.436 132.416  16.165  1.00  0.00    -0.303 N 
ATOM     20  H   UNL     1      46.370 132.496  16.628  1.00  0.00     0.353 HD
ATOM     21  H   UNL     1      45.447 133.152  15.420  1.00  0.00     0.353 HD
BRANCH  19  22
ATOM     22  C   UNL     1      45.293 131.083  15.513  1.00  0.00     0.176 C 
ATOM     23  C   UNL     1      44.586 130.018  16.341  1.00  0.00     0.234 C 
ATOM     24  C   UNL     1      46.507 130.191  15.755  1.00  0.00     0.234 C 
ATOM     25  O   UNL     1      45.765 129.269  16.519  1.00  0.00    -0.368 OA
BRANCH  22  26
ATOM     26  C   UNL     1      44.852 131.131  14.030  1.00  0.00     0.288 C 
ATOM     27  F   UNL     1      45.466 130.137  13.283  1.00  0.00    -0.244 F 
ENDBRANCH  22  26
ENDBRANCH  19  22
ENDBRANCH   5  19
BRANCH  11  28
ATOM     28  O   UNL     1      40.239 136.307  17.312  1.00  0.00    -0.419 OA
BRANCH  28  29
ATOM     29  C   UNL     1      39.863 137.336  18.186  1.00  0.00     0.373 C 
ATOM     30  O   UNL     1      40.210 138.529  17.963  1.00  0.00    -0.244 OA
BRANCH  29  31
ATOM     31  C   UNL     1      39.016 137.019  19.384  1.00  0.00     0.196 C 
ATOM     32  C   UNL     1      38.946 138.103  20.461  1.00  0.00     0.092 C 
ATOM     33  C   UNL     1      39.649 136.774  20.759  1.00  0.00     0.069 C 
BRANCH  31  34
ATOM     34  N   UNL     1      37.757 136.313  19.134  1.00  0.00    -0.343 N 
ATOM     35  H   UNL     1      37.941 135.504  18.496  1.00  0.00     0.345 HD
ATOM     36  H   UNL     1      37.036 136.929  18.693  1.00  0.00     0.345 HD
ATOM     37  H   UNL     1      37.386 135.953  20.043  1.00  0.00     0.345 HD
ENDBRANCH  31  34
BRANCH  33  38
ATOM     38  C   UNL     1      41.173 136.895  20.909  1.00  0.00     0.007 C 
ATOM     39  C   UNL     1      41.611 136.383  22.274  1.00  0.00     0.004 C 
ENDBRANCH  33  38
ENDBRANCH  29  31
ENDBRANCH  28  29
ENDBRANCH  11  28
BRANCH   6  40
ATOM     40  N   UNL     1      43.012 133.702  15.320  1.00  0.00    -0.053 NA
BRANCH  40  41
ATOM     41  N   UNL     1      42.126 133.382  14.527  1.00  0.00     0.006 N 
ATOM     42  N   UNL     1      41.240 133.061  13.735  1.00  0.00    -0.003 NA
ENDBRANCH  40  41
ENDBRANCH   6  40
TORSDOF 13
ENDMDL


