MODEL 1
REMARK VINA RESULT:      -8.2      0.000      0.000
REMARK SMILES Cc1n[nH+]n(/C=C2/C[C@@H](C)OC2=O)c1-c1c2ccccc2cc2c(N=[N+]=[N-])cccc12
REMARK SMILES IDX 15 1 16 2 17 3 18 4 19 5 20 6 21 7 22 8 23 9 24 10 28 11
REMARK SMILES IDX 29 12 30 13 31 14 14 15 5 16 4 17 2 18 3 19 1 21 6 22 7 23
REMARK SMILES IDX 12 24 8 25 11 26 9 27 13 28 10 29 25 30 26 31 27 32
REMARK H PARENT 4 20
ROOT
ATOM      1  C   UNL     1      43.577 132.557  17.566  1.00  0.00     0.022 A 
ATOM      2  C   UNL     1      44.291 132.233  18.749  1.00  0.00    -0.008 A 
ATOM      3  C   UNL     1      44.033 132.884  19.977  1.00  0.00     0.009 A 
ATOM      4  C   UNL     1      44.747 132.542  21.127  1.00  0.00     0.001 A 
ATOM      5  C   UNL     1      45.731 131.558  21.076  1.00  0.00     0.001 A 
ATOM      6  C   UNL     1      46.012 130.913  19.872  1.00  0.00     0.009 A 
ATOM      7  C   UNL     1      45.304 131.246  18.705  1.00  0.00    -0.017 A 
ATOM      8  C   UNL     1      45.611 130.604  17.502  1.00  0.00     0.018 A 
ATOM      9  C   UNL     1      44.925 130.920  16.318  1.00  0.00    -0.008 A 
ATOM     10  C   UNL     1      45.250 130.268  15.103  1.00  0.00     0.045 A 
ATOM     11  C   UNL     1      44.543 130.597  13.932  1.00  0.00     0.011 A 
ATOM     12  C   UNL     1      43.527 131.547  13.962  1.00  0.00     0.001 A 
ATOM     13  C   UNL     1      43.200 132.190  15.152  1.00  0.00     0.009 A 
ATOM     14  C   UNL     1      43.896 131.899  16.348  1.00  0.00    -0.008 A 
ENDROOT
BRANCH   1  15
ATOM     15  C   UNL     1      42.516 133.593  17.597  1.00  0.00     0.142 A 
ATOM     16  N   UNL     1      42.703 134.908  17.392  1.00  0.00    -0.103 N 
ATOM     17  N   UNL     1      41.519 135.497  17.467  1.00  0.00    -0.012 N 
ATOM     18  C   UNL     1      41.157 133.408  17.764  1.00  0.00     0.137 A 
ATOM     19  N   UNL     1      40.554 134.613  17.679  1.00  0.00     0.020 NA
ATOM     20  H   UNL     1      41.360 136.527  17.393  1.00  0.00     0.527 HD
ATOM     21  C   UNL     1      40.438 132.111  17.938  1.00  0.00     0.076 C 
BRANCH  16  22
ATOM     22  C   UNL     1      43.961 135.581  17.250  1.00  0.00     0.171 C 
BRANCH  22  23
ATOM     23  C   UNL     1      44.205 136.783  17.785  1.00  0.00     0.063 C 
ATOM     24  C   UNL     1      43.625 138.061  17.426  1.00  0.00     0.336 C 
ATOM     25  C   UNL     1      45.249 137.043  18.820  1.00  0.00     0.090 C 
ATOM     26  O   UNL     1      44.177 139.073  18.180  1.00  0.00    -0.459 OA
ATOM     27  C   UNL     1      45.151 138.570  19.091  1.00  0.00     0.178 C 
ATOM     28  O   UNL     1      42.786 138.267  16.511  1.00  0.00    -0.247 OA
ATOM     29  C   UNL     1      46.483 139.284  18.875  1.00  0.00     0.053 C 
ENDBRANCH  22  23
ENDBRANCH  16  22
ENDBRANCH   1  15
BRANCH  10  30
ATOM     30  N   UNL     1      46.295 129.280  15.073  1.00  0.00    -0.060 NA
BRANCH  30  31
ATOM     31  N   UNL     1      47.169 129.265  14.205  1.00  0.00     0.005 N 
ATOM     32  N   UNL     1      48.044 129.251  13.340  1.00  0.00    -0.003 NA
ENDBRANCH  30  31
ENDBRANCH  10  30
TORSDOF 5
ENDMDL
MODEL 2
REMARK VINA RESULT:      -8.0      3.601      6.885
REMARK SMILES Cc1n[nH+]n(/C=C2/C[C@@H](C)OC2=O)c1-c1c2ccccc2cc2c(N=[N+]=[N-])cccc12
REMARK SMILES IDX 15 1 16 2 17 3 18 4 19 5 20 6 21 7 22 8 23 9 24 10 28 11
REMARK SMILES IDX 29 12 30 13 31 14 14 15 5 16 4 17 2 18 3 19 1 21 6 22 7 23
REMARK SMILES IDX 12 24 8 25 11 26 9 27 13 28 10 29 25 30 26 31 27 32
REMARK H PARENT 4 20
ROOT
ATOM      1  C   UNL     1      43.247 134.182  16.779  1.00  0.00     0.022 A 
ATOM      2  C   UNL     1      43.241 135.598  16.693  1.00  0.00    -0.008 A 
ATOM      3  C   UNL     1      42.816 136.273  15.526  1.00  0.00     0.009 A 
ATOM      4  C   UNL     1      42.814 137.668  15.471  1.00  0.00     0.001 A 
ATOM      5  C   UNL     1      43.242 138.415  16.567  1.00  0.00     0.001 A 
ATOM      6  C   UNL     1      43.679 137.770  17.724  1.00  0.00     0.009 A 
ATOM      7  C   UNL     1      43.688 136.367  17.795  1.00  0.00    -0.017 A 
ATOM      8  C   UNL     1      44.148 135.735  18.955  1.00  0.00     0.018 A 
ATOM      9  C   UNL     1      44.175 134.334  19.053  1.00  0.00    -0.008 A 
ATOM     10  C   UNL     1      44.650 133.705  20.230  1.00  0.00     0.045 A 
ATOM     11  C   UNL     1      44.659 132.301  20.307  1.00  0.00     0.011 A 
ATOM     12  C   UNL     1      44.201 131.531  19.244  1.00  0.00     0.001 A 
ATOM     13  C   UNL     1      43.730 132.141  18.085  1.00  0.00     0.009 A 
ATOM     14  C   UNL     1      43.716 133.549  17.961  1.00  0.00    -0.008 A 
ENDROOT
BRANCH   1  15
ATOM     15  C   UNL     1      42.787 133.365  15.630  1.00  0.00     0.142 A 
ATOM     16  N   UNL     1      43.540 132.489  14.943  1.00  0.00    -0.103 N 
ATOM     17  N   UNL     1      42.768 131.936  14.019  1.00  0.00    -0.012 N 
ATOM     18  C   UNL     1      41.512 133.291  15.102  1.00  0.00     0.137 A 
ATOM     19  N   UNL     1      41.524 132.391  14.096  1.00  0.00     0.020 NA
ATOM     20  H   UNL     1      43.093 131.248  13.304  1.00  0.00     0.527 HD
ATOM     21  C   UNL     1      40.294 134.010  15.580  1.00  0.00     0.076 C 
BRANCH  16  22
ATOM     22  C   UNL     1      44.950 132.278  15.085  1.00  0.00     0.171 C 
BRANCH  22  23
ATOM     23  C   UNL     1      45.571 131.188  14.618  1.00  0.00     0.063 C 
ATOM     24  C   UNL     1      45.470 129.824  15.093  1.00  0.00     0.336 C 
ATOM     25  C   UNL     1      46.609 131.211  13.545  1.00  0.00     0.090 C 
ATOM     26  O   UNL     1      46.310 128.998  14.378  1.00  0.00    -0.459 OA
ATOM     27  C   UNL     1      47.027 129.723  13.383  1.00  0.00     0.178 C 
ATOM     28  O   UNL     1      44.779 129.424  16.066  1.00  0.00    -0.247 OA
ATOM     29  C   UNL     1      48.528 129.518  13.570  1.00  0.00     0.053 C 
ENDBRANCH  22  23
ENDBRANCH  16  22
ENDBRANCH   1  15
BRANCH  10  30
ATOM     30  N   UNL     1      45.117 134.501  21.333  1.00  0.00    -0.060 NA
BRANCH  30  31
ATOM     31  N   UNL     1      45.177 134.069  22.485  1.00  0.00     0.005 N 
ATOM     32  N   UNL     1      45.238 133.639  23.636  1.00  0.00    -0.003 NA
ENDBRANCH  30  31
ENDBRANCH  10  30
TORSDOF 5
ENDMDL
MODEL 3
REMARK VINA RESULT:      -8.0      2.655      4.828
REMARK SMILES Cc1n[nH+]n(/C=C2/C[C@@H](C)OC2=O)c1-c1c2ccccc2cc2c(N=[N+]=[N-])cccc12
REMARK SMILES IDX 15 1 16 2 17 3 18 4 19 5 20 6 21 7 22 8 23 9 24 10 28 11
REMARK SMILES IDX 29 12 30 13 31 14 14 15 5 16 4 17 2 18 3 19 1 21 6 22 7 23
REMARK SMILES IDX 12 24 8 25 11 26 9 27 13 28 10 29 25 30 26 31 27 32
REMARK H PARENT 4 20
ROOT
ATOM      1  C   UNL     1      43.706 133.659  18.090  1.00  0.00     0.022 A 
ATOM      2  C   UNL     1      43.434 134.807  17.302  1.00  0.00    -0.008 A 
ATOM      3  C   UNL     1      42.601 135.851  17.766  1.00  0.00     0.009 A 
ATOM      4  C   UNL     1      42.355 136.972  16.972  1.00  0.00     0.001 A 
ATOM      5  C   UNL     1      42.923 137.073  15.704  1.00  0.00     0.001 A 
ATOM      6  C   UNL     1      43.736 136.049  15.220  1.00  0.00     0.009 A 
ATOM      7  C   UNL     1      43.993 134.913  16.005  1.00  0.00    -0.017 A 
ATOM      8  C   UNL     1      44.795 133.886  15.498  1.00  0.00     0.018 A 
ATOM      9  C   UNL     1      45.064 132.736  16.257  1.00  0.00    -0.008 A 
ATOM     10  C   UNL     1      45.872 131.699  15.730  1.00  0.00     0.045 A 
ATOM     11  C   UNL     1      46.133 130.560  16.513  1.00  0.00     0.011 A 
ATOM     12  C   UNL     1      45.612 130.451  17.798  1.00  0.00     0.001 A 
ATOM     13  C   UNL     1      44.820 131.467  18.325  1.00  0.00     0.009 A 
ATOM     14  C   UNL     1      44.521 132.620  17.566  1.00  0.00    -0.008 A 
ENDROOT
BRANCH   1  15
ATOM     15  C   UNL     1      43.122 133.533  19.447  1.00  0.00     0.142 A 
ATOM     16  N   UNL     1      41.920 133.004  19.735  1.00  0.00    -0.103 N 
ATOM     17  N   UNL     1      41.772 133.038  21.051  1.00  0.00    -0.012 N 
ATOM     18  C   UNL     1      43.711 133.858  20.655  1.00  0.00     0.137 A 
ATOM     19  N   UNL     1      42.848 133.539  21.643  1.00  0.00     0.020 NA
ATOM     20  H   UNL     1      40.914 132.734  21.562  1.00  0.00     0.527 HD
ATOM     21  C   UNL     1      45.085 134.399  20.872  1.00  0.00     0.076 C 
BRANCH  16  22
ATOM     22  C   UNL     1      40.919 132.595  18.795  1.00  0.00     0.171 C 
BRANCH  22  23
ATOM     23  C   UNL     1      40.102 133.461  18.183  1.00  0.00     0.063 C 
ATOM     24  C   UNL     1      39.985 133.740  16.767  1.00  0.00     0.336 C 
ATOM     25  C   UNL     1      39.202 134.413  18.900  1.00  0.00     0.090 C 
ATOM     26  O   UNL     1      39.061 134.738  16.543  1.00  0.00    -0.459 OA
ATOM     27  C   UNL     1      38.491 135.199  17.764  1.00  0.00     0.178 C 
ATOM     28  O   UNL     1      40.666 133.217  15.847  1.00  0.00    -0.247 OA
ATOM     29  C   UNL     1      38.686 136.708  17.892  1.00  0.00     0.053 C 
ENDBRANCH  22  23
ENDBRANCH  16  22
ENDBRANCH   1  15
BRANCH  10  30
ATOM     30  N   UNL     1      46.417 131.815  14.404  1.00  0.00    -0.060 NA
BRANCH  30  31
ATOM     31  N   UNL     1      46.992 130.883  13.839  1.00  0.00     0.005 N 
ATOM     32  N   UNL     1      47.567 129.952  13.277  1.00  0.00    -0.003 NA
ENDBRANCH  30  31
ENDBRANCH  10  30
TORSDOF 5
ENDMDL
MODEL 4
REMARK VINA RESULT:      -7.9      3.340      6.847
REMARK SMILES Cc1n[nH+]n(/C=C2/C[C@@H](C)OC2=O)c1-c1c2ccccc2cc2c(N=[N+]=[N-])cccc12
REMARK SMILES IDX 15 1 16 2 17 3 18 4 19 5 20 6 21 7 22 8 23 9 24 10 28 11
REMARK SMILES IDX 29 12 30 13 31 14 14 15 5 16 4 17 2 18 3 19 1 21 6 22 7 23
REMARK SMILES IDX 12 24 8 25 11 26 9 27 13 28 10 29 25 30 26 31 27 32
REMARK H PARENT 4 20
ROOT
ATOM      1  C   UNL     1      43.275 134.519  16.909  1.00  0.00     0.022 A 
ATOM      2  C   UNL     1      43.678 133.988  18.161  1.00  0.00    -0.008 A 
ATOM      3  C   UNL     1      43.676 132.598  18.418  1.00  0.00     0.009 A 
ATOM      4  C   UNL     1      44.084 132.102  19.658  1.00  0.00     0.001 A 
ATOM      5  C   UNL     1      44.491 132.975  20.664  1.00  0.00     0.001 A 
ATOM      6  C   UNL     1      44.488 134.351  20.438  1.00  0.00     0.009 A 
ATOM      7  C   UNL     1      44.080 134.867  19.196  1.00  0.00    -0.017 A 
ATOM      8  C   UNL     1      44.064 136.250  18.992  1.00  0.00     0.018 A 
ATOM      9  C   UNL     1      43.654 136.795  17.765  1.00  0.00    -0.008 A 
ATOM     10  C   UNL     1      43.635 138.198  17.572  1.00  0.00     0.045 A 
ATOM     11  C   UNL     1      43.229 138.720  16.330  1.00  0.00     0.011 A 
ATOM     12  C   UNL     1      42.855 137.870  15.294  1.00  0.00     0.001 A 
ATOM     13  C   UNL     1      42.874 136.490  15.475  1.00  0.00     0.009 A 
ATOM     14  C   UNL     1      43.262 135.926  16.711  1.00  0.00    -0.008 A 
ENDROOT
BRANCH   1  15
ATOM     15  C   UNL     1      42.847 133.610  15.819  1.00  0.00     0.142 A 
ATOM     16  N   UNL     1      43.640 132.739  15.171  1.00  0.00    -0.103 N 
ATOM     17  N   UNL     1      42.890 132.089  14.295  1.00  0.00    -0.012 N 
ATOM     18  C   UNL     1      41.572 133.432  15.316  1.00  0.00     0.137 A 
ATOM     19  N   UNL     1      41.623 132.476  14.365  1.00  0.00     0.020 NA
ATOM     20  H   UNL     1      43.245 131.379  13.616  1.00  0.00     0.527 HD
ATOM     21  C   UNL     1      40.320 134.108  15.772  1.00  0.00     0.076 C 
BRANCH  16  22
ATOM     22  C   UNL     1      45.062 132.617  15.302  1.00  0.00     0.171 C 
BRANCH  22  23
ATOM     23  C   UNL     1      45.717 131.473  15.071  1.00  0.00     0.063 C 
ATOM     24  C   UNL     1      46.197 130.502  16.031  1.00  0.00     0.336 C 
ATOM     25  C   UNL     1      46.183 131.033  13.722  1.00  0.00     0.090 C 
ATOM     26  O   UNL     1      46.870 129.481  15.395  1.00  0.00    -0.459 OA
ATOM     27  C   UNL     1      46.894 129.676  13.984  1.00  0.00     0.178 C 
ATOM     28  O   UNL     1      46.097 130.582  17.283  1.00  0.00    -0.247 OA
ATOM     29  C   UNL     1      48.335 129.669  13.482  1.00  0.00     0.053 C 
ENDBRANCH  22  23
ENDBRANCH  16  22
ENDBRANCH   1  15
BRANCH  10  30
ATOM     30  N   UNL     1      44.028 139.077  18.640  1.00  0.00    -0.060 NA
BRANCH  30  31
ATOM     31  N   UNL     1      43.283 139.352  19.582  1.00  0.00     0.005 N 
ATOM     32  N   UNL     1      42.539 139.625  20.523  1.00  0.00    -0.003 NA
ENDBRANCH  30  31
ENDBRANCH  10  30
TORSDOF 5
ENDMDL
MODEL 5
REMARK VINA RESULT:      -7.9      3.192      6.506
REMARK SMILES Cc1n[nH+]n(/C=C2/C[C@@H](C)OC2=O)c1-c1c2ccccc2cc2c(N=[N+]=[N-])cccc12
REMARK SMILES IDX 15 1 16 2 17 3 18 4 19 5 20 6 21 7 22 8 23 9 24 10 28 11
REMARK SMILES IDX 29 12 30 13 31 14 14 15 5 16 4 17 2 18 3 19 1 21 6 22 7 23
REMARK SMILES IDX 12 24 8 25 11 26 9 27 13 28 10 29 25 30 26 31 27 32
REMARK H PARENT 4 20
ROOT
ATOM      1  C   UNL     1      43.735 133.516  19.758  1.00  0.00     0.022 A 
ATOM      2  C   UNL     1      43.843 132.785  20.968  1.00  0.00    -0.008 A 
ATOM      3  C   UNL     1      43.247 131.513  21.127  1.00  0.00     0.009 A 
ATOM      4  C   UNL     1      43.374 130.811  22.327  1.00  0.00     0.001 A 
ATOM      5  C   UNL     1      44.084 131.363  23.391  1.00  0.00     0.001 A 
ATOM      6  C   UNL     1      44.669 132.623  23.262  1.00  0.00     0.009 A 
ATOM      7  C   UNL     1      44.550 133.342  22.061  1.00  0.00    -0.017 A 
ATOM      8  C   UNL     1      45.125 134.612  21.954  1.00  0.00     0.018 A 
ATOM      9  C   UNL     1      45.017 135.358  20.769  1.00  0.00    -0.008 A 
ATOM     10  C   UNL     1      45.597 136.646  20.675  1.00  0.00     0.045 A 
ATOM     11  C   UNL     1      45.483 137.370  19.474  1.00  0.00     0.011 A 
ATOM     12  C   UNL     1      44.813 136.827  18.382  1.00  0.00     0.001 A 
ATOM     13  C   UNL     1      44.243 135.560  18.466  1.00  0.00     0.009 A 
ATOM     14  C   UNL     1      44.323 134.806  19.658  1.00  0.00    -0.008 A 
ENDROOT
BRANCH   1  15
ATOM     15  C   UNL     1      42.993 132.946  18.607  1.00  0.00     0.142 A 
ATOM     16  N   UNL     1      43.455 132.000  17.771  1.00  0.00    -0.103 N 
ATOM     17  N   UNL     1      42.494 131.733  16.900  1.00  0.00    -0.012 N 
ATOM     18  C   UNL     1      41.693 133.214  18.222  1.00  0.00     0.137 A 
ATOM     19  N   UNL     1      41.403 132.444  17.152  1.00  0.00     0.020 NA
ATOM     20  H   UNL     1      42.583 131.067  16.100  1.00  0.00     0.527 HD
ATOM     21  C   UNL     1      40.726 134.134  18.891  1.00  0.00     0.076 C 
BRANCH  16  22
ATOM     22  C   UNL     1      44.784 131.466  17.735  1.00  0.00     0.171 C 
BRANCH  22  23
ATOM     23  C   UNL     1      45.525 131.437  16.621  1.00  0.00     0.063 C 
ATOM     24  C   UNL     1      45.650 132.454  15.599  1.00  0.00     0.336 C 
ATOM     25  C   UNL     1      46.302 130.247  16.163  1.00  0.00     0.090 C 
ATOM     26  O   UNL     1      46.473 132.022  14.581  1.00  0.00    -0.459 OA
ATOM     27  C   UNL     1      46.960 130.707  14.832  1.00  0.00     0.178 C 
ATOM     28  O   UNL     1      45.051 133.561  15.573  1.00  0.00    -0.247 OA
ATOM     29  C   UNL     1      46.607 129.790  13.663  1.00  0.00     0.053 C 
ENDBRANCH  22  23
ENDBRANCH  16  22
ENDBRANCH   1  15
BRANCH  10  30
ATOM     30  N   UNL     1      46.296 137.205  21.801  1.00  0.00    -0.060 NA
BRANCH  30  31
ATOM     31  N   UNL     1      45.838 138.130  22.474  1.00  0.00     0.005 N 
ATOM     32  N   UNL     1      45.379 139.052  23.146  1.00  0.00    -0.003 NA
ENDBRANCH  30  31
ENDBRANCH  10  30
TORSDOF 5
ENDMDL
MODEL 6
REMARK VINA RESULT:      -7.8      1.281      1.799
REMARK SMILES Cc1n[nH+]n(/C=C2/C[C@@H](C)OC2=O)c1-c1c2ccccc2cc2c(N=[N+]=[N-])cccc12
REMARK SMILES IDX 15 1 16 2 17 3 18 4 19 5 20 6 21 7 22 8 23 9 24 10 28 11
REMARK SMILES IDX 29 12 30 13 31 14 14 15 5 16 4 17 2 18 3 19 1 21 6 22 7 23
REMARK SMILES IDX 12 24 8 25 11 26 9 27 13 28 10 29 25 30 26 31 27 32
REMARK H PARENT 4 20
ROOT
ATOM      1  C   UNL     1      43.518 132.054  17.355  1.00  0.00     0.022 A 
ATOM      2  C   UNL     1      44.177 131.874  18.598  1.00  0.00    -0.008 A 
ATOM      3  C   UNL     1      43.667 132.419  19.798  1.00  0.00     0.009 A 
ATOM      4  C   UNL     1      44.332 132.222  21.010  1.00  0.00     0.001 A 
ATOM      5  C   UNL     1      45.516 131.489  21.049  1.00  0.00     0.001 A 
ATOM      6  C   UNL     1      46.046 130.953  19.875  1.00  0.00     0.009 A 
ATOM      7  C   UNL     1      45.389 131.144  18.647  1.00  0.00    -0.017 A 
ATOM      8  C   UNL     1      45.942 130.617  17.476  1.00  0.00     0.018 A 
ATOM      9  C   UNL     1      45.312 130.796  16.234  1.00  0.00    -0.008 A 
ATOM     10  C   UNL     1      45.886 130.265  15.053  1.00  0.00     0.045 A 
ATOM     11  C   UNL     1      45.232 130.451  13.822  1.00  0.00     0.011 A 
ATOM     12  C   UNL     1      44.028 131.145  13.759  1.00  0.00     0.001 A 
ATOM     13  C   UNL     1      43.456 131.668  14.915  1.00  0.00     0.009 A 
ATOM     14  C   UNL     1      44.088 131.515  16.170  1.00  0.00    -0.008 A 
ENDROOT
BRANCH   1  15
ATOM     15  C   UNL     1      42.251 132.821  17.288  1.00  0.00     0.142 A 
ATOM     16  N   UNL     1      42.106 134.046  16.755  1.00  0.00    -0.103 N 
ATOM     17  N   UNL     1      40.827 134.378  16.854  1.00  0.00    -0.012 N 
ATOM     18  C   UNL     1      40.991 132.410  17.683  1.00  0.00     0.137 A 
ATOM     19  N   UNL     1      40.118 133.400  17.401  1.00  0.00     0.020 NA
ATOM     20  H   UNL     1      40.426 135.297  16.562  1.00  0.00     0.527 HD
ATOM     21  C   UNL     1      40.613 131.085  18.257  1.00  0.00     0.076 C 
BRANCH  16  22
ATOM     22  C   UNL     1      43.154 134.902  16.283  1.00  0.00     0.171 C 
BRANCH  22  23
ATOM     23  C   UNL     1      43.100 136.236  16.380  1.00  0.00     0.063 C 
ATOM     24  C   UNL     1      43.193 137.056  17.570  1.00  0.00     0.336 C 
ATOM     25  C   UNL     1      42.812 137.148  15.233  1.00  0.00     0.090 C 
ATOM     26  O   UNL     1      43.040 138.389  17.255  1.00  0.00    -0.459 OA
ATOM     27  C   UNL     1      42.839 138.571  15.856  1.00  0.00     0.178 C 
ATOM     28  O   UNL     1      43.321 136.640  18.751  1.00  0.00    -0.247 OA
ATOM     29  C   UNL     1      41.541 139.337  15.612  1.00  0.00     0.053 C 
ENDBRANCH  22  23
ENDBRANCH  16  22
ENDBRANCH   1  15
BRANCH  10  30
ATOM     30  N   UNL     1      47.127 129.541  15.119  1.00  0.00    -0.060 NA
BRANCH  30  31
ATOM     31  N   UNL     1      47.818 129.316  14.124  1.00  0.00     0.005 N 
ATOM     32  N   UNL     1      48.508 129.089  13.131  1.00  0.00    -0.003 NA
ENDBRANCH  30  31
ENDBRANCH  10  30
TORSDOF 5
ENDMDL
MODEL 7
REMARK VINA RESULT:      -7.8      3.495      6.571
REMARK SMILES Cc1n[nH+]n(/C=C2/C[C@@H](C)OC2=O)c1-c1c2ccccc2cc2c(N=[N+]=[N-])cccc12
REMARK SMILES IDX 15 1 16 2 17 3 18 4 19 5 20 6 21 7 22 8 23 9 24 10 28 11
REMARK SMILES IDX 29 12 30 13 31 14 14 15 5 16 4 17 2 18 3 19 1 21 6 22 7 23
REMARK SMILES IDX 12 24 8 25 11 26 9 27 13 28 10 29 25 30 26 31 27 32
REMARK H PARENT 4 20
ROOT
ATOM      1  C   UNL     1      43.794 133.715  19.094  1.00  0.00     0.022 A 
ATOM      2  C   UNL     1      44.099 132.893  20.209  1.00  0.00    -0.008 A 
ATOM      3  C   UNL     1      43.670 131.548  20.284  1.00  0.00     0.009 A 
ATOM      4  C   UNL     1      43.989 130.760  21.391  1.00  0.00     0.001 A 
ATOM      5  C   UNL     1      44.729 131.294  22.444  1.00  0.00     0.001 A 
ATOM      6  C   UNL     1      45.150 132.623  22.398  1.00  0.00     0.009 A 
ATOM      7  C   UNL     1      44.837 133.430  21.291  1.00  0.00    -0.017 A 
ATOM      8  C   UNL     1      45.250 134.765  21.269  1.00  0.00     0.018 A 
ATOM      9  C   UNL     1      44.947 135.599  20.180  1.00  0.00    -0.008 A 
ATOM     10  C   UNL     1      45.364 136.952  20.172  1.00  0.00     0.045 A 
ATOM     11  C   UNL     1      45.054 137.764  19.066  1.00  0.00     0.011 A 
ATOM     12  C   UNL     1      44.351 137.246  17.983  1.00  0.00     0.001 A 
ATOM     13  C   UNL     1      43.940 135.917  17.982  1.00  0.00     0.009 A 
ATOM     14  C   UNL     1      44.218 135.071  19.080  1.00  0.00    -0.008 A 
ENDROOT
BRANCH   1  15
ATOM     15  C   UNL     1      43.017 133.167  17.956  1.00  0.00     0.142 A 
ATOM     16  N   UNL     1      43.534 132.523  16.895  1.00  0.00    -0.103 N 
ATOM     17  N   UNL     1      42.525 132.160  16.117  1.00  0.00    -0.012 N 
ATOM     18  C   UNL     1      41.644 133.146  17.801  1.00  0.00     0.137 A 
ATOM     19  N   UNL     1      41.360 132.512  16.644  1.00  0.00     0.020 NA
ATOM     20  H   UNL     1      42.626 131.680  15.195  1.00  0.00     0.527 HD
ATOM     21  C   UNL     1      40.620 133.661  18.758  1.00  0.00     0.076 C 
BRANCH  16  22
ATOM     22  C   UNL     1      44.924 132.366  16.584  1.00  0.00     0.171 C 
BRANCH  22  23
ATOM     23  C   UNL     1      45.379 131.419  15.754  1.00  0.00     0.063 C 
ATOM     24  C   UNL     1      46.283 130.326  16.047  1.00  0.00     0.336 C 
ATOM     25  C   UNL     1      45.106 131.390  14.287  1.00  0.00     0.090 C 
ATOM     26  O   UNL     1      46.550 129.598  14.908  1.00  0.00    -0.459 OA
ATOM     27  C   UNL     1      45.859 130.128  13.780  1.00  0.00     0.178 C 
ATOM     28  O   UNL     1      46.826 130.087  17.158  1.00  0.00    -0.247 OA
ATOM     29  C   UNL     1      46.853 130.453  12.668  1.00  0.00     0.053 C 
ENDBRANCH  22  23
ENDBRANCH  16  22
ENDBRANCH   1  15
BRANCH  10  30
ATOM     30  N   UNL     1      46.097 137.486  21.288  1.00  0.00    -0.060 NA
BRANCH  30  31
ATOM     31  N   UNL     1      47.025 138.285  21.151  1.00  0.00     0.005 N 
ATOM     32  N   UNL     1      47.951 139.083  21.012  1.00  0.00    -0.003 NA
ENDBRANCH  30  31
ENDBRANCH  10  30
TORSDOF 5
ENDMDL
MODEL 8
REMARK VINA RESULT:      -7.7      3.350      6.515
REMARK SMILES Cc1n[nH+]n(/C=C2/C[C@@H](C)OC2=O)c1-c1c2ccccc2cc2c(N=[N+]=[N-])cccc12
REMARK SMILES IDX 15 1 16 2 17 3 18 4 19 5 20 6 21 7 22 8 23 9 24 10 28 11
REMARK SMILES IDX 29 12 30 13 31 14 14 15 5 16 4 17 2 18 3 19 1 21 6 22 7 23
REMARK SMILES IDX 12 24 8 25 11 26 9 27 13 28 10 29 25 30 26 31 27 32
REMARK H PARENT 4 20
ROOT
ATOM      1  C   UNL     1      43.700 134.635  18.302  1.00  0.00     0.022 A 
ATOM      2  C   UNL     1      43.920 136.036  18.269  1.00  0.00    -0.008 A 
ATOM      3  C   UNL     1      43.408 136.848  17.231  1.00  0.00     0.009 A 
ATOM      4  C   UNL     1      43.634 138.226  17.227  1.00  0.00     0.001 A 
ATOM      5  C   UNL     1      44.379 138.818  18.245  1.00  0.00     0.001 A 
ATOM      6  C   UNL     1      44.906 138.035  19.271  1.00  0.00     0.009 A 
ATOM      7  C   UNL     1      44.688 136.647  19.290  1.00  0.00    -0.017 A 
ATOM      8  C   UNL     1      45.239 135.872  20.315  1.00  0.00     0.018 A 
ATOM      9  C   UNL     1      45.044 134.483  20.357  1.00  0.00    -0.008 A 
ATOM     10  C   UNL     1      45.614 133.707  21.397  1.00  0.00     0.045 A 
ATOM     11  C   UNL     1      45.397 132.318  21.421  1.00  0.00     0.011 A 
ATOM     12  C   UNL     1      44.625 131.705  20.440  1.00  0.00     0.001 A 
ATOM     13  C   UNL     1      44.059 132.460  19.416  1.00  0.00     0.009 A 
ATOM     14  C   UNL     1      44.264 133.856  19.347  1.00  0.00    -0.008 A 
ENDROOT
BRANCH   1  15
ATOM     15  C   UNL     1      42.902 133.982  17.236  1.00  0.00     0.142 A 
ATOM     16  N   UNL     1      43.401 133.258  16.219  1.00  0.00    -0.103 N 
ATOM     17  N   UNL     1      42.378 132.817  15.502  1.00  0.00    -0.012 N 
ATOM     18  C   UNL     1      41.525 133.930  17.121  1.00  0.00     0.137 A 
ATOM     19  N   UNL     1      41.221 133.196  16.030  1.00  0.00     0.020 NA
ATOM     20  H   UNL     1      42.463 132.262  14.622  1.00  0.00     0.527 HD
ATOM     21  C   UNL     1      40.519 134.509  18.059  1.00  0.00     0.076 C 
BRANCH  16  22
ATOM     22  C   UNL     1      44.784 133.094  15.884  1.00  0.00     0.171 C 
BRANCH  22  23
ATOM     23  C   UNL     1      45.382 131.898  15.832  1.00  0.00     0.063 C 
ATOM     24  C   UNL     1      46.460 131.468  14.966  1.00  0.00     0.336 C 
ATOM     25  C   UNL     1      44.943 130.708  16.621  1.00  0.00     0.090 C 
ATOM     26  O   UNL     1      46.760 130.141  15.186  1.00  0.00    -0.459 OA
ATOM     27  C   UNL     1      45.928 129.582  16.198  1.00  0.00     0.178 C 
ATOM     28  O   UNL     1      47.020 132.160  14.077  1.00  0.00    -0.247 OA
ATOM     29  C   UNL     1      45.204 128.352  15.656  1.00  0.00     0.053 C 
ENDBRANCH  22  23
ENDBRANCH  16  22
ENDBRANCH   1  15
BRANCH  10  30
ATOM     30  N   UNL     1      46.406 134.342  22.416  1.00  0.00    -0.060 NA
BRANCH  30  31
ATOM     31  N   UNL     1      47.632 134.442  22.337  1.00  0.00     0.005 N 
ATOM     32  N   UNL     1      48.855 134.544  22.260  1.00  0.00    -0.003 NA
ENDBRANCH  30  31
ENDBRANCH  10  30
TORSDOF 5
ENDMDL
MODEL 9
REMARK VINA RESULT:      -7.7      3.456      6.602
REMARK SMILES Cc1n[nH+]n(/C=C2/C[C@@H](C)OC2=O)c1-c1c2ccccc2cc2c(N=[N+]=[N-])cccc12
REMARK SMILES IDX 15 1 16 2 17 3 18 4 19 5 20 6 21 7 22 8 23 9 24 10 28 11
REMARK SMILES IDX 29 12 30 13 31 14 14 15 5 16 4 17 2 18 3 19 1 21 6 22 7 23
REMARK SMILES IDX 12 24 8 25 11 26 9 27 13 28 10 29 25 30 26 31 27 32
REMARK H PARENT 4 20
ROOT
ATOM      1  C   UNL     1      43.769 134.129  17.956  1.00  0.00     0.022 A 
ATOM      2  C   UNL     1      44.181 133.369  19.080  1.00  0.00    -0.008 A 
ATOM      3  C   UNL     1      44.011 131.966  19.135  1.00  0.00     0.009 A 
ATOM      4  C   UNL     1      44.431 131.242  20.252  1.00  0.00     0.001 A 
ATOM      5  C   UNL     1      45.017 131.895  21.334  1.00  0.00     0.001 A 
ATOM      6  C   UNL     1      45.182 133.280  21.307  1.00  0.00     0.009 A 
ATOM      7  C   UNL     1      44.764 134.025  20.191  1.00  0.00    -0.017 A 
ATOM      8  C   UNL     1      44.918 135.414  20.188  1.00  0.00     0.018 A 
ATOM      9  C   UNL     1      44.504 136.186  19.090  1.00  0.00    -0.008 A 
ATOM     10  C   UNL     1      44.658 137.593  19.101  1.00  0.00     0.045 A 
ATOM     11  C   UNL     1      44.243 138.343  17.986  1.00  0.00     0.011 A 
ATOM     12  C   UNL     1      43.691 137.713  16.876  1.00  0.00     0.001 A 
ATOM     13  C   UNL     1      43.538 136.329  16.856  1.00  0.00     0.009 A 
ATOM     14  C   UNL     1      43.929 135.541  17.961  1.00  0.00    -0.008 A 
ENDROOT
BRANCH   1  15
ATOM     15  C   UNL     1      43.152 133.456  16.787  1.00  0.00     0.142 A 
ATOM     16  N   UNL     1      43.798 132.677  15.903  1.00  0.00    -0.103 N 
ATOM     17  N   UNL     1      42.906 132.235  15.030  1.00  0.00    -0.012 N 
ATOM     18  C   UNL     1      41.817 133.437  16.428  1.00  0.00     0.137 A 
ATOM     19  N   UNL     1      41.687 132.668  15.327  1.00  0.00     0.020 NA
ATOM     20  H   UNL     1      43.127 131.643  14.199  1.00  0.00     0.527 HD
ATOM     21  C   UNL     1      40.680 134.083  17.150  1.00  0.00     0.076 C 
BRANCH  16  22
ATOM     22  C   UNL     1      45.213 132.461  15.829  1.00  0.00     0.171 C 
BRANCH  22  23
ATOM     23  C   UNL     1      45.764 131.526  15.045  1.00  0.00     0.063 C 
ATOM     24  C   UNL     1      45.350 130.151  14.858  1.00  0.00     0.336 C 
ATOM     25  C   UNL     1      47.028 131.720  14.273  1.00  0.00     0.090 C 
ATOM     26  O   UNL     1      46.211 129.497  14.004  1.00  0.00    -0.459 OA
ATOM     27  C   UNL     1      47.251 130.360  13.553  1.00  0.00     0.178 C 
ATOM     28  O   UNL     1      44.388 129.580  15.434  1.00  0.00    -0.247 OA
ATOM     29  C   UNL     1      48.612 129.749  13.877  1.00  0.00     0.053 C 
ENDBRANCH  22  23
ENDBRANCH  16  22
ENDBRANCH   1  15
BRANCH  10  30
ATOM     30  N   UNL     1      45.236 138.245  20.246  1.00  0.00    -0.060 NA
BRANCH  30  31
ATOM     31  N   UNL     1      46.254 138.936  20.173  1.00  0.00     0.005 N 
ATOM     32  N   UNL     1      47.271 139.623  20.100  1.00  0.00    -0.003 NA
ENDBRANCH  30  31
ENDBRANCH  10  30
TORSDOF 5
ENDMDL


