REMARK SMILES C[N+]1(C)Cc2cc3ccc(-n4cc(CCN5C[C@H](CN=[N+]=[N-])CN5C(=O)c5ccc(N)cc5)n[nH+]4)cc3cc2C1
REMARK SMILES IDX 24 1 16 2 17 3 18 4 23 5 25 6 26 7 27 8 28 9 29 10 30 11
REMARK SMILES IDX 33 12 32 13 31 14 15 17 14 18 13 19 34 20 12 21 35 22 11 23
REMARK SMILES IDX 10 25 9 26 36 27 8 28 37 29 7 30 38 31 6 32 39 33 5 34 40 35
REMARK SMILES IDX 4 36 2 37 1 38 3 39 19 40 20 41 21 42 22 43
REMARK H PARENT 31 15 31 16 35 24
ROOT
ATOM      1  N   UNL     1       3.372   2.494  -1.838  1.00  0.00    -0.271 N 
ATOM      2  N   UNL     1       2.012   2.590  -1.485  1.00  0.00    -0.218 NA
ATOM      3  C   UNL     1       1.326   1.702  -2.439  1.00  0.00     0.114 C 
ATOM      4  C   UNL     1       2.239   1.557  -3.662  1.00  0.00     0.032 C 
ATOM      5  C   UNL     1       3.628   1.840  -3.108  1.00  0.00     0.145 C 
ENDROOT
BRANCH   1   6
ATOM      6  C   UNL     1       4.434   2.889  -0.950  1.00  0.00     0.268 C 
ATOM      7  O   UNL     1       5.604   3.019  -1.404  1.00  0.00    -0.268 OA
BRANCH   6   8
ATOM      8  C   UNL     1       4.181   3.172   0.481  1.00  0.00     0.041 A 
ATOM      9  C   UNL     1       4.870   4.217   1.120  1.00  0.00     0.016 A 
ATOM     10  C   UNL     1       4.631   4.503   2.467  1.00  0.00     0.026 A 
ATOM     11  C   UNL     1       3.707   3.742   3.197  1.00  0.00     0.031 A 
ATOM     12  C   UNL     1       3.275   2.396   1.224  1.00  0.00     0.016 A 
ATOM     13  C   UNL     1       3.034   2.686   2.570  1.00  0.00     0.026 A 
BRANCH  11  14
ATOM     14  N   UNL     1       3.459   4.039   4.573  1.00  0.00    -0.399 N 
ATOM     15  H   UNL     1       3.967   4.816   5.052  1.00  0.00     0.156 HD
ATOM     16  H   UNL     1       2.767   3.483   5.125  1.00  0.00     0.156 HD
ENDBRANCH  11  14
ENDBRANCH   6   8
ENDBRANCH   1   6
BRANCH   2  17
ATOM     17  C   UNL     1       1.573   3.999  -1.618  1.00  0.00     0.115 C 
BRANCH  17  18
ATOM     18  C   UNL     1       0.621   4.373  -0.476  1.00  0.00     0.082 C 
BRANCH  18  19
ATOM     19  C   UNL     1      -0.643   3.572  -0.514  1.00  0.00     0.134 A 
ATOM     20  N   UNL     1      -1.763   3.941  -1.164  1.00  0.00     0.020 NA
ATOM     21  C   UNL     1      -0.833   2.309   0.008  1.00  0.00     0.190 A 
ATOM     22  N   UNL     1      -2.613   2.934  -1.032  1.00  0.00    -0.012 N 
ATOM     23  N   UNL     1      -2.080   1.936  -0.339  1.00  0.00    -0.104 N 
ATOM     24  H   UNL     1      -3.582   2.950  -1.421  1.00  0.00     0.527 HD
BRANCH  23  25
ATOM     25  C   UNL     1      -2.720   0.672  -0.061  1.00  0.00     0.107 A 
ATOM     26  C   UNL     1      -3.779   0.213  -0.866  1.00  0.00     0.033 A 
ATOM     27  C   UNL     1      -2.280  -0.131   1.009  1.00  0.00     0.041 A 
ATOM     28  C   UNL     1      -4.394  -1.015  -0.611  1.00  0.00     0.011 A 
ATOM     29  C   UNL     1      -2.881  -1.371   1.268  1.00  0.00    -0.016 A 
ATOM     30  C   UNL     1      -3.954  -1.818   0.449  1.00  0.00    -0.018 A 
ATOM     31  C   UNL     1      -2.431  -2.178   2.332  1.00  0.00     0.019 A 
ATOM     32  C   UNL     1      -4.564  -3.062   0.708  1.00  0.00     0.018 A 
ATOM     33  C   UNL     1      -3.052  -3.409   2.549  1.00  0.00     0.016 A 
ATOM     34  C   UNL     1      -4.082  -3.834   1.766  1.00  0.00     0.016 A 
ATOM     35  C   UNL     1      -2.756  -4.403   3.603  1.00  0.00     0.301 C 
ATOM     36  C   UNL     1      -4.574  -5.151   2.226  1.00  0.00     0.301 C 
ATOM     37  N   UNL     1      -3.615  -5.590   3.290  1.00  0.00    -0.321 N 
ATOM     38  C   UNL     1      -4.342  -6.042   4.498  1.00  0.00     0.334 C 
ATOM     39  C   UNL     1      -2.775  -6.704   2.788  1.00  0.00     0.334 C 
ENDBRANCH  23  25
ENDBRANCH  18  19
ENDBRANCH  17  18
ENDBRANCH   2  17
BRANCH   4  40
ATOM     40  C   UNL     1       2.113   0.181  -4.329  1.00  0.00     0.097 C 
BRANCH  40  41
ATOM     41  N   UNL     1       2.944   0.128  -5.524  1.00  0.00    -0.094 NA
BRANCH  41  42
ATOM     42  N   UNL     1       2.967  -0.883  -6.226  1.00  0.00     0.001 N 
ATOM     43  N   UNL     1       2.989  -1.893  -6.929  1.00  0.00    -0.003 NA
ENDBRANCH  41  42
ENDBRANCH  40  41
ENDBRANCH   4  40
TORSDOF 10


