REMARK SMILES [N-]=[N+]=Nc1cc(Cl)cc2c(CNO)c(OCCc3cn(C[C@H](N)C(=O)[O-])[nH+]n3)ccc12
REMARK SMILES IDX 16 1 15 2 14 3 10 4 9 5 29 6 8 7 31 8 30 9 6 10 4 11 5 12
REMARK SMILES IDX 7 13 11 14 12 15 13 17 3 19 2 20 1 21 17 22 18 23 28 24
REMARK SMILES IDX 19 25 27 26 20 27 21 29 22 30 24 31 25 32 26 33 23 34
REMARK H PARENT 12 16 13 18 27 28 23 35 23 36
ROOT
ATOM      1  C   UNL     1       0.571  -1.338  -1.605  1.00  0.00     0.236 C 
ENDROOT
BRANCH   1   2
ATOM      2  O   UNL     1      -0.828  -1.603  -1.495  1.00  0.00    -0.493 OA
BRANCH   2   3
ATOM      3  C   UNL     1      -1.805  -0.710  -1.013  1.00  0.00     0.124 A 
ATOM      4  C   UNL     1      -3.122  -1.185  -0.813  1.00  0.00     0.018 A 
ATOM      5  C   UNL     1      -4.114  -0.307  -0.279  1.00  0.00    -0.008 A 
ATOM      6  C   UNL     1      -1.500   0.632  -0.739  1.00  0.00     0.047 A 
ATOM      7  C   UNL     1      -5.429  -0.740   0.004  1.00  0.00     0.029 A 
ATOM      8  C   UNL     1      -3.778   1.051  -0.010  1.00  0.00    -0.008 A 
ATOM      9  C   UNL     1      -2.470   1.498  -0.253  1.00  0.00     0.013 A 
ATOM     10  C   UNL     1      -6.382   0.141   0.514  1.00  0.00     0.042 A 
ATOM     11  C   UNL     1      -4.752   1.941   0.503  1.00  0.00     0.047 A 
ATOM     12  C   UNL     1      -6.051   1.471   0.757  1.00  0.00     0.031 A 
ATOM     13  Cl  UNL     1      -8.006  -0.429   0.856  1.00  0.00    -0.084 Cl
BRANCH   4  14
ATOM     14  C   UNL     1      -3.408  -2.646  -1.145  1.00  0.00     0.151 C 
BRANCH  14  15
ATOM     15  N   UNL     1      -3.055  -3.538  -0.035  1.00  0.00    -0.201 NA
ATOM     16  H   UNL     1      -2.073  -3.350   0.285  1.00  0.00     0.155 HD
BRANCH  15  17
ATOM     17  O   UNL     1      -3.933  -3.353   0.991  1.00  0.00    -0.316 OA
ATOM     18  H   UNL     1      -3.565  -2.631   1.567  1.00  0.00     0.238 HD
ENDBRANCH  15  17
ENDBRANCH  14  15
ENDBRANCH   4  14
BRANCH  11  19
ATOM     19  N   UNL     1      -4.408   3.313   0.764  1.00  0.00    -0.060 NA
BRANCH  19  20
ATOM     20  N   UNL     1      -5.216   4.128   1.211  1.00  0.00     0.005 N 
ATOM     21  N   UNL     1      -6.023   4.942   1.657  1.00  0.00    -0.003 NA
ENDBRANCH  19  20
ENDBRANCH  11  19
ENDBRANCH   2   3
ENDBRANCH   1   2
BRANCH   1  22
ATOM     22  C   UNL     1       1.230  -1.352  -0.225  1.00  0.00     0.106 C 
BRANCH  22  23
ATOM     23  C   UNL     1       2.693  -1.063  -0.340  1.00  0.00     0.135 A 
ATOM     24  N   UNL     1       3.649  -2.002  -0.499  1.00  0.00     0.020 NA
ATOM     25  C   UNL     1       3.284   0.184  -0.382  1.00  0.00     0.183 A 
ATOM     26  N   UNL     1       4.792  -1.343  -0.617  1.00  0.00    -0.017 N 
ATOM     27  N   UNL     1       4.599  -0.035  -0.556  1.00  0.00    -0.135 N 
ATOM     28  H   UNL     1       5.722  -1.802  -0.744  1.00  0.00     0.526 HD
BRANCH  27  29
ATOM     29  C   UNL     1       5.656   0.972  -0.621  1.00  0.00     0.216 C 
BRANCH  29  30
ATOM     30  C   UNL     1       6.409   1.062   0.720  1.00  0.00     0.123 C 
BRANCH  30  31
ATOM     31  C   UNL     1       7.562   2.016   0.600  1.00  0.00     0.060 C 
ATOM     32  O   UNL     1       8.745   1.584   0.610  1.00  0.00    -0.548 OA
ATOM     33  O   UNL     1       7.332   3.378   0.452  1.00  0.00    -0.548 OA
ENDBRANCH  30  31
BRANCH  30  34
ATOM     34  N   UNL     1       5.530   1.496   1.809  1.00  0.00    -0.321 NA
ATOM     35  H   UNL     1       4.846   0.732   2.018  1.00  0.00     0.119 HD
ATOM     36  H   UNL     1       4.982   2.335   1.508  1.00  0.00     0.119 HD
ENDBRANCH  30  34
ENDBRANCH  29  30
ENDBRANCH  27  29
ENDBRANCH  22  23
ENDBRANCH   1  22
TORSDOF 13


