REMARK SMILES Cc1n[nH+]n(/C=C2/C[C@@H](C)OC2=O)c1-c1c2ccccc2cc2c(N=[N+]=[N-])cccc12
REMARK SMILES IDX 15 1 16 2 17 3 18 4 19 5 20 6 21 7 22 8 23 9 24 10 28 11
REMARK SMILES IDX 29 12 30 13 31 14 14 15 5 16 4 17 2 18 3 19 1 21 6 22 7 23
REMARK SMILES IDX 12 24 8 25 11 26 9 27 13 28 10 29 25 30 26 31 27 32
REMARK H PARENT 4 20
ROOT
ATOM      1  C   UNL     1       1.143  -0.004  -0.130  1.00  0.00     0.022 A 
ATOM      2  C   UNL     1       2.215   0.192   0.778  1.00  0.00    -0.008 A 
ATOM      3  C   UNL     1       2.884  -0.894   1.388  1.00  0.00     0.009 A 
ATOM      4  C   UNL     1       3.940  -0.673   2.274  1.00  0.00     0.001 A 
ATOM      5  C   UNL     1       4.343   0.626   2.576  1.00  0.00     0.001 A 
ATOM      6  C   UNL     1       3.688   1.713   1.997  1.00  0.00     0.009 A 
ATOM      7  C   UNL     1       2.623   1.508   1.104  1.00  0.00    -0.017 A 
ATOM      8  C   UNL     1       1.964   2.608   0.547  1.00  0.00     0.018 A 
ATOM      9  C   UNL     1       0.892   2.435  -0.343  1.00  0.00    -0.008 A 
ATOM     10  C   UNL     1       0.227   3.557  -0.895  1.00  0.00     0.045 A 
ATOM     11  C   UNL     1      -0.839   3.357  -1.791  1.00  0.00     0.011 A 
ATOM     12  C   UNL     1      -1.237   2.071  -2.141  1.00  0.00     0.001 A 
ATOM     13  C   UNL     1      -0.587   0.963  -1.605  1.00  0.00     0.009 A 
ATOM     14  C   UNL     1       0.479   1.120  -0.691  1.00  0.00    -0.008 A 
ENDROOT
BRANCH   1  15
ATOM     15  C   UNL     1       0.702  -1.377  -0.476  1.00  0.00     0.142 A 
ATOM     16  N   UNL     1      -0.441  -1.956  -0.070  1.00  0.00    -0.103 N 
ATOM     17  N   UNL     1      -0.492  -3.164  -0.611  1.00  0.00    -0.012 N 
ATOM     18  C   UNL     1       1.325  -2.279  -1.318  1.00  0.00     0.137 A 
ATOM     19  N   UNL     1       0.560  -3.389  -1.387  1.00  0.00     0.020 NA
ATOM     20  H   UNL     1      -1.247  -3.864  -0.436  1.00  0.00     0.527 HD
ATOM     21  C   UNL     1       2.586  -2.070  -2.090  1.00  0.00     0.076 C 
BRANCH  16  22
ATOM     22  C   UNL     1      -1.377  -1.428   0.878  1.00  0.00     0.171 C 
BRANCH  22  23
ATOM     23  C   UNL     1      -2.695  -1.384   0.649  1.00  0.00     0.063 C 
ATOM     24  C   UNL     1      -3.409  -1.731  -0.562  1.00  0.00     0.336 C 
ATOM     25  C   UNL     1      -3.695  -0.839   1.615  1.00  0.00     0.090 C 
ATOM     26  O   UNL     1      -4.759  -1.499  -0.413  1.00  0.00    -0.459 OA
ATOM     27  C   UNL     1      -5.058  -0.991   0.884  1.00  0.00     0.178 C 
ATOM     28  O   UNL     1      -2.895  -2.123  -1.642  1.00  0.00    -0.247 OA
ATOM     29  C   UNL     1      -5.803   0.336   0.764  1.00  0.00     0.053 C 
ENDBRANCH  22  23
ENDBRANCH  16  22
ENDBRANCH   1  15
BRANCH  10  30
ATOM     30  N   UNL     1       0.643   4.887  -0.539  1.00  0.00    -0.060 NA
BRANCH  30  31
ATOM     31  N   UNL     1       0.108   5.896  -1.002  1.00  0.00     0.005 N 
ATOM     32  N   UNL     1      -0.426   6.904  -1.462  1.00  0.00    -0.003 NA
ENDBRANCH  30  31
ENDBRANCH  10  30
TORSDOF 5


