MODEL 1
REMARK VINA RESULT:      -6.8      0.000      0.000
REMARK SMILES C#C[C@@](O)(c1cc(N=[N+]=[N-])cc(OC(=O)[C@]2(N)C[C@@H](CO)C2)c(C(=O)N=[N+]=[N-])cc2cc1CC2)C(C)(C)C
REMARK SMILES IDX 13 1 12 2 5 3 6 4 32 5 7 6 31 7 33 8 11 9 30 10 34 11 29 12
REMARK SMILES IDX 23 13 3 14 2 15 1 16 4 17 35 19 36 20 37 21 38 22 8 23 9 24
REMARK SMILES IDX 10 25 24 26 25 27 26 28 27 29 28 30 14 31 15 32 16 33 22 34
REMARK SMILES IDX 18 35 19 36 17 37 20 40 21 41
REMARK H PARENT 4 18 17 38 17 39 21 42
ROOT
ATOM      1  O   UNL     1      43.358 131.846  15.946  1.00  0.00    -0.424 OA
ENDROOT
BRANCH   1   2
ATOM      2  C   UNL     1      42.673 132.933  16.506  1.00  0.00     0.142 A 
ATOM      3  C   UNL     1      43.391 134.851  20.225  1.00  0.00    -0.000 A 
ATOM      4  C   UNL     1      43.984 133.605  19.859  1.00  0.00     0.018 A 
ATOM      5  C   UNL     1      42.852 135.721  19.237  1.00  0.00    -0.040 A 
ATOM      6  C   UNL     1      43.731 132.812  18.706  1.00  0.00     0.042 A 
ATOM      7  C   UNL     1      43.183 135.654  17.897  1.00  0.00     0.008 A 
ATOM      8  C   UNL     1      41.560 136.476  19.384  1.00  0.00     0.041 C 
ATOM      9  C   UNL     1      42.582 132.989  17.908  1.00  0.00     0.058 A 
ATOM     10  C   UNL     1      42.073 135.936  17.147  1.00  0.00    -0.047 A 
ATOM     11  C   UNL     1      41.134 136.767  17.944  1.00  0.00     0.040 C 
ATOM     12  C   UNL     1      41.645 135.202  16.029  1.00  0.00     0.019 A 
ATOM     13  C   UNL     1      42.034 133.885  15.657  1.00  0.00     0.067 A 
BRANCH   3  14
ATOM     14  C   UNL     1      43.506 135.298  21.713  1.00  0.00     0.155 C 
BRANCH  14  15
ATOM     15  C   UNL     1      44.913 135.205  22.185  1.00  0.00    -0.066 C 
ATOM     16  C   UNL     1      46.065 135.124  22.535  1.00  0.00     0.007 C 
ENDBRANCH  14  15
BRANCH  14  17
ATOM     17  O   UNL     1      43.146 136.661  21.830  1.00  0.00    -0.373 OA
ATOM     18  H   UNL     1      42.906 137.005  20.927  1.00  0.00     0.213 HD
ENDBRANCH  14  17
BRANCH  14  19
ATOM     19  C   UNL     1      42.550 134.464  22.669  1.00  0.00     0.006 C 
ATOM     20  C   UNL     1      41.237 134.092  21.935  1.00  0.00     0.015 C 
ATOM     21  C   UNL     1      42.169 135.306  23.917  1.00  0.00     0.015 C 
ATOM     22  C   UNL     1      43.203 133.151  23.174  1.00  0.00     0.015 C 
ENDBRANCH  14  19
ENDBRANCH   3  14
BRANCH   6  23
ATOM     23  N   UNL     1      44.689 131.814  18.321  1.00  0.00    -0.061 NA
BRANCH  23  24
ATOM     24  N   UNL     1      45.398 131.243  19.150  1.00  0.00     0.005 N 
ATOM     25  N   UNL     1      46.099 130.684  19.990  1.00  0.00    -0.003 NA
ENDBRANCH  23  24
ENDBRANCH   6  23
BRANCH  13  26
ATOM     26  C   UNL     1      41.619 133.444  14.302  1.00  0.00     0.252 C 
ATOM     27  O   UNL     1      41.581 132.217  14.026  1.00  0.00    -0.287 OA
BRANCH  26  28
ATOM     28  N   UNL     1      41.290 134.391  13.281  1.00  0.00    -0.017 NA
BRANCH  28  29
ATOM     29  N   UNL     1      40.158 134.870  13.184  1.00  0.00     0.009 N 
ATOM     30  N   UNL     1      39.028 135.348  13.091  1.00  0.00    -0.003 NA
ENDBRANCH  28  29
ENDBRANCH  26  28
ENDBRANCH  13  26
ENDBRANCH   1   2
BRANCH   1  31
ATOM     31  C   UNL     1      44.632 131.938  15.372  1.00  0.00     0.331 C 
ATOM     32  O   UNL     1      45.201 133.062  15.263  1.00  0.00    -0.250 OA
BRANCH  31  33
ATOM     33  C   UNL     1      45.333 130.675  14.917  1.00  0.00     0.116 C 
ATOM     34  C   UNL     1      46.858 130.720  15.101  1.00  0.00     0.040 C 
ATOM     35  C   UNL     1      45.520 130.590  13.398  1.00  0.00     0.040 C 
ATOM     36  C   UNL     1      47.037 130.686  13.581  1.00  0.00     0.019 C 
BRANCH  33  37
ATOM     37  N   UNL     1      44.756 129.448  15.469  1.00  0.00    -0.316 NA
ATOM     38  H   UNL     1      44.009 129.113  14.819  1.00  0.00     0.119 HD
ATOM     39  H   UNL     1      45.499 128.713  15.502  1.00  0.00     0.119 HD
ENDBRANCH  33  37
BRANCH  36  40
ATOM     40  C   UNL     1      47.800 129.462  13.061  1.00  0.00     0.159 C 
BRANCH  40  41
ATOM     41  O   UNL     1      49.093 129.453  13.605  1.00  0.00    -0.396 OA
ATOM     42  H   UNL     1      49.631 128.835  13.043  1.00  0.00     0.210 HD
ENDBRANCH  40  41
ENDBRANCH  36  40
ENDBRANCH  31  33
ENDBRANCH   1  31
TORSDOF 15
ENDMDL
MODEL 2
REMARK VINA RESULT:      -6.7      1.613      1.972
REMARK SMILES C#C[C@@](O)(c1cc(N=[N+]=[N-])cc(OC(=O)[C@]2(N)C[C@@H](CO)C2)c(C(=O)N=[N+]=[N-])cc2cc1CC2)C(C)(C)C
REMARK SMILES IDX 13 1 12 2 5 3 6 4 32 5 7 6 31 7 33 8 11 9 30 10 34 11 29 12
REMARK SMILES IDX 23 13 3 14 2 15 1 16 4 17 35 19 36 20 37 21 38 22 8 23 9 24
REMARK SMILES IDX 10 25 24 26 25 27 26 28 27 29 28 30 14 31 15 32 16 33 22 34
REMARK SMILES IDX 18 35 19 36 17 37 20 40 21 41
REMARK H PARENT 4 18 17 38 17 39 21 42
ROOT
ATOM      1  O   UNL     1      42.672 132.032  16.089  1.00  0.00    -0.424 OA
ENDROOT
BRANCH   1   2
ATOM      2  C   UNL     1      42.519 133.375  16.457  1.00  0.00     0.142 A 
ATOM      3  C   UNL     1      44.456 135.470  19.602  1.00  0.00    -0.000 A 
ATOM      4  C   UNL     1      44.499 134.049  19.464  1.00  0.00     0.018 A 
ATOM      5  C   UNL     1      44.113 136.301  18.499  1.00  0.00    -0.040 A 
ATOM      6  C   UNL     1      43.800 133.231  18.534  1.00  0.00     0.042 A 
ATOM      7  C   UNL     1      44.181 135.888  17.182  1.00  0.00     0.008 A 
ATOM      8  C   UNL     1      43.216 137.504  18.589  1.00  0.00     0.041 C 
ATOM      9  C   UNL     1      42.678 133.697  17.816  1.00  0.00     0.058 A 
ATOM     10  C   UNL     1      43.140 136.442  16.485  1.00  0.00    -0.047 A 
ATOM     11  C   UNL     1      42.699 137.689  17.161  1.00  0.00     0.040 C 
ATOM     12  C   UNL     1      42.306 135.750  15.592  1.00  0.00     0.019 A 
ATOM     13  C   UNL     1      42.135 134.342  15.481  1.00  0.00     0.067 A 
BRANCH   3  14
ATOM     14  C   UNL     1      44.958 136.083  20.943  1.00  0.00     0.155 C 
BRANCH  14  15
ATOM     15  C   UNL     1      46.005 135.224  21.557  1.00  0.00    -0.066 C 
ATOM     16  C   UNL     1      46.875 134.531  22.026  1.00  0.00     0.007 C 
ENDBRANCH  14  15
BRANCH  14  17
ATOM     17  O   UNL     1      45.575 137.331  20.695  1.00  0.00    -0.373 OA
ATOM     18  H   UNL     1      45.302 137.646  19.791  1.00  0.00     0.213 HD
ENDBRANCH  14  17
BRANCH  14  19
ATOM     19  C   UNL     1      43.775 136.327  21.974  1.00  0.00     0.006 C 
ATOM     20  C   UNL     1      44.022 135.539  23.285  1.00  0.00     0.015 C 
ATOM     21  C   UNL     1      42.428 135.834  21.376  1.00  0.00     0.015 C 
ATOM     22  C   UNL     1      43.600 137.824  22.343  1.00  0.00     0.015 C 
ENDBRANCH  14  19
ENDBRANCH   3  14
BRANCH   6  23
ATOM     23  N   UNL     1      44.265 131.894  18.293  1.00  0.00    -0.061 NA
BRANCH  23  24
ATOM     24  N   UNL     1      44.872 131.256  19.152  1.00  0.00     0.005 N 
ATOM     25  N   UNL     1      45.478 130.632  20.021  1.00  0.00    -0.003 NA
ENDBRANCH  23  24
ENDBRANCH   6  23
BRANCH  13  26
ATOM     26  C   UNL     1      41.381 133.872  14.293  1.00  0.00     0.252 C 
ATOM     27  O   UNL     1      41.842 134.069  13.138  1.00  0.00    -0.287 OA
BRANCH  26  28
ATOM     28  N   UNL     1      40.113 133.221  14.427  1.00  0.00    -0.017 NA
BRANCH  28  29
ATOM     29  N   UNL     1      39.241 133.652  15.184  1.00  0.00     0.009 N 
ATOM     30  N   UNL     1      38.372 134.081  15.941  1.00  0.00    -0.003 NA
ENDBRANCH  28  29
ENDBRANCH  26  28
ENDBRANCH  13  26
ENDBRANCH   1   2
BRANCH   1  31
ATOM     31  C   UNL     1      43.437 131.605  14.995  1.00  0.00     0.331 C 
ATOM     32  O   UNL     1      42.871 131.281  13.912  1.00  0.00    -0.250 OA
BRANCH  31  33
ATOM     33  C   UNL     1      44.946 131.569  15.114  1.00  0.00     0.116 C 
ATOM     34  C   UNL     1      45.647 131.020  13.862  1.00  0.00     0.040 C 
ATOM     35  C   UNL     1      45.470 130.380  15.927  1.00  0.00     0.040 C 
ATOM     36  C   UNL     1      46.125 129.809  14.666  1.00  0.00     0.019 C 
BRANCH  33  37
ATOM     37  N   UNL     1      45.534 132.837  15.553  1.00  0.00    -0.316 NA
ATOM     38  H   UNL     1      44.813 133.588  15.451  1.00  0.00     0.119 HD
ATOM     39  H   UNL     1      45.771 132.763  16.568  1.00  0.00     0.119 HD
ENDBRANCH  33  37
BRANCH  36  40
ATOM     40  C   UNL     1      47.649 129.678  14.767  1.00  0.00     0.159 C 
BRANCH  40  41
ATOM     41  O   UNL     1      48.096 128.708  13.858  1.00  0.00    -0.396 OA
ATOM     42  H   UNL     1      47.297 128.177  13.599  1.00  0.00     0.210 HD
ENDBRANCH  40  41
ENDBRANCH  36  40
ENDBRANCH  31  33
ENDBRANCH   1  31
TORSDOF 15
ENDMDL
MODEL 3
REMARK VINA RESULT:      -6.7      1.183      1.828
REMARK SMILES C#C[C@@](O)(c1cc(N=[N+]=[N-])cc(OC(=O)[C@]2(N)C[C@@H](CO)C2)c(C(=O)N=[N+]=[N-])cc2cc1CC2)C(C)(C)C
REMARK SMILES IDX 13 1 12 2 5 3 6 4 32 5 7 6 31 7 33 8 11 9 30 10 34 11 29 12
REMARK SMILES IDX 23 13 3 14 2 15 1 16 4 17 35 19 36 20 37 21 38 22 8 23 9 24
REMARK SMILES IDX 10 25 24 26 25 27 26 28 27 29 28 30 14 31 15 32 16 33 22 34
REMARK SMILES IDX 18 35 19 36 17 37 20 40 21 41
REMARK H PARENT 4 18 17 38 17 39 21 42
ROOT
ATOM      1  O   UNL     1      42.851 132.041  15.801  1.00  0.00    -0.424 OA
ENDROOT
BRANCH   1   2
ATOM      2  C   UNL     1      42.124 133.043  16.457  1.00  0.00     0.142 A 
ATOM      3  C   UNL     1      42.792 134.663  20.324  1.00  0.00    -0.000 A 
ATOM      4  C   UNL     1      43.437 133.482  19.848  1.00  0.00     0.018 A 
ATOM      5  C   UNL     1      42.204 135.590  19.418  1.00  0.00    -0.040 A 
ATOM      6  C   UNL     1      43.208 132.781  18.631  1.00  0.00     0.042 A 
ATOM      7  C   UNL     1      42.525 135.654  18.076  1.00  0.00     0.008 A 
ATOM      8  C   UNL     1      40.881 136.269  19.638  1.00  0.00     0.041 C 
ATOM      9  C   UNL     1      42.044 132.974  17.859  1.00  0.00     0.058 A 
ATOM     10  C   UNL     1      41.395 135.949  17.360  1.00  0.00    -0.047 A 
ATOM     11  C   UNL     1      40.428 136.664  18.232  1.00  0.00     0.040 C 
ATOM     12  C   UNL     1      40.989 135.295  16.185  1.00  0.00     0.019 A 
ATOM     13  C   UNL     1      41.433 134.035  15.698  1.00  0.00     0.067 A 
BRANCH   3  14
ATOM     14  C   UNL     1      42.901 134.985  21.844  1.00  0.00     0.155 C 
BRANCH  14  15
ATOM     15  C   UNL     1      41.553 135.162  22.445  1.00  0.00    -0.066 C 
ATOM     16  C   UNL     1      40.471 135.335  22.950  1.00  0.00     0.007 C 
ENDBRANCH  14  15
BRANCH  14  17
ATOM     17  O   UNL     1      43.488 133.891  22.521  1.00  0.00    -0.373 OA
ATOM     18  H   UNL     1      43.031 133.776  23.398  1.00  0.00     0.213 HD
ENDBRANCH  14  17
BRANCH  14  19
ATOM     19  C   UNL     1      43.801 136.263  22.127  1.00  0.00     0.006 C 
ATOM     20  C   UNL     1      42.966 137.560  21.982  1.00  0.00     0.015 C 
ATOM     21  C   UNL     1      44.968 136.338  21.103  1.00  0.00     0.015 C 
ATOM     22  C   UNL     1      44.427 136.254  23.546  1.00  0.00     0.015 C 
ENDBRANCH  14  19
ENDBRANCH   3  14
BRANCH   6  23
ATOM     23  N   UNL     1      44.206 131.865  18.155  1.00  0.00    -0.061 NA
BRANCH  23  24
ATOM     24  N   UNL     1      45.019 131.341  18.916  1.00  0.00     0.005 N 
ATOM     25  N   UNL     1      45.837 130.809  19.663  1.00  0.00    -0.003 NA
ENDBRANCH  23  24
ENDBRANCH   6  23
BRANCH  13  26
ATOM     26  C   UNL     1      41.026 133.694  14.312  1.00  0.00     0.252 C 
ATOM     27  O   UNL     1      41.785 133.974  13.348  1.00  0.00    -0.287 OA
BRANCH  26  28
ATOM     28  N   UNL     1      39.763 133.078  14.039  1.00  0.00    -0.017 NA
BRANCH  28  29
ATOM     29  N   UNL     1      38.713 133.724  14.047  1.00  0.00     0.009 N 
ATOM     30  N   UNL     1      37.667 134.371  14.055  1.00  0.00    -0.003 NA
ENDBRANCH  28  29
ENDBRANCH  26  28
ENDBRANCH  13  26
ENDBRANCH   1   2
BRANCH   1  31
ATOM     31  C   UNL     1      44.142 132.222  15.289  1.00  0.00     0.331 C 
ATOM     32  O   UNL     1      44.596 133.387  15.105  1.00  0.00    -0.250 OA
BRANCH  31  33
ATOM     33  C   UNL     1      44.999 131.009  14.992  1.00  0.00     0.116 C 
ATOM     34  C   UNL     1      46.505 131.311  14.972  1.00  0.00     0.040 C 
ATOM     35  C   UNL     1      45.053 130.646  13.504  1.00  0.00     0.040 C 
ATOM     36  C   UNL     1      46.544 130.996  13.475  1.00  0.00     0.019 C 
BRANCH  33  37
ATOM     37  N   UNL     1      44.689 129.848  15.830  1.00  0.00    -0.316 NA
ATOM     38  H   UNL     1      45.058 128.992  15.357  1.00  0.00     0.119 HD
ATOM     39  H   UNL     1      45.193 129.948  16.741  1.00  0.00     0.119 HD
ENDBRANCH  33  37
BRANCH  36  40
ATOM     40  C   UNL     1      47.448 129.816  13.099  1.00  0.00     0.159 C 
BRANCH  40  41
ATOM     41  O   UNL     1      47.907 129.190  14.268  1.00  0.00    -0.396 OA
ATOM     42  H   UNL     1      48.839 128.900  14.084  1.00  0.00     0.210 HD
ENDBRANCH  40  41
ENDBRANCH  36  40
ENDBRANCH  31  33
ENDBRANCH   1  31
TORSDOF 15
ENDMDL
MODEL 4
REMARK VINA RESULT:      -6.4      2.651      5.705
REMARK SMILES C#C[C@@](O)(c1cc(N=[N+]=[N-])cc(OC(=O)[C@]2(N)C[C@@H](CO)C2)c(C(=O)N=[N+]=[N-])cc2cc1CC2)C(C)(C)C
REMARK SMILES IDX 13 1 12 2 5 3 6 4 32 5 7 6 31 7 33 8 11 9 30 10 34 11 29 12
REMARK SMILES IDX 23 13 3 14 2 15 1 16 4 17 35 19 36 20 37 21 38 22 8 23 9 24
REMARK SMILES IDX 10 25 24 26 25 27 26 28 27 29 28 30 14 31 15 32 16 33 22 34
REMARK SMILES IDX 18 35 19 36 17 37 20 40 21 41
REMARK H PARENT 4 18 17 38 17 39 21 42
ROOT
ATOM      1  O   UNL     1      43.294 133.641  16.386  1.00  0.00    -0.424 OA
ENDROOT
BRANCH   1   2
ATOM      2  C   UNL     1      44.132 133.174  17.406  1.00  0.00     0.142 A 
ATOM      3  C   UNL     1      43.832 133.889  21.581  1.00  0.00    -0.000 A 
ATOM      4  C   UNL     1      43.073 134.606  20.607  1.00  0.00     0.018 A 
ATOM      5  C   UNL     1      44.428 132.636  21.265  1.00  0.00    -0.040 A 
ATOM      6  C   UNL     1      43.172 134.542  19.190  1.00  0.00     0.042 A 
ATOM      7  C   UNL     1      44.029 131.847  20.204  1.00  0.00     0.008 A 
ATOM      8  C   UNL     1      45.809 132.221  21.691  1.00  0.00     0.041 C 
ATOM      9  C   UNL     1      44.296 133.994  18.537  1.00  0.00     0.058 A 
ATOM     10  C   UNL     1      45.129 131.242  19.656  1.00  0.00    -0.047 A 
ATOM     11  C   UNL     1      46.200 131.140  20.682  1.00  0.00     0.040 C 
ATOM     12  C   UNL     1      45.410 131.166  18.283  1.00  0.00     0.019 A 
ATOM     13  C   UNL     1      44.845 131.949  17.239  1.00  0.00     0.067 A 
BRANCH   3  14
ATOM     14  C   UNL     1      43.843 134.439  23.038  1.00  0.00     0.155 C 
BRANCH  14  15
ATOM     15  C   UNL     1      42.468 134.790  23.481  1.00  0.00    -0.066 C 
ATOM     16  C   UNL     1      41.365 135.103  23.857  1.00  0.00     0.007 C 
ENDBRANCH  14  15
BRANCH  14  17
ATOM     17  O   UNL     1      44.292 133.432  23.924  1.00  0.00    -0.373 OA
ATOM     18  H   UNL     1      45.029 133.803  24.480  1.00  0.00     0.213 HD
ENDBRANCH  14  17
BRANCH  14  19
ATOM     19  C   UNL     1      44.809 135.690  23.203  1.00  0.00     0.006 C 
ATOM     20  C   UNL     1      44.443 136.798  22.185  1.00  0.00     0.015 C 
ATOM     21  C   UNL     1      46.282 135.272  22.937  1.00  0.00     0.015 C 
ATOM     22  C   UNL     1      44.751 136.309  24.625  1.00  0.00     0.015 C 
ENDBRANCH  14  19
ENDBRANCH   3  14
BRANCH   6  23
ATOM     23  N   UNL     1      42.081 135.026  18.392  1.00  0.00    -0.061 NA
BRANCH  23  24
ATOM     24  N   UNL     1      41.082 135.533  18.901  1.00  0.00     0.005 N 
ATOM     25  N   UNL     1      40.074 136.027  19.402  1.00  0.00    -0.003 NA
ENDBRANCH  23  24
ENDBRANCH   6  23
BRANCH  13  26
ATOM     26  C   UNL     1      45.137 131.496  15.857  1.00  0.00     0.252 C 
ATOM     27  O   UNL     1      44.528 130.503  15.378  1.00  0.00    -0.287 OA
BRANCH  26  28
ATOM     28  N   UNL     1      46.129 132.147  15.055  1.00  0.00    -0.017 NA
BRANCH  28  29
ATOM     29  N   UNL     1      46.726 131.552  14.156  1.00  0.00     0.009 N 
ATOM     30  N   UNL     1      47.320 130.957  13.258  1.00  0.00    -0.003 NA
ENDBRANCH  28  29
ENDBRANCH  26  28
ENDBRANCH  13  26
ENDBRANCH   1   2
BRANCH   1  31
ATOM     31  C   UNL     1      42.019 133.121  16.125  1.00  0.00     0.331 C 
ATOM     32  O   UNL     1      41.587 132.135  16.786  1.00  0.00    -0.250 OA
BRANCH  31  33
ATOM     33  C   UNL     1      41.154 133.775  15.068  1.00  0.00     0.116 C 
ATOM     34  C   UNL     1      41.571 135.217  14.739  1.00  0.00     0.040 C 
ATOM     35  C   UNL     1      39.812 134.286  15.603  1.00  0.00     0.040 C 
ATOM     36  C   UNL     1      40.250 135.726  15.321  1.00  0.00     0.019 C 
BRANCH  33  37
ATOM     37  N   UNL     1      40.991 132.968  13.856  1.00  0.00    -0.316 NA
ATOM     38  H   UNL     1      41.313 131.995  14.062  1.00  0.00     0.119 HD
ATOM     39  H   UNL     1      39.974 132.921  13.618  1.00  0.00     0.119 HD
ENDBRANCH  33  37
BRANCH  36  40
ATOM     40  C   UNL     1      39.355 136.458  14.314  1.00  0.00     0.159 C 
BRANCH  40  41
ATOM     41  O   UNL     1      38.476 137.308  15.003  1.00  0.00    -0.396 OA
ATOM     42  H   UNL     1      38.487 138.175  14.520  1.00  0.00     0.210 HD
ENDBRANCH  40  41
ENDBRANCH  36  40
ENDBRANCH  31  33
ENDBRANCH   1  31
TORSDOF 15
ENDMDL
MODEL 5
REMARK VINA RESULT:      -6.3      2.254      5.561
REMARK SMILES C#C[C@@](O)(c1cc(N=[N+]=[N-])cc(OC(=O)[C@]2(N)C[C@@H](CO)C2)c(C(=O)N=[N+]=[N-])cc2cc1CC2)C(C)(C)C
REMARK SMILES IDX 13 1 12 2 5 3 6 4 32 5 7 6 31 7 33 8 11 9 30 10 34 11 29 12
REMARK SMILES IDX 23 13 3 14 2 15 1 16 4 17 35 19 36 20 37 21 38 22 8 23 9 24
REMARK SMILES IDX 10 25 24 26 25 27 26 28 27 29 28 30 14 31 15 32 16 33 22 34
REMARK SMILES IDX 18 35 19 36 17 37 20 40 21 41
REMARK H PARENT 4 18 17 38 17 39 21 42
ROOT
ATOM      1  O   UNL     1      44.820 132.802  17.151  1.00  0.00    -0.424 OA
ENDROOT
BRANCH   1   2
ATOM      2  C   UNL     1      44.028 133.346  18.170  1.00  0.00     0.142 A 
ATOM      3  C   UNL     1      40.525 135.715  17.789  1.00  0.00    -0.000 A 
ATOM      4  C   UNL     1      41.392 135.416  16.694  1.00  0.00     0.018 A 
ATOM      5  C   UNL     1      40.546 134.927  18.973  1.00  0.00    -0.040 A 
ATOM      6  C   UNL     1      42.644 134.742  16.718  1.00  0.00     0.042 A 
ATOM      7  C   UNL     1      41.067 133.648  19.030  1.00  0.00     0.008 A 
ATOM      8  C   UNL     1      40.468 135.486  20.367  1.00  0.00     0.041 C 
ATOM      9  C   UNL     1      43.382 134.567  17.907  1.00  0.00     0.058 A 
ATOM     10  C   UNL     1      41.685 133.470  20.240  1.00  0.00    -0.047 A 
ATOM     11  C   UNL     1      41.093 134.396  21.240  1.00  0.00     0.040 C 
ATOM     12  C   UNL     1      42.953 132.896  20.423  1.00  0.00     0.019 A 
ATOM     13  C   UNL     1      43.966 132.705  19.444  1.00  0.00     0.067 A 
BRANCH   3  14
ATOM     14  C   UNL     1      39.447 136.819  17.577  1.00  0.00     0.155 C 
BRANCH  14  15
ATOM     15  C   UNL     1      38.977 136.835  16.167  1.00  0.00    -0.066 C 
ATOM     16  C   UNL     1      38.581 136.881  15.028  1.00  0.00     0.007 C 
ENDBRANCH  14  15
BRANCH  14  17
ATOM     17  O   UNL     1      38.308 136.529  18.364  1.00  0.00    -0.373 OA
ATOM     18  H   UNL     1      38.069 135.571  18.236  1.00  0.00     0.213 HD
ENDBRANCH  14  17
BRANCH  14  19
ATOM     19  C   UNL     1      39.968 138.259  18.000  1.00  0.00     0.006 C 
ATOM     20  C   UNL     1      39.631 139.303  16.906  1.00  0.00     0.015 C 
ATOM     21  C   UNL     1      41.511 138.243  18.176  1.00  0.00     0.015 C 
ATOM     22  C   UNL     1      39.352 138.752  19.336  1.00  0.00     0.015 C 
ENDBRANCH  14  19
ENDBRANCH   3  14
BRANCH   6  23
ATOM     23  N   UNL     1      43.166 134.196  15.497  1.00  0.00    -0.061 NA
BRANCH  23  24
ATOM     24  N   UNL     1      42.440 133.637  14.676  1.00  0.00     0.005 N 
ATOM     25  N   UNL     1      41.711 133.067  13.867  1.00  0.00    -0.003 NA
ENDBRANCH  23  24
ENDBRANCH   6  23
BRANCH  13  26
ATOM     26  C   UNL     1      45.111 131.854  19.852  1.00  0.00     0.252 C 
ATOM     27  O   UNL     1      45.134 130.636  19.533  1.00  0.00    -0.287 OA
BRANCH  26  28
ATOM     28  N   UNL     1      46.187 132.381  20.635  1.00  0.00    -0.017 NA
BRANCH  28  29
ATOM     29  N   UNL     1      45.982 133.026  21.665  1.00  0.00     0.009 N 
ATOM     30  N   UNL     1      45.773 133.668  22.694  1.00  0.00    -0.003 NA
ENDBRANCH  28  29
ENDBRANCH  26  28
ENDBRANCH  13  26
ENDBRANCH   1   2
BRANCH   1  31
ATOM     31  C   UNL     1      44.576 131.560  16.551  1.00  0.00     0.331 C 
ATOM     32  O   UNL     1      43.411 131.070  16.555  1.00  0.00    -0.250 OA
BRANCH  31  33
ATOM     33  C   UNL     1      45.713 130.830  15.868  1.00  0.00     0.116 C 
ATOM     34  C   UNL     1      46.456 131.684  14.830  1.00  0.00     0.040 C 
ATOM     35  C   UNL     1      45.253 129.881  14.757  1.00  0.00     0.040 C 
ATOM     36  C   UNL     1      45.953 130.762  13.718  1.00  0.00     0.019 C 
BRANCH  33  37
ATOM     37  N   UNL     1      46.640 130.179  16.798  1.00  0.00    -0.316 NA
ATOM     38  H   UNL     1      46.357 130.428  17.774  1.00  0.00     0.119 HD
ATOM     39  H   UNL     1      46.545 129.143  16.696  1.00  0.00     0.119 HD
ENDBRANCH  33  37
BRANCH  36  40
ATOM     40  C   UNL     1      47.061 130.041  12.942  1.00  0.00     0.159 C 
BRANCH  40  41
ATOM     41  O   UNL     1      48.304 130.337  13.521  1.00  0.00    -0.396 OA
ATOM     42  H   UNL     1      48.133 131.022  14.220  1.00  0.00     0.210 HD
ENDBRANCH  40  41
ENDBRANCH  36  40
ENDBRANCH  31  33
ENDBRANCH   1  31
TORSDOF 15
ENDMDL
MODEL 6
REMARK VINA RESULT:      -6.2      1.866      5.502
REMARK SMILES C#C[C@@](O)(c1cc(N=[N+]=[N-])cc(OC(=O)[C@]2(N)C[C@@H](CO)C2)c(C(=O)N=[N+]=[N-])cc2cc1CC2)C(C)(C)C
REMARK SMILES IDX 13 1 12 2 5 3 6 4 32 5 7 6 31 7 33 8 11 9 30 10 34 11 29 12
REMARK SMILES IDX 23 13 3 14 2 15 1 16 4 17 35 19 36 20 37 21 38 22 8 23 9 24
REMARK SMILES IDX 10 25 24 26 25 27 26 28 27 29 28 30 14 31 15 32 16 33 22 34
REMARK SMILES IDX 18 35 19 36 17 37 20 40 21 41
REMARK H PARENT 4 18 17 38 17 39 21 42
ROOT
ATOM      1  O   UNL     1      43.842 131.837  16.672  1.00  0.00    -0.424 OA
ENDROOT
BRANCH   1   2
ATOM      2  C   UNL     1      43.607 132.718  17.735  1.00  0.00     0.142 A 
ATOM      3  C   UNL     1      40.575 135.671  18.071  1.00  0.00    -0.000 A 
ATOM      4  C   UNL     1      40.877 134.995  16.851  1.00  0.00     0.018 A 
ATOM      5  C   UNL     1      40.977 135.132  19.325  1.00  0.00    -0.040 A 
ATOM      6  C   UNL     1      41.937 134.084  16.586  1.00  0.00     0.042 A 
ATOM      7  C   UNL     1      41.313 133.804  19.512  1.00  0.00     0.008 A 
ATOM      8  C   UNL     1      41.542 135.944  20.457  1.00  0.00     0.041 C 
ATOM      9  C   UNL     1      43.066 133.978  17.425  1.00  0.00     0.058 A 
ATOM     10  C   UNL     1      42.341 133.726  20.413  1.00  0.00    -0.047 A 
ATOM     11  C   UNL     1      42.327 134.927  21.288  1.00  0.00     0.040 C 
ATOM     12  C   UNL     1      43.493 132.937  20.259  1.00  0.00     0.019 A 
ATOM     13  C   UNL     1      43.988 132.353  19.061  1.00  0.00     0.067 A 
BRANCH   3  14
ATOM     14  C   UNL     1      39.650 136.922  17.995  1.00  0.00     0.155 C 
BRANCH  14  15
ATOM     15  C   UNL     1      38.669 136.787  16.887  1.00  0.00    -0.066 C 
ATOM     16  C   UNL     1      37.846 136.681  16.010  1.00  0.00     0.007 C 
ENDBRANCH  14  15
BRANCH  14  17
ATOM     17  O   UNL     1      38.886 137.023  19.181  1.00  0.00    -0.373 OA
ATOM     18  H   UNL     1      39.195 136.323  19.818  1.00  0.00     0.213 HD
ENDBRANCH  14  17
BRANCH  14  19
ATOM     19  C   UNL     1      40.474 138.272  17.838  1.00  0.00     0.006 C 
ATOM     20  C   UNL     1      39.859 139.160  16.728  1.00  0.00     0.015 C 
ATOM     21  C   UNL     1      41.942 137.964  17.435  1.00  0.00     0.015 C 
ATOM     22  C   UNL     1      40.515 139.105  19.147  1.00  0.00     0.015 C 
ENDBRANCH  14  19
ENDBRANCH   3  14
BRANCH   6  23
ATOM     23  N   UNL     1      41.846 133.221  15.442  1.00  0.00    -0.061 NA
BRANCH  23  24
ATOM     24  N   UNL     1      40.892 133.272  14.667  1.00  0.00     0.005 N 
ATOM     25  N   UNL     1      39.949 133.319  13.880  1.00  0.00    -0.003 NA
ENDBRANCH  23  24
ENDBRANCH   6  23
BRANCH  13  26
ATOM     26  C   UNL     1      45.085 131.367  19.224  1.00  0.00     0.252 C 
ATOM     27  O   UNL     1      45.221 130.435  18.389  1.00  0.00    -0.287 OA
BRANCH  26  28
ATOM     28  N   UNL     1      45.983 131.431  20.337  1.00  0.00    -0.017 NA
BRANCH  28  29
ATOM     29  N   UNL     1      45.642 131.065  21.465  1.00  0.00     0.009 N 
ATOM     30  N   UNL     1      45.305 130.701  22.590  1.00  0.00    -0.003 NA
ENDBRANCH  28  29
ENDBRANCH  26  28
ENDBRANCH  13  26
ENDBRANCH   1   2
BRANCH   1  31
ATOM     31  C   UNL     1      44.885 131.988  15.749  1.00  0.00     0.331 C 
ATOM     32  O   UNL     1      45.340 133.138  15.487  1.00  0.00    -0.250 OA
BRANCH  31  33
ATOM     33  C   UNL     1      45.482 130.760  15.096  1.00  0.00     0.116 C 
ATOM     34  C   UNL     1      47.018 130.747  15.102  1.00  0.00     0.040 C 
ATOM     35  C   UNL     1      45.490 130.821  13.565  1.00  0.00     0.040 C 
ATOM     36  C   UNL     1      47.021 130.859  13.576  1.00  0.00     0.019 C 
BRANCH  33  37
ATOM     37  N   UNL     1      44.927 129.498  15.592  1.00  0.00    -0.316 NA
ATOM     38  H   UNL     1      45.385 129.273  16.505  1.00  0.00     0.119 HD
ATOM     39  H   UNL     1      43.906 129.630  15.775  1.00  0.00     0.119 HD
ENDBRANCH  33  37
BRANCH  36  40
ATOM     40  C   UNL     1      47.674 129.673  12.855  1.00  0.00     0.159 C 
BRANCH  40  41
ATOM     41  O   UNL     1      48.085 128.722  13.800  1.00  0.00    -0.396 OA
ATOM     42  H   UNL     1      47.733 127.847  13.490  1.00  0.00     0.210 HD
ENDBRANCH  40  41
ENDBRANCH  36  40
ENDBRANCH  31  33
ENDBRANCH   1  31
TORSDOF 15
ENDMDL
MODEL 7
REMARK VINA RESULT:      -6.2      2.218      5.615
REMARK SMILES C#C[C@@](O)(c1cc(N=[N+]=[N-])cc(OC(=O)[C@]2(N)C[C@@H](CO)C2)c(C(=O)N=[N+]=[N-])cc2cc1CC2)C(C)(C)C
REMARK SMILES IDX 13 1 12 2 5 3 6 4 32 5 7 6 31 7 33 8 11 9 30 10 34 11 29 12
REMARK SMILES IDX 23 13 3 14 2 15 1 16 4 17 35 19 36 20 37 21 38 22 8 23 9 24
REMARK SMILES IDX 10 25 24 26 25 27 26 28 27 29 28 30 14 31 15 32 16 33 22 34
REMARK SMILES IDX 18 35 19 36 17 37 20 40 21 41
REMARK H PARENT 4 18 17 38 17 39 21 42
ROOT
ATOM      1  O   UNL     1      45.030 132.141  16.945  1.00  0.00    -0.424 OA
ENDROOT
BRANCH   1   2
ATOM      2  C   UNL     1      44.399 132.983  17.869  1.00  0.00     0.142 A 
ATOM      3  C   UNL     1      41.298 135.796  17.163  1.00  0.00    -0.000 A 
ATOM      4  C   UNL     1      42.037 135.165  16.116  1.00  0.00     0.018 A 
ATOM      5  C   UNL     1      41.268 135.241  18.473  1.00  0.00    -0.040 A 
ATOM      6  C   UNL     1      43.166 134.308  16.226  1.00  0.00     0.042 A 
ATOM      7  C   UNL     1      41.583 133.925  18.751  1.00  0.00     0.008 A 
ATOM      8  C   UNL     1      41.367 136.046  19.739  1.00  0.00     0.041 C 
ATOM      9  C   UNL     1      43.939 134.227  17.403  1.00  0.00     0.058 A 
ATOM     10  C   UNL     1      42.239 133.866  19.953  1.00  0.00    -0.047 A 
ATOM     11  C   UNL     1      41.864 135.042  20.780  1.00  0.00     0.040 C 
ATOM     12  C   UNL     1      43.409 133.130  20.199  1.00  0.00     0.019 A 
ATOM     13  C   UNL     1      44.316 132.600  19.241  1.00  0.00     0.067 A 
BRANCH   3  14
ATOM     14  C   UNL     1      40.397 137.009  16.784  1.00  0.00     0.155 C 
BRANCH  14  15
ATOM     15  C   UNL     1      39.506 136.668  15.644  1.00  0.00    -0.066 C 
ATOM     16  C   UNL     1      38.762 136.373  14.740  1.00  0.00     0.007 C 
ENDBRANCH  14  15
BRANCH  14  17
ATOM     17  O   UNL     1      39.542 137.323  17.865  1.00  0.00    -0.373 OA
ATOM     18  H   UNL     1      40.018 137.123  18.716  1.00  0.00     0.213 HD
ENDBRANCH  14  17
BRANCH  14  19
ATOM     19  C   UNL     1      41.246 138.309  16.448  1.00  0.00     0.006 C 
ATOM     20  C   UNL     1      41.793 138.244  15.000  1.00  0.00     0.015 C 
ATOM     21  C   UNL     1      42.464 138.420  17.407  1.00  0.00     0.015 C 
ATOM     22  C   UNL     1      40.422 139.616  16.588  1.00  0.00     0.015 C 
ENDBRANCH  14  19
ENDBRANCH   3  14
BRANCH   6  23
ATOM     23  N   UNL     1      43.518 133.472  15.113  1.00  0.00    -0.061 NA
BRANCH  23  24
ATOM     24  N   UNL     1      42.662 132.916  14.425  1.00  0.00     0.005 N 
ATOM     25  N   UNL     1      41.818 132.363  13.724  1.00  0.00    -0.003 NA
ENDBRANCH  23  24
ENDBRANCH   6  23
BRANCH  13  26
ATOM     26  C   UNL     1      45.335 131.657  19.764  1.00  0.00     0.252 C 
ATOM     27  O   UNL     1      45.390 130.480  19.320  1.00  0.00    -0.287 OA
BRANCH  26  28
ATOM     28  N   UNL     1      46.248 132.046  20.796  1.00  0.00    -0.017 NA
BRANCH  28  29
ATOM     29  N   UNL     1      46.310 133.209  21.200  1.00  0.00     0.009 N 
ATOM     30  N   UNL     1      46.371 134.371  21.600  1.00  0.00    -0.003 NA
ENDBRANCH  28  29
ENDBRANCH  26  28
ENDBRANCH  13  26
ENDBRANCH   1   2
BRANCH   1  31
ATOM     31  C   UNL     1      44.457 130.967  16.440  1.00  0.00     0.331 C 
ATOM     32  O   UNL     1      43.256 130.679  16.710  1.00  0.00    -0.250 OA
BRANCH  31  33
ATOM     33  C   UNL     1      45.278 130.066  15.541  1.00  0.00     0.116 C 
ATOM     34  C   UNL     1      46.752 130.487  15.433  1.00  0.00     0.040 C 
ATOM     35  C   UNL     1      45.088 130.352  14.048  1.00  0.00     0.040 C 
ATOM     36  C   UNL     1      46.544 130.818  13.953  1.00  0.00     0.019 C 
BRANCH  33  37
ATOM     37  N   UNL     1      45.143 128.641  15.850  1.00  0.00    -0.316 NA
ATOM     38  H   UNL     1      44.230 128.305  15.465  1.00  0.00     0.119 HD
ATOM     39  H   UNL     1      45.904 128.118  15.360  1.00  0.00     0.119 HD
ENDBRANCH  33  37
BRANCH  36  40
ATOM     40  C   UNL     1      47.398 129.985  12.991  1.00  0.00     0.159 C 
BRANCH  40  41
ATOM     41  O   UNL     1      47.714 130.755  11.862  1.00  0.00    -0.396 OA
ATOM     42  H   UNL     1      48.527 130.348  11.462  1.00  0.00     0.210 HD
ENDBRANCH  40  41
ENDBRANCH  36  40
ENDBRANCH  31  33
ENDBRANCH   1  31
TORSDOF 15
ENDMDL
MODEL 8
REMARK VINA RESULT:      -6.1      2.561      5.584
REMARK SMILES C#C[C@@](O)(c1cc(N=[N+]=[N-])cc(OC(=O)[C@]2(N)C[C@@H](CO)C2)c(C(=O)N=[N+]=[N-])cc2cc1CC2)C(C)(C)C
REMARK SMILES IDX 13 1 12 2 5 3 6 4 32 5 7 6 31 7 33 8 11 9 30 10 34 11 29 12
REMARK SMILES IDX 23 13 3 14 2 15 1 16 4 17 35 19 36 20 37 21 38 22 8 23 9 24
REMARK SMILES IDX 10 25 24 26 25 27 26 28 27 29 28 30 14 31 15 32 16 33 22 34
REMARK SMILES IDX 18 35 19 36 17 37 20 40 21 41
REMARK H PARENT 4 18 17 38 17 39 21 42
ROOT
ATOM      1  O   UNL     1      42.566 133.585  16.383  1.00  0.00    -0.424 OA
ENDROOT
BRANCH   1   2
ATOM      2  C   UNL     1      43.576 133.145  17.248  1.00  0.00     0.142 A 
ATOM      3  C   UNL     1      44.011 133.952  21.394  1.00  0.00    -0.000 A 
ATOM      4  C   UNL     1      43.085 134.643  20.555  1.00  0.00     0.018 A 
ATOM      5  C   UNL     1      44.554 132.696  21.005  1.00  0.00    -0.040 A 
ATOM      6  C   UNL     1      42.933 134.548  19.144  1.00  0.00     0.042 A 
ATOM      7  C   UNL     1      43.980 131.881  20.048  1.00  0.00     0.008 A 
ATOM      8  C   UNL     1      45.992 132.298  21.188  1.00  0.00     0.041 C 
ATOM      9  C   UNL     1      43.929 133.991  18.315  1.00  0.00     0.058 A 
ATOM     10  C   UNL     1      44.972 131.270  19.327  1.00  0.00    -0.047 A 
ATOM     11  C   UNL     1      46.208 131.197  20.149  1.00  0.00     0.040 C 
ATOM     12  C   UNL     1      45.008 131.165  17.928  1.00  0.00     0.019 A 
ATOM     13  C   UNL     1      44.259 131.921  16.984  1.00  0.00     0.067 A 
BRANCH   3  14
ATOM     14  C   UNL     1      44.274 134.535  22.815  1.00  0.00     0.155 C 
BRANCH  14  15
ATOM     15  C   UNL     1      43.050 135.183  23.355  1.00  0.00    -0.066 C 
ATOM     16  C   UNL     1      42.043 135.711  23.760  1.00  0.00     0.007 C 
ENDBRANCH  14  15
BRANCH  14  17
ATOM     17  O   UNL     1      44.585 133.485  23.710  1.00  0.00    -0.373 OA
ATOM     18  H   UNL     1      45.569 133.337  23.697  1.00  0.00     0.213 HD
ENDBRANCH  14  17
BRANCH  14  19
ATOM     19  C   UNL     1      45.490 135.557  22.831  1.00  0.00     0.006 C 
ATOM     20  C   UNL     1      45.948 135.883  21.388  1.00  0.00     0.015 C 
ATOM     21  C   UNL     1      46.702 134.941  23.582  1.00  0.00     0.015 C 
ATOM     22  C   UNL     1      45.139 136.895  23.534  1.00  0.00     0.015 C 
ENDBRANCH  14  19
ENDBRANCH   3  14
BRANCH   6  23
ATOM     23  N   UNL     1      41.714 135.008  18.541  1.00  0.00    -0.061 NA
BRANCH  23  24
ATOM     24  N   UNL     1      40.618 134.804  19.062  1.00  0.00     0.005 N 
ATOM     25  N   UNL     1      39.529 134.586  19.589  1.00  0.00    -0.003 NA
ENDBRANCH  23  24
ENDBRANCH   6  23
BRANCH  13  26
ATOM     26  C   UNL     1      44.307 131.439  15.581  1.00  0.00     0.252 C 
ATOM     27  O   UNL     1      43.373 131.723  14.787  1.00  0.00    -0.287 OA
BRANCH  26  28
ATOM     28  N   UNL     1      45.385 130.622  15.112  1.00  0.00    -0.017 NA
BRANCH  28  29
ATOM     29  N   UNL     1      46.320 131.095  14.462  1.00  0.00     0.009 N 
ATOM     30  N   UNL     1      47.253 131.564  13.813  1.00  0.00    -0.003 NA
ENDBRANCH  28  29
ENDBRANCH  26  28
ENDBRANCH  13  26
ENDBRANCH   1   2
BRANCH   1  31
ATOM     31  C   UNL     1      42.721 134.639  15.474  1.00  0.00     0.331 C 
ATOM     32  O   UNL     1      43.877 135.028  15.143  1.00  0.00    -0.250 OA
BRANCH  31  33
ATOM     33  C   UNL     1      41.492 135.282  14.867  1.00  0.00     0.116 C 
ATOM     34  C   UNL     1      40.176 134.815  15.507  1.00  0.00     0.040 C 
ATOM     35  C   UNL     1      41.066 134.655  13.535  1.00  0.00     0.040 C 
ATOM     36  C   UNL     1      39.777 134.148  14.189  1.00  0.00     0.019 C 
BRANCH  33  37
ATOM     37  N   UNL     1      41.568 136.743  14.787  1.00  0.00    -0.316 NA
ATOM     38  H   UNL     1      41.435 137.027  13.789  1.00  0.00     0.119 HD
ATOM     39  H   UNL     1      40.780 137.151  15.339  1.00  0.00     0.119 HD
ENDBRANCH  33  37
BRANCH  36  40
ATOM     40  C   UNL     1      38.500 134.710  13.555  1.00  0.00     0.159 C 
BRANCH  40  41
ATOM     41  O   UNL     1      37.880 133.711  12.789  1.00  0.00    -0.396 OA
ATOM     42  H   UNL     1      38.198 133.833  11.856  1.00  0.00     0.210 HD
ENDBRANCH  40  41
ENDBRANCH  36  40
ENDBRANCH  31  33
ENDBRANCH   1  31
TORSDOF 15
ENDMDL
MODEL 9
REMARK VINA RESULT:      -6.1      1.041      1.779
REMARK SMILES C#C[C@@](O)(c1cc(N=[N+]=[N-])cc(OC(=O)[C@]2(N)C[C@@H](CO)C2)c(C(=O)N=[N+]=[N-])cc2cc1CC2)C(C)(C)C
REMARK SMILES IDX 13 1 12 2 5 3 6 4 32 5 7 6 31 7 33 8 11 9 30 10 34 11 29 12
REMARK SMILES IDX 23 13 3 14 2 15 1 16 4 17 35 19 36 20 37 21 38 22 8 23 9 24
REMARK SMILES IDX 10 25 24 26 25 27 26 28 27 29 28 30 14 31 15 32 16 33 22 34
REMARK SMILES IDX 18 35 19 36 17 37 20 40 21 41
REMARK H PARENT 4 18 17 38 17 39 21 42
ROOT
ATOM      1  O   UNL     1      43.362 131.932  16.092  1.00  0.00    -0.424 OA
ENDROOT
BRANCH   1   2
ATOM      2  C   UNL     1      42.592 132.964  16.644  1.00  0.00     0.142 A 
ATOM      3  C   UNL     1      43.033 134.825  20.434  1.00  0.00    -0.000 A 
ATOM      4  C   UNL     1      43.713 133.624  20.068  1.00  0.00     0.018 A 
ATOM      5  C   UNL     1      42.488 135.688  19.443  1.00  0.00    -0.040 A 
ATOM      6  C   UNL     1      43.557 132.847  18.886  1.00  0.00     0.042 A 
ATOM      7  C   UNL     1      42.881 135.673  18.118  1.00  0.00     0.008 A 
ATOM      8  C   UNL     1      41.149 136.364  19.548  1.00  0.00     0.041 C 
ATOM      9  C   UNL     1      42.436 132.979  18.041  1.00  0.00     0.058 A 
ATOM     10  C   UNL     1      41.791 135.911  17.324  1.00  0.00    -0.047 A 
ATOM     11  C   UNL     1      40.771 136.667  18.097  1.00  0.00     0.040 C 
ATOM     12  C   UNL     1      41.455 135.182  16.172  1.00  0.00     0.019 A 
ATOM     13  C   UNL     1      41.936 133.899  15.789  1.00  0.00     0.067 A 
BRANCH   3  14
ATOM     14  C   UNL     1      43.056 135.240  21.935  1.00  0.00     0.155 C 
BRANCH  14  15
ATOM     15  C   UNL     1      41.675 135.437  22.451  1.00  0.00    -0.066 C 
ATOM     16  C   UNL     1      40.556 135.565  22.885  1.00  0.00     0.007 C 
ENDBRANCH  14  15
BRANCH  14  17
ATOM     17  O   UNL     1      43.615 134.197  22.709  1.00  0.00    -0.373 OA
ATOM     18  H   UNL     1      44.539 134.020  22.384  1.00  0.00     0.213 HD
ENDBRANCH  14  17
BRANCH  14  19
ATOM     19  C   UNL     1      43.927 136.545  22.187  1.00  0.00     0.006 C 
ATOM     20  C   UNL     1      43.078 137.820  21.957  1.00  0.00     0.015 C 
ATOM     21  C   UNL     1      45.124 136.592  21.197  1.00  0.00     0.015 C 
ATOM     22  C   UNL     1      44.508 136.610  23.624  1.00  0.00     0.015 C 
ENDBRANCH  14  19
ENDBRANCH   3  14
BRANCH   6  23
ATOM     23  N   UNL     1      44.587 131.916  18.523  1.00  0.00    -0.061 NA
BRANCH  23  24
ATOM     24  N   UNL     1      45.337 131.420  19.363  1.00  0.00     0.005 N 
ATOM     25  N   UNL     1      46.075 130.912  20.205  1.00  0.00    -0.003 NA
ENDBRANCH  23  24
ENDBRANCH   6  23
BRANCH  13  26
ATOM     26  C   UNL     1      41.608 133.470  14.407  1.00  0.00     0.252 C 
ATOM     27  O   UNL     1      41.590 132.245  14.117  1.00  0.00    -0.287 OA
BRANCH  26  28
ATOM     28  N   UNL     1      41.341 134.425  13.375  1.00  0.00    -0.017 NA
BRANCH  28  29
ATOM     29  N   UNL     1      40.208 134.876  13.189  1.00  0.00     0.009 N 
ATOM     30  N   UNL     1      39.079 135.325  13.001  1.00  0.00    -0.003 NA
ENDBRANCH  28  29
ENDBRANCH  26  28
ENDBRANCH  13  26
ENDBRANCH   1   2
BRANCH   1  31
ATOM     31  C   UNL     1      44.585 132.134  15.439  1.00  0.00     0.331 C 
ATOM     32  O   UNL     1      45.227 133.209  15.610  1.00  0.00    -0.250 OA
BRANCH  31  33
ATOM     33  C   UNL     1      45.144 131.039  14.555  1.00  0.00     0.116 C 
ATOM     34  C   UNL     1      45.746 129.864  15.342  1.00  0.00     0.040 C 
ATOM     35  C   UNL     1      46.528 131.360  13.980  1.00  0.00     0.040 C 
ATOM     36  C   UNL     1      47.133 130.220  14.804  1.00  0.00     0.019 C 
BRANCH  33  37
ATOM     37  N   UNL     1      44.213 130.580  13.522  1.00  0.00    -0.316 NA
ATOM     38  H   UNL     1      44.764 130.324  12.671  1.00  0.00     0.119 HD
ATOM     39  H   UNL     1      43.736 129.714  13.862  1.00  0.00     0.119 HD
ENDBRANCH  33  37
BRANCH  36  40
ATOM     40  C   UNL     1      47.785 129.123  13.954  1.00  0.00     0.159 C 
BRANCH  40  41
ATOM     41  O   UNL     1      47.988 129.601  12.651  1.00  0.00    -0.396 OA
ATOM     42  H   UNL     1      47.977 130.592  12.710  1.00  0.00     0.210 HD
ENDBRANCH  40  41
ENDBRANCH  36  40
ENDBRANCH  31  33
ENDBRANCH   1  31
TORSDOF 15
ENDMDL


