REMARK SMILES C[C@H]1CN(C(=O)[C@]2([NH3+])C[C@H](CO)C2)CCCN1
REMARK SMILES IDX 4 1 3 2 2 3 1 4 17 5 16 7 5 9 6 10 7 11 13 12 9 13 10 14
REMARK SMILES IDX 8 15 11 19 12 20 14 22 15 23
REMARK H PARENT 17 6 8 16 8 17 8 18 12 21
REMARK Flexibility Score:   15.900
ROOT
ATOM      1  N   UNL     1      -1.333  -0.009   0.246  1.00  0.00    -0.336 N 
ENDROOT
BRANCH   1   2
ATOM      2  C   UNL     1      -2.798   0.029   0.331  1.00  0.00     0.138 C 
BRANCH   2   3
ATOM      3  C   UNL     1      -3.374  -1.254   0.980  1.00  0.00     0.070 C 
ATOM      4  C   UNL     1      -4.790  -1.018   1.514  1.00  0.00     0.026 C 
BRANCH   3   5
ATOM      5  N   UNL     1      -2.523  -1.840   2.038  1.00  0.00    -0.312 NA
ATOM      6  H   UNL     1      -1.781  -2.437   1.603  1.00  0.00     0.123 HD
BRANCH   5   7
ATOM      7  C   UNL     1      -1.931  -0.878   2.986  1.00  0.00     0.083 CG0
ATOM      8  G   UNL     1      -0.530  -0.413   2.548  1.00  0.00     0.000 G0
ENDBRANCH   5   7
ENDBRANCH   3   5
ENDBRANCH   2   3
ENDBRANCH   1   2
BRANCH   1   9
ATOM      9  C   UNL     1      -0.699  -0.780  -0.800  1.00  0.00     0.283 C 
ATOM     10  O   UNL     1      -1.284  -1.803  -1.250  1.00  0.00    -0.268 OA
BRANCH   9  11
ATOM     11  C   UNL     1       0.663  -0.420  -1.371  1.00  0.00     0.174 C 
ATOM     12  C   UNL     1       0.927   1.089  -1.524  1.00  0.00     0.085 C 
ATOM     13  C   UNL     1       0.741  -0.572  -2.902  1.00  0.00     0.085 C 
ATOM     14  C   UNL     1       1.025   0.923  -3.041  1.00  0.00     0.028 C 
BRANCH  11  15
ATOM     15  N   UNL     1       1.757  -1.134  -0.693  1.00  0.00    -0.345 N 
ATOM     16  H   UNL     1       2.685  -0.881  -1.107  1.00  0.00     0.345 HD
ATOM     17  H   UNL     1       1.775  -0.897   0.324  1.00  0.00     0.345 HD
ATOM     18  H   UNL     1       1.617  -2.166  -0.793  1.00  0.00     0.345 HD
ENDBRANCH  11  15
BRANCH  14  19
ATOM     19  C   UNL     1      -0.057   1.682  -3.819  1.00  0.00     0.160 C 
BRANCH  19  20
ATOM     20  O   UNL     1       0.201   3.057  -3.758  1.00  0.00    -0.396 OA
ATOM     21  H   UNL     1      -0.541   3.498  -4.251  1.00  0.00     0.210 HD
ENDBRANCH  19  20
ENDBRANCH  14  19
ENDBRANCH   9  11
ENDBRANCH   1   9
BRANCH   1  22
ATOM     22  C   UNL     1      -0.573   0.560   1.368  1.00  0.00     0.121 C 
BRANCH  22  23
ATOM     23  C   UNL     1      -0.530  -0.413   2.548  1.00  0.00     0.037 CG0
ATOM     24  G   UNL     1      -1.931  -0.878   2.986  1.00  0.00     0.000 G0
ENDBRANCH  22  23
ENDBRANCH   1  22
TORSDOF 5


