REMARK SMILES C#Cc1ccc(-n2cc(CCCCN(C)[C@@H](C)C#N)n[nH+]2)cc(N)ccc2ccccc12
REMARK SMILES IDX 11 1 10 2 9 3 7 4 8 5 21 6 20 7 6 9 3 10 4 11 32 12 5 13
REMARK SMILES IDX 31 14 27 15 30 16 26 17 28 18 22 19 29 20 25 21 23 22 2 23
REMARK SMILES IDX 1 24 24 25 12 28 13 29 14 30 15 31 16 32 17 33 18 34 19 35
REMARK H PARENT 21 8 24 26 24 27
ROOT
ATOM      1  C   UNL     1      -1.497   2.103  -0.822  1.00  0.00     0.008 C 
ENDROOT
BRANCH   1   2
ATOM      2  C   UNL     1      -1.131   3.114   0.277  1.00  0.00     0.065 C 
BRANCH   2   3
ATOM      3  C   UNL     1       0.080   2.735   1.088  1.00  0.00     0.132 A 
ATOM      4  N   UNL     1       1.851   1.736   1.894  1.00  0.00    -0.104 N 
ATOM      5  C   UNL     1       0.962   1.688   0.885  1.00  0.00     0.190 A 
ATOM      6  N   UNL     1       1.530   2.766   2.662  1.00  0.00    -0.012 N 
ATOM      7  N   UNL     1       0.461   3.396   2.201  1.00  0.00     0.020 NA
ATOM      8  H   UNL     1       2.046   3.056   3.522  1.00  0.00     0.527 HD
BRANCH   4   9
ATOM      9  C   UNL     1       2.918   0.802   2.149  1.00  0.00     0.109 A 
ATOM     10  C   UNL     1       1.188   0.005   4.539  1.00  0.00     0.032 A 
ATOM     11  C   UNL     1       2.533   0.440   4.576  1.00  0.00     0.020 A 
ATOM     12  C   UNL     1       0.600  -0.693   3.445  1.00  0.00    -0.003 A 
ATOM     13  C   UNL     1       3.375   0.597   3.463  1.00  0.00     0.034 A 
ATOM     14  C   UNL     1      -0.746  -0.424   3.109  1.00  0.00     0.010 A 
ATOM     15  C   UNL     1       1.348  -1.560   2.590  1.00  0.00    -0.017 A 
ATOM     16  C   UNL     1      -1.287  -0.874   1.903  1.00  0.00     0.001 A 
ATOM     17  C   UNL     1       2.580  -2.110   2.990  1.00  0.00     0.011 A 
ATOM     18  C   UNL     1       0.804  -1.947   1.350  1.00  0.00     0.009 A 
ATOM     19  C   UNL     1       3.481   0.086   1.075  1.00  0.00     0.058 A 
ATOM     20  C   UNL     1      -0.504  -1.603   1.012  1.00  0.00     0.001 A 
ATOM     21  C   UNL     1       3.729  -2.138   2.184  1.00  0.00     0.026 A 
ATOM     22  C   UNL     1       4.034  -1.212   1.160  1.00  0.00     0.034 A 
BRANCH  10  23
ATOM     23  C   UNL     1       0.388   0.295   5.706  1.00  0.00    -0.070 C 
ATOM     24  C   UNL     1      -0.280   0.539   6.680  1.00  0.00     0.010 C 
ENDBRANCH  10  23
BRANCH  22  25
ATOM     25  N   UNL     1       4.962  -1.614   0.146  1.00  0.00    -0.399 N 
ATOM     26  H   UNL     1       5.382  -2.571   0.151  1.00  0.00     0.156 HD
ATOM     27  H   UNL     1       5.234  -0.961  -0.622  1.00  0.00     0.156 HD
ENDBRANCH  22  25
ENDBRANCH   4   9
ENDBRANCH   2   3
ENDBRANCH   1   2
BRANCH   1  28
ATOM     28  C   UNL     1      -0.611   2.259  -2.071  1.00  0.00     0.016 C 
BRANCH  28  29
ATOM     29  C   UNL     1      -0.795   1.087  -3.043  1.00  0.00     0.085 C 
BRANCH  29  30
ATOM     30  N   UNL     1      -2.201   1.000  -3.507  1.00  0.00    -0.291 NA
ATOM     31  C   UNL     1      -2.417   1.837  -4.707  1.00  0.00     0.106 C 
BRANCH  30  32
ATOM     32  C   UNL     1      -2.642  -0.411  -3.679  1.00  0.00     0.157 C 
ATOM     33  C   UNL     1      -4.159  -0.511  -3.880  1.00  0.00     0.041 C 
BRANCH  32  34
ATOM     34  C   UNL     1      -1.930  -1.098  -4.777  1.00  0.00     0.081 C 
ATOM     35  N   UNL     1      -1.371  -1.635  -5.636  1.00  0.00    -0.197 NA
ENDBRANCH  32  34
ENDBRANCH  30  32
ENDBRANCH  29  30
ENDBRANCH  28  29
ENDBRANCH   1  28
TORSDOF 10


