REMARK SMILES Cc1nnn(/C=C(\O)Nc2cccc(C#N)c2C)c1-c1cc2ccccc2c2ccccc12
REMARK SMILES IDX 7 1 8 2 6 4 5 5 4 6 19 7 3 8 2 9 1 10 20 11 21 12 33 13
REMARK SMILES IDX 22 14 32 15 28 16 23 17 27 18 31 19 29 20 24 21 26 22 30 23
REMARK SMILES IDX 25 24 9 25 10 27 11 28 17 29 12 30 14 31 13 32 18 33 15 34
REMARK SMILES IDX 16 35
REMARK H PARENT 8 3 9 26
ROOT
ATOM      1  C   UNL     1      -2.265  -0.613   0.911  1.00  0.00     0.207 C 
ENDROOT
BRANCH   1   2
ATOM      2  O   UNL     1      -3.216  -0.241   1.863  1.00  0.00    -0.493 OA
ATOM      3  H   UNL     1      -4.209  -0.306   1.680  1.00  0.00     0.295 HD
ENDBRANCH   1   2
BRANCH   1   4
ATOM      4  C   UNL     1      -0.961  -0.610   1.218  1.00  0.00     0.181 C 
BRANCH   4   5
ATOM      5  N   UNL     1      -0.455  -0.230   2.511  1.00  0.00    -0.214 N 
ATOM      6  N   UNL     1      -1.185  -0.059   3.604  1.00  0.00    -0.062 NA
ATOM      7  C   UNL     1       0.840  -0.068   2.852  1.00  0.00     0.097 A 
ATOM      8  N   UNL     1      -0.412   0.210   4.648  1.00  0.00    -0.135 NA
ATOM      9  C   UNL     1       0.860   0.214   4.202  1.00  0.00     0.088 A 
ATOM     10  C   UNL     1       2.059   0.414   5.070  1.00  0.00     0.071 C 
BRANCH   7  11
ATOM     11  C   UNL     1       2.003  -0.219   1.948  1.00  0.00     0.011 A 
ATOM     12  C   UNL     1       2.888  -1.266   2.197  1.00  0.00     0.019 A 
ATOM     13  C   UNL     1       2.223   0.644   0.848  1.00  0.00    -0.008 A 
ATOM     14  C   UNL     1       3.981  -1.503   1.361  1.00  0.00    -0.017 A 
ATOM     15  C   UNL     1       1.368   1.744   0.614  1.00  0.00     0.009 A 
ATOM     16  C   UNL     1       3.329   0.417  -0.027  1.00  0.00    -0.010 A 
ATOM     17  C   UNL     1       4.840  -2.577   1.647  1.00  0.00     0.009 A 
ATOM     18  C   UNL     1       4.217  -0.673   0.232  1.00  0.00    -0.010 A 
ATOM     19  C   UNL     1       1.572   2.588  -0.473  1.00  0.00     0.001 A 
ATOM     20  C   UNL     1       3.506   1.297  -1.124  1.00  0.00     0.009 A 
ATOM     21  C   UNL     1       5.933  -2.844   0.827  1.00  0.00     0.001 A 
ATOM     22  C   UNL     1       5.337  -0.972  -0.586  1.00  0.00     0.009 A 
ATOM     23  C   UNL     1       2.633   2.364  -1.339  1.00  0.00     0.001 A 
ATOM     24  C   UNL     1       6.179  -2.045  -0.286  1.00  0.00     0.001 A 
ENDBRANCH   7  11
ENDBRANCH   4   5
ENDBRANCH   1   4
BRANCH   1  25
ATOM     25  N   UNL     1      -2.678  -1.019  -0.405  1.00  0.00    -0.325 N 
ATOM     26  H   UNL     1      -2.050  -1.654  -0.948  1.00  0.00     0.170 HD
BRANCH  25  27
ATOM     27  C   UNL     1      -3.891  -0.561  -1.030  1.00  0.00     0.045 A 
ATOM     28  C   UNL     1      -4.299   0.774  -0.867  1.00  0.00     0.026 A 
ATOM     29  C   UNL     1      -4.642  -1.424  -1.869  1.00  0.00    -0.010 A 
ATOM     30  C   UNL     1      -5.434   1.256  -1.515  1.00  0.00     0.004 A 
ATOM     31  C   UNL     1      -5.774  -0.910  -2.551  1.00  0.00     0.057 A 
ATOM     32  C   UNL     1      -6.165   0.421  -2.358  1.00  0.00     0.020 A 
ATOM     33  C   UNL     1      -4.208  -2.861  -2.053  1.00  0.00     0.048 C 
BRANCH  31  34
ATOM     34  C   UNL     1      -6.549  -1.723  -3.459  1.00  0.00     0.099 C 
ATOM     35  N   UNL     1      -7.172  -2.375  -4.187  1.00  0.00    -0.192 NA
ENDBRANCH  31  34
ENDBRANCH  25  27
ENDBRANCH   1  25
TORSDOF 7


