MODEL 1
REMARK VINA RESULT:      -6.5      0.000      0.000
REMARK SMILES CC[C@H]1C[C@]1(N)C(=O)Oc1ccccc(O)c(NC2(CF)COC2)c(N=[N+]=[N-])c(Cl)c1Cl
REMARK SMILES IDX 15 1 14 2 13 3 12 4 11 5 10 6 31 7 32 8 29 9 30 10 25 11
REMARK SMILES IDX 17 12 16 13 18 15 19 17 22 18 24 19 23 20 20 21 21 22 26 23
REMARK SMILES IDX 27 24 28 25 9 26 7 27 8 28 5 29 4 30 3 31 6 32 2 35 1 36
REMARK H PARENT 16 14 18 16 6 33 6 34
ROOT
ATOM      1  C   UNL     1      42.784 136.465  16.346  1.00  0.00     0.139 A 
ATOM      2  C   UNL     1      43.787 136.869  17.254  1.00  0.00     0.048 A 
ATOM      3  C   UNL     1      44.271 136.126  18.349  1.00  0.00     0.004 A 
ATOM      4  C   UNL     1      44.134 134.742  18.492  1.00  0.00     0.004 A 
ATOM      5  C   UNL     1      44.052 133.886  17.392  1.00  0.00     0.049 A 
ATOM      6  C   UNL     1      43.167 132.797  17.324  1.00  0.00     0.151 A 
ATOM      7  C   UNL     1      41.927 132.765  18.004  1.00  0.00     0.102 A 
ATOM      8  Cl  UNL     1      41.228 131.163  18.264  1.00  0.00    -0.079 Cl
ATOM      9  C   UNL     1      41.189 133.902  18.439  1.00  0.00     0.075 A 
ATOM     10  Cl  UNL     1      39.910 133.648  19.631  1.00  0.00    -0.082 Cl
ATOM     11  C   UNL     1      41.370 135.219  17.938  1.00  0.00     0.085 A 
ATOM     12  C   UNL     1      41.815 135.467  16.620  1.00  0.00     0.088 A 
ENDROOT
BRANCH   1  13
ATOM     13  O   UNL     1      42.767 137.105  15.106  1.00  0.00    -0.506 OA
ATOM     14  H   UNL     1      42.288 136.715  14.301  1.00  0.00     0.293 HD
ENDBRANCH   1  13
BRANCH  12  15
ATOM     15  N   UNL     1      41.292 134.700  15.520  1.00  0.00    -0.369 N 
ATOM     16  H   UNL     1      41.966 134.104  14.988  1.00  0.00     0.161 HD
BRANCH  15  17
ATOM     17  C   UNL     1      39.937 134.852  14.965  1.00  0.00     0.113 C 
ATOM     18  C   UNL     1      39.939 134.761  13.447  1.00  0.00     0.193 C 
ATOM     19  C   UNL     1      39.503 136.284  14.693  1.00  0.00     0.193 C 
ATOM     20  O   UNL     1      39.518 136.097  13.297  1.00  0.00    -0.376 OA
BRANCH  17  21
ATOM     21  C   UNL     1      38.891 133.957  15.651  1.00  0.00     0.247 C 
ATOM     22  F   UNL     1      37.658 134.041  15.023  1.00  0.00    -0.248 F 
ENDBRANCH  17  21
ENDBRANCH  15  17
ENDBRANCH  12  15
BRANCH  11  23
ATOM     23  N   UNL     1      41.142 136.366  18.775  1.00  0.00    -0.057 NA
BRANCH  23  24
ATOM     24  N   UNL     1      40.134 137.068  18.685  1.00  0.00     0.005 N 
ATOM     25  N   UNL     1      39.127 137.767  18.589  1.00  0.00    -0.003 NA
ENDBRANCH  23  24
ENDBRANCH  11  23
BRANCH   6  26
ATOM     26  O   UNL     1      43.445 131.718  16.470  1.00  0.00    -0.424 OA
BRANCH  26  27
ATOM     27  C   UNL     1      44.557 130.868  16.545  1.00  0.00     0.331 C 
ATOM     28  O   UNL     1      45.152 130.658  17.636  1.00  0.00    -0.250 OA
BRANCH  27  29
ATOM     29  C   UNL     1      45.036 130.193  15.299  1.00  0.00     0.118 C 
ATOM     30  C   UNL     1      44.654 130.821  13.965  1.00  0.00     0.040 C 
ATOM     31  C   UNL     1      46.091 130.933  14.480  1.00  0.00     0.022 C 
BRANCH  29  32
ATOM     32  N   UNL     1      45.102 128.735  15.293  1.00  0.00    -0.316 NA
ATOM     33  H   UNL     1      44.301 128.382  14.721  1.00  0.00     0.119 HD
ATOM     34  H   UNL     1      44.948 128.404  16.273  1.00  0.00     0.119 HD
ENDBRANCH  29  32
BRANCH  31  35
ATOM     35  C   UNL     1      47.118 130.102  13.697  1.00  0.00     0.003 C 
ATOM     36  C   UNL     1      47.166 130.553  12.242  1.00  0.00     0.004 C 
ENDBRANCH  31  35
ENDBRANCH  27  29
ENDBRANCH  26  27
ENDBRANCH   6  26
TORSDOF 11
ENDMDL
MODEL 2
REMARK VINA RESULT:      -6.4      1.562      1.914
REMARK SMILES CC[C@H]1C[C@]1(N)C(=O)Oc1ccccc(O)c(NC2(CF)COC2)c(N=[N+]=[N-])c(Cl)c1Cl
REMARK SMILES IDX 15 1 14 2 13 3 12 4 11 5 10 6 31 7 32 8 29 9 30 10 25 11
REMARK SMILES IDX 17 12 16 13 18 15 19 17 22 18 24 19 23 20 20 21 21 22 26 23
REMARK SMILES IDX 27 24 28 25 9 26 7 27 8 28 5 29 4 30 3 31 6 32 2 35 1 36
REMARK H PARENT 16 14 18 16 6 33 6 34
ROOT
ATOM      1  C   UNL     1      41.711 136.297  16.367  1.00  0.00     0.139 A 
ATOM      2  C   UNL     1      42.876 137.061  16.604  1.00  0.00     0.048 A 
ATOM      3  C   UNL     1      43.942 136.715  17.458  1.00  0.00     0.004 A 
ATOM      4  C   UNL     1      44.216 135.418  17.901  1.00  0.00     0.004 A 
ATOM      5  C   UNL     1      43.882 134.290  17.148  1.00  0.00     0.049 A 
ATOM      6  C   UNL     1      43.343 133.119  17.707  1.00  0.00     0.151 A 
ATOM      7  C   UNL     1      42.558 133.115  18.884  1.00  0.00     0.102 A 
ATOM      8  Cl  UNL     1      42.442 131.570  19.732  1.00  0.00    -0.079 Cl
ATOM      9  C   UNL     1      41.824 134.223  19.396  1.00  0.00     0.075 A 
ATOM     10  Cl  UNL     1      41.276 134.142  21.074  1.00  0.00    -0.082 Cl
ATOM     11  C   UNL     1      41.453 135.363  18.636  1.00  0.00     0.085 A 
ATOM     12  C   UNL     1      41.222 135.296  17.244  1.00  0.00     0.088 A 
ENDROOT
BRANCH   1  13
ATOM     13  O   UNL     1      41.016 136.565  15.187  1.00  0.00    -0.506 OA
ATOM     14  H   UNL     1      40.054 136.885  15.185  1.00  0.00     0.293 HD
ENDBRANCH   1  13
BRANCH  12  15
ATOM     15  N   UNL     1      40.483 134.197  16.683  1.00  0.00    -0.369 N 
ATOM     16  H   UNL     1      41.026 133.466  16.168  1.00  0.00     0.161 HD
BRANCH  15  17
ATOM     17  C   UNL     1      39.014 134.132  16.599  1.00  0.00     0.113 C 
ATOM     18  C   UNL     1      38.359 135.315  17.293  1.00  0.00     0.193 C 
ATOM     19  C   UNL     1      38.335 133.344  17.708  1.00  0.00     0.193 C 
ATOM     20  O   UNL     1      37.756 134.499  18.269  1.00  0.00    -0.376 OA
BRANCH  17  21
ATOM     21  C   UNL     1      38.494 133.865  15.176  1.00  0.00     0.247 C 
ATOM     22  F   UNL     1      37.617 134.854  14.760  1.00  0.00    -0.248 F 
ENDBRANCH  17  21
ENDBRANCH  15  17
ENDBRANCH  12  15
BRANCH  11  23
ATOM     23  N   UNL     1      41.334 136.657  19.254  1.00  0.00    -0.057 NA
BRANCH  23  24
ATOM     24  N   UNL     1      40.256 137.120  19.630  1.00  0.00     0.005 N 
ATOM     25  N   UNL     1      39.183 137.589  20.006  1.00  0.00    -0.003 NA
ENDBRANCH  23  24
ENDBRANCH  11  23
BRANCH   6  26
ATOM     26  O   UNL     1      43.482 131.893  17.038  1.00  0.00    -0.424 OA
BRANCH  26  27
ATOM     27  C   UNL     1      44.688 131.239  16.750  1.00  0.00     0.331 C 
ATOM     28  O   UNL     1      45.386 130.715  17.660  1.00  0.00    -0.250 OA
BRANCH  27  29
ATOM     29  C   UNL     1      45.145 131.160  15.328  1.00  0.00     0.118 C 
ATOM     30  C   UNL     1      46.337 132.016  14.921  1.00  0.00     0.040 C 
ATOM     31  C   UNL     1      46.502 130.503  15.079  1.00  0.00     0.022 C 
BRANCH  29  32
ATOM     32  N   UNL     1      44.132 130.988  14.291  1.00  0.00    -0.316 NA
ATOM     33  H   UNL     1      44.114 129.977  14.027  1.00  0.00     0.119 HD
ATOM     34  H   UNL     1      44.446 131.520  13.447  1.00  0.00     0.119 HD
ENDBRANCH  29  32
BRANCH  31  35
ATOM     35  C   UNL     1      46.710 129.741  13.762  1.00  0.00     0.003 C 
ATOM     36  C   UNL     1      48.174 129.353  13.602  1.00  0.00     0.004 C 
ENDBRANCH  31  35
ENDBRANCH  27  29
ENDBRANCH  26  27
ENDBRANCH   6  26
TORSDOF 11
ENDMDL
MODEL 3
REMARK VINA RESULT:      -6.2      3.555      4.784
REMARK SMILES CC[C@H]1C[C@]1(N)C(=O)Oc1ccccc(O)c(NC2(CF)COC2)c(N=[N+]=[N-])c(Cl)c1Cl
REMARK SMILES IDX 15 1 14 2 13 3 12 4 11 5 10 6 31 7 32 8 29 9 30 10 25 11
REMARK SMILES IDX 17 12 16 13 18 15 19 17 22 18 24 19 23 20 20 21 21 22 26 23
REMARK SMILES IDX 27 24 28 25 9 26 7 27 8 28 5 29 4 30 3 31 6 32 2 35 1 36
REMARK H PARENT 16 14 18 16 6 33 6 34
ROOT
ATOM      1  C   UNL     1      45.154 134.029  20.804  1.00  0.00     0.139 A 
ATOM      2  C   UNL     1      45.205 132.719  21.331  1.00  0.00     0.048 A 
ATOM      3  C   UNL     1      44.453 131.612  20.891  1.00  0.00     0.004 A 
ATOM      4  C   UNL     1      43.837 131.518  19.639  1.00  0.00     0.004 A 
ATOM      5  C   UNL     1      44.338 132.175  18.513  1.00  0.00     0.049 A 
ATOM      6  C   UNL     1      43.523 132.825  17.572  1.00  0.00     0.151 A 
ATOM      7  C   UNL     1      42.270 133.395  17.897  1.00  0.00     0.102 A 
ATOM      8  Cl  UNL     1      41.165 133.658  16.544  1.00  0.00    -0.079 Cl
ATOM      9  C   UNL     1      41.860 133.815  19.194  1.00  0.00     0.075 A 
ATOM     10  Cl  UNL     1      40.135 134.088  19.465  1.00  0.00    -0.082 Cl
ATOM     11  C   UNL     1      42.746 134.084  20.270  1.00  0.00     0.085 A 
ATOM     12  C   UNL     1      44.064 134.547  20.060  1.00  0.00     0.088 A 
ENDROOT
BRANCH   1  13
ATOM     13  O   UNL     1      46.261 134.844  21.045  1.00  0.00    -0.506 OA
ATOM     14  H   UNL     1      47.083 134.831  20.451  1.00  0.00     0.293 HD
ENDBRANCH   1  13
BRANCH  12  15
ATOM     15  N   UNL     1      44.329 135.561  19.074  1.00  0.00    -0.369 N 
ATOM     16  H   UNL     1      44.753 135.251  18.170  1.00  0.00     0.161 HD
BRANCH  15  17
ATOM     17  C   UNL     1      44.244 137.010  19.320  1.00  0.00     0.113 C 
ATOM     18  C   UNL     1      43.888 137.315  20.765  1.00  0.00     0.193 C 
ATOM     19  C   UNL     1      42.884 137.636  19.048  1.00  0.00     0.193 C 
ATOM     20  O   UNL     1      42.653 137.893  20.413  1.00  0.00    -0.376 OA
BRANCH  17  21
ATOM     21  C   UNL     1      45.456 137.793  18.787  1.00  0.00     0.247 C 
ATOM     22  F   UNL     1      46.483 137.837  19.717  1.00  0.00    -0.248 F 
ENDBRANCH  17  21
ENDBRANCH  15  17
ENDBRANCH  12  15
BRANCH  11  23
ATOM     23  N   UNL     1      42.345 133.857  21.633  1.00  0.00    -0.057 NA
BRANCH  23  24
ATOM     24  N   UNL     1      42.189 134.771  22.444  1.00  0.00     0.005 N 
ATOM     25  N   UNL     1      42.028 135.680  23.256  1.00  0.00    -0.003 NA
ENDBRANCH  23  24
ENDBRANCH  11  23
BRANCH   6  26
ATOM     26  O   UNL     1      43.987 133.029  16.262  1.00  0.00    -0.424 OA
BRANCH  26  27
ATOM     27  C   UNL     1      44.043 132.068  15.245  1.00  0.00     0.331 C 
ATOM     28  O   UNL     1      43.113 131.948  14.402  1.00  0.00    -0.250 OA
BRANCH  27  29
ATOM     29  C   UNL     1      45.239 131.174  15.159  1.00  0.00     0.118 C 
ATOM     30  C   UNL     1      45.040 129.698  15.476  1.00  0.00     0.040 C 
ATOM     31  C   UNL     1      45.248 130.147  14.028  1.00  0.00     0.022 C 
BRANCH  29  32
ATOM     32  N   UNL     1      46.532 131.719  15.563  1.00  0.00    -0.316 NA
ATOM     33  H   UNL     1      46.434 132.758  15.624  1.00  0.00     0.119 HD
ATOM     34  H   UNL     1      47.215 131.519  14.797  1.00  0.00     0.119 HD
ENDBRANCH  29  32
BRANCH  31  35
ATOM     35  C   UNL     1      46.601 129.747  13.421  1.00  0.00     0.003 C 
ATOM     36  C   UNL     1      46.979 130.702  12.295  1.00  0.00     0.004 C 
ENDBRANCH  31  35
ENDBRANCH  27  29
ENDBRANCH  26  27
ENDBRANCH   6  26
TORSDOF 11
ENDMDL
MODEL 4
REMARK VINA RESULT:      -6.1      2.152      2.895
REMARK SMILES CC[C@H]1C[C@]1(N)C(=O)Oc1ccccc(O)c(NC2(CF)COC2)c(N=[N+]=[N-])c(Cl)c1Cl
REMARK SMILES IDX 15 1 14 2 13 3 12 4 11 5 10 6 31 7 32 8 29 9 30 10 25 11
REMARK SMILES IDX 17 12 16 13 18 15 19 17 22 18 24 19 23 20 20 21 21 22 26 23
REMARK SMILES IDX 27 24 28 25 9 26 7 27 8 28 5 29 4 30 3 31 6 32 2 35 1 36
REMARK H PARENT 16 14 18 16 6 33 6 34
ROOT
ATOM      1  C   UNL     1      44.021 135.842  18.916  1.00  0.00     0.139 A 
ATOM      2  C   UNL     1      44.394 135.336  20.181  1.00  0.00     0.048 A 
ATOM      3  C   UNL     1      43.748 134.307  20.894  1.00  0.00     0.004 A 
ATOM      4  C   UNL     1      42.890 133.362  20.321  1.00  0.00     0.004 A 
ATOM      5  C   UNL     1      43.016 132.955  18.992  1.00  0.00     0.049 A 
ATOM      6  C   UNL     1      41.919 132.754  18.138  1.00  0.00     0.151 A 
ATOM      7  C   UNL     1      40.696 133.452  18.274  1.00  0.00     0.102 A 
ATOM      8  Cl  UNL     1      39.289 132.705  17.511  1.00  0.00    -0.079 Cl
ATOM      9  C   UNL     1      40.526 134.711  18.917  1.00  0.00     0.075 A 
ATOM     10  Cl  UNL     1      38.884 135.196  19.357  1.00  0.00    -0.082 Cl
ATOM     11  C   UNL     1      41.576 135.630  19.178  1.00  0.00     0.085 A 
ATOM     12  C   UNL     1      42.723 135.713  18.358  1.00  0.00     0.088 A 
ENDROOT
BRANCH   1  13
ATOM     13  O   UNL     1      45.009 136.507  18.190  1.00  0.00    -0.506 OA
ATOM     14  H   UNL     1      44.979 137.506  18.023  1.00  0.00     0.293 HD
ENDBRANCH   1  13
BRANCH  12  15
ATOM     15  N   UNL     1      42.597 135.663  16.925  1.00  0.00    -0.369 N 
ATOM     16  H   UNL     1      43.132 134.918  16.423  1.00  0.00     0.161 HD
BRANCH  15  17
ATOM     17  C   UNL     1      41.946 136.698  16.106  1.00  0.00     0.113 C 
ATOM     18  C   UNL     1      42.894 137.270  15.065  1.00  0.00     0.193 C 
ATOM     19  C   UNL     1      42.012 138.109  16.670  1.00  0.00     0.193 C 
ATOM     20  O   UNL     1      42.878 138.551  15.651  1.00  0.00    -0.376 OA
BRANCH  17  21
ATOM     21  C   UNL     1      40.579 136.267  15.549  1.00  0.00     0.247 C 
ATOM     22  F   UNL     1      40.620 136.094  14.174  1.00  0.00    -0.248 F 
ENDBRANCH  17  21
ENDBRANCH  15  17
ENDBRANCH  12  15
BRANCH  11  23
ATOM     23  N   UNL     1      41.532 136.497  20.325  1.00  0.00    -0.057 NA
BRANCH  23  24
ATOM     24  N   UNL     1      41.030 136.158  21.398  1.00  0.00     0.005 N 
ATOM     25  N   UNL     1      40.523 135.819  22.466  1.00  0.00    -0.003 NA
ENDBRANCH  23  24
ENDBRANCH  11  23
BRANCH   6  26
ATOM     26  O   UNL     1      42.040 131.906  17.025  1.00  0.00    -0.424 OA
BRANCH  26  27
ATOM     27  C   UNL     1      42.675 132.214  15.815  1.00  0.00     0.331 C 
ATOM     28  O   UNL     1      42.016 132.533  14.788  1.00  0.00    -0.250 OA
BRANCH  27  29
ATOM     29  C   UNL     1      44.169 132.170  15.751  1.00  0.00     0.118 C 
ATOM     30  C   UNL     1      44.869 130.991  16.415  1.00  0.00     0.040 C 
ATOM     31  C   UNL     1      44.786 131.070  14.889  1.00  0.00     0.022 C 
BRANCH  29  32
ATOM     32  N   UNL     1      44.896 133.434  15.824  1.00  0.00    -0.316 NA
ATOM     33  H   UNL     1      45.883 133.251  15.533  1.00  0.00     0.119 HD
ATOM     34  H   UNL     1      44.921 133.729  16.827  1.00  0.00     0.119 HD
ENDBRANCH  29  32
BRANCH  31  35
ATOM     35  C   UNL     1      46.123 131.359  14.190  1.00  0.00     0.003 C 
ATOM     36  C   UNL     1      46.348 130.372  13.051  1.00  0.00     0.004 C 
ENDBRANCH  31  35
ENDBRANCH  27  29
ENDBRANCH  26  27
ENDBRANCH   6  26
TORSDOF 11
ENDMDL
MODEL 5
REMARK VINA RESULT:      -6.1      1.874      2.376
REMARK SMILES CC[C@H]1C[C@]1(N)C(=O)Oc1ccccc(O)c(NC2(CF)COC2)c(N=[N+]=[N-])c(Cl)c1Cl
REMARK SMILES IDX 15 1 14 2 13 3 12 4 11 5 10 6 31 7 32 8 29 9 30 10 25 11
REMARK SMILES IDX 17 12 16 13 18 15 19 17 22 18 24 19 23 20 20 21 21 22 26 23
REMARK SMILES IDX 27 24 28 25 9 26 7 27 8 28 5 29 4 30 3 31 6 32 2 35 1 36
REMARK H PARENT 16 14 18 16 6 33 6 34
ROOT
ATOM      1  C   UNL     1      41.375 137.000  15.497  1.00  0.00     0.139 A 
ATOM      2  C   UNL     1      42.330 138.007  15.758  1.00  0.00     0.048 A 
ATOM      3  C   UNL     1      43.154 138.101  16.896  1.00  0.00     0.004 A 
ATOM      4  C   UNL     1      43.449 137.037  17.754  1.00  0.00     0.004 A 
ATOM      5  C   UNL     1      43.471 135.712  17.313  1.00  0.00     0.049 A 
ATOM      6  C   UNL     1      42.942 134.642  18.055  1.00  0.00     0.151 A 
ATOM      7  C   UNL     1      41.871 134.788  18.967  1.00  0.00     0.102 A 
ATOM      8  Cl  UNL     1      41.713 133.518  20.184  1.00  0.00    -0.079 Cl
ATOM      9  C   UNL     1      40.899 135.828  18.946  1.00  0.00     0.075 A 
ATOM     10  Cl  UNL     1      39.925 136.075  20.400  1.00  0.00    -0.082 Cl
ATOM     11  C   UNL     1      40.618 136.644  17.818  1.00  0.00     0.085 A 
ATOM     12  C   UNL     1      40.786 136.181  16.495  1.00  0.00     0.088 A 
ENDROOT
BRANCH   1  13
ATOM     13  O   UNL     1      41.003 136.819  14.164  1.00  0.00    -0.506 OA
ATOM     14  H   UNL     1      40.197 136.265  13.897  1.00  0.00     0.293 HD
ENDBRANCH   1  13
BRANCH  12  15
ATOM     15  N   UNL     1      40.365 134.854  16.130  1.00  0.00    -0.369 N 
ATOM     16  H   UNL     1      41.090 134.214  15.732  1.00  0.00     0.161 HD
BRANCH  15  17
ATOM     17  C   UNL     1      38.964 134.405  16.080  1.00  0.00     0.113 C 
ATOM     18  C   UNL     1      38.594 133.871  14.706  1.00  0.00     0.193 C 
ATOM     19  C   UNL     1      37.949 135.483  15.729  1.00  0.00     0.193 C 
ATOM     20  O   UNL     1      37.660 134.900  14.480  1.00  0.00    -0.376 OA
BRANCH  17  21
ATOM     21  C   UNL     1      38.577 133.479  17.246  1.00  0.00     0.247 C 
ATOM     22  F   UNL     1      37.949 134.178  18.265  1.00  0.00    -0.248 F 
ENDBRANCH  17  21
ENDBRANCH  15  17
ENDBRANCH  12  15
BRANCH  11  23
ATOM     23  N   UNL     1      40.181 138.005  17.981  1.00  0.00    -0.057 NA
BRANCH  23  24
ATOM     24  N   UNL     1      39.016 138.360  17.791  1.00  0.00     0.005 N 
ATOM     25  N   UNL     1      37.853 138.711  17.606  1.00  0.00    -0.003 NA
ENDBRANCH  23  24
ENDBRANCH  11  23
BRANCH   6  26
ATOM     26  O   UNL     1      43.405 133.335  17.829  1.00  0.00    -0.424 OA
BRANCH  26  27
ATOM     27  C   UNL     1      42.972 132.467  16.819  1.00  0.00     0.331 C 
ATOM     28  O   UNL     1      41.795 132.015  16.799  1.00  0.00    -0.250 OA
BRANCH  27  29
ATOM     29  C   UNL     1      43.931 132.080  15.739  1.00  0.00     0.118 C 
ATOM     30  C   UNL     1      45.329 132.682  15.788  1.00  0.00     0.040 C 
ATOM     31  C   UNL     1      45.117 131.211  16.154  1.00  0.00     0.022 C 
BRANCH  29  32
ATOM     32  N   UNL     1      43.401 131.870  14.395  1.00  0.00    -0.316 NA
ATOM     33  H   UNL     1      44.213 131.733  13.750  1.00  0.00     0.119 HD
ATOM     34  H   UNL     1      42.921 132.751  14.100  1.00  0.00     0.119 HD
ENDBRANCH  29  32
BRANCH  31  35
ATOM     35  C   UNL     1      45.678 130.210  15.133  1.00  0.00     0.003 C 
ATOM     36  C   UNL     1      45.156 128.809  15.425  1.00  0.00     0.004 C 
ENDBRANCH  31  35
ENDBRANCH  27  29
ENDBRANCH  26  27
ENDBRANCH   6  26
TORSDOF 11
ENDMDL
MODEL 6
REMARK VINA RESULT:      -6.1      1.672      1.829
REMARK SMILES CC[C@H]1C[C@]1(N)C(=O)Oc1ccccc(O)c(NC2(CF)COC2)c(N=[N+]=[N-])c(Cl)c1Cl
REMARK SMILES IDX 15 1 14 2 13 3 12 4 11 5 10 6 31 7 32 8 29 9 30 10 25 11
REMARK SMILES IDX 17 12 16 13 18 15 19 17 22 18 24 19 23 20 20 21 21 22 26 23
REMARK SMILES IDX 27 24 28 25 9 26 7 27 8 28 5 29 4 30 3 31 6 32 2 35 1 36
REMARK H PARENT 16 14 18 16 6 33 6 34
ROOT
ATOM      1  C   UNL     1      41.889 136.867  16.907  1.00  0.00     0.139 A 
ATOM      2  C   UNL     1      42.995 137.653  17.299  1.00  0.00     0.048 A 
ATOM      3  C   UNL     1      44.060 137.243  18.124  1.00  0.00     0.004 A 
ATOM      4  C   UNL     1      44.408 135.911  18.368  1.00  0.00     0.004 A 
ATOM      5  C   UNL     1      44.167 134.898  17.438  1.00  0.00     0.049 A 
ATOM      6  C   UNL     1      43.693 133.623  17.789  1.00  0.00     0.151 A 
ATOM      7  C   UNL     1      42.882 133.385  18.924  1.00  0.00     0.102 A 
ATOM      8  Cl  UNL     1      42.848 131.722  19.517  1.00  0.00    -0.079 Cl
ATOM      9  C   UNL     1      42.066 134.351  19.578  1.00  0.00     0.075 A 
ATOM     10  Cl  UNL     1      41.484 133.974  21.203  1.00  0.00    -0.082 Cl
ATOM     11  C   UNL     1      41.639 135.573  18.992  1.00  0.00     0.085 A 
ATOM     12  C   UNL     1      41.445 135.712  17.600  1.00  0.00     0.088 A 
ENDROOT
BRANCH   1  13
ATOM     13  O   UNL     1      41.206 137.274  15.760  1.00  0.00    -0.506 OA
ATOM     14  H   UNL     1      40.857 138.219  15.644  1.00  0.00     0.293 HD
ENDBRANCH   1  13
BRANCH  12  15
ATOM     15  N   UNL     1      40.793 134.672  16.850  1.00  0.00    -0.369 N 
ATOM     16  H   UNL     1      41.394 134.073  16.238  1.00  0.00     0.161 HD
BRANCH  15  17
ATOM     17  C   UNL     1      39.334 134.524  16.719  1.00  0.00     0.113 C 
ATOM     18  C   UNL     1      38.867 134.795  15.298  1.00  0.00     0.193 C 
ATOM     19  C   UNL     1      38.525 135.775  17.025  1.00  0.00     0.193 C 
ATOM     20  O   UNL     1      38.130 135.932  15.682  1.00  0.00    -0.376 OA
BRANCH  17  21
ATOM     21  C   UNL     1      38.795 133.217  17.325  1.00  0.00     0.247 C 
ATOM     22  F   UNL     1      39.785 132.523  18.003  1.00  0.00    -0.248 F 
ENDBRANCH  17  21
ENDBRANCH  15  17
ENDBRANCH  12  15
BRANCH  11  23
ATOM     23  N   UNL     1      41.421 136.743  19.800  1.00  0.00    -0.057 NA
BRANCH  23  24
ATOM     24  N   UNL     1      40.300 137.209  20.011  1.00  0.00     0.005 N 
ATOM     25  N   UNL     1      39.180 137.670  20.226  1.00  0.00    -0.003 NA
ENDBRANCH  23  24
ENDBRANCH  11  23
BRANCH   6  26
ATOM     26  O   UNL     1      43.928 132.528  16.942  1.00  0.00    -0.424 OA
BRANCH  26  27
ATOM     27  C   UNL     1      45.031 132.357  16.097  1.00  0.00     0.331 C 
ATOM     28  O   UNL     1      45.516 133.322  15.445  1.00  0.00    -0.250 OA
BRANCH  27  29
ATOM     29  C   UNL     1      45.648 131.000  15.977  1.00  0.00     0.118 C 
ATOM     30  C   UNL     1      44.974 129.999  15.047  1.00  0.00     0.040 C 
ATOM     31  C   UNL     1      46.293 130.656  14.635  1.00  0.00     0.022 C 
BRANCH  29  32
ATOM     32  N   UNL     1      46.256 130.416  17.168  1.00  0.00    -0.316 NA
ATOM     33  H   UNL     1      45.798 130.847  18.003  1.00  0.00     0.119 HD
ATOM     34  H   UNL     1      47.261 130.703  17.186  1.00  0.00     0.119 HD
ENDBRANCH  29  32
BRANCH  31  35
ATOM     35  C   UNL     1      47.505 129.712  14.633  1.00  0.00     0.003 C 
ATOM     36  C   UNL     1      48.015 129.510  13.212  1.00  0.00     0.004 C 
ENDBRANCH  31  35
ENDBRANCH  27  29
ENDBRANCH  26  27
ENDBRANCH   6  26
TORSDOF 11
ENDMDL
MODEL 7
REMARK VINA RESULT:      -6.0      3.126      4.716
REMARK SMILES CC[C@H]1C[C@]1(N)C(=O)Oc1ccccc(O)c(NC2(CF)COC2)c(N=[N+]=[N-])c(Cl)c1Cl
REMARK SMILES IDX 15 1 14 2 13 3 12 4 11 5 10 6 31 7 32 8 29 9 30 10 25 11
REMARK SMILES IDX 17 12 16 13 18 15 19 17 22 18 24 19 23 20 20 21 21 22 26 23
REMARK SMILES IDX 27 24 28 25 9 26 7 27 8 28 5 29 4 30 3 31 6 32 2 35 1 36
REMARK H PARENT 16 14 18 16 6 33 6 34
ROOT
ATOM      1  C   UNL     1      40.935 134.136  19.005  1.00  0.00     0.139 A 
ATOM      2  C   UNL     1      39.744 133.728  18.364  1.00  0.00     0.048 A 
ATOM      3  C   UNL     1      39.477 133.788  16.982  1.00  0.00     0.004 A 
ATOM      4  C   UNL     1      40.456 133.886  15.988  1.00  0.00     0.004 A 
ATOM      5  C   UNL     1      41.742 133.368  16.157  1.00  0.00     0.049 A 
ATOM      6  C   UNL     1      42.905 134.036  15.739  1.00  0.00     0.151 A 
ATOM      7  C   UNL     1      43.001 135.445  15.660  1.00  0.00     0.102 A 
ATOM      8  Cl  UNL     1      44.281 136.076  14.618  1.00  0.00    -0.079 Cl
ATOM      9  C   UNL     1      42.198 136.374  16.381  1.00  0.00     0.075 A 
ATOM     10  Cl  UNL     1      42.177 138.051  15.824  1.00  0.00    -0.082 Cl
ATOM     11  C   UNL     1      41.458 136.059  17.552  1.00  0.00     0.085 A 
ATOM     12  C   UNL     1      41.867 135.049  18.450  1.00  0.00     0.088 A 
ENDROOT
BRANCH   1  13
ATOM     13  O   UNL     1      41.186 133.591  20.265  1.00  0.00    -0.506 OA
ATOM     14  H   UNL     1      41.291 134.167  21.093  1.00  0.00     0.293 HD
ENDBRANCH   1  13
BRANCH  12  15
ATOM     15  N   UNL     1      43.252 134.922  18.819  1.00  0.00    -0.369 N 
ATOM     16  H   UNL     1      43.737 134.033  18.560  1.00  0.00     0.161 HD
BRANCH  15  17
ATOM     17  C   UNL     1      43.969 135.851  19.708  1.00  0.00     0.113 C 
ATOM     18  C   UNL     1      44.663 135.119  20.845  1.00  0.00     0.193 C 
ATOM     19  C   UNL     1      43.140 136.438  20.840  1.00  0.00     0.193 C 
ATOM     20  O   UNL     1      43.855 135.728  21.824  1.00  0.00    -0.376 OA
BRANCH  17  21
ATOM     21  C   UNL     1      44.868 136.847  18.954  1.00  0.00     0.247 C 
ATOM     22  F   UNL     1      45.213 137.927  19.752  1.00  0.00    -0.248 F 
ENDBRANCH  17  21
ENDBRANCH  15  17
ENDBRANCH  12  15
BRANCH  11  23
ATOM     23  N   UNL     1      40.227 136.739  17.852  1.00  0.00    -0.057 NA
BRANCH  23  24
ATOM     24  N   UNL     1      40.118 137.547  18.776  1.00  0.00     0.005 N 
ATOM     25  N   UNL     1      40.007 138.350  19.701  1.00  0.00    -0.003 NA
ENDBRANCH  23  24
ENDBRANCH  11  23
BRANCH   6  26
ATOM     26  O   UNL     1      44.078 133.309  15.481  1.00  0.00    -0.424 OA
BRANCH  26  27
ATOM     27  C   UNL     1      44.740 132.459  16.377  1.00  0.00     0.331 C 
ATOM     28  O   UNL     1      44.729 132.676  17.619  1.00  0.00    -0.250 OA
BRANCH  27  29
ATOM     29  C   UNL     1      45.466 131.267  15.840  1.00  0.00     0.118 C 
ATOM     30  C   UNL     1      44.716 130.362  14.871  1.00  0.00     0.040 C 
ATOM     31  C   UNL     1      45.818 131.290  14.353  1.00  0.00     0.022 C 
BRANCH  29  32
ATOM     32  N   UNL     1      46.398 130.577  16.726  1.00  0.00    -0.316 NA
ATOM     33  H   UNL     1      47.342 130.605  16.278  1.00  0.00     0.119 HD
ATOM     34  H   UNL     1      46.110 129.572  16.772  1.00  0.00     0.119 HD
ENDBRANCH  29  32
BRANCH  31  35
ATOM     35  C   UNL     1      47.097 130.573  13.899  1.00  0.00     0.003 C 
ATOM     36  C   UNL     1      47.251 130.674  12.386  1.00  0.00     0.004 C 
ENDBRANCH  31  35
ENDBRANCH  27  29
ENDBRANCH  26  27
ENDBRANCH   6  26
TORSDOF 11
ENDMDL
MODEL 8
REMARK VINA RESULT:      -5.9      1.717      2.167
REMARK SMILES CC[C@H]1C[C@]1(N)C(=O)Oc1ccccc(O)c(NC2(CF)COC2)c(N=[N+]=[N-])c(Cl)c1Cl
REMARK SMILES IDX 15 1 14 2 13 3 12 4 11 5 10 6 31 7 32 8 29 9 30 10 25 11
REMARK SMILES IDX 17 12 16 13 18 15 19 17 22 18 24 19 23 20 20 21 21 22 26 23
REMARK SMILES IDX 27 24 28 25 9 26 7 27 8 28 5 29 4 30 3 31 6 32 2 35 1 36
REMARK H PARENT 16 14 18 16 6 33 6 34
ROOT
ATOM      1  C   UNL     1      42.088 137.365  15.901  1.00  0.00     0.139 A 
ATOM      2  C   UNL     1      43.052 138.180  16.535  1.00  0.00     0.048 A 
ATOM      3  C   UNL     1      43.690 137.917  17.763  1.00  0.00     0.004 A 
ATOM      4  C   UNL     1      43.778 136.655  18.359  1.00  0.00     0.004 A 
ATOM      5  C   UNL     1      43.785 135.478  17.607  1.00  0.00     0.049 A 
ATOM      6  C   UNL     1      43.079 134.321  17.977  1.00  0.00     0.151 A 
ATOM      7  C   UNL     1      41.889 134.352  18.740  1.00  0.00     0.102 A 
ATOM      8  Cl  UNL     1      41.459 132.851  19.567  1.00  0.00    -0.079 Cl
ATOM      9  C   UNL     1      41.000 135.460  18.848  1.00  0.00     0.075 A 
ATOM     10  Cl  UNL     1      39.827 135.450  20.169  1.00  0.00    -0.082 Cl
ATOM     11  C   UNL     1      40.952 136.545  17.932  1.00  0.00     0.085 A 
ATOM     12  C   UNL     1      41.298 136.396  16.571  1.00  0.00     0.088 A 
ENDROOT
BRANCH   1  13
ATOM     13  O   UNL     1      41.920 137.545  14.528  1.00  0.00    -0.506 OA
ATOM     14  H   UNL     1      41.433 138.347  14.142  1.00  0.00     0.293 HD
ENDBRANCH   1  13
BRANCH  12  15
ATOM     15  N   UNL     1      40.857 135.243  15.831  1.00  0.00    -0.369 N 
ATOM     16  H   UNL     1      41.554 134.481  15.671  1.00  0.00     0.161 HD
BRANCH  15  17
ATOM     17  C   UNL     1      39.575 135.151  15.113  1.00  0.00     0.113 C 
ATOM     18  C   UNL     1      38.820 133.881  15.472  1.00  0.00     0.193 C 
ATOM     19  C   UNL     1      39.645 134.499  13.741  1.00  0.00     0.193 C 
ATOM     20  O   UNL     1      38.921 133.368  14.165  1.00  0.00    -0.376 OA
BRANCH  17  21
ATOM     21  C   UNL     1      38.732 136.435  15.199  1.00  0.00     0.247 C 
ATOM     22  F   UNL     1      38.733 137.127  13.998  1.00  0.00    -0.248 F 
ENDBRANCH  17  21
ENDBRANCH  15  17
ENDBRANCH  12  15
BRANCH  11  23
ATOM     23  N   UNL     1      40.583 137.864  18.370  1.00  0.00    -0.057 NA
BRANCH  23  24
ATOM     24  N   UNL     1      39.455 138.332  18.201  1.00  0.00     0.005 N 
ATOM     25  N   UNL     1      38.333 138.805  18.031  1.00  0.00    -0.003 NA
ENDBRANCH  23  24
ENDBRANCH  11  23
BRANCH   6  26
ATOM     26  O   UNL     1      43.487 133.066  17.497  1.00  0.00    -0.424 OA
BRANCH  26  27
ATOM     27  C   UNL     1      43.201 132.529  16.235  1.00  0.00     0.331 C 
ATOM     28  O   UNL     1      42.030 132.540  15.766  1.00  0.00    -0.250 OA
BRANCH  27  29
ATOM     29  C   UNL     1      44.315 131.941  15.430  1.00  0.00     0.118 C 
ATOM     30  C   UNL     1      45.682 132.607  15.526  1.00  0.00     0.040 C 
ATOM     31  C   UNL     1      45.439 131.259  16.209  1.00  0.00     0.022 C 
BRANCH  29  32
ATOM     32  N   UNL     1      43.995 131.387  14.118  1.00  0.00    -0.316 NA
ATOM     33  H   UNL     1      44.895 131.218  13.615  1.00  0.00     0.119 HD
ATOM     34  H   UNL     1      43.476 132.119  13.581  1.00  0.00     0.119 HD
ENDBRANCH  29  32
BRANCH  31  35
ATOM     35  C   UNL     1      46.159 130.071  15.556  1.00  0.00     0.003 C 
ATOM     36  C   UNL     1      45.283 128.825  15.613  1.00  0.00     0.004 C 
ENDBRANCH  31  35
ENDBRANCH  27  29
ENDBRANCH  26  27
ENDBRANCH   6  26
TORSDOF 11
ENDMDL
MODEL 9
REMARK VINA RESULT:      -5.8      2.093      2.482
REMARK SMILES CC[C@H]1C[C@]1(N)C(=O)Oc1ccccc(O)c(NC2(CF)COC2)c(N=[N+]=[N-])c(Cl)c1Cl
REMARK SMILES IDX 15 1 14 2 13 3 12 4 11 5 10 6 31 7 32 8 29 9 30 10 25 11
REMARK SMILES IDX 17 12 16 13 18 15 19 17 22 18 24 19 23 20 20 21 21 22 26 23
REMARK SMILES IDX 27 24 28 25 9 26 7 27 8 28 5 29 4 30 3 31 6 32 2 35 1 36
REMARK H PARENT 16 14 18 16 6 33 6 34
ROOT
ATOM      1  C   UNL     1      42.718 136.588  18.057  1.00  0.00     0.139 A 
ATOM      2  C   UNL     1      43.713 137.326  18.735  1.00  0.00     0.048 A 
ATOM      3  C   UNL     1      44.494 136.878  19.819  1.00  0.00     0.004 A 
ATOM      4  C   UNL     1      44.696 135.534  20.149  1.00  0.00     0.004 A 
ATOM      5  C   UNL     1      44.668 134.521  19.189  1.00  0.00     0.049 A 
ATOM      6  C   UNL     1      44.054 133.275  19.398  1.00  0.00     0.151 A 
ATOM      7  C   UNL     1      42.955 133.091  20.270  1.00  0.00     0.102 A 
ATOM      8  Cl  UNL     1      42.680 131.439  20.832  1.00  0.00    -0.079 Cl
ATOM      9  C   UNL     1      42.040 134.104  20.677  1.00  0.00     0.075 A 
ATOM     10  Cl  UNL     1      41.021 133.777  22.083  1.00  0.00    -0.082 Cl
ATOM     11  C   UNL     1      41.848 135.336  19.997  1.00  0.00     0.085 A 
ATOM     12  C   UNL     1      42.047 135.465  18.605  1.00  0.00     0.088 A 
ENDROOT
BRANCH   1  13
ATOM     13  O   UNL     1      42.393 137.011  16.768  1.00  0.00    -0.506 OA
ATOM     14  H   UNL     1      42.122 136.363  16.037  1.00  0.00     0.293 HD
ENDBRANCH   1  13
BRANCH  12  15
ATOM     15  N   UNL     1      41.573 134.446  17.706  1.00  0.00    -0.369 N 
ATOM     16  H   UNL     1      42.282 133.784  17.315  1.00  0.00     0.161 HD
BRANCH  15  17
ATOM     17  C   UNL     1      40.216 134.398  17.138  1.00  0.00     0.113 C 
ATOM     18  C   UNL     1      39.297 135.417  17.791  1.00  0.00     0.193 C 
ATOM     19  C   UNL     1      39.272 133.402  17.795  1.00  0.00     0.193 C 
ATOM     20  O   UNL     1      38.469 134.421  18.344  1.00  0.00    -0.376 OA
BRANCH  17  21
ATOM     21  C   UNL     1      40.195 134.420  15.600  1.00  0.00     0.247 C 
ATOM     22  F   UNL     1      40.846 133.319  15.065  1.00  0.00    -0.248 F 
ENDBRANCH  17  21
ENDBRANCH  15  17
ENDBRANCH  12  15
BRANCH  11  23
ATOM     23  N   UNL     1      41.477 136.526  20.714  1.00  0.00    -0.057 NA
BRANCH  23  24
ATOM     24  N   UNL     1      40.309 136.908  20.815  1.00  0.00     0.005 N 
ATOM     25  N   UNL     1      39.146 137.294  20.914  1.00  0.00    -0.003 NA
ENDBRANCH  23  24
ENDBRANCH  11  23
BRANCH   6  26
ATOM     26  O   UNL     1      44.456 132.159  18.648  1.00  0.00    -0.424 OA
BRANCH  26  27
ATOM     27  C   UNL     1      44.345 132.011  17.259  1.00  0.00     0.331 C 
ATOM     28  O   UNL     1      43.468 132.633  16.600  1.00  0.00    -0.250 OA
BRANCH  27  29
ATOM     29  C   UNL     1      45.296 131.100  16.550  1.00  0.00     0.118 C 
ATOM     30  C   UNL     1      44.735 130.222  15.439  1.00  0.00     0.040 C 
ATOM     31  C   UNL     1      45.606 131.432  15.091  1.00  0.00     0.022 C 
BRANCH  29  32
ATOM     32  N   UNL     1      46.370 130.491  17.328  1.00  0.00    -0.316 NA
ATOM     33  H   UNL     1      45.940 130.047  18.171  1.00  0.00     0.119 HD
ATOM     34  H   UNL     1      46.991 131.260  17.670  1.00  0.00     0.119 HD
ENDBRANCH  29  32
BRANCH  31  35
ATOM     35  C   UNL     1      46.999 131.084  14.547  1.00  0.00     0.003 C 
ATOM     36  C   UNL     1      46.943 130.889  13.037  1.00  0.00     0.004 C 
ENDBRANCH  31  35
ENDBRANCH  27  29
ENDBRANCH  26  27
ENDBRANCH   6  26
TORSDOF 11
ENDMDL


