MODEL 1
REMARK VINA RESULT:      -6.3      0.000      0.000
REMARK SMILES C#C[C@](O)(c1cc(N)cc(SC(C)(C)CNC[C@](C)(O)C=C)ccc2cc1CC2)C(C)(C)C
REMARK SMILES IDX 12 1 13 2 14 3 11 4 10 5 5 6 6 7 27 8 7 9 26 10 28 11 9 12
REMARK SMILES IDX 25 13 29 14 24 15 23 16 3 17 2 18 1 19 4 20 30 22 31 23
REMARK SMILES IDX 32 24 33 25 8 26 15 29 16 30 17 32 18 33 19 34 20 35 21 37
REMARK SMILES IDX 22 38
REMARK H PARENT 4 21 8 27 8 28 16 31 20 36
ROOT
ATOM      1  C   UNL     1      42.372 133.766  15.405  1.00  0.00     0.027 C 
ATOM      2  C   UNL     1      42.757 135.146  14.839  1.00  0.00     0.024 C 
ATOM      3  C   UNL     1      42.058 132.829  14.224  1.00  0.00     0.024 C 
ENDROOT
BRANCH   1   4
ATOM      4  S   UNL     1      40.872 134.011  16.463  1.00  0.00    -0.118 SA
BRANCH   4   5
ATOM      5  C   UNL     1      41.608 134.909  17.842  1.00  0.00     0.010 A 
ATOM      6  C   UNL     1      43.968 133.785  21.185  1.00  0.00     0.002 A 
ATOM      7  C   UNL     1      42.607 134.188  21.330  1.00  0.00     0.033 A 
ATOM      8  C   UNL     1      44.821 134.607  20.401  1.00  0.00    -0.040 A 
ATOM      9  C   UNL     1      41.869 134.826  20.321  1.00  0.00     0.033 A 
ATOM     10  C   UNL     1      44.499 134.876  19.089  1.00  0.00     0.007 A 
ATOM     11  C   UNL     1      45.353 135.873  21.014  1.00  0.00     0.041 C 
ATOM     12  C   UNL     1      41.760 134.222  19.057  1.00  0.00     0.040 A 
ATOM     13  C   UNL     1      44.259 136.225  18.950  1.00  0.00    -0.047 A 
ATOM     14  C   UNL     1      44.927 136.979  20.045  1.00  0.00     0.040 C 
ATOM     15  C   UNL     1      43.266 136.812  18.147  1.00  0.00     0.005 A 
ATOM     16  C   UNL     1      42.161 136.174  17.545  1.00  0.00     0.015 A 
BRANCH   6  17
ATOM     17  C   UNL     1      44.618 132.896  22.263  1.00  0.00     0.155 C 
BRANCH  17  18
ATOM     18  C   UNL     1      43.988 133.207  23.562  1.00  0.00    -0.066 C 
ATOM     19  C   UNL     1      43.478 133.462  24.624  1.00  0.00     0.007 C 
ENDBRANCH  17  18
BRANCH  17  20
ATOM     20  O   UNL     1      45.979 133.245  22.413  1.00  0.00    -0.373 OA
ATOM     21  H   UNL     1      46.118 134.150  22.031  1.00  0.00     0.213 HD
ENDBRANCH  17  20
BRANCH  17  22
ATOM     22  C   UNL     1      44.508 131.338  21.946  1.00  0.00     0.006 C 
ATOM     23  C   UNL     1      45.191 130.496  23.051  1.00  0.00     0.015 C 
ATOM     24  C   UNL     1      43.019 130.915  21.876  1.00  0.00     0.015 C 
ATOM     25  C   UNL     1      45.159 130.944  20.592  1.00  0.00     0.015 C 
ENDBRANCH  17  22
ENDBRANCH   6  17
BRANCH   9  26
ATOM     26  N   UNL     1      41.062 135.960  20.650  1.00  0.00    -0.399 N 
ATOM     27  H   UNL     1      40.129 135.846  21.107  1.00  0.00     0.156 HD
ATOM     28  H   UNL     1      41.399 136.928  20.462  1.00  0.00     0.156 HD
ENDBRANCH   9  26
ENDBRANCH   4   5
ENDBRANCH   1   4
BRANCH   1  29
ATOM     29  C   UNL     1      43.555 133.195  16.228  1.00  0.00     0.098 C 
BRANCH  29  30
ATOM     30  N   UNL     1      44.246 132.124  15.486  1.00  0.00    -0.312 NA
ATOM     31  H   UNL     1      44.625 132.500  14.591  1.00  0.00     0.122 HD
BRANCH  30  32
ATOM     32  C   UNL     1      45.299 131.446  16.266  1.00  0.00     0.120 C 
BRANCH  32  33
ATOM     33  C   UNL     1      46.225 130.488  15.449  1.00  0.00     0.092 C 
ATOM     34  C   UNL     1      45.430 129.314  14.829  1.00  0.00     0.048 C 
BRANCH  33  35
ATOM     35  O   UNL     1      47.199 129.952  16.318  1.00  0.00    -0.385 OA
ATOM     36  H   UNL     1      46.728 129.525  17.083  1.00  0.00     0.211 HD
ENDBRANCH  33  35
BRANCH  33  37
ATOM     37  C   UNL     1      46.958 131.237  14.347  1.00  0.00     0.001 C 
ATOM     38  C   UNL     1      47.712 130.607  13.436  1.00  0.00     0.007 C 
ENDBRANCH  33  37
ENDBRANCH  32  33
ENDBRANCH  30  32
ENDBRANCH  29  30
ENDBRANCH   1  29
TORSDOF 13
ENDMDL
MODEL 2
REMARK VINA RESULT:      -5.7      1.435      2.224
REMARK SMILES C#C[C@](O)(c1cc(N)cc(SC(C)(C)CNC[C@](C)(O)C=C)ccc2cc1CC2)C(C)(C)C
REMARK SMILES IDX 12 1 13 2 14 3 11 4 10 5 5 6 6 7 27 8 7 9 26 10 28 11 9 12
REMARK SMILES IDX 25 13 29 14 24 15 23 16 3 17 2 18 1 19 4 20 30 22 31 23
REMARK SMILES IDX 32 24 33 25 8 26 15 29 16 30 17 32 18 33 19 34 20 35 21 37
REMARK SMILES IDX 22 38
REMARK H PARENT 4 21 8 27 8 28 16 31 20 36
ROOT
ATOM      1  C   UNL     1      43.055 132.790  15.412  1.00  0.00     0.027 C 
ATOM      2  C   UNL     1      42.810 131.941  14.150  1.00  0.00     0.024 C 
ATOM      3  C   UNL     1      42.547 131.999  16.633  1.00  0.00     0.024 C 
ENDROOT
BRANCH   1   4
ATOM      4  S   UNL     1      42.098 134.361  15.207  1.00  0.00    -0.118 SA
BRANCH   4   5
ATOM      5  C   UNL     1      42.437 135.141  16.796  1.00  0.00     0.010 A 
ATOM      6  C   UNL     1      42.926 133.699  20.757  1.00  0.00     0.002 A 
ATOM      7  C   UNL     1      41.769 134.436  20.366  1.00  0.00     0.033 A 
ATOM      8  C   UNL     1      44.196 134.227  20.406  1.00  0.00    -0.040 A 
ATOM      9  C   UNL     1      41.674 135.166  19.171  1.00  0.00     0.033 A 
ATOM     10  C   UNL     1      44.495 134.478  19.085  1.00  0.00     0.007 A 
ATOM     11  C   UNL     1      44.749 135.361  21.226  1.00  0.00     0.041 C 
ATOM     12  C   UNL     1      41.920 134.524  17.946  1.00  0.00     0.040 A 
ATOM     13  C   UNL     1      44.681 135.831  18.912  1.00  0.00    -0.047 A 
ATOM     14  C   UNL     1      45.034 136.469  20.209  1.00  0.00     0.040 C 
ATOM     15  C   UNL     1      44.268 136.590  17.803  1.00  0.00     0.005 A 
ATOM     16  C   UNL     1      43.364 136.206  16.789  1.00  0.00     0.015 A 
BRANCH   6  17
ATOM     17  C   UNL     1      42.851 132.753  21.972  1.00  0.00     0.155 C 
BRANCH  17  18
ATOM     18  C   UNL     1      44.163 132.096  22.129  1.00  0.00    -0.066 C 
ATOM     19  C   UNL     1      45.236 131.559  22.254  1.00  0.00     0.007 C 
ENDBRANCH  17  18
BRANCH  17  20
ATOM     20  O   UNL     1      41.938 131.708  21.706  1.00  0.00    -0.373 OA
ATOM     21  H   UNL     1      42.229 130.899  22.200  1.00  0.00     0.213 HD
ENDBRANCH  17  20
BRANCH  17  22
ATOM     22  C   UNL     1      42.427 133.490  23.320  1.00  0.00     0.006 C 
ATOM     23  C   UNL     1      43.672 133.946  24.119  1.00  0.00     0.015 C 
ATOM     24  C   UNL     1      41.583 134.748  22.993  1.00  0.00     0.015 C 
ATOM     25  C   UNL     1      41.572 132.597  24.260  1.00  0.00     0.015 C 
ENDBRANCH  17  22
ENDBRANCH   6  17
BRANCH   9  26
ATOM     26  N   UNL     1      41.121 136.485  19.194  1.00  0.00    -0.399 N 
ATOM     27  H   UNL     1      40.751 136.902  20.078  1.00  0.00     0.156 HD
ATOM     28  H   UNL     1      41.096 137.069  18.331  1.00  0.00     0.156 HD
ENDBRANCH   9  26
ENDBRANCH   4   5
ENDBRANCH   1   4
BRANCH   1  29
ATOM     29  C   UNL     1      44.572 133.069  15.562  1.00  0.00     0.098 C 
BRANCH  29  30
ATOM     30  N   UNL     1      45.272 131.895  16.117  1.00  0.00    -0.312 NA
ATOM     31  H   UNL     1      44.627 131.079  16.149  1.00  0.00     0.122 HD
BRANCH  30  32
ATOM     32  C   UNL     1      46.520 131.558  15.405  1.00  0.00     0.120 C 
BRANCH  32  33
ATOM     33  C   UNL     1      46.471 130.249  14.553  1.00  0.00     0.092 C 
ATOM     34  C   UNL     1      45.456 129.231  15.124  1.00  0.00     0.048 C 
BRANCH  33  35
ATOM     35  O   UNL     1      47.751 129.653  14.568  1.00  0.00    -0.385 OA
ATOM     36  H   UNL     1      47.633 128.668  14.507  1.00  0.00     0.211 HD
ENDBRANCH  33  35
BRANCH  33  37
ATOM     37  C   UNL     1      46.123 130.548  13.103  1.00  0.00     0.001 C 
ATOM     38  C   UNL     1      47.039 130.508  12.127  1.00  0.00     0.007 C 
ENDBRANCH  33  37
ENDBRANCH  32  33
ENDBRANCH  30  32
ENDBRANCH  29  30
ENDBRANCH   1  29
TORSDOF 13
ENDMDL
MODEL 3
REMARK VINA RESULT:      -5.7      1.291      1.774
REMARK SMILES C#C[C@](O)(c1cc(N)cc(SC(C)(C)CNC[C@](C)(O)C=C)ccc2cc1CC2)C(C)(C)C
REMARK SMILES IDX 12 1 13 2 14 3 11 4 10 5 5 6 6 7 27 8 7 9 26 10 28 11 9 12
REMARK SMILES IDX 25 13 29 14 24 15 23 16 3 17 2 18 1 19 4 20 30 22 31 23
REMARK SMILES IDX 32 24 33 25 8 26 15 29 16 30 17 32 18 33 19 34 20 35 21 37
REMARK SMILES IDX 22 38
REMARK H PARENT 4 21 8 27 8 28 16 31 20 36
ROOT
ATOM      1  C   UNL     1      41.589 134.827  15.197  1.00  0.00     0.027 C 
ATOM      2  C   UNL     1      42.559 135.941  14.760  1.00  0.00     0.024 C 
ATOM      3  C   UNL     1      40.976 134.195  13.933  1.00  0.00     0.024 C 
ENDROOT
BRANCH   1   4
ATOM      4  S   UNL     1      40.277 135.624  16.233  1.00  0.00    -0.118 SA
BRANCH   4   5
ATOM      5  C   UNL     1      41.289 136.258  17.582  1.00  0.00     0.010 A 
ATOM      6  C   UNL     1      43.755 134.461  20.531  1.00  0.00     0.002 A 
ATOM      7  C   UNL     1      42.503 135.058  20.865  1.00  0.00     0.033 A 
ATOM      8  C   UNL     1      44.650 135.208  19.720  1.00  0.00    -0.040 A 
ATOM      9  C   UNL     1      41.784 135.898  20.001  1.00  0.00     0.033 A 
ATOM     10  C   UNL     1      44.246 135.650  18.479  1.00  0.00     0.007 A 
ATOM     11  C   UNL     1      45.446 136.310  20.364  1.00  0.00     0.041 C 
ATOM     12  C   UNL     1      41.447 135.443  18.715  1.00  0.00     0.040 A 
ATOM     13  C   UNL     1      44.223 137.027  18.475  1.00  0.00    -0.047 A 
ATOM     14  C   UNL     1      45.115 137.557  19.540  1.00  0.00     0.040 C 
ATOM     15  C   UNL     1      43.265 137.837  17.840  1.00  0.00     0.005 A 
ATOM     16  C   UNL     1      42.013 137.442  17.322  1.00  0.00     0.015 A 
BRANCH   6  17
ATOM     17  C   UNL     1      44.353 133.381  21.455  1.00  0.00     0.155 C 
BRANCH  17  18
ATOM     18  C   UNL     1      44.440 133.935  22.820  1.00  0.00    -0.066 C 
ATOM     19  C   UNL     1      44.509 134.384  23.938  1.00  0.00     0.007 C 
ENDBRANCH  17  18
BRANCH  17  20
ATOM     20  O   UNL     1      45.687 133.113  21.074  1.00  0.00    -0.373 OA
ATOM     21  H   UNL     1      46.286 133.739  21.553  1.00  0.00     0.213 HD
ENDBRANCH  17  20
BRANCH  17  22
ATOM     22  C   UNL     1      43.523 132.020  21.453  1.00  0.00     0.006 C 
ATOM     23  C   UNL     1      44.457 130.799  21.641  1.00  0.00     0.015 C 
ATOM     24  C   UNL     1      42.500 132.022  22.617  1.00  0.00     0.015 C 
ATOM     25  C   UNL     1      42.723 131.796  20.141  1.00  0.00     0.015 C 
ENDBRANCH  17  22
ENDBRANCH   6  17
BRANCH   9  26
ATOM     26  N   UNL     1      41.215 137.109  20.508  1.00  0.00    -0.399 N 
ATOM     27  H   UNL     1      41.725 138.018  20.437  1.00  0.00     0.156 HD
ATOM     28  H   UNL     1      40.266 137.113  20.940  1.00  0.00     0.156 HD
ENDBRANCH   9  26
ENDBRANCH   4   5
ENDBRANCH   1   4
BRANCH   1  29
ATOM     29  C   UNL     1      42.364 133.750  16.000  1.00  0.00     0.098 C 
BRANCH  29  30
ATOM     30  N   UNL     1      43.623 133.390  15.319  1.00  0.00    -0.312 NA
ATOM     31  H   UNL     1      44.436 133.729  15.875  1.00  0.00     0.122 HD
BRANCH  30  32
ATOM     32  C   UNL     1      43.745 131.950  15.023  1.00  0.00     0.120 C 
BRANCH  32  33
ATOM     33  C   UNL     1      44.965 131.232  15.686  1.00  0.00     0.092 C 
ATOM     34  C   UNL     1      46.305 131.686  15.062  1.00  0.00     0.048 C 
BRANCH  33  35
ATOM     35  O   UNL     1      44.833 129.841  15.485  1.00  0.00    -0.385 OA
ATOM     36  H   UNL     1      43.935 129.566  15.810  1.00  0.00     0.211 HD
ENDBRANCH  33  35
BRANCH  33  37
ATOM     37  C   UNL     1      44.999 131.475  17.186  1.00  0.00     0.001 C 
ATOM     38  C   UNL     1      45.616 130.638  18.031  1.00  0.00     0.007 C 
ENDBRANCH  33  37
ENDBRANCH  32  33
ENDBRANCH  30  32
ENDBRANCH  29  30
ENDBRANCH   1  29
TORSDOF 13
ENDMDL
MODEL 4
REMARK VINA RESULT:      -5.6      3.282      6.553
REMARK SMILES C#C[C@](O)(c1cc(N)cc(SC(C)(C)CNC[C@](C)(O)C=C)ccc2cc1CC2)C(C)(C)C
REMARK SMILES IDX 12 1 13 2 14 3 11 4 10 5 5 6 6 7 27 8 7 9 26 10 28 11 9 12
REMARK SMILES IDX 25 13 29 14 24 15 23 16 3 17 2 18 1 19 4 20 30 22 31 23
REMARK SMILES IDX 32 24 33 25 8 26 15 29 16 30 17 32 18 33 19 34 20 35 21 37
REMARK SMILES IDX 22 38
REMARK H PARENT 4 21 8 27 8 28 16 31 20 36
ROOT
ATOM      1  C   UNL     1      44.055 132.056  18.671  1.00  0.00     0.027 C 
ATOM      2  C   UNL     1      44.900 131.127  19.563  1.00  0.00     0.024 C 
ATOM      3  C   UNL     1      44.598 133.491  18.815  1.00  0.00     0.024 C 
ENDROOT
BRANCH   1   4
ATOM      4  S   UNL     1      42.309 131.955  19.278  1.00  0.00    -0.118 SA
BRANCH   4   5
ATOM      5  C   UNL     1      41.831 133.687  19.141  1.00  0.00     0.010 A 
ATOM      6  C   UNL     1      39.696 135.950  16.255  1.00  0.00     0.002 A 
ATOM      7  C   UNL     1      41.104 136.099  16.432  1.00  0.00     0.033 A 
ATOM      8  C   UNL     1      38.877 135.980  17.415  1.00  0.00    -0.040 A 
ATOM      9  C   UNL     1      41.811 135.595  17.534  1.00  0.00     0.033 A 
ATOM     10  C   UNL     1      39.097 135.081  18.435  1.00  0.00     0.007 A 
ATOM     11  C   UNL     1      38.570 137.315  18.037  1.00  0.00     0.041 C 
ATOM     12  C   UNL     1      41.718 134.230  17.851  1.00  0.00     0.040 A 
ATOM     13  C   UNL     1      39.487 135.765  19.565  1.00  0.00    -0.047 A 
ATOM     14  C   UNL     1      39.030 137.179  19.490  1.00  0.00     0.040 C 
ATOM     15  C   UNL     1      40.460 135.349  20.491  1.00  0.00     0.005 A 
ATOM     16  C   UNL     1      41.412 134.320  20.332  1.00  0.00     0.015 A 
BRANCH   6  17
ATOM     17  C   UNL     1      39.052 136.339  14.910  1.00  0.00     0.155 C 
BRANCH  17  18
ATOM     18  C   UNL     1      39.730 137.549  14.404  1.00  0.00    -0.066 C 
ATOM     19  C   UNL     1      40.285 138.538  13.995  1.00  0.00     0.007 C 
ENDBRANCH  17  18
BRANCH  17  20
ATOM     20  O   UNL     1      37.708 136.721  15.117  1.00  0.00    -0.373 OA
ATOM     21  H   UNL     1      37.361 136.243  15.914  1.00  0.00     0.213 HD
ENDBRANCH  17  20
BRANCH  17  22
ATOM     22  C   UNL     1      39.105 135.172  13.825  1.00  0.00     0.006 C 
ATOM     23  C   UNL     1      38.735 135.704  12.419  1.00  0.00     0.015 C 
ATOM     24  C   UNL     1      40.535 134.582  13.750  1.00  0.00     0.015 C 
ATOM     25  C   UNL     1      38.141 133.997  14.147  1.00  0.00     0.015 C 
ENDBRANCH  17  22
ENDBRANCH   6  17
BRANCH   9  26
ATOM     26  N   UNL     1      42.781 136.421  18.185  1.00  0.00    -0.399 N 
ATOM     27  H   UNL     1      43.555 136.872  17.648  1.00  0.00     0.156 HD
ATOM     28  H   UNL     1      42.722 136.609  19.209  1.00  0.00     0.156 HD
ENDBRANCH   9  26
ENDBRANCH   4   5
ENDBRANCH   1   4
BRANCH   1  29
ATOM     29  C   UNL     1      44.165 131.598  17.194  1.00  0.00     0.098 C 
BRANCH  29  30
ATOM     30  N   UNL     1      45.560 131.680  16.720  1.00  0.00    -0.312 NA
ATOM     31  H   UNL     1      46.130 132.240  17.388  1.00  0.00     0.122 HD
BRANCH  30  32
ATOM     32  C   UNL     1      46.178 130.364  16.467  1.00  0.00     0.120 C 
BRANCH  32  33
ATOM     33  C   UNL     1      46.104 129.863  14.988  1.00  0.00     0.092 C 
ATOM     34  C   UNL     1      44.965 130.559  14.204  1.00  0.00     0.048 C 
BRANCH  33  35
ATOM     35  O   UNL     1      45.851 128.475  14.994  1.00  0.00    -0.385 OA
ATOM     36  H   UNL     1      46.706 128.005  14.800  1.00  0.00     0.211 HD
ENDBRANCH  33  35
BRANCH  33  37
ATOM     37  C   UNL     1      47.422 130.086  14.263  1.00  0.00     0.001 C 
ATOM     38  C   UNL     1      47.543 130.959  13.255  1.00  0.00     0.007 C 
ENDBRANCH  33  37
ENDBRANCH  32  33
ENDBRANCH  30  32
ENDBRANCH  29  30
ENDBRANCH   1  29
TORSDOF 13
ENDMDL
MODEL 5
REMARK VINA RESULT:      -5.5      2.366      3.648
REMARK SMILES C#C[C@](O)(c1cc(N)cc(SC(C)(C)CNC[C@](C)(O)C=C)ccc2cc1CC2)C(C)(C)C
REMARK SMILES IDX 12 1 13 2 14 3 11 4 10 5 5 6 6 7 27 8 7 9 26 10 28 11 9 12
REMARK SMILES IDX 25 13 29 14 24 15 23 16 3 17 2 18 1 19 4 20 30 22 31 23
REMARK SMILES IDX 32 24 33 25 8 26 15 29 16 30 17 32 18 33 19 34 20 35 21 37
REMARK SMILES IDX 22 38
REMARK H PARENT 4 21 8 27 8 28 16 31 20 36
ROOT
ATOM      1  C   UNL     1      42.564 134.403  16.162  1.00  0.00     0.027 C 
ATOM      2  C   UNL     1      42.219 134.599  14.673  1.00  0.00     0.024 C 
ATOM      3  C   UNL     1      41.367 133.719  16.849  1.00  0.00     0.024 C 
ENDROOT
BRANCH   1   4
ATOM      4  S   UNL     1      42.858 136.084  16.880  1.00  0.00    -0.118 SA
BRANCH   4   5
ATOM      5  C   UNL     1      42.829 135.680  18.636  1.00  0.00     0.010 A 
ATOM      6  C   UNL     1      45.506 136.322  21.865  1.00  0.00     0.002 A 
ATOM      7  C   UNL     1      45.296 135.024  21.314  1.00  0.00     0.033 A 
ATOM      8  C   UNL     1      44.361 137.098  22.187  1.00  0.00    -0.040 A 
ATOM      9  C   UNL     1      44.239 134.704  20.448  1.00  0.00     0.033 A 
ATOM     10  C   UNL     1      43.432 137.388  21.212  1.00  0.00     0.007 A 
ATOM     11  C   UNL     1      43.614 136.777  23.453  1.00  0.00     0.041 C 
ATOM     12  C   UNL     1      44.061 135.448  19.270  1.00  0.00     0.040 A 
ATOM     13  C   UNL     1      42.234 136.790  21.535  1.00  0.00    -0.047 A 
ATOM     14  C   UNL     1      42.175 136.522  22.997  1.00  0.00     0.040 C 
ATOM     15  C   UNL     1      41.340 136.184  20.635  1.00  0.00     0.005 A 
ATOM     16  C   UNL     1      41.587 135.821  19.293  1.00  0.00     0.015 A 
BRANCH   6  17
ATOM     17  C   UNL     1      46.815 136.626  22.621  1.00  0.00     0.155 C 
BRANCH  17  18
ATOM     18  C   UNL     1      47.056 135.538  23.588  1.00  0.00    -0.066 C 
ATOM     19  C   UNL     1      47.251 134.645  24.376  1.00  0.00     0.007 C 
ENDBRANCH  17  18
BRANCH  17  20
ATOM     20  O   UNL     1      46.656 137.793  23.401  1.00  0.00    -0.373 OA
ATOM     21  H   UNL     1      46.541 138.568  22.794  1.00  0.00     0.213 HD
ENDBRANCH  17  20
BRANCH  17  22
ATOM     22  C   UNL     1      48.071 136.808  21.656  1.00  0.00     0.006 C 
ATOM     23  C   UNL     1      49.137 137.728  22.300  1.00  0.00     0.015 C 
ATOM     24  C   UNL     1      48.732 135.433  21.382  1.00  0.00     0.015 C 
ATOM     25  C   UNL     1      47.699 137.419  20.279  1.00  0.00     0.015 C 
ENDBRANCH  17  22
ENDBRANCH   6  17
BRANCH   9  26
ATOM     26  N   UNL     1      43.496 133.500  20.659  1.00  0.00    -0.399 N 
ATOM     27  H   UNL     1      43.337 132.819  19.883  1.00  0.00     0.156 HD
ATOM     28  H   UNL     1      43.118 133.264  21.601  1.00  0.00     0.156 HD
ENDBRANCH   9  26
ENDBRANCH   4   5
ENDBRANCH   1   4
BRANCH   1  29
ATOM     29  C   UNL     1      43.824 133.508  16.287  1.00  0.00     0.098 C 
BRANCH  29  30
ATOM     30  N   UNL     1      44.161 132.887  14.992  1.00  0.00    -0.312 NA
ATOM     31  H   UNL     1      44.972 133.380  14.563  1.00  0.00     0.122 HD
BRANCH  30  32
ATOM     32  C   UNL     1      44.407 131.434  15.078  1.00  0.00     0.120 C 
BRANCH  32  33
ATOM     33  C   UNL     1      45.899 130.998  14.918  1.00  0.00     0.092 C 
ATOM     34  C   UNL     1      46.416 130.255  16.173  1.00  0.00     0.048 C 
BRANCH  33  35
ATOM     35  O   UNL     1      46.689 132.152  14.732  1.00  0.00    -0.385 OA
ATOM     36  H   UNL     1      46.081 132.937  14.679  1.00  0.00     0.211 HD
ENDBRANCH  33  35
BRANCH  33  37
ATOM     37  C   UNL     1      46.087 130.113  13.696  1.00  0.00     0.001 C 
ATOM     38  C   UNL     1      46.711 130.545  12.592  1.00  0.00     0.007 C 
ENDBRANCH  33  37
ENDBRANCH  32  33
ENDBRANCH  30  32
ENDBRANCH  29  30
ENDBRANCH   1  29
TORSDOF 13
ENDMDL
MODEL 6
REMARK VINA RESULT:      -5.5      2.759      4.056
REMARK SMILES C#C[C@](O)(c1cc(N)cc(SC(C)(C)CNC[C@](C)(O)C=C)ccc2cc1CC2)C(C)(C)C
REMARK SMILES IDX 12 1 13 2 14 3 11 4 10 5 5 6 6 7 27 8 7 9 26 10 28 11 9 12
REMARK SMILES IDX 25 13 29 14 24 15 23 16 3 17 2 18 1 19 4 20 30 22 31 23
REMARK SMILES IDX 32 24 33 25 8 26 15 29 16 30 17 32 18 33 19 34 20 35 21 37
REMARK SMILES IDX 22 38
REMARK H PARENT 4 21 8 27 8 28 16 31 20 36
ROOT
ATOM      1  C   UNL     1      43.212 133.388  16.188  1.00  0.00     0.027 C 
ATOM      2  C   UNL     1      42.852 133.212  17.676  1.00  0.00     0.024 C 
ATOM      3  C   UNL     1      44.285 134.487  16.076  1.00  0.00     0.024 C 
ENDROOT
BRANCH   1   4
ATOM      4  S   UNL     1      41.663 133.894  15.309  1.00  0.00    -0.118 SA
BRANCH   4   5
ATOM      5  C   UNL     1      41.530 135.601  15.872  1.00  0.00     0.010 A 
ATOM      6  C   UNL     1      41.924 137.515  19.638  1.00  0.00     0.002 A 
ATOM      7  C   UNL     1      40.657 137.370  19.001  1.00  0.00     0.033 A 
ATOM      8  C   UNL     1      43.001 138.022  18.863  1.00  0.00    -0.040 A 
ATOM      9  C   UNL     1      40.495 137.004  17.656  1.00  0.00     0.033 A 
ATOM     10  C   UNL     1      43.376 137.376  17.705  1.00  0.00     0.007 A 
ATOM     11  C   UNL     1      43.059 139.502  18.604  1.00  0.00     0.041 C 
ATOM     12  C   UNL     1      41.087 135.819  17.186  1.00  0.00     0.040 A 
ATOM     13  C   UNL     1      43.150 138.207  16.630  1.00  0.00    -0.047 A 
ATOM     14  C   UNL     1      43.114 139.625  17.079  1.00  0.00     0.040 C 
ATOM     15  C   UNL     1      42.669 137.818  15.368  1.00  0.00     0.005 A 
ATOM     16  C   UNL     1      42.071 136.588  15.019  1.00  0.00     0.015 A 
BRANCH   6  17
ATOM     17  C   UNL     1      41.991 137.700  21.168  1.00  0.00     0.155 C 
BRANCH  17  18
ATOM     18  C   UNL     1      41.022 138.745  21.552  1.00  0.00    -0.066 C 
ATOM     19  C   UNL     1      40.229 139.597  21.869  1.00  0.00     0.007 C 
ENDBRANCH  17  18
BRANCH  17  20
ATOM     20  O   UNL     1      43.257 138.211  21.531  1.00  0.00    -0.373 OA
ATOM     21  H   UNL     1      43.473 137.901  22.448  1.00  0.00     0.213 HD
ENDBRANCH  17  20
BRANCH  17  22
ATOM     22  C   UNL     1      41.716 136.354  21.977  1.00  0.00     0.006 C 
ATOM     23  C   UNL     1      42.327 135.132  21.248  1.00  0.00     0.015 C 
ATOM     24  C   UNL     1      42.359 136.441  23.384  1.00  0.00     0.015 C 
ATOM     25  C   UNL     1      40.204 136.065  22.183  1.00  0.00     0.015 C 
ENDBRANCH  17  22
ENDBRANCH   6  17
BRANCH   9  26
ATOM     26  N   UNL     1      39.559 137.714  16.841  1.00  0.00    -0.399 N 
ATOM     27  H   UNL     1      38.656 138.065  17.233  1.00  0.00     0.156 HD
ATOM     28  H   UNL     1      39.770 137.919  15.840  1.00  0.00     0.156 HD
ENDBRANCH   9  26
ENDBRANCH   4   5
ENDBRANCH   1   4
BRANCH   1  29
ATOM     29  C   UNL     1      43.767 132.053  15.629  1.00  0.00     0.098 C 
BRANCH  29  30
ATOM     30  N   UNL     1      45.159 132.212  15.168  1.00  0.00    -0.312 NA
ATOM     31  H   UNL     1      45.535 133.130  15.486  1.00  0.00     0.122 HD
BRANCH  30  32
ATOM     32  C   UNL     1      46.048 131.106  15.572  1.00  0.00     0.120 C 
BRANCH  32  33
ATOM     33  C   UNL     1      46.231 129.973  14.511  1.00  0.00     0.092 C 
ATOM     34  C   UNL     1      45.777 130.428  13.104  1.00  0.00     0.048 C 
BRANCH  33  35
ATOM     35  O   UNL     1      45.443 128.866  14.893  1.00  0.00    -0.385 OA
ATOM     36  H   UNL     1      44.596 129.210  15.284  1.00  0.00     0.211 HD
ENDBRANCH  33  35
BRANCH  33  37
ATOM     37  C   UNL     1      47.677 129.506  14.447  1.00  0.00     0.001 C 
ATOM     38  C   UNL     1      48.530 129.954  13.517  1.00  0.00     0.007 C 
ENDBRANCH  33  37
ENDBRANCH  32  33
ENDBRANCH  30  32
ENDBRANCH  29  30
ENDBRANCH   1  29
TORSDOF 13
ENDMDL
MODEL 7
REMARK VINA RESULT:      -5.5      0.758      1.333
REMARK SMILES C#C[C@](O)(c1cc(N)cc(SC(C)(C)CNC[C@](C)(O)C=C)ccc2cc1CC2)C(C)(C)C
REMARK SMILES IDX 12 1 13 2 14 3 11 4 10 5 5 6 6 7 27 8 7 9 26 10 28 11 9 12
REMARK SMILES IDX 25 13 29 14 24 15 23 16 3 17 2 18 1 19 4 20 30 22 31 23
REMARK SMILES IDX 32 24 33 25 8 26 15 29 16 30 17 32 18 33 19 34 20 35 21 37
REMARK SMILES IDX 22 38
REMARK H PARENT 4 21 8 27 8 28 16 31 20 36
ROOT
ATOM      1  C   UNL     1      42.587 133.203  15.490  1.00  0.00     0.027 C 
ATOM      2  C   UNL     1      43.302 134.514  15.111  1.00  0.00     0.024 C 
ATOM      3  C   UNL     1      42.334 132.400  14.200  1.00  0.00     0.024 C 
ENDROOT
BRANCH   1   4
ATOM      4  S   UNL     1      40.986 133.670  16.295  1.00  0.00    -0.118 SA
BRANCH   4   5
ATOM      5  C   UNL     1      41.607 134.631  17.688  1.00  0.00     0.010 A 
ATOM      6  C   UNL     1      43.800 133.684  21.195  1.00  0.00     0.002 A 
ATOM      7  C   UNL     1      42.420 134.042  21.249  1.00  0.00     0.033 A 
ATOM      8  C   UNL     1      44.670 134.513  20.439  1.00  0.00    -0.040 A 
ATOM      9  C   UNL     1      41.722 134.625  20.180  1.00  0.00     0.033 A 
ATOM     10  C   UNL     1      44.418 134.735  19.103  1.00  0.00     0.007 A 
ATOM     11  C   UNL     1      45.121 135.814  21.045  1.00  0.00     0.041 C 
ATOM     12  C   UNL     1      41.709 133.984  18.930  1.00  0.00     0.040 A 
ATOM     13  C   UNL     1      44.141 136.070  18.911  1.00  0.00    -0.047 A 
ATOM     14  C   UNL     1      44.717 136.877  20.021  1.00  0.00     0.040 C 
ATOM     15  C   UNL     1      43.178 136.600  18.034  1.00  0.00     0.005 A 
ATOM     16  C   UNL     1      42.133 135.906  17.387  1.00  0.00     0.015 A 
BRANCH   6  17
ATOM     17  C   UNL     1      44.414 132.848  22.336  1.00  0.00     0.155 C 
BRANCH  17  18
ATOM     18  C   UNL     1      43.732 133.209  23.594  1.00  0.00    -0.066 C 
ATOM     19  C   UNL     1      43.179 133.505  24.624  1.00  0.00     0.007 C 
ENDBRANCH  17  18
BRANCH  17  20
ATOM     20  O   UNL     1      45.765 133.216  22.522  1.00  0.00    -0.373 OA
ATOM     21  H   UNL     1      46.179 133.367  21.634  1.00  0.00     0.213 HD
ENDBRANCH  17  20
BRANCH  17  22
ATOM     22  C   UNL     1      44.328 131.276  22.082  1.00  0.00     0.006 C 
ATOM     23  C   UNL     1      42.867 130.835  21.820  1.00  0.00     0.015 C 
ATOM     24  C   UNL     1      45.172 130.893  20.840  1.00  0.00     0.015 C 
ATOM     25  C   UNL     1      44.861 130.436  23.274  1.00  0.00     0.015 C 
ENDBRANCH  17  22
ENDBRANCH   6  17
BRANCH   9  26
ATOM     26  N   UNL     1      40.859 135.738  20.427  1.00  0.00    -0.399 N 
ATOM     27  H   UNL     1      39.889 135.601  20.791  1.00  0.00     0.156 HD
ATOM     28  H   UNL     1      41.189 136.715  20.272  1.00  0.00     0.156 HD
ENDBRANCH   9  26
ENDBRANCH   4   5
ENDBRANCH   1   4
BRANCH   1  29
ATOM     29  C   UNL     1      43.484 132.383  16.452  1.00  0.00     0.098 C 
BRANCH  29  30
ATOM     30  N   UNL     1      44.898 132.785  16.326  1.00  0.00    -0.312 NA
ATOM     31  H   UNL     1      45.371 132.714  17.251  1.00  0.00     0.122 HD
BRANCH  30  32
ATOM     32  C   UNL     1      45.637 132.035  15.292  1.00  0.00     0.120 C 
BRANCH  32  33
ATOM     33  C   UNL     1      46.083 130.594  15.702  1.00  0.00     0.092 C 
ATOM     34  C   UNL     1      45.974 130.374  17.229  1.00  0.00     0.048 C 
BRANCH  33  35
ATOM     35  O   UNL     1      47.431 130.416  15.325  1.00  0.00    -0.385 OA
ATOM     36  H   UNL     1      47.557 129.463  15.069  1.00  0.00     0.211 HD
ENDBRANCH  33  35
BRANCH  33  37
ATOM     37  C   UNL     1      45.263 129.536  14.981  1.00  0.00     0.001 C 
ATOM     38  C   UNL     1      44.926 128.377  15.561  1.00  0.00     0.007 C 
ENDBRANCH  33  37
ENDBRANCH  32  33
ENDBRANCH  30  32
ENDBRANCH  29  30
ENDBRANCH   1  29
TORSDOF 13
ENDMDL
MODEL 8
REMARK VINA RESULT:      -5.4      3.165      6.697
REMARK SMILES C#C[C@](O)(c1cc(N)cc(SC(C)(C)CNC[C@](C)(O)C=C)ccc2cc1CC2)C(C)(C)C
REMARK SMILES IDX 12 1 13 2 14 3 11 4 10 5 5 6 6 7 27 8 7 9 26 10 28 11 9 12
REMARK SMILES IDX 25 13 29 14 24 15 23 16 3 17 2 18 1 19 4 20 30 22 31 23
REMARK SMILES IDX 32 24 33 25 8 26 15 29 16 30 17 32 18 33 19 34 20 35 21 37
REMARK SMILES IDX 22 38
REMARK H PARENT 4 21 8 27 8 28 16 31 20 36
ROOT
ATOM      1  C   UNL     1      42.654 136.453  15.525  1.00  0.00     0.027 C 
ATOM      2  C   UNL     1      43.635 135.908  14.470  1.00  0.00     0.024 C 
ATOM      3  C   UNL     1      42.224 137.870  15.098  1.00  0.00     0.024 C 
ENDROOT
BRANCH   1   4
ATOM      4  S   UNL     1      43.562 136.503  17.138  1.00  0.00    -0.118 SA
BRANCH   4   5
ATOM      5  C   UNL     1      43.350 134.794  17.666  1.00  0.00     0.010 A 
ATOM      6  C   UNL     1      45.264 131.134  16.692  1.00  0.00     0.002 A 
ATOM      7  C   UNL     1      43.936 131.422  16.261  1.00  0.00     0.033 A 
ATOM      8  C   UNL     1      45.577 131.351  18.060  1.00  0.00    -0.040 A 
ATOM      9  C   UNL     1      43.158 132.473  16.772  1.00  0.00     0.033 A 
ATOM     10  C   UNL     1      45.400 132.599  18.615  1.00  0.00     0.007 A 
ATOM     11  C   UNL     1      45.122 130.331  19.068  1.00  0.00     0.041 C 
ATOM     12  C   UNL     1      43.662 133.784  16.742  1.00  0.00     0.040 A 
ATOM     13  C   UNL     1      44.428 132.528  19.589  1.00  0.00    -0.047 A 
ATOM     14  C   UNL     1      44.300 131.130  20.082  1.00  0.00     0.040 C 
ATOM     15  C   UNL     1      43.446 133.499  19.852  1.00  0.00     0.005 A 
ATOM     16  C   UNL     1      43.075 134.588  19.036  1.00  0.00     0.015 A 
BRANCH   6  17
ATOM     17  C   UNL     1      46.111 130.106  15.915  1.00  0.00     0.155 C 
BRANCH  17  18
ATOM     18  C   UNL     1      45.348 128.845  15.832  1.00  0.00    -0.066 C 
ATOM     19  C   UNL     1      44.725 127.814  15.768  1.00  0.00     0.007 C 
ENDBRANCH  17  18
BRANCH  17  20
ATOM     20  O   UNL     1      47.275 129.792  16.653  1.00  0.00    -0.373 OA
ATOM     21  H   UNL     1      48.050 130.243  16.230  1.00  0.00     0.213 HD
ENDBRANCH  17  20
BRANCH  17  22
ATOM     22  C   UNL     1      46.530 130.606  14.461  1.00  0.00     0.006 C 
ATOM     23  C   UNL     1      47.734 129.796  13.921  1.00  0.00     0.015 C 
ATOM     24  C   UNL     1      45.349 130.418  13.475  1.00  0.00     0.015 C 
ATOM     25  C   UNL     1      46.924 132.107  14.422  1.00  0.00     0.015 C 
ENDBRANCH  17  22
ENDBRANCH   6  17
BRANCH   9  26
ATOM     26  N   UNL     1      41.789 132.235  17.111  1.00  0.00    -0.399 N 
ATOM     27  H   UNL     1      41.306 131.353  16.828  1.00  0.00     0.156 HD
ATOM     28  H   UNL     1      41.250 132.929  17.672  1.00  0.00     0.156 HD
ENDBRANCH   9  26
ENDBRANCH   4   5
ENDBRANCH   1   4
BRANCH   1  29
ATOM     29  C   UNL     1      41.413 135.529  15.605  1.00  0.00     0.098 C 
BRANCH  29  30
ATOM     30  N   UNL     1      40.515 135.751  14.456  1.00  0.00    -0.312 NA
ATOM     31  H   UNL     1      41.061 136.095  13.640  1.00  0.00     0.122 HD
BRANCH  30  32
ATOM     32  C   UNL     1      39.710 134.568  14.096  1.00  0.00     0.120 C 
BRANCH  32  33
ATOM     33  C   UNL     1      38.177 134.826  13.932  1.00  0.00     0.092 C 
ATOM     34  C   UNL     1      37.863 136.333  13.783  1.00  0.00     0.048 C 
BRANCH  33  35
ATOM     35  O   UNL     1      37.514 134.348  15.082  1.00  0.00    -0.385 OA
ATOM     36  H   UNL     1      36.545 134.552  14.988  1.00  0.00     0.211 HD
ENDBRANCH  33  35
BRANCH  33  37
ATOM     37  C   UNL     1      37.616 134.074  12.735  1.00  0.00     0.001 C 
ATOM     38  C   UNL     1      37.091 134.707  11.678  1.00  0.00     0.007 C 
ENDBRANCH  33  37
ENDBRANCH  32  33
ENDBRANCH  30  32
ENDBRANCH  29  30
ENDBRANCH   1  29
TORSDOF 13
ENDMDL
MODEL 9
REMARK VINA RESULT:      -5.3      1.553      1.922
REMARK SMILES C#C[C@](O)(c1cc(N)cc(SC(C)(C)CNC[C@](C)(O)C=C)ccc2cc1CC2)C(C)(C)C
REMARK SMILES IDX 12 1 13 2 14 3 11 4 10 5 5 6 6 7 27 8 7 9 26 10 28 11 9 12
REMARK SMILES IDX 25 13 29 14 24 15 23 16 3 17 2 18 1 19 4 20 30 22 31 23
REMARK SMILES IDX 32 24 33 25 8 26 15 29 16 30 17 32 18 33 19 34 20 35 21 37
REMARK SMILES IDX 22 38
REMARK H PARENT 4 21 8 27 8 28 16 31 20 36
ROOT
ATOM      1  C   UNL     1      41.472 134.413  15.348  1.00  0.00     0.027 C 
ATOM      2  C   UNL     1      42.353 135.672  15.461  1.00  0.00     0.024 C 
ATOM      3  C   UNL     1      41.470 133.956  13.877  1.00  0.00     0.024 C 
ENDROOT
BRANCH   1   4
ATOM      4  S   UNL     1      39.767 134.891  15.887  1.00  0.00    -0.118 SA
BRANCH   4   5
ATOM      5  C   UNL     1      40.139 135.594  17.505  1.00  0.00     0.010 A 
ATOM      6  C   UNL     1      42.682 134.466  20.709  1.00  0.00     0.002 A 
ATOM      7  C   UNL     1      41.263 134.364  20.808  1.00  0.00     0.033 A 
ATOM      8  C   UNL     1      43.226 135.687  20.230  1.00  0.00    -0.040 A 
ATOM      9  C   UNL     1      40.371 134.969  19.908  1.00  0.00     0.033 A 
ATOM     10  C   UNL     1      42.855 136.165  18.993  1.00  0.00     0.007 A 
ATOM     11  C   UNL     1      43.296 136.856  21.174  1.00  0.00     0.041 C 
ATOM     12  C   UNL     1      40.490 134.705  18.534  1.00  0.00     0.040 A 
ATOM     13  C   UNL     1      42.181 137.356  19.151  1.00  0.00    -0.047 A 
ATOM     14  C   UNL     1      42.542 137.977  20.454  1.00  0.00     0.040 C 
ATOM     15  C   UNL     1      41.063 137.781  18.413  1.00  0.00     0.005 A 
ATOM     16  C   UNL     1      40.244 137.000  17.571  1.00  0.00     0.015 A 
BRANCH   6  17
ATOM     17  C   UNL     1      43.573 133.585  21.608  1.00  0.00     0.155 C 
BRANCH  17  18
ATOM     18  C   UNL     1      42.876 133.380  22.893  1.00  0.00    -0.066 C 
ATOM     19  C   UNL     1      42.306 133.208  23.941  1.00  0.00     0.007 C 
ENDBRANCH  17  18
BRANCH  17  20
ATOM     20  O   UNL     1      44.759 134.281  21.931  1.00  0.00    -0.373 OA
ATOM     21  H   UNL     1      45.420 133.633  22.287  1.00  0.00     0.213 HD
ENDBRANCH  17  20
BRANCH  17  22
ATOM     22  C   UNL     1      43.950 132.186  20.944  1.00  0.00     0.006 C 
ATOM     23  C   UNL     1      44.658 132.389  19.582  1.00  0.00     0.015 C 
ATOM     24  C   UNL     1      44.914 131.402  21.870  1.00  0.00     0.015 C 
ATOM     25  C   UNL     1      42.716 131.277  20.695  1.00  0.00     0.015 C 
ENDBRANCH  17  22
ENDBRANCH   6  17
BRANCH   9  26
ATOM     26  N   UNL     1      39.227 135.663  20.412  1.00  0.00    -0.399 N 
ATOM     27  H   UNL     1      38.587 136.189  19.774  1.00  0.00     0.156 HD
ATOM     28  H   UNL     1      38.993 135.640  21.428  1.00  0.00     0.156 HD
ENDBRANCH   9  26
ENDBRANCH   4   5
ENDBRANCH   1   4
BRANCH   1  29
ATOM     29  C   UNL     1      42.054 133.292  16.246  1.00  0.00     0.098 C 
BRANCH  29  30
ATOM     30  N   UNL     1      43.501 133.123  16.008  1.00  0.00    -0.312 NA
ATOM     31  H   UNL     1      44.039 133.496  16.819  1.00  0.00     0.122 HD
BRANCH  30  32
ATOM     32  C   UNL     1      43.893 131.734  15.703  1.00  0.00     0.120 C 
BRANCH  32  33
ATOM     33  C   UNL     1      45.400 131.528  15.343  1.00  0.00     0.092 C 
ATOM     34  C   UNL     1      46.116 130.622  16.372  1.00  0.00     0.048 C 
BRANCH  33  35
ATOM     35  O   UNL     1      46.039 132.787  15.342  1.00  0.00    -0.385 OA
ATOM     36  H   UNL     1      45.516 133.399  15.925  1.00  0.00     0.211 HD
ENDBRANCH  33  35
BRANCH  33  37
ATOM     37  C   UNL     1      45.558 130.934  13.952  1.00  0.00     0.001 C 
ATOM     38  C   UNL     1      46.254 129.810  13.732  1.00  0.00     0.007 C 
ENDBRANCH  33  37
ENDBRANCH  32  33
ENDBRANCH  30  32
ENDBRANCH  29  30
ENDBRANCH   1  29
TORSDOF 13
ENDMDL


