REMARK SMILES CC[C@H]1C[C@]1([N-]C(=O)c1[nH+]oc(C)c1C)C(=O)Oc1c(Cl)c(Cl)c(N)c2ccccc12
REMARK SMILES IDX 3 1 4 2 5 3 2 4 1 5 6 6 7 7 8 8 9 9 10 10 14 11 11 12 12 13
REMARK SMILES IDX 15 15 13 16 16 17 17 18 18 19 19 20 20 21 31 22 22 23 30 24
REMARK SMILES IDX 26 25 24 26 29 27 27 28 28 29 21 30 23 31 25 32
REMARK H PARENT 10 14 25 33 25 34
ROOT
ATOM      1  C   UNL     1       3.302  -1.167   0.972  1.00  0.00    -0.012 C 
ATOM      2  C   UNL     1       2.740  -0.665   2.305  1.00  0.00     0.002 C 
ATOM      3  C   UNL     1       1.843  -0.730   1.076  1.00  0.00     0.001 C 
ENDROOT
BRANCH   1   4
ATOM      4  C   UNL     1       4.303  -0.209   0.306  1.00  0.00    -0.000 C 
ATOM      5  C   UNL     1       4.357  -0.461  -1.195  1.00  0.00     0.004 C 
ENDBRANCH   1   4
BRANCH   3   6
ATOM      6  N   UNL     1       1.515   0.552   0.462  1.00  0.00    -0.629 NA
BRANCH   6   7
ATOM      7  C   UNL     1       0.462   1.397   0.932  1.00  0.00     0.153 C 
ATOM      8  O   UNL     1      -0.192   1.076   1.961  1.00  0.00    -0.308 OA
BRANCH   7   9
ATOM      9  C   UNL     1       0.133   2.645   0.221  1.00  0.00     0.279 A 
ATOM     10  N   UNL     1      -0.850   3.486   0.598  1.00  0.00    -0.026 N 
ATOM     11  C   UNL     1       0.733   3.162  -0.919  1.00  0.00     0.072 A 
ATOM     12  O   UNL     1      -0.885   4.479  -0.240  1.00  0.00    -0.243 OA
ATOM     13  C   UNL     1       0.038   4.337  -1.163  1.00  0.00     0.187 A 
ATOM     14  H   UNL     1      -1.489   3.380   1.418  1.00  0.00     0.517 HD
ATOM     15  C   UNL     1       1.857   2.581  -1.722  1.00  0.00     0.056 C 
ATOM     16  C   UNL     1       0.266   5.303  -2.279  1.00  0.00     0.096 C 
ENDBRANCH   7   9
ENDBRANCH   6   7
ENDBRANCH   3   6
BRANCH   3  17
ATOM     17  C   UNL     1       0.825  -1.819   0.981  1.00  0.00     0.300 C 
ATOM     18  O   UNL     1       0.112  -2.104   1.982  1.00  0.00    -0.253 OA
BRANCH  17  19
ATOM     19  O   UNL     1       0.641  -2.476  -0.240  1.00  0.00    -0.425 OA
BRANCH  19  20
ATOM     20  C   UNL     1      -0.406  -3.377  -0.462  1.00  0.00     0.158 A 
ATOM     21  C   UNL     1      -0.104  -4.735  -0.607  1.00  0.00     0.105 A 
ATOM     22  C   UNL     1      -1.743  -2.936  -0.541  1.00  0.00     0.028 A 
ATOM     23  C   UNL     1      -1.129  -5.675  -0.799  1.00  0.00     0.087 A 
ATOM     24  C   UNL     1      -2.052  -1.562  -0.463  1.00  0.00     0.013 A 
ATOM     25  C   UNL     1      -2.792  -3.882  -0.713  1.00  0.00     0.010 A 
ATOM     26  C   UNL     1      -2.477  -5.260  -0.856  1.00  0.00     0.060 A 
ATOM     27  C   UNL     1      -3.375  -1.129  -0.500  1.00  0.00     0.001 A 
ATOM     28  C   UNL     1      -4.127  -3.417  -0.716  1.00  0.00     0.011 A 
ATOM     29  C   UNL     1      -4.409  -2.054  -0.613  1.00  0.00     0.001 A 
ATOM     30  Cl  UNL     1       1.583  -5.246  -0.526  1.00  0.00    -0.078 Cl
ATOM     31  Cl  UNL     1      -0.704  -7.378  -1.005  1.00  0.00    -0.080 Cl
BRANCH  26  32
ATOM     32  N   UNL     1      -3.506  -6.238  -1.088  1.00  0.00    -0.397 N 
ATOM     33  H   UNL     1      -3.355  -7.249  -0.876  1.00  0.00     0.156 HD
ATOM     34  H   UNL     1      -4.402  -6.000  -1.563  1.00  0.00     0.156 HD
ENDBRANCH  26  32
ENDBRANCH  19  20
ENDBRANCH  17  19
ENDBRANCH   3  17
TORSDOF 8


