REMARK SMILES CCCC(=O)/[N+](C)=C(\O)C1(C)CC1
REMARK SMILES IDX 6 1 4 2 5 3 7 4 8 5 9 6 10 8 12 9 13 10 11 11 3 12 2 13 1 14
REMARK H PARENT 9 7
ROOT
ATOM      1  N   UNL     1      -0.119   1.082  -0.983  1.00  0.00    -0.136 N 
ATOM      2  C   UNL     1      -1.397   0.829  -1.605  1.00  0.00     0.389 C 
ATOM      3  O   UNL     1      -1.507   0.877  -2.861  1.00  0.00    -0.220 OA
ATOM      4  C   UNL     1      -0.094   1.982   0.181  1.00  0.00     0.447 C 
ENDROOT
BRANCH   1   5
ATOM      5  C   UNL     1       0.956   0.458  -1.416  1.00  0.00     0.347 C 
BRANCH   5   6
ATOM      6  O   UNL     1       0.867  -0.392  -2.523  1.00  0.00    -0.463 OA
ATOM      7  H   UNL     1       1.683  -0.852  -2.907  1.00  0.00     0.299 HD
ENDBRANCH   5   6
BRANCH   5   8
ATOM      8  C   UNL     1       2.316   0.640  -0.777  1.00  0.00     0.090 C 
ATOM      9  C   UNL     1       3.039  -0.664  -0.447  1.00  0.00     0.023 C 
ATOM     10  C   UNL     1       2.487   0.200   0.674  1.00  0.00     0.023 C 
ATOM     11  C   UNL     1       3.227   1.748  -1.313  1.00  0.00     0.027 C 
ENDBRANCH   5   8
ENDBRANCH   1   5
BRANCH   2  12
ATOM     12  C   UNL     1      -2.601   0.471  -0.779  1.00  0.00     0.157 C 
BRANCH  12  13
ATOM     13  C   UNL     1      -2.414  -0.902  -0.128  1.00  0.00     0.012 C 
ATOM     14  C   UNL     1      -3.632  -1.287   0.707  1.00  0.00     0.004 C 
ENDBRANCH  12  13
ENDBRANCH   2  12
TORSDOF 5


