MODEL 1
REMARK VINA RESULT:      -4.9      0.000      0.000
REMARK SMILES [N-]=[N+]=Nc1cc(Cl)cc2c(CNO)c(OCCc3cn(C[C@H](N=[N+]=[N-])C(=O)[O-])[nH+]n3)ccc12
REMARK SMILES IDX 16 1 15 2 14 3 10 4 9 5 31 6 8 7 33 8 32 9 6 10 4 11 5 12
REMARK SMILES IDX 7 13 11 14 12 15 13 17 3 19 2 20 1 21 17 22 18 23 30 24
REMARK SMILES IDX 19 25 29 26 20 27 21 29 22 30 23 31 24 32 25 33 26 34 27 35
REMARK SMILES IDX 28 36
REMARK H PARENT 12 16 13 18 29 28
ROOT
ATOM      1  C   UNL     1      45.805 131.685  15.934  1.00  0.00     0.236 C 
ENDROOT
BRANCH   1   2
ATOM      2  O   UNL     1      45.146 132.909  16.249  1.00  0.00    -0.493 OA
BRANCH   2   3
ATOM      3  C   UNL     1      43.847 133.257  15.841  1.00  0.00     0.124 A 
ATOM      4  C   UNL     1      43.258 134.432  16.358  1.00  0.00     0.018 A 
ATOM      5  C   UNL     1      41.959 134.821  15.915  1.00  0.00    -0.008 A 
ATOM      6  C   UNL     1      43.138 132.467  14.926  1.00  0.00     0.047 A 
ATOM      7  C   UNL     1      41.372 136.042  16.317  1.00  0.00     0.029 A 
ATOM      8  C   UNL     1      41.231 133.975  15.027  1.00  0.00    -0.008 A 
ATOM      9  C   UNL     1      41.855 132.820  14.526  1.00  0.00     0.013 A 
ATOM     10  C   UNL     1      40.109 136.415  15.860  1.00  0.00     0.042 A 
ATOM     11  C   UNL     1      39.915 134.338  14.626  1.00  0.00     0.047 A 
ATOM     12  C   UNL     1      39.390 135.570  15.021  1.00  0.00     0.031 A 
ATOM     13  Cl  UNL     1      39.416 137.949  16.356  1.00  0.00    -0.084 Cl
BRANCH   4  14
ATOM     14  C   UNL     1      44.057 135.265  17.355  1.00  0.00     0.151 C 
BRANCH  14  15
ATOM     15  N   UNL     1      44.017 134.692  18.703  1.00  0.00    -0.201 NA
ATOM     16  H   UNL     1      43.423 133.831  18.700  1.00  0.00     0.155 HD
BRANCH  15  17
ATOM     17  O   UNL     1      43.423 135.586  19.531  1.00  0.00    -0.316 OA
ATOM     18  H   UNL     1      42.497 135.250  19.641  1.00  0.00     0.238 HD
ENDBRANCH  15  17
ENDBRANCH  14  15
ENDBRANCH   4  14
BRANCH  11  19
ATOM     19  N   UNL     1      39.078 133.493  13.826  1.00  0.00    -0.060 NA
BRANCH  19  20
ATOM     20  N   UNL     1      38.126 133.936  13.181  1.00  0.00     0.005 N 
ATOM     21  N   UNL     1      37.177 134.378  12.535  1.00  0.00    -0.003 NA
ENDBRANCH  19  20
ENDBRANCH  11  19
ENDBRANCH   2   3
ENDBRANCH   1   2
BRANCH   1  22
ATOM     22  C   UNL     1      45.366 130.597  16.911  1.00  0.00     0.106 C 
BRANCH  22  23
ATOM     23  C   UNL     1      44.992 131.185  18.236  1.00  0.00     0.135 A 
ATOM     24  N   UNL     1      43.744 131.574  18.574  1.00  0.00     0.020 NA
ATOM     25  C   UNL     1      45.814 131.328  19.336  1.00  0.00     0.183 A 
ATOM     26  N   UNL     1      43.813 131.963  19.839  1.00  0.00    -0.017 N 
ATOM     27  N   UNL     1      45.040 131.822  20.317  1.00  0.00    -0.136 N 
ATOM     28  H   UNL     1      42.999 132.321  20.384  1.00  0.00     0.526 HD
BRANCH  27  29
ATOM     29  C   UNL     1      45.459 132.171  21.674  1.00  0.00     0.207 C 
BRANCH  29  30
ATOM     30  C   UNL     1      45.214 133.660  21.980  1.00  0.00     0.145 C 
BRANCH  30  31
ATOM     31  N   UNL     1      46.343 134.245  22.699  1.00  0.00    -0.083 NA
BRANCH  31  32
ATOM     32  N   UNL     1      47.461 134.306  22.186  1.00  0.00     0.002 N 
ATOM     33  N   UNL     1      48.578 134.366  21.675  1.00  0.00    -0.003 NA
ENDBRANCH  31  32
ENDBRANCH  30  31
BRANCH  30  34
ATOM     34  C   UNL     1      43.950 133.848  22.769  1.00  0.00     0.052 C 
ATOM     35  O   UNL     1      43.693 133.109  23.757  1.00  0.00    -0.550 OA
ATOM     36  O   UNL     1      43.028 134.810  22.377  1.00  0.00    -0.550 OA
ENDBRANCH  30  34
ENDBRANCH  29  30
ENDBRANCH  27  29
ENDBRANCH  22  23
ENDBRANCH   1  22
TORSDOF 14
ENDMDL
MODEL 2
REMARK VINA RESULT:      -4.7      3.100      7.995
REMARK SMILES [N-]=[N+]=Nc1cc(Cl)cc2c(CNO)c(OCCc3cn(C[C@H](N=[N+]=[N-])C(=O)[O-])[nH+]n3)ccc12
REMARK SMILES IDX 16 1 15 2 14 3 10 4 9 5 31 6 8 7 33 8 32 9 6 10 4 11 5 12
REMARK SMILES IDX 7 13 11 14 12 15 13 17 3 19 2 20 1 21 17 22 18 23 30 24
REMARK SMILES IDX 19 25 29 26 20 27 21 29 22 30 23 31 24 32 25 33 26 34 27 35
REMARK SMILES IDX 28 36
REMARK H PARENT 12 16 13 18 29 28
ROOT
ATOM      1  C   UNL     1      45.224 131.047  17.523  1.00  0.00     0.236 C 
ENDROOT
BRANCH   1   2
ATOM      2  O   UNL     1      44.324 131.875  18.255  1.00  0.00    -0.493 OA
BRANCH   2   3
ATOM      3  C   UNL     1      44.638 132.559  19.441  1.00  0.00     0.124 A 
ATOM      4  C   UNL     1      44.065 133.830  19.671  1.00  0.00     0.018 A 
ATOM      5  C   UNL     1      44.339 134.514  20.892  1.00  0.00    -0.008 A 
ATOM      6  C   UNL     1      45.496 131.999  20.398  1.00  0.00     0.047 A 
ATOM      7  C   UNL     1      43.706 135.734  21.219  1.00  0.00     0.029 A 
ATOM      8  C   UNL     1      45.259 133.952  21.828  1.00  0.00    -0.008 A 
ATOM      9  C   UNL     1      45.799 132.682  21.569  1.00  0.00     0.013 A 
ATOM     10  C   UNL     1      43.970 136.380  22.425  1.00  0.00     0.042 A 
ATOM     11  C   UNL     1      45.570 134.660  23.023  1.00  0.00     0.047 A 
ATOM     12  C   UNL     1      44.893 135.845  23.318  1.00  0.00     0.031 A 
ATOM     13  Cl  UNL     1      43.150 137.882  22.814  1.00  0.00    -0.084 Cl
BRANCH   4  14
ATOM     14  C   UNL     1      43.141 134.412  18.607  1.00  0.00     0.151 C 
BRANCH  14  15
ATOM     15  N   UNL     1      42.037 133.503  18.286  1.00  0.00    -0.201 NA
ATOM     16  H   UNL     1      41.304 134.018  17.746  1.00  0.00     0.155 HD
BRANCH  15  17
ATOM     17  O   UNL     1      41.467 133.094  19.446  1.00  0.00    -0.316 OA
ATOM     18  H   UNL     1      40.522 132.910  19.210  1.00  0.00     0.238 HD
ENDBRANCH  15  17
ENDBRANCH  14  15
ENDBRANCH   4  14
BRANCH  11  19
ATOM     19  N   UNL     1      46.562 134.218  23.960  1.00  0.00    -0.060 NA
BRANCH  19  20
ATOM     20  N   UNL     1      47.699 134.692  23.981  1.00  0.00     0.005 N 
ATOM     21  N   UNL     1      48.833 135.167  23.999  1.00  0.00    -0.003 NA
ENDBRANCH  19  20
ENDBRANCH  11  19
ENDBRANCH   2   3
ENDBRANCH   1   2
BRANCH   1  22
ATOM     22  C   UNL     1      45.646 131.754  16.237  1.00  0.00     0.106 C 
BRANCH  22  23
ATOM     23  C   UNL     1      44.536 132.605  15.704  1.00  0.00     0.135 A 
ATOM     24  N   UNL     1      44.577 133.952  15.624  1.00  0.00     0.020 NA
ATOM     25  C   UNL     1      43.361 132.163  15.130  1.00  0.00     0.183 A 
ATOM     26  N   UNL     1      43.448 134.317  15.034  1.00  0.00    -0.017 N 
ATOM     27  N   UNL     1      42.706 133.265  14.727  1.00  0.00    -0.136 N 
ATOM     28  H   UNL     1      43.190 135.308  14.833  1.00  0.00     0.526 HD
BRANCH  27  29
ATOM     29  C   UNL     1      41.394 133.320  14.082  1.00  0.00     0.207 C 
BRANCH  29  30
ATOM     30  C   UNL     1      40.680 134.656  14.357  1.00  0.00     0.145 C 
BRANCH  30  31
ATOM     31  N   UNL     1      40.405 134.825  15.782  1.00  0.00    -0.083 NA
BRANCH  31  32
ATOM     32  N   UNL     1      40.583 135.908  16.340  1.00  0.00     0.002 N 
ATOM     33  N   UNL     1      40.761 136.989  16.899  1.00  0.00    -0.003 NA
ENDBRANCH  31  32
ENDBRANCH  30  31
BRANCH  30  34
ATOM     34  C   UNL     1      39.404 134.757  13.573  1.00  0.00     0.052 C 
ATOM     35  O   UNL     1      39.299 135.572  12.617  1.00  0.00    -0.550 OA
ATOM     36  O   UNL     1      38.308 133.984  13.934  1.00  0.00    -0.550 OA
ENDBRANCH  30  34
ENDBRANCH  29  30
ENDBRANCH  27  29
ENDBRANCH  22  23
ENDBRANCH   1  22
TORSDOF 14
ENDMDL
MODEL 3
REMARK VINA RESULT:      -4.5      2.452      3.480
REMARK SMILES [N-]=[N+]=Nc1cc(Cl)cc2c(CNO)c(OCCc3cn(C[C@H](N=[N+]=[N-])C(=O)[O-])[nH+]n3)ccc12
REMARK SMILES IDX 16 1 15 2 14 3 10 4 9 5 31 6 8 7 33 8 32 9 6 10 4 11 5 12
REMARK SMILES IDX 7 13 11 14 12 15 13 17 3 19 2 20 1 21 17 22 18 23 30 24
REMARK SMILES IDX 19 25 29 26 20 27 21 29 22 30 23 31 24 32 25 33 26 34 27 35
REMARK SMILES IDX 28 36
REMARK H PARENT 12 16 13 18 29 28
ROOT
ATOM      1  C   UNL     1      43.027 132.026  15.014  1.00  0.00     0.236 C 
ENDROOT
BRANCH   1   2
ATOM      2  O   UNL     1      41.912 132.627  15.668  1.00  0.00    -0.493 OA
BRANCH   2   3
ATOM      3  C   UNL     1      41.116 133.653  15.131  1.00  0.00     0.124 A 
ATOM      4  C   UNL     1      40.152 134.275  15.955  1.00  0.00     0.018 A 
ATOM      5  C   UNL     1      39.370 135.348  15.434  1.00  0.00    -0.008 A 
ATOM      6  C   UNL     1      41.271 134.072  13.802  1.00  0.00     0.047 A 
ATOM      7  C   UNL     1      38.472 136.076  16.247  1.00  0.00     0.029 A 
ATOM      8  C   UNL     1      39.503 135.722  14.064  1.00  0.00    -0.008 A 
ATOM      9  C   UNL     1      40.481 135.088  13.279  1.00  0.00     0.013 A 
ATOM     10  C   UNL     1      37.729 137.134  15.728  1.00  0.00     0.042 A 
ATOM     11  C   UNL     1      38.687 136.760  13.533  1.00  0.00     0.047 A 
ATOM     12  C   UNL     1      37.838 137.472  14.383  1.00  0.00     0.031 A 
ATOM     13  Cl  UNL     1      36.640 138.035  16.768  1.00  0.00    -0.084 Cl
BRANCH   4  14
ATOM     14  C   UNL     1      40.006 133.791  17.393  1.00  0.00     0.151 C 
BRANCH  14  15
ATOM     15  N   UNL     1      39.055 132.682  17.503  1.00  0.00    -0.201 NA
ATOM     16  H   UNL     1      38.705 132.424  16.553  1.00  0.00     0.155 HD
BRANCH  15  17
ATOM     17  O   UNL     1      37.987 133.104  18.224  1.00  0.00    -0.316 OA
ATOM     18  H   UNL     1      37.714 133.953  17.793  1.00  0.00     0.238 HD
ENDBRANCH  15  17
ENDBRANCH  14  15
ENDBRANCH   4  14
BRANCH  11  19
ATOM     19  N   UNL     1      38.682 137.121  12.145  1.00  0.00    -0.060 NA
BRANCH  19  20
ATOM     20  N   UNL     1      38.042 136.485  11.306  1.00  0.00     0.005 N 
ATOM     21  N   UNL     1      37.400 135.851  10.470  1.00  0.00    -0.003 NA
ENDBRANCH  19  20
ENDBRANCH  11  19
ENDBRANCH   2   3
ENDBRANCH   1   2
BRANCH   1  22
ATOM     22  C   UNL     1      44.323 132.642  15.533  1.00  0.00     0.106 C 
BRANCH  22  23
ATOM     23  C   UNL     1      44.426 132.501  17.020  1.00  0.00     0.135 A 
ATOM     24  N   UNL     1      44.829 131.381  17.656  1.00  0.00     0.020 NA
ATOM     25  C   UNL     1      44.230 133.496  17.957  1.00  0.00     0.183 A 
ATOM     26  N   UNL     1      44.856 131.682  18.946  1.00  0.00    -0.017 N 
ATOM     27  N   UNL     1      44.505 132.942  19.151  1.00  0.00    -0.136 N 
ATOM     28  H   UNL     1      45.130 131.011  19.696  1.00  0.00     0.526 HD
BRANCH  27  29
ATOM     29  C   UNL     1      44.418 133.589  20.460  1.00  0.00     0.207 C 
BRANCH  29  30
ATOM     30  C   UNL     1      43.073 133.300  21.150  1.00  0.00     0.145 C 
BRANCH  30  31
ATOM     31  N   UNL     1      42.619 131.939  20.874  1.00  0.00    -0.083 NA
BRANCH  31  32
ATOM     32  N   UNL     1      42.715 131.052  21.723  1.00  0.00     0.002 N 
ATOM     33  N   UNL     1      42.812 130.167  22.571  1.00  0.00    -0.003 NA
ENDBRANCH  31  32
ENDBRANCH  30  31
BRANCH  30  34
ATOM     34  C   UNL     1      42.025 134.287  20.724  1.00  0.00     0.052 C 
ATOM     35  O   UNL     1      40.800 133.996  20.793  1.00  0.00    -0.550 OA
ATOM     36  O   UNL     1      42.406 135.515  20.198  1.00  0.00    -0.550 OA
ENDBRANCH  30  34
ENDBRANCH  29  30
ENDBRANCH  27  29
ENDBRANCH  22  23
ENDBRANCH   1  22
TORSDOF 14
ENDMDL
MODEL 4
REMARK VINA RESULT:      -4.5      3.476      5.352
REMARK SMILES [N-]=[N+]=Nc1cc(Cl)cc2c(CNO)c(OCCc3cn(C[C@H](N=[N+]=[N-])C(=O)[O-])[nH+]n3)ccc12
REMARK SMILES IDX 16 1 15 2 14 3 10 4 9 5 31 6 8 7 33 8 32 9 6 10 4 11 5 12
REMARK SMILES IDX 7 13 11 14 12 15 13 17 3 19 2 20 1 21 17 22 18 23 30 24
REMARK SMILES IDX 19 25 29 26 20 27 21 29 22 30 23 31 24 32 25 33 26 34 27 35
REMARK SMILES IDX 28 36
REMARK H PARENT 12 16 13 18 29 28
ROOT
ATOM      1  C   UNL     1      43.371 132.190  22.260  1.00  0.00     0.236 C 
ENDROOT
BRANCH   1   2
ATOM      2  O   UNL     1      44.079 131.825  21.078  1.00  0.00    -0.493 OA
BRANCH   2   3
ATOM      3  C   UNL     1      43.635 132.055  19.765  1.00  0.00     0.124 A 
ATOM      4  C   UNL     1      44.397 131.553  18.687  1.00  0.00     0.018 A 
ATOM      5  C   UNL     1      43.931 131.740  17.351  1.00  0.00    -0.008 A 
ATOM      6  C   UNL     1      42.450 132.760  19.513  1.00  0.00     0.047 A 
ATOM      7  C   UNL     1      44.597 131.164  16.246  1.00  0.00     0.029 A 
ATOM      8  C   UNL     1      42.753 132.508  17.113  1.00  0.00    -0.008 A 
ATOM      9  C   UNL     1      42.017 132.981  18.212  1.00  0.00     0.013 A 
ATOM     10  C   UNL     1      44.118 131.340  14.949  1.00  0.00     0.042 A 
ATOM     11  C   UNL     1      42.318 132.737  15.777  1.00  0.00     0.047 A 
ATOM     12  C   UNL     1      42.988 132.119  14.719  1.00  0.00     0.031 A 
ATOM     13  Cl  UNL     1      44.951 130.592  13.598  1.00  0.00    -0.084 Cl
BRANCH   4  14
ATOM     14  C   UNL     1      45.683 130.795  18.998  1.00  0.00     0.151 C 
BRANCH  14  15
ATOM     15  N   UNL     1      46.460 131.448  20.055  1.00  0.00    -0.201 NA
ATOM     16  H   UNL     1      47.416 131.676  19.697  1.00  0.00     0.155 HD
BRANCH  15  17
ATOM     17  O   UNL     1      46.613 130.571  21.077  1.00  0.00    -0.316 OA
ATOM     18  H   UNL     1      47.062 129.787  20.670  1.00  0.00     0.238 HD
ENDBRANCH  15  17
ENDBRANCH  14  15
ENDBRANCH   4  14
BRANCH  11  19
ATOM     19  N   UNL     1      41.210 133.585  15.448  1.00  0.00    -0.060 NA
BRANCH  19  20
ATOM     20  N   UNL     1      41.034 134.018  14.308  1.00  0.00     0.005 N 
ATOM     21  N   UNL     1      40.862 134.450  13.169  1.00  0.00    -0.003 NA
ENDBRANCH  19  20
ENDBRANCH  11  19
ENDBRANCH   2   3
ENDBRANCH   1   2
BRANCH   1  22
ATOM     22  C   UNL     1      44.332 132.819  23.265  1.00  0.00     0.106 C 
BRANCH  22  23
ATOM     23  C   UNL     1      44.757 134.184  22.819  1.00  0.00     0.135 A 
ATOM     24  N   UNL     1      44.247 135.338  23.300  1.00  0.00     0.020 NA
ATOM     25  C   UNL     1      45.781 134.482  21.943  1.00  0.00     0.183 A 
ATOM     26  N   UNL     1      44.931 136.310  22.715  1.00  0.00    -0.017 N 
ATOM     27  N   UNL     1      45.855 135.824  21.901  1.00  0.00    -0.136 N 
ATOM     28  H   UNL     1      44.763 137.326  22.886  1.00  0.00     0.526 HD
BRANCH  27  29
ATOM     29  C   UNL     1      46.771 136.628  21.092  1.00  0.00     0.207 C 
BRANCH  29  30
ATOM     30  C   UNL     1      46.520 138.135  21.277  1.00  0.00     0.145 C 
BRANCH  30  31
ATOM     31  N   UNL     1      46.100 138.759  20.024  1.00  0.00    -0.083 NA
BRANCH  31  32
ATOM     32  N   UNL     1      45.187 138.281  19.350  1.00  0.00     0.002 N 
ATOM     33  N   UNL     1      44.276 137.803  18.677  1.00  0.00    -0.003 NA
ENDBRANCH  31  32
ENDBRANCH  30  31
BRANCH  30  34
ATOM     34  C   UNL     1      47.743 138.824  21.809  1.00  0.00     0.052 C 
ATOM     35  O   UNL     1      47.798 139.198  23.012  1.00  0.00    -0.550 OA
ATOM     36  O   UNL     1      48.804 139.102  20.958  1.00  0.00    -0.550 OA
ENDBRANCH  30  34
ENDBRANCH  29  30
ENDBRANCH  27  29
ENDBRANCH  22  23
ENDBRANCH   1  22
TORSDOF 14
ENDMDL
MODEL 5
REMARK VINA RESULT:      -4.4      2.365      3.375
REMARK SMILES [N-]=[N+]=Nc1cc(Cl)cc2c(CNO)c(OCCc3cn(C[C@H](N=[N+]=[N-])C(=O)[O-])[nH+]n3)ccc12
REMARK SMILES IDX 16 1 15 2 14 3 10 4 9 5 31 6 8 7 33 8 32 9 6 10 4 11 5 12
REMARK SMILES IDX 7 13 11 14 12 15 13 17 3 19 2 20 1 21 17 22 18 23 30 24
REMARK SMILES IDX 19 25 29 26 20 27 21 29 22 30 23 31 24 32 25 33 26 34 27 35
REMARK SMILES IDX 28 36
REMARK H PARENT 12 16 13 18 29 28
ROOT
ATOM      1  C   UNL     1      45.572 130.875  18.028  1.00  0.00     0.236 C 
ENDROOT
BRANCH   1   2
ATOM      2  O   UNL     1      44.376 130.967  17.257  1.00  0.00    -0.493 OA
BRANCH   2   3
ATOM      3  C   UNL     1      43.494 132.060  17.259  1.00  0.00     0.124 A 
ATOM      4  C   UNL     1      43.857 133.235  16.563  1.00  0.00     0.018 A 
ATOM      5  C   UNL     1      42.950 134.335  16.519  1.00  0.00    -0.008 A 
ATOM      6  C   UNL     1      42.264 131.999  17.928  1.00  0.00     0.047 A 
ATOM      7  C   UNL     1      43.217 135.487  15.747  1.00  0.00     0.029 A 
ATOM      8  C   UNL     1      41.728 134.274  17.252  1.00  0.00    -0.008 A 
ATOM      9  C   UNL     1      41.396 133.085  17.923  1.00  0.00     0.013 A 
ATOM     10  C   UNL     1      42.311 136.545  15.700  1.00  0.00     0.042 A 
ATOM     11  C   UNL     1      40.847 135.391  17.249  1.00  0.00     0.047 A 
ATOM     12  C   UNL     1      41.136 136.495  16.444  1.00  0.00     0.031 A 
ATOM     13  Cl  UNL     1      42.658 137.954  14.712  1.00  0.00    -0.084 Cl
BRANCH   4  14
ATOM     14  C   UNL     1      45.205 133.268  15.851  1.00  0.00     0.151 C 
BRANCH  14  15
ATOM     15  N   UNL     1      45.301 132.240  14.812  1.00  0.00    -0.201 NA
ATOM     16  H   UNL     1      44.819 131.369  15.135  1.00  0.00     0.155 HD
BRANCH  15  17
ATOM     17  O   UNL     1      46.609 131.932  14.634  1.00  0.00    -0.316 OA
ATOM     18  H   UNL     1      47.095 132.539  15.247  1.00  0.00     0.238 HD
ENDBRANCH  15  17
ENDBRANCH  14  15
ENDBRANCH   4  14
BRANCH  11  19
ATOM     19  N   UNL     1      39.654 135.453  18.044  1.00  0.00    -0.060 NA
BRANCH  19  20
ATOM     20  N   UNL     1      38.564 135.070  17.618  1.00  0.00     0.005 N 
ATOM     21  N   UNL     1      37.474 134.691  17.190  1.00  0.00    -0.003 NA
ENDBRANCH  19  20
ENDBRANCH  11  19
ENDBRANCH   2   3
ENDBRANCH   1   2
BRANCH   1  22
ATOM     22  C   UNL     1      45.226 130.592  19.487  1.00  0.00     0.106 C 
BRANCH  22  23
ATOM     23  C   UNL     1      45.477 131.796  20.341  1.00  0.00     0.135 A 
ATOM     24  N   UNL     1      46.571 131.970  21.113  1.00  0.00     0.020 NA
ATOM     25  C   UNL     1      44.707 132.940  20.401  1.00  0.00     0.183 A 
ATOM     26  N   UNL     1      46.455 133.178  21.644  1.00  0.00    -0.017 N 
ATOM     27  N   UNL     1      45.350 133.779  21.230  1.00  0.00    -0.136 N 
ATOM     28  H   UNL     1      47.155 133.599  22.294  1.00  0.00     0.526 HD
BRANCH  27  29
ATOM     29  C   UNL     1      44.916 135.115  21.637  1.00  0.00     0.207 C 
BRANCH  29  30
ATOM     30  C   UNL     1      43.418 135.336  21.361  1.00  0.00     0.145 C 
BRANCH  30  31
ATOM     31  N   UNL     1      43.212 136.389  20.370  1.00  0.00    -0.083 NA
BRANCH  31  32
ATOM     32  N   UNL     1      44.028 136.581  19.468  1.00  0.00     0.002 N 
ATOM     33  N   UNL     1      44.842 136.775  18.566  1.00  0.00    -0.003 NA
ENDBRANCH  31  32
ENDBRANCH  30  31
BRANCH  30  34
ATOM     34  C   UNL     1      42.680 135.670  22.626  1.00  0.00     0.052 C 
ATOM     35  O   UNL     1      42.506 134.797  23.518  1.00  0.00    -0.550 OA
ATOM     36  O   UNL     1      42.137 136.937  22.794  1.00  0.00    -0.550 OA
ENDBRANCH  30  34
ENDBRANCH  29  30
ENDBRANCH  27  29
ENDBRANCH  22  23
ENDBRANCH   1  22
TORSDOF 14
ENDMDL
MODEL 6
REMARK VINA RESULT:      -4.3      3.552      8.017
REMARK SMILES [N-]=[N+]=Nc1cc(Cl)cc2c(CNO)c(OCCc3cn(C[C@H](N=[N+]=[N-])C(=O)[O-])[nH+]n3)ccc12
REMARK SMILES IDX 16 1 15 2 14 3 10 4 9 5 31 6 8 7 33 8 32 9 6 10 4 11 5 12
REMARK SMILES IDX 7 13 11 14 12 15 13 17 3 19 2 20 1 21 17 22 18 23 30 24
REMARK SMILES IDX 19 25 29 26 20 27 21 29 22 30 23 31 24 32 25 33 26 34 27 35
REMARK SMILES IDX 28 36
REMARK H PARENT 12 16 13 18 29 28
ROOT
ATOM      1  C   UNL     1      43.753 131.455  15.813  1.00  0.00     0.236 C 
ENDROOT
BRANCH   1   2
ATOM      2  O   UNL     1      44.617 132.268  16.601  1.00  0.00    -0.493 OA
BRANCH   2   3
ATOM      3  C   UNL     1      44.407 132.602  17.950  1.00  0.00     0.124 A 
ATOM      4  C   UNL     1      44.768 131.671  18.950  1.00  0.00     0.018 A 
ATOM      5  C   UNL     1      44.603 132.017  20.324  1.00  0.00    -0.008 A 
ATOM      6  C   UNL     1      43.859 133.839  18.315  1.00  0.00     0.047 A 
ATOM      7  C   UNL     1      45.049 131.169  21.362  1.00  0.00     0.029 A 
ATOM      8  C   UNL     1      43.991 133.258  20.673  1.00  0.00    -0.008 A 
ATOM      9  C   UNL     1      43.656 134.161  19.651  1.00  0.00     0.013 A 
ATOM     10  C   UNL     1      44.897 131.530  22.699  1.00  0.00     0.042 A 
ATOM     11  C   UNL     1      43.780 133.579  22.043  1.00  0.00     0.047 A 
ATOM     12  C   UNL     1      44.269 132.726  23.035  1.00  0.00     0.031 A 
ATOM     13  Cl  UNL     1      45.484 130.468  23.967  1.00  0.00    -0.084 Cl
BRANCH   4  14
ATOM     14  C   UNL     1      45.357 130.333  18.517  1.00  0.00     0.151 C 
BRANCH  14  15
ATOM     15  N   UNL     1      46.538 130.505  17.666  1.00  0.00    -0.201 NA
ATOM     16  H   UNL     1      46.527 131.460  17.240  1.00  0.00     0.155 HD
BRANCH  15  17
ATOM     17  O   UNL     1      46.466 129.611  16.649  1.00  0.00    -0.316 OA
ATOM     18  H   UNL     1      45.649 129.083  16.836  1.00  0.00     0.238 HD
ENDBRANCH  15  17
ENDBRANCH  14  15
ENDBRANCH   4  14
BRANCH  11  19
ATOM     19  N   UNL     1      43.077 134.753  22.475  1.00  0.00    -0.060 NA
BRANCH  19  20
ATOM     20  N   UNL     1      43.665 135.787  22.793  1.00  0.00     0.005 N 
ATOM     21  N   UNL     1      44.250 136.820  23.114  1.00  0.00    -0.003 NA
ENDBRANCH  19  20
ENDBRANCH  11  19
ENDBRANCH   2   3
ENDBRANCH   1   2
BRANCH   1  22
ATOM     22  C   UNL     1      43.574 132.079  14.431  1.00  0.00     0.106 C 
BRANCH  22  23
ATOM     23  C   UNL     1      42.441 133.057  14.427  1.00  0.00     0.135 A 
ATOM     24  N   UNL     1      41.166 132.749  14.107  1.00  0.00     0.020 NA
ATOM     25  C   UNL     1      42.488 134.375  14.837  1.00  0.00     0.183 A 
ATOM     26  N   UNL     1      40.464 133.856  14.298  1.00  0.00    -0.017 N 
ATOM     27  N   UNL     1      41.232 134.841  14.736  1.00  0.00    -0.136 N 
ATOM     28  H   UNL     1      39.437 133.931  14.131  1.00  0.00     0.526 HD
BRANCH  27  29
ATOM     29  C   UNL     1      40.773 136.198  15.032  1.00  0.00     0.207 C 
BRANCH  29  30
ATOM     30  C   UNL     1      39.309 136.212  15.509  1.00  0.00     0.145 C 
BRANCH  30  31
ATOM     31  N   UNL     1      38.788 137.576  15.579  1.00  0.00    -0.083 NA
BRANCH  31  32
ATOM     32  N   UNL     1      37.581 137.791  15.685  1.00  0.00     0.002 N 
ATOM     33  N   UNL     1      36.375 138.006  15.793  1.00  0.00    -0.003 NA
ENDBRANCH  31  32
ENDBRANCH  30  31
BRANCH  30  34
ATOM     34  C   UNL     1      39.170 135.541  16.844  1.00  0.00     0.052 C 
ATOM     35  O   UNL     1      39.618 136.086  17.889  1.00  0.00    -0.550 OA
ATOM     36  O   UNL     1      38.589 134.282  16.927  1.00  0.00    -0.550 OA
ENDBRANCH  30  34
ENDBRANCH  29  30
ENDBRANCH  27  29
ENDBRANCH  22  23
ENDBRANCH   1  22
TORSDOF 14
ENDMDL
MODEL 7
REMARK VINA RESULT:      -4.3      3.741      7.931
REMARK SMILES [N-]=[N+]=Nc1cc(Cl)cc2c(CNO)c(OCCc3cn(C[C@H](N=[N+]=[N-])C(=O)[O-])[nH+]n3)ccc12
REMARK SMILES IDX 16 1 15 2 14 3 10 4 9 5 31 6 8 7 33 8 32 9 6 10 4 11 5 12
REMARK SMILES IDX 7 13 11 14 12 15 13 17 3 19 2 20 1 21 17 22 18 23 30 24
REMARK SMILES IDX 19 25 29 26 20 27 21 29 22 30 23 31 24 32 25 33 26 34 27 35
REMARK SMILES IDX 28 36
REMARK H PARENT 12 16 13 18 29 28
ROOT
ATOM      1  C   UNL     1      43.379 131.746  14.806  1.00  0.00     0.236 C 
ENDROOT
BRANCH   1   2
ATOM      2  O   UNL     1      43.527 131.094  16.065  1.00  0.00    -0.493 OA
BRANCH   2   3
ATOM      3  C   UNL     1      43.267 131.680  17.315  1.00  0.00     0.124 A 
ATOM      4  C   UNL     1      44.341 131.899  18.205  1.00  0.00     0.018 A 
ATOM      5  C   UNL     1      44.097 132.536  19.458  1.00  0.00    -0.008 A 
ATOM      6  C   UNL     1      41.968 132.057  17.684  1.00  0.00     0.047 A 
ATOM      7  C   UNL     1      45.150 132.878  20.336  1.00  0.00     0.029 A 
ATOM      8  C   UNL     1      42.761 132.861  19.839  1.00  0.00    -0.008 A 
ATOM      9  C   UNL     1      41.720 132.637  18.921  1.00  0.00     0.013 A 
ATOM     10  C   UNL     1      44.896 133.517  21.548  1.00  0.00     0.042 A 
ATOM     11  C   UNL     1      42.513 133.450  21.110  1.00  0.00     0.047 A 
ATOM     12  C   UNL     1      43.588 133.801  21.929  1.00  0.00     0.031 A 
ATOM     13  Cl  UNL     1      46.227 133.952  22.606  1.00  0.00    -0.084 Cl
BRANCH   4  14
ATOM     14  C   UNL     1      45.740 131.473  17.773  1.00  0.00     0.151 C 
BRANCH  14  15
ATOM     15  N   UNL     1      45.814 130.034  17.503  1.00  0.00    -0.201 NA
ATOM     16  H   UNL     1      45.983 129.518  18.396  1.00  0.00     0.155 HD
BRANCH  15  17
ATOM     17  O   UNL     1      46.880 129.804  16.698  1.00  0.00    -0.316 OA
ATOM     18  H   UNL     1      47.511 130.541  16.901  1.00  0.00     0.238 HD
ENDBRANCH  15  17
ENDBRANCH  14  15
ENDBRANCH   4  14
BRANCH  11  19
ATOM     19  N   UNL     1      41.194 133.706  21.612  1.00  0.00    -0.060 NA
BRANCH  19  20
ATOM     20  N   UNL     1      40.830 134.834  21.948  1.00  0.00     0.005 N 
ATOM     21  N   UNL     1      40.467 135.960  22.287  1.00  0.00    -0.003 NA
ENDBRANCH  19  20
ENDBRANCH  11  19
ENDBRANCH   2   3
ENDBRANCH   1   2
BRANCH   1  22
ATOM     22  C   UNL     1      43.349 133.258  15.009  1.00  0.00     0.106 C 
BRANCH  22  23
ATOM     23  C   UNL     1      42.032 133.830  14.584  1.00  0.00     0.135 A 
ATOM     24  N   UNL     1      40.957 133.094  14.231  1.00  0.00     0.020 NA
ATOM     25  C   UNL     1      41.675 135.164  14.580  1.00  0.00     0.183 A 
ATOM     26  N   UNL     1      39.981 133.960  14.000  1.00  0.00    -0.017 N 
ATOM     27  N   UNL     1      40.385 135.203  14.205  1.00  0.00    -0.136 N 
ATOM     28  H   UNL     1      39.018 133.687  13.705  1.00  0.00     0.526 HD
BRANCH  27  29
ATOM     29  C   UNL     1      39.559 136.397  14.025  1.00  0.00     0.207 C 
BRANCH  29  30
ATOM     30  C   UNL     1      38.556 136.574  15.180  1.00  0.00     0.145 C 
BRANCH  30  31
ATOM     31  N   UNL     1      37.180 136.571  14.690  1.00  0.00    -0.083 NA
BRANCH  31  32
ATOM     32  N   UNL     1      36.816 135.779  13.820  1.00  0.00     0.002 N 
ATOM     33  N   UNL     1      36.451 134.990  12.951  1.00  0.00    -0.003 NA
ENDBRANCH  31  32
ENDBRANCH  30  31
BRANCH  30  34
ATOM     34  C   UNL     1      38.827 137.839  15.941  1.00  0.00     0.052 C 
ATOM     35  O   UNL     1      37.926 138.708  16.087  1.00  0.00    -0.550 OA
ATOM     36  O   UNL     1      40.098 138.082  16.446  1.00  0.00    -0.550 OA
ENDBRANCH  30  34
ENDBRANCH  29  30
ENDBRANCH  27  29
ENDBRANCH  22  23
ENDBRANCH   1  22
TORSDOF 14
ENDMDL
MODEL 8
REMARK VINA RESULT:      -4.3      2.696      4.563
REMARK SMILES [N-]=[N+]=Nc1cc(Cl)cc2c(CNO)c(OCCc3cn(C[C@H](N=[N+]=[N-])C(=O)[O-])[nH+]n3)ccc12
REMARK SMILES IDX 16 1 15 2 14 3 10 4 9 5 31 6 8 7 33 8 32 9 6 10 4 11 5 12
REMARK SMILES IDX 7 13 11 14 12 15 13 17 3 19 2 20 1 21 17 22 18 23 30 24
REMARK SMILES IDX 19 25 29 26 20 27 21 29 22 30 23 31 24 32 25 33 26 34 27 35
REMARK SMILES IDX 28 36
REMARK H PARENT 12 16 13 18 29 28
ROOT
ATOM      1  C   UNL     1      45.043 132.558  15.460  1.00  0.00     0.236 C 
ENDROOT
BRANCH   1   2
ATOM      2  O   UNL     1      43.854 133.242  15.072  1.00  0.00    -0.493 OA
BRANCH   2   3
ATOM      3  C   UNL     1      43.502 134.543  15.468  1.00  0.00     0.124 A 
ATOM      4  C   UNL     1      42.389 135.166  14.862  1.00  0.00     0.018 A 
ATOM      5  C   UNL     1      41.995 136.469  15.290  1.00  0.00    -0.008 A 
ATOM      6  C   UNL     1      44.229 135.222  16.456  1.00  0.00     0.047 A 
ATOM      7  C   UNL     1      40.826 137.091  14.796  1.00  0.00     0.029 A 
ATOM      8  C   UNL     1      42.780 137.165  16.256  1.00  0.00    -0.008 A 
ATOM      9  C   UNL     1      43.873 136.508  16.844  1.00  0.00     0.013 A 
ATOM     10  C   UNL     1      40.444 138.356  15.238  1.00  0.00     0.042 A 
ATOM     11  C   UNL     1      42.414 138.485  16.644  1.00  0.00     0.047 A 
ATOM     12  C   UNL     1      41.232 139.044  16.155  1.00  0.00     0.031 A 
ATOM     13  Cl  UNL     1      38.974 139.092  14.625  1.00  0.00    -0.084 Cl
BRANCH   4  14
ATOM     14  C   UNL     1      41.625 134.401  13.788  1.00  0.00     0.151 C 
BRANCH  14  15
ATOM     15  N   UNL     1      40.951 133.220  14.332  1.00  0.00    -0.201 NA
ATOM     16  H   UNL     1      41.063 133.200  15.372  1.00  0.00     0.155 HD
BRANCH  15  17
ATOM     17  O   UNL     1      41.562 132.114  13.841  1.00  0.00    -0.316 OA
ATOM     18  H   UNL     1      41.233 131.372  14.411  1.00  0.00     0.238 HD
ENDBRANCH  15  17
ENDBRANCH  14  15
ENDBRANCH   4  14
BRANCH  11  19
ATOM     19  N   UNL     1      43.208 139.291  17.525  1.00  0.00    -0.060 NA
BRANCH  19  20
ATOM     20  N   UNL     1      44.135 138.821  18.186  1.00  0.00     0.005 N 
ATOM     21  N   UNL     1      45.063 138.353  18.844  1.00  0.00    -0.003 NA
ENDBRANCH  19  20
ENDBRANCH  11  19
ENDBRANCH   2   3
ENDBRANCH   1   2
BRANCH   1  22
ATOM     22  C   UNL     1      44.684 131.220  16.100  1.00  0.00     0.106 C 
BRANCH  22  23
ATOM     23  C   UNL     1      44.314 131.398  17.540  1.00  0.00     0.135 A 
ATOM     24  N   UNL     1      43.100 131.801  17.973  1.00  0.00     0.020 NA
ATOM     25  C   UNL     1      45.095 131.090  18.636  1.00  0.00     0.183 A 
ATOM     26  N   UNL     1      43.151 131.758  19.296  1.00  0.00    -0.017 N 
ATOM     27  N   UNL     1      44.333 131.334  19.716  1.00  0.00    -0.136 N 
ATOM     28  H   UNL     1      42.355 132.017  19.919  1.00  0.00     0.526 HD
BRANCH  27  29
ATOM     29  C   UNL     1      44.723 131.185  21.118  1.00  0.00     0.207 C 
BRANCH  29  30
ATOM     30  C   UNL     1      43.540 130.737  21.995  1.00  0.00     0.145 C 
BRANCH  30  31
ATOM     31  N   UNL     1      42.774 131.884  22.476  1.00  0.00    -0.083 NA
BRANCH  31  32
ATOM     32  N   UNL     1      42.121 131.821  23.518  1.00  0.00     0.002 N 
ATOM     33  N   UNL     1      41.468 131.756  24.558  1.00  0.00    -0.003 NA
ENDBRANCH  31  32
ENDBRANCH  30  31
BRANCH  30  34
ATOM     34  C   UNL     1      44.011 129.910  23.156  1.00  0.00     0.052 C 
ATOM     35  O   UNL     1      45.109 130.161  23.721  1.00  0.00    -0.550 OA
ATOM     36  O   UNL     1      43.258 128.823  23.580  1.00  0.00    -0.550 OA
ENDBRANCH  30  34
ENDBRANCH  29  30
ENDBRANCH  27  29
ENDBRANCH  22  23
ENDBRANCH   1  22
TORSDOF 14
ENDMDL
MODEL 9
REMARK VINA RESULT:      -4.2      2.589      3.670
REMARK SMILES [N-]=[N+]=Nc1cc(Cl)cc2c(CNO)c(OCCc3cn(C[C@H](N=[N+]=[N-])C(=O)[O-])[nH+]n3)ccc12
REMARK SMILES IDX 16 1 15 2 14 3 10 4 9 5 31 6 8 7 33 8 32 9 6 10 4 11 5 12
REMARK SMILES IDX 7 13 11 14 12 15 13 17 3 19 2 20 1 21 17 22 18 23 30 24
REMARK SMILES IDX 19 25 29 26 20 27 21 29 22 30 23 31 24 32 25 33 26 34 27 35
REMARK SMILES IDX 28 36
REMARK H PARENT 12 16 13 18 29 28
ROOT
ATOM      1  C   UNL     1      44.872 131.398  17.471  1.00  0.00     0.236 C 
ENDROOT
BRANCH   1   2
ATOM      2  O   UNL     1      45.126 132.528  16.640  1.00  0.00    -0.493 OA
BRANCH   2   3
ATOM      3  C   UNL     1      44.183 133.513  16.302  1.00  0.00     0.124 A 
ATOM      4  C   UNL     1      43.094 133.162  15.474  1.00  0.00     0.018 A 
ATOM      5  C   UNL     1      42.104 134.141  15.162  1.00  0.00    -0.008 A 
ATOM      6  C   UNL     1      44.299 134.825  16.782  1.00  0.00     0.047 A 
ATOM      7  C   UNL     1      40.941 133.815  14.430  1.00  0.00     0.029 A 
ATOM      8  C   UNL     1      42.270 135.484  15.613  1.00  0.00    -0.008 A 
ATOM      9  C   UNL     1      43.360 135.792  16.445  1.00  0.00     0.013 A 
ATOM     10  C   UNL     1      39.974 134.778  14.150  1.00  0.00     0.042 A 
ATOM     11  C   UNL     1      41.308 136.472  15.259  1.00  0.00     0.047 A 
ATOM     12  C   UNL     1      40.158 136.094  14.564  1.00  0.00     0.031 A 
ATOM     13  Cl  UNL     1      38.528 134.337  13.260  1.00  0.00    -0.084 Cl
BRANCH   4  14
ATOM     14  C   UNL     1      43.001 131.728  14.966  1.00  0.00     0.151 C 
BRANCH  14  15
ATOM     15  N   UNL     1      44.206 131.327  14.235  1.00  0.00    -0.201 NA
ATOM     16  H   UNL     1      44.726 132.179  13.922  1.00  0.00     0.155 HD
BRANCH  15  17
ATOM     17  O   UNL     1      43.827 130.656  13.119  1.00  0.00    -0.316 OA
ATOM     18  H   UNL     1      44.628 130.136  12.856  1.00  0.00     0.238 HD
ENDBRANCH  15  17
ENDBRANCH  14  15
ENDBRANCH   4  14
BRANCH  11  19
ATOM     19  N   UNL     1      41.457 137.862  15.579  1.00  0.00    -0.060 NA
BRANCH  19  20
ATOM     20  N   UNL     1      41.072 138.330  16.652  1.00  0.00     0.005 N 
ATOM     21  N   UNL     1      40.685 138.800  17.721  1.00  0.00    -0.003 NA
ENDBRANCH  19  20
ENDBRANCH  11  19
ENDBRANCH   2   3
ENDBRANCH   1   2
BRANCH   1  22
ATOM     22  C   UNL     1      44.038 131.822  18.677  1.00  0.00     0.106 C 
BRANCH  22  23
ATOM     23  C   UNL     1      44.913 132.121  19.855  1.00  0.00     0.135 A 
ATOM     24  N   UNL     1      45.780 131.245  20.405  1.00  0.00     0.020 NA
ATOM     25  C   UNL     1      45.050 133.338  20.492  1.00  0.00     0.183 A 
ATOM     26  N   UNL     1      46.410 131.908  21.364  1.00  0.00    -0.017 N 
ATOM     27  N   UNL     1      45.993 133.162  21.433  1.00  0.00    -0.136 N 
ATOM     28  H   UNL     1      47.147 131.490  21.974  1.00  0.00     0.526 HD
BRANCH  27  29
ATOM     29  C   UNL     1      46.475 134.157  22.390  1.00  0.00     0.207 C 
BRANCH  29  30
ATOM     30  C   UNL     1      46.848 135.480  21.697  1.00  0.00     0.145 C 
BRANCH  30  31
ATOM     31  N   UNL     1      48.259 135.802  21.896  1.00  0.00    -0.083 NA
BRANCH  31  32
ATOM     32  N   UNL     1      48.939 136.274  20.985  1.00  0.00     0.002 N 
ATOM     33  N   UNL     1      49.619 136.743  20.074  1.00  0.00    -0.003 NA
ENDBRANCH  31  32
ENDBRANCH  30  31
BRANCH  30  34
ATOM     34  C   UNL     1      45.989 136.609  22.189  1.00  0.00     0.052 C 
ATOM     35  O   UNL     1      46.501 137.717  22.503  1.00  0.00    -0.550 OA
ATOM     36  O   UNL     1      44.624 136.417  22.350  1.00  0.00    -0.550 OA
ENDBRANCH  30  34
ENDBRANCH  29  30
ENDBRANCH  27  29
ENDBRANCH  22  23
ENDBRANCH   1  22
TORSDOF 14
ENDMDL


