REMARK SMILES C#C[C@@](O)(c1cc(N=[N+]=[N-])cc(SC(C)(C)CNC[C@](C)(O)C=C)ccc2cc1CC2)C(C)(C)C
REMARK SMILES IDX 14 1 15 2 16 3 13 4 12 5 5 6 6 7 29 8 7 9 28 10 30 11 11 12
REMARK SMILES IDX 27 13 31 14 26 15 25 16 3 17 2 18 1 19 4 20 32 22 33 23
REMARK SMILES IDX 34 24 35 25 8 26 9 27 10 28 17 29 18 30 19 32 20 33 21 34
REMARK SMILES IDX 22 35 23 37 24 38
REMARK H PARENT 4 21 18 31 22 36
ROOT
ATOM      1  C   UNL     1       2.518  -2.110   0.585  1.00  0.00     0.027 C 
ATOM      2  C   UNL     1       3.756  -2.982   0.873  1.00  0.00     0.024 C 
ATOM      3  C   UNL     1       1.264  -2.940   0.915  1.00  0.00     0.024 C 
ENDROOT
BRANCH   1   4
ATOM      4  S   UNL     1       2.612  -0.644   1.724  1.00  0.00    -0.119 SA
BRANCH   4   5
ATOM      5  C   UNL     1       1.303   0.380   1.010  1.00  0.00     0.008 A 
ATOM      6  C   UNL     1      -2.774   1.209   1.956  1.00  0.00    -0.000 A 
ATOM      7  C   UNL     1      -1.905   0.492   2.835  1.00  0.00     0.018 A 
ATOM      8  C   UNL     1      -2.238   2.172   1.040  1.00  0.00    -0.040 A 
ATOM      9  C   UNL     1      -0.561   0.102   2.583  1.00  0.00     0.039 A 
ATOM     10  C   UNL     1      -0.946   2.660   1.120  1.00  0.00     0.007 A 
ATOM     11  C   UNL     1      -2.770   2.457  -0.338  1.00  0.00     0.041 C 
ATOM     12  C   UNL     1      -0.036   0.067   1.277  1.00  0.00     0.025 A 
ATOM     13  C   UNL     1      -0.430   2.770  -0.147  1.00  0.00    -0.047 A 
ATOM     14  C   UNL     1      -1.527   2.845  -1.151  1.00  0.00     0.040 C 
ATOM     15  C   UNL     1       0.875   2.389  -0.506  1.00  0.00     0.005 A 
ATOM     16  C   UNL     1       1.693   1.433   0.142  1.00  0.00     0.015 A 
BRANCH   6  17
ATOM     17  C   UNL     1      -4.310   1.013   2.099  1.00  0.00     0.155 C 
BRANCH  17  18
ATOM     18  C   UNL     1      -4.673   1.302   3.512  1.00  0.00    -0.066 C 
ATOM     19  C   UNL     1      -4.969   1.553   4.654  1.00  0.00     0.007 C 
ENDBRANCH  17  18
BRANCH  17  20
ATOM     20  O   UNL     1      -4.960   1.974   1.293  1.00  0.00    -0.373 OA
ATOM     21  H   UNL     1      -5.918   2.038   1.548  1.00  0.00     0.213 HD
ENDBRANCH  17  20
BRANCH  17  22
ATOM     22  C   UNL     1      -4.795  -0.449   1.671  1.00  0.00     0.006 C 
ATOM     23  C   UNL     1      -6.345  -0.559   1.719  1.00  0.00     0.015 C 
ATOM     24  C   UNL     1      -4.216  -1.566   2.583  1.00  0.00     0.015 C 
ATOM     25  C   UNL     1      -4.359  -0.761   0.219  1.00  0.00     0.015 C 
ENDBRANCH  17  22
ENDBRANCH   6  17
BRANCH   9  26
ATOM     26  N   UNL     1       0.313  -0.154   3.701  1.00  0.00    -0.061 NA
BRANCH  26  27
ATOM     27  N   UNL     1       0.045   0.231   4.838  1.00  0.00     0.005 N 
ATOM     28  N   UNL     1      -0.219   0.622   5.973  1.00  0.00    -0.003 NA
ENDBRANCH  26  27
ENDBRANCH   9  26
ENDBRANCH   4   5
ENDBRANCH   1   4
BRANCH   1  29
ATOM     29  C   UNL     1       2.496  -1.719  -0.919  1.00  0.00     0.098 C 
BRANCH  29  30
ATOM     30  N   UNL     1       3.671  -0.902  -1.278  1.00  0.00    -0.312 NA
ATOM     31  H   UNL     1       3.323  -0.040  -1.763  1.00  0.00     0.122 HD
BRANCH  30  32
ATOM     32  C   UNL     1       4.561  -1.598  -2.221  1.00  0.00     0.120 C 
BRANCH  32  33
ATOM     33  C   UNL     1       5.927  -0.871  -2.396  1.00  0.00     0.092 C 
ATOM     34  C   UNL     1       5.739   0.574  -2.898  1.00  0.00     0.048 C 
BRANCH  33  35
ATOM     35  O   UNL     1       6.665  -1.546  -3.390  1.00  0.00    -0.385 OA
ATOM     36  H   UNL     1       6.780  -2.492  -3.108  1.00  0.00     0.211 HD
ENDBRANCH  33  35
BRANCH  33  37
ATOM     37  C   UNL     1       6.733  -0.887  -1.101  1.00  0.00     0.001 C 
ATOM     38  C   UNL     1       6.401  -0.182  -0.006  1.00  0.00     0.007 C 
ENDBRANCH  33  37
ENDBRANCH  32  33
ENDBRANCH  30  32
ENDBRANCH  29  30
ENDBRANCH   1  29
TORSDOF 14


