REMARK SMILES C#Cc1ccc(-n2cc(CCCCN(C)[C@@H](C)C#N)nn2)cc(N)ccc2ccccc12
REMARK SMILES IDX 11 1 10 2 9 3 7 4 8 5 21 6 20 7 6 8 3 9 4 10 32 11 5 12
REMARK SMILES IDX 31 13 27 14 30 15 26 16 28 17 22 18 29 19 25 20 23 21 2 22
REMARK SMILES IDX 1 23 24 24 12 27 13 28 14 29 15 30 16 31 17 32 18 33 19 34
REMARK H PARENT 24 25 24 26
ROOT
ATOM      1  C   UNL     1       1.173  -2.305   0.161  1.00  0.00     0.008 C 
ENDROOT
BRANCH   1   2
ATOM      2  C   UNL     1       2.237  -1.201   0.292  1.00  0.00     0.060 C 
BRANCH   2   3
ATOM      3  C   UNL     1       1.696   0.196   0.157  1.00  0.00     0.083 A 
ATOM      4  N   UNL     1       0.596   1.951  -0.527  1.00  0.00    -0.220 N 
ATOM      5  C   UNL     1       0.574   0.606  -0.535  1.00  0.00     0.140 A 
ATOM      6  N   UNL     1       1.680   2.346   0.124  1.00  0.00    -0.062 NA
ATOM      7  N   UNL     1       2.372   1.297   0.547  1.00  0.00    -0.135 NA
BRANCH   4   8
ATOM      8  C   UNL     1      -0.326   2.834  -1.192  1.00  0.00     0.068 A 
ATOM      9  C   UNL     1       2.059   3.401  -3.019  1.00  0.00     0.032 A 
ATOM     10  C   UNL     1       1.327   4.345  -2.261  1.00  0.00     0.020 A 
ATOM     11  C   UNL     1       1.519   2.183  -3.524  1.00  0.00    -0.003 A 
ATOM     12  C   UNL     1       0.105   4.104  -1.613  1.00  0.00     0.030 A 
ATOM     13  C   UNL     1       2.332   1.027  -3.521  1.00  0.00     0.010 A 
ATOM     14  C   UNL     1       0.150   2.043  -3.910  1.00  0.00    -0.017 A 
ATOM     15  C   UNL     1       1.781  -0.236  -3.753  1.00  0.00     0.001 A 
ATOM     16  C   UNL     1      -0.651   3.163  -4.206  1.00  0.00     0.011 A 
ATOM     17  C   UNL     1      -0.396   0.756  -4.078  1.00  0.00     0.009 A 
ATOM     18  C   UNL     1      -1.649   2.408  -1.425  1.00  0.00     0.053 A 
ATOM     19  C   UNL     1       0.417  -0.375  -4.001  1.00  0.00     0.001 A 
ATOM     20  C   UNL     1      -1.955   3.348  -3.719  1.00  0.00     0.026 A 
ATOM     21  C   UNL     1      -2.460   2.820  -2.508  1.00  0.00     0.034 A 
BRANCH   9  22
ATOM     22  C   UNL     1       3.437   3.731  -3.303  1.00  0.00    -0.070 C 
ATOM     23  C   UNL     1       4.583   4.011  -3.551  1.00  0.00     0.010 C 
ENDBRANCH   9  22
BRANCH  21  24
ATOM     24  N   UNL     1      -3.880   2.700  -2.365  1.00  0.00    -0.399 N 
ATOM     25  H   UNL     1      -4.525   2.995  -3.134  1.00  0.00     0.156 HD
ATOM     26  H   UNL     1      -4.303   2.332  -1.482  1.00  0.00     0.156 HD
ENDBRANCH  21  24
ENDBRANCH   4   8
ENDBRANCH   2   3
ENDBRANCH   1   2
BRANCH   1  27
ATOM     27  C   UNL     1       0.112  -2.287   1.279  1.00  0.00     0.016 C 
BRANCH  27  28
ATOM     28  C   UNL     1       0.641  -2.859   2.603  1.00  0.00     0.085 C 
BRANCH  28  29
ATOM     29  N   UNL     1      -0.440  -2.889   3.619  1.00  0.00    -0.291 NA
ATOM     30  C   UNL     1      -1.210  -4.152   3.541  1.00  0.00     0.106 C 
BRANCH  29  31
ATOM     31  C   UNL     1       0.073  -2.598   4.987  1.00  0.00     0.157 C 
ATOM     32  C   UNL     1      -1.065  -2.381   5.992  1.00  0.00     0.041 C 
BRANCH  31  33
ATOM     33  C   UNL     1       0.999  -3.641   5.476  1.00  0.00     0.081 C 
ATOM     34  N   UNL     1       1.727  -4.457   5.854  1.00  0.00    -0.197 NA
ENDBRANCH  31  33
ENDBRANCH  29  31
ENDBRANCH  28  29
ENDBRANCH  27  28
ENDBRANCH   1  27
TORSDOF 10


