MODEL 1
REMARK VINA RESULT:      -6.2      0.000      0.000
REMARK SMILES C#C/C(N=[N+]=[N-])=N/[C@H](c1c(C)nnn1-c1c2ccccc2c(C(=O)N=[N+]=[N-])c2ccccc12)C(C)C
REMARK SMILES IDX 9 1 10 2 11 3 12 4 13 5 14 6 8 7 7 8 3 9 2 10 1 11 4 12 5 13
REMARK SMILES IDX 6 14 34 15 35 16 36 17 15 18 16 19 33 20 17 21 21 22 32 23
REMARK SMILES IDX 28 24 18 25 20 26 22 27 31 28 29 29 19 30 30 31 23 32 24 33
REMARK SMILES IDX 25 34 26 35 27 36
REMARK H PARENT
ROOT
ATOM      1  C   UNL     1      41.634 135.404  19.481  1.00  0.00     0.092 A 
ATOM      2  C   UNL     1      40.683 135.595  20.467  1.00  0.00     0.086 A 
ATOM      3  C   UNL     1      40.368 136.862  21.193  1.00  0.00     0.071 C 
ATOM      4  N   UNL     1      40.071 134.417  20.703  1.00  0.00    -0.135 NA
ATOM      5  N   UNL     1      40.621 133.527  19.889  1.00  0.00    -0.062 NA
ATOM      6  N   UNL     1      41.557 134.096  19.144  1.00  0.00    -0.214 N 
ENDROOT
BRANCH   1   7
ATOM      7  C   UNL     1      42.541 136.462  18.875  1.00  0.00     0.160 C 
BRANCH   7   8
ATOM      8  N   UNL     1      43.910 135.951  18.758  1.00  0.00    -0.265 NA
BRANCH   8   9
ATOM      9  C   UNL     1      44.908 136.323  19.501  1.00  0.00     0.172 C 
BRANCH   9  10
ATOM     10  C   UNL     1      45.236 135.530  20.659  1.00  0.00    -0.049 C 
ATOM     11  C   UNL     1      45.516 134.867  21.626  1.00  0.00     0.011 C 
ENDBRANCH   9  10
BRANCH   9  12
ATOM     12  N   UNL     1      45.658 137.504  19.183  1.00  0.00    -0.032 NA
BRANCH  12  13
ATOM     13  N   UNL     1      45.496 138.559  19.797  1.00  0.00     0.008 N 
ATOM     14  N   UNL     1      45.335 139.612  20.410  1.00  0.00    -0.003 NA
ENDBRANCH  12  13
ENDBRANCH   9  12
ENDBRANCH   8   9
ENDBRANCH   7   8
BRANCH   7  15
ATOM     15  C   UNL     1      42.044 136.944  17.488  1.00  0.00     0.014 C 
ATOM     16  C   UNL     1      43.210 137.479  16.641  1.00  0.00     0.010 C 
ATOM     17  C   UNL     1      40.968 138.036  17.612  1.00  0.00     0.010 C 
ENDBRANCH   7  15
ENDBRANCH   1   7
BRANCH   6  18
ATOM     18  C   UNL     1      42.362 133.370  18.201  1.00  0.00     0.082 A 
ATOM     19  C   UNL     1      43.414 132.549  18.661  1.00  0.00     0.009 A 
ATOM     20  C   UNL     1      42.079 133.448  16.822  1.00  0.00     0.009 A 
ATOM     21  C   UNL     1      43.627 132.360  20.044  1.00  0.00     0.011 A 
ATOM     22  C   UNL     1      44.270 131.902  17.731  1.00  0.00    -0.005 A 
ATOM     23  C   UNL     1      40.950 134.157  16.360  1.00  0.00     0.011 A 
ATOM     24  C   UNL     1      42.927 132.801  15.884  1.00  0.00    -0.005 A 
ATOM     25  C   UNL     1      44.684 131.579  20.502  1.00  0.00     0.001 A 
ATOM     26  C   UNL     1      45.354 131.137  18.225  1.00  0.00     0.009 A 
ATOM     27  C   UNL     1      44.038 132.046  16.338  1.00  0.00     0.040 A 
ATOM     28  C   UNL     1      40.677 134.253  14.998  1.00  0.00     0.001 A 
ATOM     29  C   UNL     1      42.620 132.909  14.507  1.00  0.00     0.009 A 
ATOM     30  C   UNL     1      45.551 130.977  19.596  1.00  0.00     0.001 A 
ATOM     31  C   UNL     1      41.510 133.633  14.074  1.00  0.00     0.001 A 
BRANCH  27  32
ATOM     32  C   UNL     1      44.934 131.385  15.362  1.00  0.00     0.250 C 
ATOM     33  O   UNL     1      44.649 130.235  14.929  1.00  0.00    -0.287 OA
BRANCH  32  34
ATOM     34  N   UNL     1      46.123 132.050  14.927  1.00  0.00    -0.017 NA
BRANCH  34  35
ATOM     35  N   UNL     1      46.917 131.501  14.162  1.00  0.00     0.009 N 
ATOM     36  N   UNL     1      47.709 130.955  13.396  1.00  0.00    -0.003 NA
ENDBRANCH  34  35
ENDBRANCH  32  34
ENDBRANCH  27  32
ENDBRANCH   6  18
TORSDOF 11
ENDMDL
MODEL 2
REMARK VINA RESULT:      -6.1      0.716      1.030
REMARK SMILES C#C/C(N=[N+]=[N-])=N/[C@H](c1c(C)nnn1-c1c2ccccc2c(C(=O)N=[N+]=[N-])c2ccccc12)C(C)C
REMARK SMILES IDX 9 1 10 2 11 3 12 4 13 5 14 6 8 7 7 8 3 9 2 10 1 11 4 12 5 13
REMARK SMILES IDX 6 14 34 15 35 16 36 17 15 18 16 19 33 20 17 21 21 22 32 23
REMARK SMILES IDX 28 24 18 25 20 26 22 27 31 28 29 29 19 30 30 31 23 32 24 33
REMARK SMILES IDX 25 34 26 35 27 36
REMARK H PARENT
ROOT
ATOM      1  C   UNL     1      41.805 135.290  19.814  1.00  0.00     0.092 A 
ATOM      2  C   UNL     1      40.706 135.557  20.610  1.00  0.00     0.086 A 
ATOM      3  C   UNL     1      40.482 136.751  21.478  1.00  0.00     0.071 C 
ATOM      4  N   UNL     1      39.840 134.529  20.499  1.00  0.00    -0.135 NA
ATOM      5  N   UNL     1      40.382 133.657  19.662  1.00  0.00    -0.062 NA
ATOM      6  N   UNL     1      41.557 134.093  19.234  1.00  0.00    -0.214 N 
ENDROOT
BRANCH   1   7
ATOM      7  C   UNL     1      43.015 136.185  19.603  1.00  0.00     0.160 C 
BRANCH   7   8
ATOM      8  N   UNL     1      44.251 135.420  19.787  1.00  0.00    -0.265 NA
BRANCH   8   9
ATOM      9  C   UNL     1      45.289 135.833  20.449  1.00  0.00     0.172 C 
BRANCH   9  10
ATOM     10  C   UNL     1      46.094 134.861  21.144  1.00  0.00    -0.049 C 
ATOM     11  C   UNL     1      46.766 134.049  21.729  1.00  0.00     0.011 C 
ENDBRANCH   9  10
BRANCH   9  12
ATOM     12  N   UNL     1      45.619 137.229  20.497  1.00  0.00    -0.032 NA
BRANCH  12  13
ATOM     13  N   UNL     1      46.362 137.747  19.663  1.00  0.00     0.008 N 
ATOM     14  N   UNL     1      47.105 138.265  18.831  1.00  0.00    -0.003 NA
ENDBRANCH  12  13
ENDBRANCH   9  12
ENDBRANCH   8   9
ENDBRANCH   7   8
BRANCH   7  15
ATOM     15  C   UNL     1      43.019 136.855  18.205  1.00  0.00     0.014 C 
ATOM     16  C   UNL     1      41.599 136.908  17.617  1.00  0.00     0.010 C 
ATOM     17  C   UNL     1      43.946 136.124  17.220  1.00  0.00     0.010 C 
ENDBRANCH   7  15
ENDBRANCH   1   7
BRANCH   6  18
ATOM     18  C   UNL     1      42.403 133.338  18.352  1.00  0.00     0.082 A 
ATOM     19  C   UNL     1      43.419 132.517  18.886  1.00  0.00     0.009 A 
ATOM     20  C   UNL     1      42.196 133.388  16.958  1.00  0.00     0.009 A 
ATOM     21  C   UNL     1      43.555 132.357  20.282  1.00  0.00     0.011 A 
ATOM     22  C   UNL     1      44.318 131.841  18.018  1.00  0.00    -0.005 A 
ATOM     23  C   UNL     1      41.102 134.098  16.420  1.00  0.00     0.011 A 
ATOM     24  C   UNL     1      43.086 132.712  16.081  1.00  0.00    -0.005 A 
ATOM     25  C   UNL     1      44.577 131.575  20.814  1.00  0.00     0.001 A 
ATOM     26  C   UNL     1      45.364 131.076  18.587  1.00  0.00     0.009 A 
ATOM     27  C   UNL     1      44.162 131.955  16.612  1.00  0.00     0.040 A 
ATOM     28  C   UNL     1      40.904 134.166  15.044  1.00  0.00     0.001 A 
ATOM     29  C   UNL     1      42.856 132.791  14.688  1.00  0.00     0.009 A 
ATOM     30  C   UNL     1      45.485 130.945  19.970  1.00  0.00     0.001 A 
ATOM     31  C   UNL     1      41.779 133.517  14.180  1.00  0.00     0.001 A 
BRANCH  27  32
ATOM     32  C   UNL     1      45.103 131.264  15.701  1.00  0.00     0.250 C 
ATOM     33  O   UNL     1      44.888 130.064  15.372  1.00  0.00    -0.287 OA
BRANCH  32  34
ATOM     34  N   UNL     1      46.253 131.956  15.210  1.00  0.00    -0.017 NA
BRANCH  34  35
ATOM     35  N   UNL     1      46.882 131.538  14.237  1.00  0.00     0.009 N 
ATOM     36  N   UNL     1      47.512 131.121  13.266  1.00  0.00    -0.003 NA
ENDBRANCH  34  35
ENDBRANCH  32  34
ENDBRANCH  27  32
ENDBRANCH   6  18
TORSDOF 11
ENDMDL
MODEL 3
REMARK VINA RESULT:      -6.0      2.047      4.386
REMARK SMILES C#C/C(N=[N+]=[N-])=N/[C@H](c1c(C)nnn1-c1c2ccccc2c(C(=O)N=[N+]=[N-])c2ccccc12)C(C)C
REMARK SMILES IDX 9 1 10 2 11 3 12 4 13 5 14 6 8 7 7 8 3 9 2 10 1 11 4 12 5 13
REMARK SMILES IDX 6 14 34 15 35 16 36 17 15 18 16 19 33 20 17 21 21 22 32 23
REMARK SMILES IDX 28 24 18 25 20 26 22 27 31 28 29 29 19 30 30 31 23 32 24 33
REMARK SMILES IDX 25 34 26 35 27 36
REMARK H PARENT
ROOT
ATOM      1  C   UNL     1      41.431 135.272  18.552  1.00  0.00     0.092 A 
ATOM      2  C   UNL     1      40.393 135.595  19.408  1.00  0.00     0.086 A 
ATOM      3  C   UNL     1      39.783 136.940  19.628  1.00  0.00     0.071 C 
ATOM      4  N   UNL     1      40.012 134.477  20.056  1.00  0.00    -0.135 NA
ATOM      5  N   UNL     1      40.784 133.494  19.616  1.00  0.00    -0.062 NA
ATOM      6  N   UNL     1      41.638 133.945  18.711  1.00  0.00    -0.214 N 
ENDROOT
BRANCH   1   7
ATOM      7  C   UNL     1      42.150 136.212  17.598  1.00  0.00     0.160 C 
BRANCH   7   8
ATOM      8  N   UNL     1      41.192 137.117  16.959  1.00  0.00    -0.265 NA
BRANCH   8   9
ATOM      9  C   UNL     1      40.758 136.998  15.740  1.00  0.00     0.172 C 
BRANCH   9  10
ATOM     10  C   UNL     1      39.415 136.517  15.533  1.00  0.00    -0.049 C 
ATOM     11  C   UNL     1      38.291 136.114  15.363  1.00  0.00     0.011 C 
ENDBRANCH   9  10
BRANCH   9  12
ATOM     12  N   UNL     1      41.600 137.328  14.627  1.00  0.00    -0.032 NA
BRANCH  12  13
ATOM     13  N   UNL     1      42.046 138.465  14.467  1.00  0.00     0.008 N 
ATOM     14  N   UNL     1      42.491 139.600  14.309  1.00  0.00    -0.003 NA
ENDBRANCH  12  13
ENDBRANCH   9  12
ENDBRANCH   8   9
ENDBRANCH   7   8
BRANCH   7  15
ATOM     15  C   UNL     1      43.257 137.038  18.304  1.00  0.00     0.014 C 
ATOM     16  C   UNL     1      43.100 138.537  18.003  1.00  0.00     0.010 C 
ATOM     17  C   UNL     1      44.665 136.584  17.888  1.00  0.00     0.010 C 
ENDBRANCH   7  15
ENDBRANCH   1   7
BRANCH   6  18
ATOM     18  C   UNL     1      42.636 133.118  18.089  1.00  0.00     0.082 A 
ATOM     19  C   UNL     1      42.587 132.885  16.698  1.00  0.00     0.009 A 
ATOM     20  C   UNL     1      43.682 132.572  18.859  1.00  0.00     0.009 A 
ATOM     21  C   UNL     1      41.621 133.529  15.894  1.00  0.00     0.011 A 
ATOM     22  C   UNL     1      43.514 131.996  16.092  1.00  0.00    -0.005 A 
ATOM     23  C   UNL     1      43.819 132.905  20.224  1.00  0.00     0.011 A 
ATOM     24  C   UNL     1      44.618 131.684  18.262  1.00  0.00    -0.005 A 
ATOM     25  C   UNL     1      41.548 133.276  14.527  1.00  0.00     0.001 A 
ATOM     26  C   UNL     1      43.398 131.736  14.706  1.00  0.00     0.009 A 
ATOM     27  C   UNL     1      44.520 131.379  16.881  1.00  0.00     0.040 A 
ATOM     28  C   UNL     1      44.839 132.353  20.994  1.00  0.00     0.001 A 
ATOM     29  C   UNL     1      45.649 131.145  19.067  1.00  0.00     0.009 A 
ATOM     30  C   UNL     1      42.427 132.375  13.936  1.00  0.00     0.001 A 
ATOM     31  C   UNL     1      45.750 131.474  20.418  1.00  0.00     0.001 A 
BRANCH  27  32
ATOM     32  C   UNL     1      45.482 130.441  16.259  1.00  0.00     0.250 C 
ATOM     33  O   UNL     1      45.163 129.230  16.101  1.00  0.00    -0.287 OA
BRANCH  32  34
ATOM     34  N   UNL     1      46.770 130.911  15.853  1.00  0.00    -0.017 NA
BRANCH  34  35
ATOM     35  N   UNL     1      47.016 131.154  14.671  1.00  0.00     0.009 N 
ATOM     36  N   UNL     1      47.263 131.400  13.492  1.00  0.00    -0.003 NA
ENDBRANCH  34  35
ENDBRANCH  32  34
ENDBRANCH  27  32
ENDBRANCH   6  18
TORSDOF 11
ENDMDL
MODEL 4
REMARK VINA RESULT:      -5.9      2.458      3.163
REMARK SMILES C#C/C(N=[N+]=[N-])=N/[C@H](c1c(C)nnn1-c1c2ccccc2c(C(=O)N=[N+]=[N-])c2ccccc12)C(C)C
REMARK SMILES IDX 9 1 10 2 11 3 12 4 13 5 14 6 8 7 7 8 3 9 2 10 1 11 4 12 5 13
REMARK SMILES IDX 6 14 34 15 35 16 36 17 15 18 16 19 33 20 17 21 21 22 32 23
REMARK SMILES IDX 28 24 18 25 20 26 22 27 31 28 29 29 19 30 30 31 23 32 24 33
REMARK SMILES IDX 25 34 26 35 27 36
REMARK H PARENT
ROOT
ATOM      1  C   UNL     1      43.418 136.782  20.893  1.00  0.00     0.092 A 
ATOM      2  C   UNL     1      42.558 137.238  21.876  1.00  0.00     0.086 A 
ATOM      3  C   UNL     1      42.855 138.226  22.955  1.00  0.00     0.071 C 
ATOM      4  N   UNL     1      41.370 136.618  21.723  1.00  0.00    -0.135 NA
ATOM      5  N   UNL     1      41.489 135.809  20.681  1.00  0.00    -0.062 NA
ATOM      6  N   UNL     1      42.705 135.893  20.164  1.00  0.00    -0.214 N 
ENDROOT
BRANCH   1   7
ATOM      7  C   UNL     1      44.852 137.229  20.659  1.00  0.00     0.160 C 
BRANCH   7   8
ATOM      8  N   UNL     1      45.750 136.072  20.649  1.00  0.00    -0.265 NA
BRANCH   8   9
ATOM      9  C   UNL     1      46.481 135.691  21.653  1.00  0.00     0.172 C 
BRANCH   9  10
ATOM     10  C   UNL     1      45.851 134.969  22.729  1.00  0.00    -0.049 C 
ATOM     11  C   UNL     1      45.326 134.360  23.628  1.00  0.00     0.011 C 
ENDBRANCH   9  10
BRANCH   9  12
ATOM     12  N   UNL     1      47.883 135.993  21.693  1.00  0.00    -0.032 NA
BRANCH  12  13
ATOM     13  N   UNL     1      48.690 135.251  22.254  1.00  0.00     0.008 N 
ATOM     14  N   UNL     1      49.494 134.509  22.815  1.00  0.00    -0.003 NA
ENDBRANCH  12  13
ENDBRANCH   9  12
ENDBRANCH   8   9
ENDBRANCH   7   8
BRANCH   7  15
ATOM     15  C   UNL     1      45.015 138.027  19.340  1.00  0.00     0.014 C 
ATOM     16  C   UNL     1      46.498 138.146  18.950  1.00  0.00     0.010 C 
ATOM     17  C   UNL     1      44.406 139.436  19.442  1.00  0.00     0.010 C 
ENDBRANCH   7  15
ENDBRANCH   1   7
BRANCH   6  18
ATOM     18  C   UNL     1      43.145 135.095  19.052  1.00  0.00     0.082 A 
ATOM     19  C   UNL     1      43.615 133.783  19.273  1.00  0.00     0.009 A 
ATOM     20  C   UNL     1      43.074 135.609  17.742  1.00  0.00     0.009 A 
ATOM     21  C   UNL     1      43.571 133.211  20.563  1.00  0.00     0.011 A 
ATOM     22  C   UNL     1      44.137 133.023  18.192  1.00  0.00    -0.005 A 
ATOM     23  C   UNL     1      42.483 136.866  17.494  1.00  0.00     0.011 A 
ATOM     24  C   UNL     1      43.589 134.855  16.653  1.00  0.00    -0.005 A 
ATOM     25  C   UNL     1      44.065 131.929  20.791  1.00  0.00     0.001 A 
ATOM     26  C   UNL     1      44.657 131.734  18.459  1.00  0.00     0.009 A 
ATOM     27  C   UNL     1      44.143 133.570  16.883  1.00  0.00     0.040 A 
ATOM     28  C   UNL     1      42.427 137.386  16.203  1.00  0.00     0.001 A 
ATOM     29  C   UNL     1      43.512 135.404  15.351  1.00  0.00     0.009 A 
ATOM     30  C   UNL     1      44.615 131.197  19.745  1.00  0.00     0.001 A 
ATOM     31  C   UNL     1      42.942 136.659  15.135  1.00  0.00     0.001 A 
BRANCH  27  32
ATOM     32  C   UNL     1      44.697 132.788  15.753  1.00  0.00     0.250 C 
ATOM     33  O   UNL     1      45.894 132.969  15.395  1.00  0.00    -0.287 OA
BRANCH  32  34
ATOM     34  N   UNL     1      43.869 131.844  15.069  1.00  0.00    -0.017 NA
BRANCH  34  35
ATOM     35  N   UNL     1      42.784 132.177  14.591  1.00  0.00     0.009 N 
ATOM     36  N   UNL     1      41.700 132.506  14.114  1.00  0.00    -0.003 NA
ENDBRANCH  34  35
ENDBRANCH  32  34
ENDBRANCH  27  32
ENDBRANCH   6  18
TORSDOF 11
ENDMDL
MODEL 5
REMARK VINA RESULT:      -5.7      3.026      6.566
REMARK SMILES C#C/C(N=[N+]=[N-])=N/[C@H](c1c(C)nnn1-c1c2ccccc2c(C(=O)N=[N+]=[N-])c2ccccc12)C(C)C
REMARK SMILES IDX 9 1 10 2 11 3 12 4 13 5 14 6 8 7 7 8 3 9 2 10 1 11 4 12 5 13
REMARK SMILES IDX 6 14 34 15 35 16 36 17 15 18 16 19 33 20 17 21 21 22 32 23
REMARK SMILES IDX 28 24 18 25 20 26 22 27 31 28 29 29 19 30 30 31 23 32 24 33
REMARK SMILES IDX 25 34 26 35 27 36
REMARK H PARENT
ROOT
ATOM      1  C   UNL     1      43.757 133.241  18.452  1.00  0.00     0.092 A 
ATOM      2  C   UNL     1      44.215 132.472  19.506  1.00  0.00     0.086 A 
ATOM      3  C   UNL     1      45.177 131.331  19.448  1.00  0.00     0.071 C 
ATOM      4  N   UNL     1      43.627 132.908  20.638  1.00  0.00    -0.135 NA
ATOM      5  N   UNL     1      42.834 133.914  20.298  1.00  0.00    -0.062 NA
ATOM      6  N   UNL     1      42.898 134.135  18.994  1.00  0.00    -0.214 N 
ENDROOT
BRANCH   1   7
ATOM      7  C   UNL     1      44.174 133.127  16.994  1.00  0.00     0.160 C 
BRANCH   7   8
ATOM      8  N   UNL     1      44.246 131.719  16.595  1.00  0.00    -0.265 NA
BRANCH   8   9
ATOM      9  C   UNL     1      45.163 131.211  15.828  1.00  0.00     0.172 C 
BRANCH   9  10
ATOM     10  C   UNL     1      45.197 129.781  15.652  1.00  0.00    -0.049 C 
ATOM     11  C   UNL     1      45.222 128.584  15.507  1.00  0.00     0.011 C 
ENDBRANCH   9  10
BRANCH   9  12
ATOM     12  N   UNL     1      46.126 132.054  15.181  1.00  0.00    -0.032 NA
BRANCH  12  13
ATOM     13  N   UNL     1      46.869 131.627  14.296  1.00  0.00     0.008 N 
ATOM     14  N   UNL     1      47.609 131.200  13.412  1.00  0.00    -0.003 NA
ENDBRANCH  12  13
ENDBRANCH   9  12
ENDBRANCH   8   9
ENDBRANCH   7   8
BRANCH   7  15
ATOM     15  C   UNL     1      43.216 133.890  16.043  1.00  0.00     0.014 C 
ATOM     16  C   UNL     1      42.486 132.918  15.102  1.00  0.00     0.010 C 
ATOM     17  C   UNL     1      43.959 134.942  15.203  1.00  0.00     0.010 C 
ENDBRANCH   7  15
ENDBRANCH   1   7
BRANCH   6  18
ATOM     18  C   UNL     1      42.111 135.132  18.324  1.00  0.00     0.082 A 
ATOM     19  C   UNL     1      40.802 134.823  17.895  1.00  0.00     0.009 A 
ATOM     20  C   UNL     1      42.629 136.429  18.129  1.00  0.00     0.009 A 
ATOM     21  C   UNL     1      40.224 133.571  18.198  1.00  0.00     0.011 A 
ATOM     22  C   UNL     1      40.053 135.773  17.152  1.00  0.00    -0.005 A 
ATOM     23  C   UNL     1      43.881 136.790  18.670  1.00  0.00     0.011 A 
ATOM     24  C   UNL     1      41.886 137.389  17.391  1.00  0.00    -0.005 A 
ATOM     25  C   UNL     1      38.946 133.248  17.748  1.00  0.00     0.001 A 
ATOM     26  C   UNL     1      38.769 135.407  16.683  1.00  0.00     0.009 A 
ATOM     27  C   UNL     1      40.605 137.052  16.882  1.00  0.00     0.040 A 
ATOM     28  C   UNL     1      44.406 138.064  18.463  1.00  0.00     0.001 A 
ATOM     29  C   UNL     1      42.440 138.677  17.204  1.00  0.00     0.009 A 
ATOM     30  C   UNL     1      38.225 134.159  16.984  1.00  0.00     0.001 A 
ATOM     31  C   UNL     1      43.689 139.004  17.731  1.00  0.00     0.001 A 
BRANCH  27  32
ATOM     32  C   UNL     1      39.835 138.044  16.097  1.00  0.00     0.250 C 
ATOM     33  O   UNL     1      38.957 138.749  16.667  1.00  0.00    -0.287 OA
BRANCH  32  34
ATOM     34  N   UNL     1      40.084 138.189  14.696  1.00  0.00    -0.017 NA
BRANCH  34  35
ATOM     35  N   UNL     1      39.586 137.416  13.877  1.00  0.00     0.009 N 
ATOM     36  N   UNL     1      39.091 136.644  13.058  1.00  0.00    -0.003 NA
ENDBRANCH  34  35
ENDBRANCH  32  34
ENDBRANCH  27  32
ENDBRANCH   6  18
TORSDOF 11
ENDMDL
MODEL 6
REMARK VINA RESULT:      -5.5      3.127      4.841
REMARK SMILES C#C/C(N=[N+]=[N-])=N/[C@H](c1c(C)nnn1-c1c2ccccc2c(C(=O)N=[N+]=[N-])c2ccccc12)C(C)C
REMARK SMILES IDX 9 1 10 2 11 3 12 4 13 5 14 6 8 7 7 8 3 9 2 10 1 11 4 12 5 13
REMARK SMILES IDX 6 14 34 15 35 16 36 17 15 18 16 19 33 20 17 21 21 22 32 23
REMARK SMILES IDX 28 24 18 25 20 26 22 27 31 28 29 29 19 30 30 31 23 32 24 33
REMARK SMILES IDX 25 34 26 35 27 36
REMARK H PARENT
ROOT
ATOM      1  C   UNL     1      40.668 134.544  17.028  1.00  0.00     0.092 A 
ATOM      2  C   UNL     1      39.455 134.418  16.375  1.00  0.00     0.086 A 
ATOM      3  C   UNL     1      38.787 135.423  15.496  1.00  0.00     0.071 C 
ATOM      4  N   UNL     1      38.932 133.213  16.678  1.00  0.00    -0.135 NA
ATOM      5  N   UNL     1      39.793 132.612  17.487  1.00  0.00    -0.062 NA
ATOM      6  N   UNL     1      40.842 133.388  17.708  1.00  0.00    -0.214 N 
ENDROOT
BRANCH   1   7
ATOM      7  C   UNL     1      41.623 135.724  16.952  1.00  0.00     0.160 C 
BRANCH   7   8
ATOM      8  N   UNL     1      41.742 136.367  18.263  1.00  0.00    -0.265 NA
BRANCH   8   9
ATOM      9  C   UNL     1      41.201 137.503  18.585  1.00  0.00     0.172 C 
BRANCH   9  10
ATOM     10  C   UNL     1      39.804 137.525  18.937  1.00  0.00    -0.049 C 
ATOM     11  C   UNL     1      38.636 137.543  19.236  1.00  0.00     0.011 C 
ENDBRANCH   9  10
BRANCH   9  12
ATOM     12  N   UNL     1      41.976 138.711  18.578  1.00  0.00    -0.032 NA
BRANCH  12  13
ATOM     13  N   UNL     1      42.613 139.066  17.586  1.00  0.00     0.008 N 
ATOM     14  N   UNL     1      43.250 139.419  16.596  1.00  0.00    -0.003 NA
ENDBRANCH  12  13
ENDBRANCH   9  12
ENDBRANCH   8   9
ENDBRANCH   7   8
BRANCH   7  15
ATOM     15  C   UNL     1      43.029 135.316  16.442  1.00  0.00     0.014 C 
ATOM     16  C   UNL     1      44.121 135.751  17.434  1.00  0.00     0.010 C 
ATOM     17  C   UNL     1      43.336 135.915  15.060  1.00  0.00     0.010 C 
ENDBRANCH   7  15
ENDBRANCH   1   7
BRANCH   6  18
ATOM     18  C   UNL     1      41.920 133.024  18.586  1.00  0.00     0.082 A 
ATOM     19  C   UNL     1      43.039 132.331  18.075  1.00  0.00     0.009 A 
ATOM     20  C   UNL     1      41.878 133.391  19.946  1.00  0.00     0.009 A 
ATOM     21  C   UNL     1      43.153 132.071  16.692  1.00  0.00     0.011 A 
ATOM     22  C   UNL     1      44.063 131.888  18.953  1.00  0.00    -0.005 A 
ATOM     23  C   UNL     1      40.831 134.198  20.440  1.00  0.00     0.011 A 
ATOM     24  C   UNL     1      42.900 132.957  20.833  1.00  0.00    -0.005 A 
ATOM     25  C   UNL     1      44.238 131.358  16.189  1.00  0.00     0.001 A 
ATOM     26  C   UNL     1      45.140 131.142  18.417  1.00  0.00     0.009 A 
ATOM     27  C   UNL     1      43.983 132.185  20.339  1.00  0.00     0.040 A 
ATOM     28  C   UNL     1      40.775 134.547  21.787  1.00  0.00     0.001 A 
ATOM     29  C   UNL     1      42.822 133.333  22.194  1.00  0.00     0.009 A 
ATOM     30  C   UNL     1      45.223 130.886  17.050  1.00  0.00     0.001 A 
ATOM     31  C   UNL     1      41.765 134.114  22.662  1.00  0.00     0.001 A 
BRANCH  27  32
ATOM     32  C   UNL     1      45.041 131.715  21.263  1.00  0.00     0.250 C 
ATOM     33  O   UNL     1      44.843 130.691  21.972  1.00  0.00    -0.287 OA
BRANCH  32  34
ATOM     34  N   UNL     1      46.274 132.434  21.353  1.00  0.00    -0.017 NA
BRANCH  34  35
ATOM     35  N   UNL     1      46.292 133.663  21.433  1.00  0.00     0.009 N 
ATOM     36  N   UNL     1      46.312 134.890  21.513  1.00  0.00    -0.003 NA
ENDBRANCH  34  35
ENDBRANCH  32  34
ENDBRANCH  27  32
ENDBRANCH   6  18
TORSDOF 11
ENDMDL
MODEL 7
REMARK VINA RESULT:      -5.5      2.975      6.831
REMARK SMILES C#C/C(N=[N+]=[N-])=N/[C@H](c1c(C)nnn1-c1c2ccccc2c(C(=O)N=[N+]=[N-])c2ccccc12)C(C)C
REMARK SMILES IDX 9 1 10 2 11 3 12 4 13 5 14 6 8 7 7 8 3 9 2 10 1 11 4 12 5 13
REMARK SMILES IDX 6 14 34 15 35 16 36 17 15 18 16 19 33 20 17 21 21 22 32 23
REMARK SMILES IDX 28 24 18 25 20 26 22 27 31 28 29 29 19 30 30 31 23 32 24 33
REMARK SMILES IDX 25 34 26 35 27 36
REMARK H PARENT
ROOT
ATOM      1  C   UNL     1      44.112 133.142  18.338  1.00  0.00     0.092 A 
ATOM      2  C   UNL     1      44.432 132.236  19.333  1.00  0.00     0.086 A 
ATOM      3  C   UNL     1      45.136 130.927  19.178  1.00  0.00     0.071 C 
ATOM      4  N   UNL     1      43.978 132.715  20.508  1.00  0.00    -0.135 NA
ATOM      5  N   UNL     1      43.400 133.880  20.252  1.00  0.00    -0.062 NA
ATOM      6  N   UNL     1      43.472 134.159  18.959  1.00  0.00    -0.214 N 
ENDROOT
BRANCH   1   7
ATOM      7  C   UNL     1      44.456 133.031  16.862  1.00  0.00     0.160 C 
BRANCH   7   8
ATOM      8  N   UNL     1      45.676 132.240  16.683  1.00  0.00    -0.265 NA
BRANCH   8   9
ATOM      9  C   UNL     1      45.939 131.504  15.645  1.00  0.00     0.172 C 
BRANCH   9  10
ATOM     10  C   UNL     1      45.480 130.138  15.636  1.00  0.00    -0.049 C 
ATOM     11  C   UNL     1      45.092 128.997  15.627  1.00  0.00     0.011 C 
ENDBRANCH   9  10
BRANCH   9  12
ATOM     12  N   UNL     1      46.679 132.037  14.538  1.00  0.00    -0.032 NA
BRANCH  12  13
ATOM     13  N   UNL     1      46.955 131.351  13.553  1.00  0.00     0.008 N 
ATOM     14  N   UNL     1      47.230 130.665  12.570  1.00  0.00    -0.003 NA
ENDBRANCH  12  13
ENDBRANCH   9  12
ENDBRANCH   8   9
ENDBRANCH   7   8
BRANCH   7  15
ATOM     15  C   UNL     1      43.304 132.408  16.031  1.00  0.00     0.014 C 
ATOM     16  C   UNL     1      42.652 133.462  15.120  1.00  0.00     0.010 C 
ATOM     17  C   UNL     1      42.225 131.779  16.927  1.00  0.00     0.010 C 
ENDBRANCH   7  15
ENDBRANCH   1   7
BRANCH   6  18
ATOM     18  C   UNL     1      42.888 135.334  18.374  1.00  0.00     0.082 A 
ATOM     19  C   UNL     1      41.559 135.296  17.899  1.00  0.00     0.009 A 
ATOM     20  C   UNL     1      43.627 136.532  18.306  1.00  0.00     0.009 A 
ATOM     21  C   UNL     1      40.765 134.143  18.077  1.00  0.00     0.011 A 
ATOM     22  C   UNL     1      41.008 136.425  17.237  1.00  0.00    -0.005 A 
ATOM     23  C   UNL     1      44.906 136.621  18.896  1.00  0.00     0.011 A 
ATOM     24  C   UNL     1      43.083 137.669  17.649  1.00  0.00    -0.005 A 
ATOM     25  C   UNL     1      39.465 134.089  17.581  1.00  0.00     0.001 A 
ATOM     26  C   UNL     1      39.694 136.331  16.718  1.00  0.00     0.009 A 
ATOM     27  C   UNL     1      41.780 137.607  17.094  1.00  0.00     0.040 A 
ATOM     28  C   UNL     1      45.649 137.796  18.815  1.00  0.00     0.001 A 
ATOM     29  C   UNL     1      43.856 138.852  17.590  1.00  0.00     0.009 A 
ATOM     30  C   UNL     1      38.935 135.176  16.895  1.00  0.00     0.001 A 
ATOM     31  C   UNL     1      45.127 138.908  18.162  1.00  0.00     0.001 A 
BRANCH  27  32
ATOM     32  C   UNL     1      41.216 138.783  16.393  1.00  0.00     0.250 C 
ATOM     33  O   UNL     1      40.525 139.623  17.034  1.00  0.00    -0.287 OA
BRANCH  32  34
ATOM     34  N   UNL     1      41.449 138.954  14.992  1.00  0.00    -0.017 NA
BRANCH  34  35
ATOM     35  N   UNL     1      40.522 138.915  14.183  1.00  0.00     0.009 N 
ATOM     36  N   UNL     1      39.595 138.875  13.375  1.00  0.00    -0.003 NA
ENDBRANCH  34  35
ENDBRANCH  32  34
ENDBRANCH  27  32
ENDBRANCH   6  18
TORSDOF 11
ENDMDL
MODEL 8
REMARK VINA RESULT:      -5.5      3.705      7.048
REMARK SMILES C#C/C(N=[N+]=[N-])=N/[C@H](c1c(C)nnn1-c1c2ccccc2c(C(=O)N=[N+]=[N-])c2ccccc12)C(C)C
REMARK SMILES IDX 9 1 10 2 11 3 12 4 13 5 14 6 8 7 7 8 3 9 2 10 1 11 4 12 5 13
REMARK SMILES IDX 6 14 34 15 35 16 36 17 15 18 16 19 33 20 17 21 21 22 32 23
REMARK SMILES IDX 28 24 18 25 20 26 22 27 31 28 29 29 19 30 30 31 23 32 24 33
REMARK SMILES IDX 25 34 26 35 27 36
REMARK H PARENT
ROOT
ATOM      1  C   UNL     1      42.145 133.304  15.782  1.00  0.00     0.092 A 
ATOM      2  C   UNL     1      42.429 132.450  14.731  1.00  0.00     0.086 A 
ATOM      3  C   UNL     1      43.508 131.418  14.666  1.00  0.00     0.071 C 
ATOM      4  N   UNL     1      41.570 132.709  13.726  1.00  0.00    -0.135 NA
ATOM      5  N   UNL     1      40.778 133.688  14.140  1.00  0.00    -0.062 NA
ATOM      6  N   UNL     1      41.100 134.058  15.370  1.00  0.00    -0.214 N 
ENDROOT
BRANCH   1   7
ATOM      7  C   UNL     1      42.839 133.347  17.133  1.00  0.00     0.160 C 
BRANCH   7   8
ATOM      8  N   UNL     1      43.178 131.991  17.573  1.00  0.00    -0.265 NA
BRANCH   8   9
ATOM      9  C   UNL     1      44.237 131.674  18.256  1.00  0.00     0.172 C 
BRANCH   9  10
ATOM     10  C   UNL     1      45.291 130.947  17.594  1.00  0.00    -0.049 C 
ATOM     11  C   UNL     1      46.174 130.338  17.044  1.00  0.00     0.011 C 
ENDBRANCH   9  10
BRANCH   9  12
ATOM     12  N   UNL     1      44.349 132.031  19.641  1.00  0.00    -0.032 NA
BRANCH  12  13
ATOM     13  N   UNL     1      43.545 131.626  20.480  1.00  0.00     0.008 N 
ATOM     14  N   UNL     1      42.741 131.219  21.318  1.00  0.00    -0.003 NA
ENDBRANCH  12  13
ENDBRANCH   9  12
ENDBRANCH   8   9
ENDBRANCH   7   8
BRANCH   7  15
ATOM     15  C   UNL     1      44.117 134.224  17.115  1.00  0.00     0.014 C 
ATOM     16  C   UNL     1      43.935 135.478  17.986  1.00  0.00     0.010 C 
ATOM     17  C   UNL     1      44.499 134.652  15.689  1.00  0.00     0.010 C 
ENDBRANCH   7  15
ENDBRANCH   1   7
BRANCH   6  18
ATOM     18  C   UNL     1      40.447 135.132  16.066  1.00  0.00     0.082 A 
ATOM     19  C   UNL     1      39.402 134.850  16.971  1.00  0.00     0.009 A 
ATOM     20  C   UNL     1      40.874 136.462  15.873  1.00  0.00     0.009 A 
ATOM     21  C   UNL     1      39.051 133.516  17.270  1.00  0.00     0.011 A 
ATOM     22  C   UNL     1      38.692 135.912  17.592  1.00  0.00    -0.005 A 
ATOM     23  C   UNL     1      42.002 136.745  15.075  1.00  0.00     0.011 A 
ATOM     24  C   UNL     1      40.173 137.531  16.493  1.00  0.00    -0.005 A 
ATOM     25  C   UNL     1      37.998 133.233  18.137  1.00  0.00     0.001 A 
ATOM     26  C   UNL     1      37.608 135.595  18.446  1.00  0.00     0.009 A 
ATOM     27  C   UNL     1      39.066 137.257  17.336  1.00  0.00     0.040 A 
ATOM     28  C   UNL     1      42.417 138.058  14.866  1.00  0.00     0.001 A 
ATOM     29  C   UNL     1      40.621 138.855  16.270  1.00  0.00     0.009 A 
ATOM     30  C   UNL     1      37.273 134.269  18.714  1.00  0.00     0.001 A 
ATOM     31  C   UNL     1      41.727 139.110  15.459  1.00  0.00     0.001 A 
BRANCH  27  32
ATOM     32  C   UNL     1      38.322 138.369  17.969  1.00  0.00     0.250 C 
ATOM     33  O   UNL     1      37.255 138.788  17.443  1.00  0.00    -0.287 OA
BRANCH  32  34
ATOM     34  N   UNL     1      38.825 138.969  19.166  1.00  0.00    -0.017 NA
BRANCH  34  35
ATOM     35  N   UNL     1      38.892 138.332  20.218  1.00  0.00     0.009 N 
ATOM     36  N   UNL     1      38.958 137.698  21.270  1.00  0.00    -0.003 NA
ENDBRANCH  34  35
ENDBRANCH  32  34
ENDBRANCH  27  32
ENDBRANCH   6  18
TORSDOF 11
ENDMDL
MODEL 9
REMARK VINA RESULT:      -5.5      3.434      6.959
REMARK SMILES C#C/C(N=[N+]=[N-])=N/[C@H](c1c(C)nnn1-c1c2ccccc2c(C(=O)N=[N+]=[N-])c2ccccc12)C(C)C
REMARK SMILES IDX 9 1 10 2 11 3 12 4 13 5 14 6 8 7 7 8 3 9 2 10 1 11 4 12 5 13
REMARK SMILES IDX 6 14 34 15 35 16 36 17 15 18 16 19 33 20 17 21 21 22 32 23
REMARK SMILES IDX 28 24 18 25 20 26 22 27 31 28 29 29 19 30 30 31 23 32 24 33
REMARK SMILES IDX 25 34 26 35 27 36
REMARK H PARENT
ROOT
ATOM      1  C   UNL     1      42.074 133.397  15.814  1.00  0.00     0.092 A 
ATOM      2  C   UNL     1      42.329 132.583  14.725  1.00  0.00     0.086 A 
ATOM      3  C   UNL     1      43.359 131.507  14.616  1.00  0.00     0.071 C 
ATOM      4  N   UNL     1      41.493 132.932  13.727  1.00  0.00    -0.135 NA
ATOM      5  N   UNL     1      40.743 133.925  14.183  1.00  0.00    -0.062 NA
ATOM      6  N   UNL     1      41.069 134.218  15.432  1.00  0.00    -0.214 N 
ENDROOT
BRANCH   1   7
ATOM      7  C   UNL     1      42.755 133.340  17.172  1.00  0.00     0.160 C 
BRANCH   7   8
ATOM      8  N   UNL     1      43.078 131.954  17.520  1.00  0.00    -0.265 NA
BRANCH   8   9
ATOM      9  C   UNL     1      44.069 131.590  18.277  1.00  0.00     0.172 C 
BRANCH   9  10
ATOM     10  C   UNL     1      45.208 130.956  17.662  1.00  0.00    -0.049 C 
ATOM     11  C   UNL     1      46.159 130.422  17.149  1.00  0.00     0.011 C 
ENDBRANCH   9  10
BRANCH   9  12
ATOM     12  N   UNL     1      44.024 131.804  19.695  1.00  0.00    -0.032 NA
BRANCH  12  13
ATOM     13  N   UNL     1      44.803 132.573  20.259  1.00  0.00     0.008 N 
ATOM     14  N   UNL     1      45.580 133.342  20.821  1.00  0.00    -0.003 NA
ENDBRANCH  12  13
ENDBRANCH   9  12
ENDBRANCH   8   9
ENDBRANCH   7   8
BRANCH   7  15
ATOM     15  C   UNL     1      44.041 134.204  17.225  1.00  0.00     0.014 C 
ATOM     16  C   UNL     1      43.837 135.438  18.120  1.00  0.00     0.010 C 
ATOM     17  C   UNL     1      44.483 134.664  15.826  1.00  0.00     0.010 C 
ENDBRANCH   7  15
ENDBRANCH   1   7
BRANCH   6  18
ATOM     18  C   UNL     1      40.460 135.286  16.175  1.00  0.00     0.082 A 
ATOM     19  C   UNL     1      40.896 136.615  15.981  1.00  0.00     0.009 A 
ATOM     20  C   UNL     1      39.405 135.014  17.070  1.00  0.00     0.009 A 
ATOM     21  C   UNL     1      41.862 136.918  14.997  1.00  0.00     0.011 A 
ATOM     22  C   UNL     1      40.364 137.662  16.778  1.00  0.00    -0.005 A 
ATOM     23  C   UNL     1      38.871 133.712  17.174  1.00  0.00     0.011 A 
ATOM     24  C   UNL     1      38.862 136.055  17.869  1.00  0.00    -0.005 A 
ATOM     25  C   UNL     1      42.319 138.222  14.825  1.00  0.00     0.001 A 
ATOM     26  C   UNL     1      40.868 138.973  16.601  1.00  0.00     0.009 A 
ATOM     27  C   UNL     1      39.358 137.378  17.739  1.00  0.00     0.040 A 
ATOM     28  C   UNL     1      37.842 133.433  18.069  1.00  0.00     0.001 A 
ATOM     29  C   UNL     1      37.811 135.745  18.764  1.00  0.00     0.009 A 
ATOM     30  C   UNL     1      41.832 139.244  15.631  1.00  0.00     0.001 A 
ATOM     31  C   UNL     1      37.315 134.446  18.864  1.00  0.00     0.001 A 
BRANCH  27  32
ATOM     32  C   UNL     1      38.807 138.463  18.583  1.00  0.00     0.250 C 
ATOM     33  O   UNL     1      37.817 139.130  18.176  1.00  0.00    -0.287 OA
BRANCH  32  34
ATOM     34  N   UNL     1      39.408 138.753  19.847  1.00  0.00    -0.017 NA
BRANCH  34  35
ATOM     35  N   UNL     1      40.413 138.151  20.229  1.00  0.00     0.009 N 
ATOM     36  N   UNL     1      41.414 137.550  20.613  1.00  0.00    -0.003 NA
ENDBRANCH  34  35
ENDBRANCH  32  34
ENDBRANCH  27  32
ENDBRANCH   6  18
TORSDOF 11
ENDMDL


