REMARK SMILES [N-]=[N+]=NC(=O)c1cc2ccccc2cc1OC(=O)[C@]1(N=[N+]=[N-])C[C@H](CO)C1
REMARK SMILES IDX 16 1 17 2 18 3 19 4 24 5 27 6 23 7 25 8 26 9 20 11 21 12
REMARK SMILES IDX 22 13 15 14 6 15 14 16 7 17 13 18 8 19 12 20 9 21 11 22
REMARK SMILES IDX 10 23 4 24 5 25 3 26 2 27 1 28
REMARK H PARENT 26 10
ROOT
ATOM      1  O   UNL     1       0.235  -0.816  -0.313  1.00  0.00    -0.425 OA
ENDROOT
BRANCH   1   2
ATOM      2  C   UNL     1       1.327  -0.032   0.084  1.00  0.00     0.323 C 
ATOM      3  O   UNL     1       1.193   1.211   0.255  1.00  0.00    -0.251 OA
BRANCH   2   4
ATOM      4  C   UNL     1       2.695  -0.669   0.178  1.00  0.00     0.147 C 
ATOM      5  C   UNL     1       4.588   0.362   0.009  1.00  0.00     0.017 C 
ATOM      6  C   UNL     1       3.663  -0.012   1.171  1.00  0.00     0.031 C 
ATOM      7  C   UNL     1       3.617  -0.287  -0.981  1.00  0.00     0.031 C 
BRANCH   5   8
ATOM      8  C   UNL     1       4.755   1.875  -0.200  1.00  0.00     0.159 C 
BRANCH   8   9
ATOM      9  O   UNL     1       5.612   2.407   0.773  1.00  0.00    -0.396 OA
ATOM     10  H   UNL     1       5.068   2.542   1.592  1.00  0.00     0.210 HD
ENDBRANCH   8   9
ENDBRANCH   5   8
BRANCH   4  11
ATOM     11  N   UNL     1       2.625  -2.120   0.353  1.00  0.00    -0.075 NA
BRANCH  11  12
ATOM     12  N   UNL     1       2.101  -2.618   1.351  1.00  0.00     0.002 N 
ATOM     13  N   UNL     1       1.577  -3.114   2.347  1.00  0.00    -0.003 NA
ENDBRANCH  11  12
ENDBRANCH   4  11
ENDBRANCH   2   4
ENDBRANCH   1   2
BRANCH   1  14
ATOM     14  C   UNL     1      -1.114  -0.444  -0.201  1.00  0.00     0.142 A 
ATOM     15  C   UNL     1      -2.054  -0.920  -1.148  1.00  0.00     0.068 A 
ATOM     16  C   UNL     1      -1.548   0.358   0.871  1.00  0.00     0.056 A 
ATOM     17  C   UNL     1      -3.408  -0.552  -1.013  1.00  0.00     0.024 A 
ATOM     18  C   UNL     1      -2.894   0.719   0.996  1.00  0.00    -0.015 A 
ATOM     19  C   UNL     1      -3.832   0.263   0.044  1.00  0.00    -0.017 A 
ATOM     20  C   UNL     1      -3.322   1.525   2.063  1.00  0.00     0.009 A 
ATOM     21  C   UNL     1      -5.183   0.626   0.171  1.00  0.00     0.009 A 
ATOM     22  C   UNL     1      -4.669   1.879   2.179  1.00  0.00     0.001 A 
ATOM     23  C   UNL     1      -5.597   1.432   1.235  1.00  0.00     0.001 A 
BRANCH  15  24
ATOM     24  C   UNL     1      -1.646  -1.789  -2.288  1.00  0.00     0.252 C 
ATOM     25  O   UNL     1      -0.431  -2.070  -2.478  1.00  0.00    -0.287 OA
BRANCH  24  26
ATOM     26  N   UNL     1      -2.634  -2.312  -3.182  1.00  0.00    -0.017 NA
BRANCH  26  27
ATOM     27  N   UNL     1      -2.323  -3.031  -4.132  1.00  0.00     0.009 N 
ATOM     28  N   UNL     1      -2.013  -3.750  -5.081  1.00  0.00    -0.003 NA
ENDBRANCH  26  27
ENDBRANCH  24  26
ENDBRANCH  15  24
ENDBRANCH   1  14
TORSDOF 10


