REMARK SMILES COC[C@@H](C)[NH2+]Cc1c(C)n[nH+]n1-c1cc2ccccc2c2ccccc12
REMARK SMILES IDX 4 1 5 2 3 3 2 4 1 5 6 6 7 9 8 10 9 11 13 12 11 13 12 14
REMARK SMILES IDX 10 15 14 17 15 18 27 19 16 20 26 21 22 22 17 23 21 24 25 25
REMARK SMILES IDX 23 26 18 27 20 28 24 29 19 30
REMARK H PARENT 6 7 6 8 12 16
ROOT
ATOM      1  C   UNL     1       0.226  -2.464   1.860  1.00  0.00     0.205 C 
ATOM      2  C   UNL     1       0.611  -2.837   3.304  1.00  0.00     0.078 C 
ENDROOT
BRANCH   1   3
ATOM      3  C   UNL     1       0.316  -3.705   0.950  1.00  0.00     0.224 C 
BRANCH   3   4
ATOM      4  O   UNL     1       1.653  -4.156   0.876  1.00  0.00    -0.379 OA
ATOM      5  C   UNL     1       1.722  -5.279   0.027  1.00  0.00     0.195 C 
ENDBRANCH   3   4
ENDBRANCH   1   3
BRANCH   1   6
ATOM      6  N   UNL     1       1.073  -1.371   1.329  1.00  0.00    -0.337 N 
ATOM      7  H   UNL     1       0.920  -1.299   0.296  1.00  0.00     0.346 HD
ATOM      8  H   UNL     1       2.084  -1.586   1.494  1.00  0.00     0.346 HD
BRANCH   6   9
ATOM      9  C   UNL     1       0.747  -0.067   1.932  1.00  0.00     0.324 C 
BRANCH   9  10
ATOM     10  C   UNL     1       1.502   1.036   1.239  1.00  0.00     0.166 A 
ATOM     11  C   UNL     1       2.763   1.514   1.548  1.00  0.00     0.138 A 
ATOM     12  N   UNL     1       1.157   1.607   0.067  1.00  0.00    -0.095 N 
ATOM     13  N   UNL     1       3.154   2.349   0.562  1.00  0.00     0.020 NA
ATOM     14  N   UNL     1       2.160   2.381  -0.313  1.00  0.00    -0.012 N 
ATOM     15  C   UNL     1       3.627   1.105   2.695  1.00  0.00     0.076 C 
ATOM     16  H   UNL     1       2.183   2.927  -1.203  1.00  0.00     0.527 HD
BRANCH  12  17
ATOM     17  C   UNL     1       0.002   1.322  -0.735  1.00  0.00     0.116 A 
ATOM     18  C   UNL     1       0.170   0.570  -1.895  1.00  0.00     0.042 A 
ATOM     19  C   UNL     1      -1.284   1.766  -0.360  1.00  0.00     0.012 A 
ATOM     20  C   UNL     1      -0.924   0.211  -2.685  1.00  0.00    -0.015 A 
ATOM     21  C   UNL     1      -1.452   2.572   0.784  1.00  0.00     0.011 A 
ATOM     22  C   UNL     1      -2.420   1.413  -1.149  1.00  0.00    -0.008 A 
ATOM     23  C   UNL     1      -0.711  -0.566  -3.836  1.00  0.00     0.009 A 
ATOM     24  C   UNL     1      -2.237   0.619  -2.324  1.00  0.00    -0.010 A 
ATOM     25  C   UNL     1      -2.716   3.009   1.168  1.00  0.00     0.001 A 
ATOM     26  C   UNL     1      -3.693   1.874  -0.728  1.00  0.00     0.009 A 
ATOM     27  C   UNL     1      -1.784  -0.947  -4.638  1.00  0.00     0.001 A 
ATOM     28  C   UNL     1      -3.308   0.214  -3.160  1.00  0.00     0.009 A 
ATOM     29  C   UNL     1      -3.832   2.658   0.417  1.00  0.00     0.001 A 
ATOM     30  C   UNL     1      -3.077  -0.558  -4.301  1.00  0.00     0.001 A 
ENDBRANCH  12  17
ENDBRANCH   9  10
ENDBRANCH   6   9
ENDBRANCH   1   6
TORSDOF 6


