MODEL 1
REMARK VINA RESULT:      -7.2      0.000      0.000
REMARK SMILES C#CCOC(=O)C[C@@H]1c2c(N=[N+]=[N-])ccc3c2[C@@H](C[C@H]1C(=O)N=[N+]=[N-])C(=O)N(O)C3=O
REMARK SMILES IDX 7 1 5 2 6 3 4 4 3 5 2 6 1 7 8 8 9 9 20 10 10 11 17 12 19 13
REMARK SMILES IDX 14 14 16 15 18 16 15 17 30 18 26 19 28 20 31 21 27 22 21 23
REMARK SMILES IDX 22 24 23 25 24 26 25 27 11 28 12 29 13 30 29 31
REMARK H PARENT 29 32
ROOT
ATOM      1  C   UNL     1      45.347 132.133  16.388  1.00  0.00     0.131 C 
ENDROOT
BRANCH   1   2
ATOM      2  C   UNL     1      45.611 130.659  16.385  1.00  0.00     0.307 C 
ATOM      3  O   UNL     1      45.921 130.074  17.459  1.00  0.00    -0.252 OA
BRANCH   2   4
ATOM      4  O   UNL     1      45.483 129.940  15.191  1.00  0.00    -0.452 OA
BRANCH   4   5
ATOM      5  C   UNL     1      45.097 130.539  13.958  1.00  0.00     0.322 C 
BRANCH   5   6
ATOM      6  C   UNL     1      46.225 130.534  13.021  1.00  0.00    -0.065 C 
ATOM      7  C   UNL     1      47.149 130.532  12.246  1.00  0.00     0.007 C 
ENDBRANCH   5   6
ENDBRANCH   4   5
ENDBRANCH   2   4
ENDBRANCH   1   2
BRANCH   1   8
ATOM      8  C   UNL     1      43.973 132.474  17.024  1.00  0.00     0.042 C 
ATOM      9  C   UNL     1      43.739 133.980  16.925  1.00  0.00    -0.029 A 
ATOM     10  C   UNL     1      43.853 131.939  18.478  1.00  0.00     0.072 C 
ATOM     11  C   UNL     1      43.369 134.542  15.678  1.00  0.00     0.041 A 
ATOM     12  C   UNL     1      43.989 134.837  18.033  1.00  0.00    -0.019 A 
ATOM     13  C   UNL     1      44.625 132.828  19.464  1.00  0.00     0.030 C 
ATOM     14  C   UNL     1      43.280 135.935  15.541  1.00  0.00     0.011 A 
ATOM     15  C   UNL     1      43.931 136.239  17.855  1.00  0.00     0.047 A 
ATOM     16  C   UNL     1      44.111 134.277  19.446  1.00  0.00     0.113 C 
ATOM     17  C   UNL     1      43.575 136.773  16.610  1.00  0.00     0.015 A 
ATOM     18  C   UNL     1      44.304 137.138  18.969  1.00  0.00     0.284 C 
ATOM     19  C   UNL     1      44.939 135.174  20.338  1.00  0.00     0.261 C 
ATOM     20  N   UNL     1      44.900 136.592  20.149  1.00  0.00    -0.151 N 
ATOM     21  O   UNL     1      44.138 138.384  18.872  1.00  0.00    -0.266 OA
ATOM     22  O   UNL     1      45.580 134.695  21.313  1.00  0.00    -0.271 OA
BRANCH  10  23
ATOM     23  C   UNL     1      42.412 131.767  18.910  1.00  0.00     0.222 C 
ATOM     24  O   UNL     1      42.146 131.661  20.139  1.00  0.00    -0.292 OA
BRANCH  23  25
ATOM     25  N   UNL     1      41.354 131.766  17.946  1.00  0.00    -0.022 NA
BRANCH  25  26
ATOM     26  N   UNL     1      40.592 132.726  17.830  1.00  0.00     0.008 N 
ATOM     27  N   UNL     1      39.832 133.686  17.715  1.00  0.00    -0.003 NA
ENDBRANCH  25  26
ENDBRANCH  23  25
ENDBRANCH  10  23
BRANCH  11  28
ATOM     28  N   UNL     1      43.090 133.679  14.563  1.00  0.00    -0.060 NA
BRANCH  28  29
ATOM     29  N   UNL     1      41.958 133.265  14.309  1.00  0.00     0.005 N 
ATOM     30  N   UNL     1      40.826 132.855  14.055  1.00  0.00    -0.003 NA
ENDBRANCH  28  29
ENDBRANCH  11  28
BRANCH  20  31
ATOM     31  O   UNL     1      45.413 137.417  21.095  1.00  0.00    -0.278 OA
ATOM     32  H   UNL     1      46.291 137.022  21.331  1.00  0.00     0.247 HD
ENDBRANCH  20  31
ENDBRANCH   1   8
TORSDOF 11
ENDMDL
MODEL 2
REMARK VINA RESULT:      -6.7      3.183      5.606
REMARK SMILES C#CCOC(=O)C[C@@H]1c2c(N=[N+]=[N-])ccc3c2[C@@H](C[C@H]1C(=O)N=[N+]=[N-])C(=O)N(O)C3=O
REMARK SMILES IDX 7 1 5 2 6 3 4 4 3 5 2 6 1 7 8 8 9 9 20 10 10 11 17 12 19 13
REMARK SMILES IDX 14 14 16 15 18 16 15 17 30 18 26 19 28 20 31 21 27 22 21 23
REMARK SMILES IDX 22 24 23 25 24 26 25 27 11 28 12 29 13 30 29 31
REMARK H PARENT 29 32
ROOT
ATOM      1  C   UNL     1      42.271 132.542  14.646  1.00  0.00     0.131 C 
ENDROOT
BRANCH   1   2
ATOM      2  C   UNL     1      41.222 133.309  13.902  1.00  0.00     0.307 C 
ATOM      3  O   UNL     1      41.555 134.283  13.173  1.00  0.00    -0.252 OA
BRANCH   2   4
ATOM      4  O   UNL     1      39.882 132.918  14.005  1.00  0.00    -0.452 OA
BRANCH   4   5
ATOM      5  C   UNL     1      38.798 133.843  14.011  1.00  0.00     0.322 C 
BRANCH   5   6
ATOM      6  C   UNL     1      38.358 134.094  15.388  1.00  0.00    -0.065 C 
ATOM      7  C   UNL     1      38.002 134.304  16.520  1.00  0.00     0.007 C 
ENDBRANCH   5   6
ENDBRANCH   4   5
ENDBRANCH   2   4
ENDBRANCH   1   2
BRANCH   1   8
ATOM      8  C   UNL     1      43.261 133.480  15.384  1.00  0.00     0.042 C 
ATOM      9  C   UNL     1      44.027 132.674  16.431  1.00  0.00    -0.029 A 
ATOM     10  C   UNL     1      42.550 134.725  15.986  1.00  0.00     0.072 C 
ATOM     11  C   UNL     1      45.067 131.807  16.011  1.00  0.00     0.041 A 
ATOM     12  C   UNL     1      43.644 132.695  17.801  1.00  0.00    -0.019 A 
ATOM     13  C   UNL     1      41.796 134.367  17.274  1.00  0.00     0.030 C 
ATOM     14  C   UNL     1      45.689 130.963  16.942  1.00  0.00     0.011 A 
ATOM     15  C   UNL     1      44.260 131.803  18.710  1.00  0.00     0.047 A 
ATOM     16  C   UNL     1      42.739 133.796  18.345  1.00  0.00     0.113 C 
ATOM     17  C   UNL     1      45.278 130.948  18.270  1.00  0.00     0.015 A 
ATOM     18  C   UNL     1      43.788 131.737  20.109  1.00  0.00     0.284 C 
ATOM     19  C   UNL     1      41.982 133.347  19.574  1.00  0.00     0.261 C 
ATOM     20  N   UNL     1      42.594 132.429  20.487  1.00  0.00    -0.151 N 
ATOM     21  O   UNL     1      44.404 131.044  20.964  1.00  0.00    -0.266 OA
ATOM     22  O   UNL     1      40.862 133.852  19.858  1.00  0.00    -0.271 OA
BRANCH  10  23
ATOM     23  C   UNL     1      43.503 135.879  16.211  1.00  0.00     0.222 C 
ATOM     24  O   UNL     1      44.653 135.838  15.695  1.00  0.00    -0.292 OA
BRANCH  23  25
ATOM     25  N   UNL     1      43.097 137.027  16.965  1.00  0.00    -0.022 NA
BRANCH  25  26
ATOM     26  N   UNL     1      43.839 137.537  17.804  1.00  0.00     0.008 N 
ATOM     27  N   UNL     1      44.582 138.048  18.641  1.00  0.00    -0.003 NA
ENDBRANCH  25  26
ENDBRANCH  23  25
ENDBRANCH  10  23
BRANCH  11  28
ATOM     28  N   UNL     1      45.474 131.800  14.632  1.00  0.00    -0.060 NA
BRANCH  28  29
ATOM     29  N   UNL     1      45.949 130.804  14.085  1.00  0.00     0.005 N 
ATOM     30  N   UNL     1      46.425 129.811  13.536  1.00  0.00    -0.003 NA
ENDBRANCH  28  29
ENDBRANCH  11  28
BRANCH  20  31
ATOM     31  O   UNL     1      42.050 132.227  21.713  1.00  0.00    -0.278 OA
ATOM     32  H   UNL     1      41.754 131.281  21.709  1.00  0.00     0.247 HD
ENDBRANCH  20  31
ENDBRANCH   1   8
TORSDOF 11
ENDMDL
MODEL 3
REMARK VINA RESULT:      -6.4      1.367      1.455
REMARK SMILES C#CCOC(=O)C[C@@H]1c2c(N=[N+]=[N-])ccc3c2[C@@H](C[C@H]1C(=O)N=[N+]=[N-])C(=O)N(O)C3=O
REMARK SMILES IDX 7 1 5 2 6 3 4 4 3 5 2 6 1 7 8 8 9 9 20 10 10 11 17 12 19 13
REMARK SMILES IDX 14 14 16 15 18 16 15 17 30 18 26 19 28 20 31 21 27 22 21 23
REMARK SMILES IDX 22 24 23 25 24 26 25 27 11 28 12 29 13 30 29 31
REMARK H PARENT 29 32
ROOT
ATOM      1  C   UNL     1      45.154 132.962  16.107  1.00  0.00     0.131 C 
ENDROOT
BRANCH   1   2
ATOM      2  C   UNL     1      45.113 131.725  15.264  1.00  0.00     0.307 C 
ATOM      3  O   UNL     1      44.346 130.775  15.580  1.00  0.00    -0.252 OA
BRANCH   2   4
ATOM      4  O   UNL     1      45.909 131.649  14.116  1.00  0.00    -0.452 OA
BRANCH   4   5
ATOM      5  C   UNL     1      45.939 130.510  13.261  1.00  0.00     0.322 C 
BRANCH   5   6
ATOM      6  C   UNL     1      47.261 129.876  13.313  1.00  0.00    -0.065 C 
ATOM      7  C   UNL     1      48.345 129.350  13.356  1.00  0.00     0.007 C 
ENDBRANCH   5   6
ENDBRANCH   4   5
ENDBRANCH   2   4
ENDBRANCH   1   2
BRANCH   1   8
ATOM      8  C   UNL     1      43.785 133.254  16.776  1.00  0.00     0.042 C 
ATOM      9  C   UNL     1      43.469 134.741  16.637  1.00  0.00    -0.029 A 
ATOM     10  C   UNL     1      43.738 132.763  18.250  1.00  0.00     0.072 C 
ATOM     11  C   UNL     1      43.032 135.241  15.385  1.00  0.00     0.041 A 
ATOM     12  C   UNL     1      43.708 135.647  17.707  1.00  0.00    -0.019 A 
ATOM     13  C   UNL     1      44.492 133.723  19.180  1.00  0.00     0.030 C 
ATOM     14  C   UNL     1      42.865 136.622  15.206  1.00  0.00     0.011 A 
ATOM     15  C   UNL     1      43.571 137.038  17.486  1.00  0.00     0.047 A 
ATOM     16  C   UNL     1      43.903 135.142  19.133  1.00  0.00     0.113 C 
ATOM     17  C   UNL     1      43.149 137.510  16.237  1.00  0.00     0.015 A 
ATOM     18  C   UNL     1      43.930 137.991  18.558  1.00  0.00     0.284 C 
ATOM     19  C   UNL     1      44.710 136.110  19.968  1.00  0.00     0.261 C 
ATOM     20  N   UNL     1      44.590 137.517  19.736  1.00  0.00    -0.151 N 
ATOM     21  O   UNL     1      43.697 139.223  18.427  1.00  0.00    -0.266 OA
ATOM     22  O   UNL     1      45.405 135.698  20.936  1.00  0.00    -0.271 OA
BRANCH  10  23
ATOM     23  C   UNL     1      42.323 132.531  18.734  1.00  0.00     0.222 C 
ATOM     24  O   UNL     1      41.472 132.041  17.941  1.00  0.00    -0.292 OA
BRANCH  23  25
ATOM     25  N   UNL     1      41.955 132.821  20.087  1.00  0.00    -0.022 NA
BRANCH  25  26
ATOM     26  N   UNL     1      41.067 133.632  20.350  1.00  0.00     0.008 N 
ATOM     27  N   UNL     1      40.180 134.442  20.612  1.00  0.00    -0.003 NA
ENDBRANCH  25  26
ENDBRANCH  23  25
ENDBRANCH  10  23
BRANCH  11  28
ATOM     28  N   UNL     1      42.764 134.328  14.307  1.00  0.00    -0.060 NA
BRANCH  28  29
ATOM     29  N   UNL     1      41.671 133.780  14.156  1.00  0.00     0.005 N 
ATOM     30  N   UNL     1      40.580 133.233  14.002  1.00  0.00    -0.003 NA
ENDBRANCH  28  29
ENDBRANCH  11  28
BRANCH  20  31
ATOM     31  O   UNL     1      45.089 138.399  20.637  1.00  0.00    -0.278 OA
ATOM     32  H   UNL     1      45.372 137.845  21.408  1.00  0.00     0.247 HD
ENDBRANCH  20  31
ENDBRANCH   1   8
TORSDOF 11
ENDMDL
MODEL 4
REMARK VINA RESULT:      -6.4      1.441      1.600
REMARK SMILES C#CCOC(=O)C[C@@H]1c2c(N=[N+]=[N-])ccc3c2[C@@H](C[C@H]1C(=O)N=[N+]=[N-])C(=O)N(O)C3=O
REMARK SMILES IDX 7 1 5 2 6 3 4 4 3 5 2 6 1 7 8 8 9 9 20 10 10 11 17 12 19 13
REMARK SMILES IDX 14 14 16 15 18 16 15 17 30 18 26 19 28 20 31 21 27 22 21 23
REMARK SMILES IDX 22 24 23 25 24 26 25 27 11 28 12 29 13 30 29 31
REMARK H PARENT 29 32
ROOT
ATOM      1  C   UNL     1      45.310 132.144  16.452  1.00  0.00     0.131 C 
ENDROOT
BRANCH   1   2
ATOM      2  C   UNL     1      45.106 131.184  15.321  1.00  0.00     0.307 C 
ATOM      3  O   UNL     1      44.353 130.183  15.475  1.00  0.00    -0.252 OA
BRANCH   2   4
ATOM      4  O   UNL     1      45.733 131.424  14.094  1.00  0.00    -0.452 OA
BRANCH   4   5
ATOM      5  C   UNL     1      47.143 131.569  13.954  1.00  0.00     0.322 C 
BRANCH   5   6
ATOM      6  C   UNL     1      47.750 130.277  13.612  1.00  0.00    -0.065 C 
ATOM      7  C   UNL     1      48.244 129.216  13.328  1.00  0.00     0.007 C 
ENDBRANCH   5   6
ENDBRANCH   4   5
ENDBRANCH   2   4
ENDBRANCH   1   2
BRANCH   1   8
ATOM      8  C   UNL     1      43.985 132.454  17.196  1.00  0.00     0.042 C 
ATOM      9  C   UNL     1      43.660 133.938  17.040  1.00  0.00    -0.029 A 
ATOM     10  C   UNL     1      44.028 132.000  18.682  1.00  0.00     0.072 C 
ATOM     11  C   UNL     1      43.147 134.407  15.805  1.00  0.00     0.041 A 
ATOM     12  C   UNL     1      43.965 134.870  18.071  1.00  0.00    -0.019 A 
ATOM     13  C   UNL     1      44.838 132.982  19.540  1.00  0.00     0.030 C 
ATOM     14  C   UNL     1      42.969 135.783  15.602  1.00  0.00     0.011 A 
ATOM     15  C   UNL     1      43.814 136.255  17.824  1.00  0.00     0.047 A 
ATOM     16  C   UNL     1      44.246 134.400  19.494  1.00  0.00     0.113 C 
ATOM     17  C   UNL     1      43.315 136.696  16.592  1.00  0.00     0.015 A 
ATOM     18  C   UNL     1      44.237 137.234  18.848  1.00  0.00     0.284 C 
ATOM     19  C   UNL     1      45.103 135.387  20.254  1.00  0.00     0.261 C 
ATOM     20  N   UNL     1      44.969 136.789  19.994  1.00  0.00    -0.151 N 
ATOM     21  O   UNL     1      43.996 138.463  18.700  1.00  0.00    -0.266 OA
ATOM     22  O   UNL     1      45.857 134.999  21.187  1.00  0.00    -0.271 OA
BRANCH  10  23
ATOM     23  C   UNL     1      42.646 131.782  19.258  1.00  0.00     0.222 C 
ATOM     24  O   UNL     1      41.644 131.838  18.493  1.00  0.00    -0.292 OA
BRANCH  23  25
ATOM     25  N   UNL     1      42.471 131.472  20.645  1.00  0.00    -0.022 NA
BRANCH  25  26
ATOM     26  N   UNL     1      42.256 132.354  21.476  1.00  0.00     0.008 N 
ATOM     27  N   UNL     1      42.042 133.235  22.307  1.00  0.00    -0.003 NA
ENDBRANCH  25  26
ENDBRANCH  23  25
ENDBRANCH  10  23
BRANCH  11  28
ATOM     28  N   UNL     1      42.814 133.467  14.769  1.00  0.00    -0.060 NA
BRANCH  28  29
ATOM     29  N   UNL     1      41.656 133.272  14.395  1.00  0.00     0.005 N 
ATOM     30  N   UNL     1      40.500 133.076  14.025  1.00  0.00    -0.003 NA
ENDBRANCH  28  29
ENDBRANCH  11  28
BRANCH  20  31
ATOM     31  O   UNL     1      45.522 137.693  20.840  1.00  0.00    -0.278 OA
ATOM     32  H   UNL     1      44.946 138.496  20.769  1.00  0.00     0.247 HD
ENDBRANCH  20  31
ENDBRANCH   1   8
TORSDOF 11
ENDMDL
MODEL 5
REMARK VINA RESULT:      -6.3      1.728      2.404
REMARK SMILES C#CCOC(=O)C[C@@H]1c2c(N=[N+]=[N-])ccc3c2[C@@H](C[C@H]1C(=O)N=[N+]=[N-])C(=O)N(O)C3=O
REMARK SMILES IDX 7 1 5 2 6 3 4 4 3 5 2 6 1 7 8 8 9 9 20 10 10 11 17 12 19 13
REMARK SMILES IDX 14 14 16 15 18 16 15 17 30 18 26 19 28 20 31 21 27 22 21 23
REMARK SMILES IDX 22 24 23 25 24 26 25 27 11 28 12 29 13 30 29 31
REMARK H PARENT 29 32
ROOT
ATOM      1  C   UNL     1      44.838 132.910  15.766  1.00  0.00     0.131 C 
ENDROOT
BRANCH   1   2
ATOM      2  C   UNL     1      44.863 131.506  15.245  1.00  0.00     0.307 C 
ATOM      3  O   UNL     1      44.120 131.182  14.278  1.00  0.00    -0.252 OA
BRANCH   2   4
ATOM      4  O   UNL     1      45.732 130.573  15.822  1.00  0.00    -0.452 OA
BRANCH   4   5
ATOM      5  C   UNL     1      46.623 129.762  15.062  1.00  0.00     0.322 C 
BRANCH   5   6
ATOM      6  C   UNL     1      47.231 130.554  13.987  1.00  0.00    -0.065 C 
ATOM      7  C   UNL     1      47.728 131.200  13.099  1.00  0.00     0.007 C 
ENDBRANCH   5   6
ENDBRANCH   4   5
ENDBRANCH   2   4
ENDBRANCH   1   2
BRANCH   1   8
ATOM      8  C   UNL     1      43.547 133.205  16.573  1.00  0.00     0.042 C 
ATOM      9  C   UNL     1      43.797 134.399  17.493  1.00  0.00    -0.029 A 
ATOM     10  C   UNL     1      43.035 131.953  17.337  1.00  0.00     0.072 C 
ATOM     11  C   UNL     1      43.823 135.703  16.942  1.00  0.00     0.041 A 
ATOM     12  C   UNL     1      44.110 134.214  18.869  1.00  0.00    -0.019 A 
ATOM     13  C   UNL     1      43.867 131.693  18.601  1.00  0.00     0.030 C 
ATOM     14  C   UNL     1      44.182 136.794  17.748  1.00  0.00     0.011 A 
ATOM     15  C   UNL     1      44.507 135.326  19.648  1.00  0.00     0.047 A 
ATOM     16  C   UNL     1      43.824 132.888  19.566  1.00  0.00     0.113 C 
ATOM     17  C   UNL     1      44.537 136.605  19.079  1.00  0.00     0.015 A 
ATOM     18  C   UNL     1      44.945 135.124  21.046  1.00  0.00     0.284 C 
ATOM     19  C   UNL     1      44.726 132.674  20.760  1.00  0.00     0.261 C 
ATOM     20  N   UNL     1      45.148 133.798  21.541  1.00  0.00    -0.151 N 
ATOM     21  O   UNL     1      45.182 136.112  21.794  1.00  0.00    -0.266 OA
ATOM     22  O   UNL     1      45.025 131.508  21.139  1.00  0.00    -0.271 OA
BRANCH  10  23
ATOM     23  C   UNL     1      41.559 132.040  17.662  1.00  0.00     0.222 C 
ATOM     24  O   UNL     1      40.992 131.063  18.224  1.00  0.00    -0.292 OA
BRANCH  23  25
ATOM     25  N   UNL     1      40.817 133.232  17.379  1.00  0.00    -0.022 NA
BRANCH  25  26
ATOM     26  N   UNL     1      39.597 133.279  17.538  1.00  0.00     0.008 N 
ATOM     27  N   UNL     1      38.378 133.327  17.696  1.00  0.00    -0.003 NA
ENDBRANCH  25  26
ENDBRANCH  23  25
ENDBRANCH  10  23
BRANCH  11  28
ATOM     28  N   UNL     1      43.484 135.899  15.558  1.00  0.00    -0.060 NA
BRANCH  28  29
ATOM     29  N   UNL     1      42.566 136.638  15.197  1.00  0.00     0.005 N 
ATOM     30  N   UNL     1      41.652 137.376  14.833  1.00  0.00    -0.003 NA
ENDBRANCH  28  29
ENDBRANCH  11  28
BRANCH  20  31
ATOM     31  O   UNL     1      45.724 133.605  22.753  1.00  0.00    -0.278 OA
ATOM     32  H   UNL     1      45.209 132.866  23.167  1.00  0.00     0.247 HD
ENDBRANCH  20  31
ENDBRANCH   1   8
TORSDOF 11
ENDMDL
MODEL 6
REMARK VINA RESULT:      -6.3      1.873      2.080
REMARK SMILES C#CCOC(=O)C[C@@H]1c2c(N=[N+]=[N-])ccc3c2[C@@H](C[C@H]1C(=O)N=[N+]=[N-])C(=O)N(O)C3=O
REMARK SMILES IDX 7 1 5 2 6 3 4 4 3 5 2 6 1 7 8 8 9 9 20 10 10 11 17 12 19 13
REMARK SMILES IDX 14 14 16 15 18 16 15 17 30 18 26 19 28 20 31 21 27 22 21 23
REMARK SMILES IDX 22 24 23 25 24 26 25 27 11 28 12 29 13 30 29 31
REMARK H PARENT 29 32
ROOT
ATOM      1  C   UNL     1      45.153 132.036  17.010  1.00  0.00     0.131 C 
ENDROOT
BRANCH   1   2
ATOM      2  C   UNL     1      45.330 130.645  16.484  1.00  0.00     0.307 C 
ATOM      3  O   UNL     1      46.210 129.892  16.984  1.00  0.00    -0.252 OA
BRANCH   2   4
ATOM      4  O   UNL     1      44.496 130.186  15.459  1.00  0.00    -0.452 OA
BRANCH   4   5
ATOM      5  C   UNL     1      44.446 130.784  14.167  1.00  0.00     0.322 C 
BRANCH   5   6
ATOM      6  C   UNL     1      45.712 130.561  13.460  1.00  0.00    -0.065 C 
ATOM      7  C   UNL     1      46.755 130.381  12.884  1.00  0.00     0.007 C 
ENDBRANCH   5   6
ENDBRANCH   4   5
ENDBRANCH   2   4
ENDBRANCH   1   2
BRANCH   1   8
ATOM      8  C   UNL     1      44.027 132.114  18.074  1.00  0.00     0.042 C 
ATOM      9  C   UNL     1      43.369 133.490  18.004  1.00  0.00    -0.029 A 
ATOM     10  C   UNL     1      44.542 131.765  19.498  1.00  0.00     0.072 C 
ATOM     11  C   UNL     1      42.472 133.774  16.945  1.00  0.00     0.041 A 
ATOM     12  C   UNL     1      43.724 134.522  18.916  1.00  0.00    -0.019 A 
ATOM     13  C   UNL     1      45.319 132.938  20.112  1.00  0.00     0.030 C 
ATOM     14  C   UNL     1      41.963 135.072  16.791  1.00  0.00     0.011 A 
ATOM     15  C   UNL     1      43.228 135.832  18.713  1.00  0.00     0.047 A 
ATOM     16  C   UNL     1      44.452 134.202  20.218  1.00  0.00     0.113 C 
ATOM     17  C   UNL     1      42.351 136.092  17.653  1.00  0.00     0.015 A 
ATOM     18  C   UNL     1      43.684 136.934  19.588  1.00  0.00     0.284 C 
ATOM     19  C   UNL     1      45.246 135.384  20.724  1.00  0.00     0.261 C 
ATOM     20  N   UNL     1      44.760 136.712  20.504  1.00  0.00    -0.151 N 
ATOM     21  O   UNL     1      43.160 138.078  19.505  1.00  0.00    -0.266 OA
ATOM     22  O   UNL     1      46.277 135.210  21.429  1.00  0.00    -0.271 OA
BRANCH  10  23
ATOM     23  C   UNL     1      43.429 131.306  20.416  1.00  0.00     0.222 C 
ATOM     24  O   UNL     1      42.236 131.352  20.009  1.00  0.00    -0.292 OA
BRANCH  23  25
ATOM     25  N   UNL     1      43.722 130.782  21.716  1.00  0.00    -0.022 NA
BRANCH  25  26
ATOM     26  N   UNL     1      42.992 131.015  22.679  1.00  0.00     0.008 N 
ATOM     27  N   UNL     1      42.262 131.246  23.642  1.00  0.00    -0.003 NA
ENDBRANCH  25  26
ENDBRANCH  23  25
ENDBRANCH  10  23
BRANCH  11  28
ATOM     28  N   UNL     1      42.090 132.728  16.034  1.00  0.00    -0.060 NA
BRANCH  28  29
ATOM     29  N   UNL     1      41.601 132.957  14.927  1.00  0.00     0.005 N 
ATOM     30  N   UNL     1      41.115 133.183  13.820  1.00  0.00    -0.003 NA
ENDBRANCH  28  29
ENDBRANCH  11  28
BRANCH  20  31
ATOM     31  O   UNL     1      45.308 137.756  21.174  1.00  0.00    -0.278 OA
ATOM     32  H   UNL     1      45.090 138.554  20.627  1.00  0.00     0.247 HD
ENDBRANCH  20  31
ENDBRANCH   1   8
TORSDOF 11
ENDMDL
MODEL 7
REMARK VINA RESULT:      -6.3      3.168      5.209
REMARK SMILES C#CCOC(=O)C[C@@H]1c2c(N=[N+]=[N-])ccc3c2[C@@H](C[C@H]1C(=O)N=[N+]=[N-])C(=O)N(O)C3=O
REMARK SMILES IDX 7 1 5 2 6 3 4 4 3 5 2 6 1 7 8 8 9 9 20 10 10 11 17 12 19 13
REMARK SMILES IDX 14 14 16 15 18 16 15 17 30 18 26 19 28 20 31 21 27 22 21 23
REMARK SMILES IDX 22 24 23 25 24 26 25 27 11 28 12 29 13 30 29 31
REMARK H PARENT 29 32
ROOT
ATOM      1  C   UNL     1      43.534 131.477  16.596  1.00  0.00     0.131 C 
ENDROOT
BRANCH   1   2
ATOM      2  C   UNL     1      44.783 131.014  15.910  1.00  0.00     0.307 C 
ATOM      3  O   UNL     1      45.910 131.298  16.400  1.00  0.00    -0.252 OA
BRANCH   2   4
ATOM      4  O   UNL     1      44.683 130.246  14.744  1.00  0.00    -0.452 OA
BRANCH   4   5
ATOM      5  C   UNL     1      45.332 130.592  13.524  1.00  0.00     0.322 C 
BRANCH   5   6
ATOM      6  C   UNL     1      46.667 129.987  13.475  1.00  0.00    -0.065 C 
ATOM      7  C   UNL     1      47.767 129.496  13.436  1.00  0.00     0.007 C 
ENDBRANCH   5   6
ENDBRANCH   4   5
ENDBRANCH   2   4
ENDBRANCH   1   2
BRANCH   1   8
ATOM      8  C   UNL     1      43.467 133.023  16.696  1.00  0.00     0.042 C 
ATOM      9  C   UNL     1      42.697 133.408  17.957  1.00  0.00    -0.029 A 
ATOM     10  C   UNL     1      42.878 133.668  15.410  1.00  0.00     0.072 C 
ATOM     11  C   UNL     1      43.333 133.294  19.218  1.00  0.00     0.041 A 
ATOM     12  C   UNL     1      41.323 133.774  17.897  1.00  0.00    -0.019 A 
ATOM     13  C   UNL     1      41.351 133.520  15.363  1.00  0.00     0.030 C 
ATOM     14  C   UNL     1      42.598 133.516  20.392  1.00  0.00     0.011 A 
ATOM     15  C   UNL     1      40.597 133.952  19.097  1.00  0.00     0.047 A 
ATOM     16  C   UNL     1      40.678 134.181  16.576  1.00  0.00     0.113 C 
ATOM     17  C   UNL     1      41.244 133.823  20.333  1.00  0.00     0.015 A 
ATOM     18  C   UNL     1      39.143 134.218  19.044  1.00  0.00     0.284 C 
ATOM     19  C   UNL     1      39.184 133.945  16.583  1.00  0.00     0.261 C 
ATOM     20  N   UNL     1      38.447 134.104  17.800  1.00  0.00    -0.151 N 
ATOM     21  O   UNL     1      38.504 134.505  20.093  1.00  0.00    -0.266 OA
ATOM     22  O   UNL     1      38.566 133.713  15.508  1.00  0.00    -0.271 OA
BRANCH  10  23
ATOM     23  C   UNL     1      43.293 135.114  15.250  1.00  0.00     0.222 C 
ATOM     24  O   UNL     1      44.475 135.452  15.537  1.00  0.00    -0.292 OA
BRANCH  23  25
ATOM     25  N   UNL     1      42.376 136.087  14.737  1.00  0.00    -0.022 NA
BRANCH  25  26
ATOM     26  N   UNL     1      42.563 137.292  14.901  1.00  0.00     0.008 N 
ATOM     27  N   UNL     1      42.750 138.497  15.064  1.00  0.00    -0.003 NA
ENDBRANCH  25  26
ENDBRANCH  23  25
ENDBRANCH  10  23
BRANCH  11  28
ATOM     28  N   UNL     1      44.727 132.948  19.283  1.00  0.00    -0.060 NA
BRANCH  28  29
ATOM     29  N   UNL     1      45.146 132.000  19.949  1.00  0.00     0.005 N 
ATOM     30  N   UNL     1      45.567 131.052  20.611  1.00  0.00    -0.003 NA
ENDBRANCH  28  29
ENDBRANCH  11  28
BRANCH  20  31
ATOM     31  O   UNL     1      37.093 134.162  17.771  1.00  0.00    -0.278 OA
ATOM     32  H   UNL     1      36.873 134.601  16.909  1.00  0.00     0.247 HD
ENDBRANCH  20  31
ENDBRANCH   1   8
TORSDOF 11
ENDMDL
MODEL 8
REMARK VINA RESULT:      -6.2      3.377      5.548
REMARK SMILES C#CCOC(=O)C[C@@H]1c2c(N=[N+]=[N-])ccc3c2[C@@H](C[C@H]1C(=O)N=[N+]=[N-])C(=O)N(O)C3=O
REMARK SMILES IDX 7 1 5 2 6 3 4 4 3 5 2 6 1 7 8 8 9 9 20 10 10 11 17 12 19 13
REMARK SMILES IDX 14 14 16 15 18 16 15 17 30 18 26 19 28 20 31 21 27 22 21 23
REMARK SMILES IDX 22 24 23 25 24 26 25 27 11 28 12 29 13 30 29 31
REMARK H PARENT 29 32
ROOT
ATOM      1  C   UNL     1      42.028 132.824  15.064  1.00  0.00     0.131 C 
ENDROOT
BRANCH   1   2
ATOM      2  C   UNL     1      41.143 133.618  14.153  1.00  0.00     0.307 C 
ATOM      3  O   UNL     1      41.654 134.425  13.328  1.00  0.00    -0.252 OA
BRANCH   2   4
ATOM      4  O   UNL     1      39.757 133.436  14.210  1.00  0.00    -0.452 OA
BRANCH   4   5
ATOM      5  C   UNL     1      38.952 133.902  15.288  1.00  0.00     0.322 C 
BRANCH   5   6
ATOM      6  C   UNL     1      37.710 134.488  14.773  1.00  0.00    -0.065 C 
ATOM      7  C   UNL     1      36.690 134.974  14.355  1.00  0.00     0.007 C 
ENDBRANCH   5   6
ENDBRANCH   4   5
ENDBRANCH   2   4
ENDBRANCH   1   2
BRANCH   1   8
ATOM      8  C   UNL     1      43.037 133.725  15.822  1.00  0.00     0.042 C 
ATOM      9  C   UNL     1      43.858 132.861  16.777  1.00  0.00    -0.029 A 
ATOM     10  C   UNL     1      42.338 134.915  16.537  1.00  0.00     0.072 C 
ATOM     11  C   UNL     1      44.889 132.041  16.256  1.00  0.00     0.041 A 
ATOM     12  C   UNL     1      43.534 132.783  18.160  1.00  0.00    -0.019 A 
ATOM     13  C   UNL     1      41.645 134.459  17.829  1.00  0.00     0.030 C 
ATOM     14  C   UNL     1      45.561 131.145  17.099  1.00  0.00     0.011 A 
ATOM     15  C   UNL     1      44.200 131.841  18.979  1.00  0.00     0.047 A 
ATOM     16  C   UNL     1      42.641 133.831  18.817  1.00  0.00     0.113 C 
ATOM     17  C   UNL     1      45.209 131.034  18.439  1.00  0.00     0.015 A 
ATOM     18  C   UNL     1      43.790 131.673  20.390  1.00  0.00     0.284 C 
ATOM     19  C   UNL     1      41.943 133.288  20.043  1.00  0.00     0.261 C 
ATOM     20  N   UNL     1      42.605 132.319  20.864  1.00  0.00    -0.151 N 
ATOM     21  O   UNL     1      44.451 130.933  21.168  1.00  0.00    -0.266 OA
ATOM     22  O   UNL     1      40.831 133.755  20.409  1.00  0.00    -0.271 OA
BRANCH  10  23
ATOM     23  C   UNL     1      43.285 136.065  16.801  1.00  0.00     0.222 C 
ATOM     24  O   UNL     1      44.484 135.818  17.108  1.00  0.00    -0.292 OA
BRANCH  23  25
ATOM     25  N   UNL     1      42.847 137.421  16.663  1.00  0.00    -0.022 NA
BRANCH  25  26
ATOM     26  N   UNL     1      41.652 137.701  16.563  1.00  0.00     0.008 N 
ATOM     27  N   UNL     1      40.458 137.980  16.464  1.00  0.00    -0.003 NA
ENDBRANCH  25  26
ENDBRANCH  23  25
ENDBRANCH  10  23
BRANCH  11  28
ATOM     28  N   UNL     1      45.237 132.134  14.863  1.00  0.00    -0.060 NA
BRANCH  28  29
ATOM     29  N   UNL     1      45.527 131.148  14.184  1.00  0.00     0.005 N 
ATOM     30  N   UNL     1      45.819 130.165  13.504  1.00  0.00    -0.003 NA
ENDBRANCH  28  29
ENDBRANCH  11  28
BRANCH  20  31
ATOM     31  O   UNL     1      42.117 132.026  22.095  1.00  0.00    -0.278 OA
ATOM     32  H   UNL     1      41.929 131.053  22.071  1.00  0.00     0.247 HD
ENDBRANCH  20  31
ENDBRANCH   1   8
TORSDOF 11
ENDMDL
MODEL 9
REMARK VINA RESULT:      -6.2      2.004      2.772
REMARK SMILES C#CCOC(=O)C[C@@H]1c2c(N=[N+]=[N-])ccc3c2[C@@H](C[C@H]1C(=O)N=[N+]=[N-])C(=O)N(O)C3=O
REMARK SMILES IDX 7 1 5 2 6 3 4 4 3 5 2 6 1 7 8 8 9 9 20 10 10 11 17 12 19 13
REMARK SMILES IDX 14 14 16 15 18 16 15 17 30 18 26 19 28 20 31 21 27 22 21 23
REMARK SMILES IDX 22 24 23 25 24 26 25 27 11 28 12 29 13 30 29 31
REMARK H PARENT 29 32
ROOT
ATOM      1  C   UNL     1      44.535 133.393  16.190  1.00  0.00     0.131 C 
ENDROOT
BRANCH   1   2
ATOM      2  C   UNL     1      44.106 132.376  15.179  1.00  0.00     0.307 C 
ATOM      3  O   UNL     1      42.952 132.440  14.673  1.00  0.00    -0.252 OA
BRANCH   2   4
ATOM      4  O   UNL     1      45.004 131.377  14.785  1.00  0.00    -0.452 OA
BRANCH   4   5
ATOM      5  C   UNL     1      46.418 131.516  14.884  1.00  0.00     0.322 C 
BRANCH   5   6
ATOM      6  C   UNL     1      47.054 131.109  13.627  1.00  0.00    -0.065 C 
ATOM      7  C   UNL     1      47.581 130.772  12.597  1.00  0.00     0.007 C 
ENDBRANCH   5   6
ENDBRANCH   4   5
ENDBRANCH   2   4
ENDBRANCH   1   2
BRANCH   1   8
ATOM      8  C   UNL     1      43.498 133.546  17.334  1.00  0.00     0.042 C 
ATOM      9  C   UNL     1      43.897 134.729  18.214  1.00  0.00    -0.029 A 
ATOM     10  C   UNL     1      43.318 132.229  18.140  1.00  0.00     0.072 C 
ATOM     11  C   UNL     1      43.666 136.047  17.747  1.00  0.00     0.041 A 
ATOM     12  C   UNL     1      44.592 134.532  19.440  1.00  0.00    -0.019 A 
ATOM     13  C   UNL     1      44.485 132.009  19.113  1.00  0.00     0.030 C 
ATOM     14  C   UNL     1      44.146 137.140  18.483  1.00  0.00     0.011 A 
ATOM     15  C   UNL     1      45.099 135.651  20.140  1.00  0.00     0.047 A 
ATOM     16  C   UNL     1      44.616 133.165  20.117  1.00  0.00     0.113 C 
ATOM     17  C   UNL     1      44.869 136.944  19.654  1.00  0.00     0.015 A 
ATOM     18  C   UNL     1      45.921 135.449  21.352  1.00  0.00     0.284 C 
ATOM     19  C   UNL     1      45.827 132.998  21.006  1.00  0.00     0.261 C 
ATOM     20  N   UNL     1      46.357 134.132  21.701  1.00  0.00    -0.151 N 
ATOM     21  O   UNL     1      46.276 136.431  22.059  1.00  0.00    -0.266 OA
ATOM     22  O   UNL     1      46.310 131.854  21.225  1.00  0.00    -0.271 OA
BRANCH  10  23
ATOM     23  C   UNL     1      41.987 132.173  18.859  1.00  0.00     0.222 C 
ATOM     24  O   UNL     1      41.822 131.330  19.784  1.00  0.00    -0.292 OA
BRANCH  23  25
ATOM     25  N   UNL     1      40.938 133.090  18.531  1.00  0.00    -0.022 NA
BRANCH  25  26
ATOM     26  N   UNL     1      40.536 133.920  19.345  1.00  0.00     0.008 N 
ATOM     27  N   UNL     1      40.133 134.749  20.160  1.00  0.00    -0.003 NA
ENDBRANCH  25  26
ENDBRANCH  23  25
ENDBRANCH  10  23
BRANCH  11  28
ATOM     28  N   UNL     1      42.943 136.252  16.521  1.00  0.00    -0.060 NA
BRANCH  28  29
ATOM     29  N   UNL     1      42.813 137.363  16.005  1.00  0.00     0.005 N 
ATOM     30  N   UNL     1      42.685 138.471  15.487  1.00  0.00    -0.003 NA
ENDBRANCH  28  29
ENDBRANCH  11  28
BRANCH  20  31
ATOM     31  O   UNL     1      47.260 133.956  22.697  1.00  0.00    -0.278 OA
ATOM     32  H   UNL     1      46.778 133.439  23.392  1.00  0.00     0.247 HD
ENDBRANCH  20  31
ENDBRANCH   1   8
TORSDOF 11
ENDMDL


