REMARK SMILES C[N+]1(C)Cc2cc3ccc(-n4cc(CCn5cc(CN)cn5)n[nH+]4)cc3cc2C1
REMARK SMILES IDX 15 1 14 2 13 3 11 4 12 5 24 6 23 7 10 9 2 10 4 11 29 12 5 13
REMARK SMILES IDX 28 14 6 15 27 16 7 17 26 18 8 19 25 20 9 21 1 22 3 23 16 24
REMARK SMILES IDX 17 25 22 26 18 27 21 28 19 29 20 30
REMARK H PARENT 24 8 20 31 20 32
ROOT
ATOM      1  C   UNL     1      -0.057  -1.976  -5.934  1.00  0.00     0.151 C 
ENDROOT
BRANCH   1   2
ATOM      2  C   UNL     1       0.535  -3.107  -5.083  1.00  0.00     0.088 C 
BRANCH   2   3
ATOM      3  C   UNL     1      -0.136  -3.194  -3.746  1.00  0.00     0.134 A 
ATOM      4  N   UNL     1      -0.734  -2.750  -1.695  1.00  0.00    -0.104 N 
ATOM      5  C   UNL     1       0.216  -2.491  -2.613  1.00  0.00     0.190 A 
ATOM      6  N   UNL     1      -1.614  -3.572  -2.252  1.00  0.00    -0.012 N 
ATOM      7  N   UNL     1      -1.288  -3.851  -3.506  1.00  0.00     0.020 NA
ATOM      8  H   UNL     1      -2.484  -3.920  -1.792  1.00  0.00     0.527 HD
BRANCH   4   9
ATOM      9  C   UNL     1      -0.838  -2.187  -0.374  1.00  0.00     0.107 A 
ATOM     10  N   UNL     1       0.211   2.716   4.730  1.00  0.00    -0.321 N 
ATOM     11  C   UNL     1      -0.620   1.498   4.999  1.00  0.00     0.301 C 
ATOM     12  C   UNL     1       0.486   2.729   3.258  1.00  0.00     0.301 C 
ATOM     13  C   UNL     1      -0.609   0.723   3.741  1.00  0.00     0.016 A 
ATOM     14  C   UNL     1       0.018   1.420   2.753  1.00  0.00     0.016 A 
ATOM     15  C   UNL     1      -1.162  -0.537   3.507  1.00  0.00     0.018 A 
ATOM     16  C   UNL     1       0.139   0.909   1.461  1.00  0.00     0.019 A 
ATOM     17  C   UNL     1      -1.056  -1.092   2.217  1.00  0.00    -0.018 A 
ATOM     18  C   UNL     1      -0.399  -0.364   1.186  1.00  0.00    -0.016 A 
ATOM     19  C   UNL     1      -1.595  -2.354   1.935  1.00  0.00     0.011 A 
ATOM     20  C   UNL     1      -0.297  -0.918  -0.097  1.00  0.00     0.041 A 
ATOM     21  C   UNL     1      -1.487  -2.895   0.651  1.00  0.00     0.033 A 
ATOM     22  C   UNL     1       1.484   2.639   5.485  1.00  0.00     0.334 C 
ATOM     23  C   UNL     1      -0.515   3.942   5.136  1.00  0.00     0.334 C 
ENDBRANCH   4   9
ENDBRANCH   2   3
ENDBRANCH   1   2
BRANCH   1  24
ATOM     24  N   UNL     1       0.001  -0.698  -5.227  1.00  0.00    -0.272 N 
ATOM     25  C   UNL     1       1.117   0.004  -4.950  1.00  0.00     0.113 A 
ATOM     26  N   UNL     1      -1.046  -0.133  -4.644  1.00  0.00    -0.181 NA
ATOM     27  C   UNL     1       0.755   1.080  -4.168  1.00  0.00     0.004 A 
ATOM     28  C   UNL     1      -0.609   0.961  -3.990  1.00  0.00     0.140 A 
BRANCH  27  29
ATOM     29  C   UNL     1       1.667   2.066  -3.510  1.00  0.00     0.116 C 
BRANCH  29  30
ATOM     30  N   UNL     1       1.924   1.663  -2.133  1.00  0.00    -0.326 NA
ATOM     31  H   UNL     1       2.504   0.792  -2.149  1.00  0.00     0.119 HD
ATOM     32  H   UNL     1       2.511   2.405  -1.688  1.00  0.00     0.119 HD
ENDBRANCH  29  30
ENDBRANCH  27  29
ENDBRANCH   1  24
TORSDOF 6


