REMARK SMILES Cc1n[nH+]n(/C=C(/O)Nc2cccc(C#N)c2C)c1-c1cc2ccccc2c2ccccc12
REMARK SMILES IDX 7 1 8 2 6 4 5 5 19 6 4 7 2 8 3 9 1 11 20 12 21 13 33 14
REMARK SMILES IDX 22 15 32 16 28 17 23 18 27 19 31 20 29 21 24 22 26 23 30 24
REMARK SMILES IDX 25 25 9 26 10 28 11 29 17 30 12 31 14 32 13 33 18 34 15 35
REMARK SMILES IDX 16 36
REMARK H PARENT 8 3 4 10 9 27
ROOT
ATOM      1  C   UNL     1      -2.511  -0.788   0.039  1.00  0.00     0.211 C 
ENDROOT
BRANCH   1   2
ATOM      2  O   UNL     1      -3.112  -2.048   0.067  1.00  0.00    -0.493 OA
ATOM      3  H   UNL     1      -3.920  -2.247   0.646  1.00  0.00     0.295 HD
ENDBRANCH   1   2
BRANCH   1   4
ATOM      4  C   UNL     1      -3.033   0.210   0.771  1.00  0.00     0.225 C 
BRANCH   4   5
ATOM      5  N   UNL     1      -2.471   1.533   0.835  1.00  0.00    -0.098 N 
ATOM      6  C   UNL     1      -1.197   1.921   1.079  1.00  0.00     0.142 A 
ATOM      7  N   UNL     1      -3.206   2.632   0.756  1.00  0.00    -0.012 N 
ATOM      8  C   UNL     1      -1.207   3.304   1.110  1.00  0.00     0.137 A 
ATOM      9  N   UNL     1      -2.471   3.724   0.903  1.00  0.00     0.020 NA
ATOM     10  H   UNL     1      -4.237   2.644   0.593  1.00  0.00     0.527 HD
ATOM     11  C   UNL     1      -0.041   4.216   1.316  1.00  0.00     0.076 C 
BRANCH   6  12
ATOM     12  C   UNL     1      -0.022   1.042   1.296  1.00  0.00     0.015 A 
ATOM     13  C   UNL     1       1.041   1.156   0.399  1.00  0.00     0.020 A 
ATOM     14  C   UNL     1       0.040   0.091   2.341  1.00  0.00    -0.008 A 
ATOM     15  C   UNL     1       2.138   0.296   0.464  1.00  0.00    -0.017 A 
ATOM     16  C   UNL     1      -0.982   0.021   3.313  1.00  0.00     0.009 A 
ATOM     17  C   UNL     1       1.156  -0.798   2.433  1.00  0.00    -0.010 A 
ATOM     18  C   UNL     1       3.152   0.407  -0.502  1.00  0.00     0.009 A 
ATOM     19  C   UNL     1       2.211  -0.702   1.472  1.00  0.00    -0.010 A 
ATOM     20  C   UNL     1      -0.938  -0.929   4.329  1.00  0.00     0.001 A 
ATOM     21  C   UNL     1       1.166  -1.753   3.480  1.00  0.00     0.009 A 
ATOM     22  C   UNL     1       4.238  -0.462  -0.488  1.00  0.00     0.001 A 
ATOM     23  C   UNL     1       3.333  -1.569   1.463  1.00  0.00     0.009 A 
ATOM     24  C   UNL     1       0.127  -1.816   4.407  1.00  0.00     0.001 A 
ATOM     25  C   UNL     1       4.328  -1.447   0.491  1.00  0.00     0.001 A 
ENDBRANCH   6  12
ENDBRANCH   4   5
ENDBRANCH   1   4
BRANCH   1  26
ATOM     26  N   UNL     1      -1.374  -0.578  -0.812  1.00  0.00    -0.325 N 
ATOM     27  H   UNL     1      -1.265   0.367  -1.244  1.00  0.00     0.170 HD
BRANCH  26  28
ATOM     28  C   UNL     1      -0.360  -1.580  -1.045  1.00  0.00     0.045 A 
ATOM     29  C   UNL     1      -0.155  -2.606  -0.103  1.00  0.00     0.026 A 
ATOM     30  C   UNL     1       0.510  -1.484  -2.165  1.00  0.00    -0.010 A 
ATOM     31  C   UNL     1       0.891  -3.514  -0.252  1.00  0.00     0.004 A 
ATOM     32  C   UNL     1       1.592  -2.393  -2.279  1.00  0.00     0.057 A 
ATOM     33  C   UNL     1       1.765  -3.404  -1.328  1.00  0.00     0.020 A 
ATOM     34  C   UNL     1       0.310  -0.387  -3.187  1.00  0.00     0.048 C 
BRANCH  32  35
ATOM     35  C   UNL     1       2.560  -2.297  -3.347  1.00  0.00     0.099 C 
ATOM     36  N   UNL     1       3.337  -2.220  -4.201  1.00  0.00    -0.192 NA
ENDBRANCH  32  35
ENDBRANCH  26  28
ENDBRANCH   1  26
TORSDOF 7


