MODEL 1
REMARK VINA RESULT:      -6.4      0.000      0.000
REMARK SMILES [H]/N=C1\C=C(n2cc(CCCCN(C)[C@@H](C)C#N)[nH+]n2)c2cccc3c(O)[n-]c1c23
REMARK SMILES IDX 10 1 9 2 8 3 6 4 20 5 7 6 19 7 5 9 3 10 4 11 29 12 28 13
REMARK SMILES IDX 30 14 21 15 26 16 25 17 22 18 24 19 23 20 2 21 1 22 27 23
REMARK SMILES IDX 11 25 12 26 13 27 14 28 15 29 16 30 17 31 18 32
REMARK H PARENT 19 8 27 24
ROOT
ATOM      1  C   UNL     1      38.235 134.685  19.077  1.00  0.00     0.010 C 
ENDROOT
BRANCH   1   2
ATOM      2  C   UNL     1      39.487 134.623  19.965  1.00  0.00     0.086 C 
BRANCH   2   3
ATOM      3  C   UNL     1      40.750 134.342  19.199  1.00  0.00     0.165 A 
ATOM      4  N   UNL     1      42.501 133.373  18.321  1.00  0.00    -0.101 N 
ATOM      5  N   UNL     1      42.287 134.517  17.690  1.00  0.00     0.093 NA
ATOM      6  C   UNL     1      41.544 133.212  19.256  1.00  0.00     0.281 A 
ATOM      7  N   UNL     1      41.230 135.120  18.210  1.00  0.00    -0.147 N 
ATOM      8  H   UNL     1      40.841 136.031  17.880  1.00  0.00     0.342 HD
BRANCH   4   9
ATOM      9  C   UNL     1      43.540 132.442  17.984  1.00  0.00     0.165 C 
ATOM     10  C   UNL     1      45.502 131.053  18.647  1.00  0.00     0.044 C 
ATOM     11  C   UNL     1      44.364 131.975  18.963  1.00  0.00     0.081 C 
ATOM     12  C   UNL     1      45.679 130.683  17.240  1.00  0.00    -0.100 A 
ATOM     13  N   UNL     1      46.572 129.838  16.674  1.00  0.00    -0.625 NA
ATOM     14  C   UNL     1      44.815 131.159  16.319  1.00  0.00    -0.018 A 
ATOM     15  C   UNL     1      43.741 131.992  16.567  1.00  0.00     0.031 A 
ATOM     16  C   UNL     1      46.220 129.813  15.356  1.00  0.00     0.021 A 
ATOM     17  C   UNL     1      45.118 130.624  15.117  1.00  0.00     0.001 A 
ATOM     18  C   UNL     1      42.903 132.277  15.465  1.00  0.00     0.013 A 
ATOM     19  C   UNL     1      44.332 130.899  13.998  1.00  0.00     0.010 A 
ATOM     20  C   UNL     1      43.207 131.737  14.184  1.00  0.00     0.002 A 
BRANCH  10  21
ATOM     21  N   UNL     1      46.294 130.601  19.565  1.00  0.00    -0.302 NA
ATOM     22  H   UNL     1      47.326 130.762  19.525  1.00  0.00     0.188 HD
ENDBRANCH  10  21
BRANCH  16  23
ATOM     23  O   UNL     1      46.885 129.048  14.404  1.00  0.00    -0.530 OA
ATOM     24  H   UNL     1      47.028 129.392  13.463  1.00  0.00     0.290 HD
ENDBRANCH  16  23
ENDBRANCH   4   9
ENDBRANCH   2   3
ENDBRANCH   1   2
BRANCH   1  25
ATOM     25  C   UNL     1      38.112 133.465  18.147  1.00  0.00     0.016 C 
BRANCH  25  26
ATOM     26  C   UNL     1      38.335 133.845  16.676  1.00  0.00     0.085 C 
BRANCH  26  27
ATOM     27  N   UNL     1      37.853 135.219  16.406  1.00  0.00    -0.291 NA
ATOM     28  C   UNL     1      36.385 135.308  16.514  1.00  0.00     0.106 C 
BRANCH  27  29
ATOM     29  C   UNL     1      38.402 135.793  15.148  1.00  0.00     0.157 C 
ATOM     30  C   UNL     1      39.922 136.035  15.178  1.00  0.00     0.041 C 
BRANCH  29  31
ATOM     31  C   UNL     1      38.051 134.920  14.018  1.00  0.00     0.081 C 
ATOM     32  N   UNL     1      37.777 134.233  13.127  1.00  0.00    -0.197 NA
ENDBRANCH  29  31
ENDBRANCH  27  29
ENDBRANCH  26  27
ENDBRANCH  25  26
ENDBRANCH   1  25
TORSDOF 10
ENDMDL
MODEL 2
REMARK VINA RESULT:      -6.0      2.007      2.860
REMARK SMILES [H]/N=C1\C=C(n2cc(CCCCN(C)[C@@H](C)C#N)[nH+]n2)c2cccc3c(O)[n-]c1c23
REMARK SMILES IDX 10 1 9 2 8 3 6 4 20 5 7 6 19 7 5 9 3 10 4 11 29 12 28 13
REMARK SMILES IDX 30 14 21 15 26 16 25 17 22 18 24 19 23 20 2 21 1 22 27 23
REMARK SMILES IDX 11 25 12 26 13 27 14 28 15 29 16 30 17 31 18 32
REMARK H PARENT 19 8 27 24
ROOT
ATOM      1  C   UNL     1      39.747 134.445  14.002  1.00  0.00     0.010 C 
ENDROOT
BRANCH   1   2
ATOM      2  C   UNL     1      39.623 134.582  15.527  1.00  0.00     0.086 C 
BRANCH   2   3
ATOM      3  C   UNL     1      40.635 133.769  16.284  1.00  0.00     0.165 A 
ATOM      4  N   UNL     1      42.401 132.610  16.847  1.00  0.00    -0.101 N 
ATOM      5  N   UNL     1      41.762 132.975  17.949  1.00  0.00     0.093 NA
ATOM      6  C   UNL     1      41.742 133.110  15.783  1.00  0.00     0.281 A 
ATOM      7  N   UNL     1      40.688 133.676  17.627  1.00  0.00    -0.147 N 
ATOM      8  H   UNL     1      40.022 134.095  18.314  1.00  0.00     0.342 HD
BRANCH   4   9
ATOM      9  C   UNL     1      43.632 131.875  16.829  1.00  0.00     0.165 C 
ATOM     10  C   UNL     1      45.585 130.889  18.026  1.00  0.00     0.044 C 
ATOM     11  C   UNL     1      44.265 131.597  18.003  1.00  0.00     0.081 C 
ATOM     12  C   UNL     1      46.154 130.512  16.730  1.00  0.00    -0.100 A 
ATOM     13  N   UNL     1      47.287 129.826  16.449  1.00  0.00    -0.625 NA
ATOM     14  C   UNL     1      45.468 130.792  15.602  1.00  0.00    -0.018 A 
ATOM     15  C   UNL     1      44.241 131.422  15.533  1.00  0.00     0.031 A 
ATOM     16  C   UNL     1      47.270 129.694  15.092  1.00  0.00     0.021 A 
ATOM     17  C   UNL     1      46.137 130.283  14.546  1.00  0.00     0.001 A 
ATOM     18  C   UNL     1      43.655 131.513  14.250  1.00  0.00     0.013 A 
ATOM     19  C   UNL     1      45.606 130.372  13.259  1.00  0.00     0.010 A 
ATOM     20  C   UNL     1      44.344 130.997  13.117  1.00  0.00     0.002 A 
BRANCH  10  21
ATOM     21  N   UNL     1      46.199 130.620  19.133  1.00  0.00    -0.302 NA
ATOM     22  H   UNL     1      45.820 129.925  19.815  1.00  0.00     0.188 HD
ENDBRANCH  10  21
BRANCH  16  23
ATOM     23  O   UNL     1      48.264 129.033  14.378  1.00  0.00    -0.530 OA
ATOM     24  H   UNL     1      48.984 129.546  13.885  1.00  0.00     0.290 HD
ENDBRANCH  16  23
ENDBRANCH   4   9
ENDBRANCH   2   3
ENDBRANCH   1   2
BRANCH   1  25
ATOM     25  C   UNL     1      38.383 134.522  13.292  1.00  0.00     0.016 C 
BRANCH  25  26
ATOM     26  C   UNL     1      38.192 135.862  12.569  1.00  0.00     0.085 C 
BRANCH  26  27
ATOM     27  N   UNL     1      37.421 136.810  13.406  1.00  0.00    -0.291 NA
ATOM     28  C   UNL     1      36.375 137.495  12.624  1.00  0.00     0.106 C 
BRANCH  27  29
ATOM     29  C   UNL     1      38.286 137.729  14.193  1.00  0.00     0.157 C 
ATOM     30  C   UNL     1      39.276 138.545  13.342  1.00  0.00     0.041 C 
BRANCH  29  31
ATOM     31  C   UNL     1      37.443 138.632  14.991  1.00  0.00     0.081 C 
ATOM     32  N   UNL     1      36.781 139.342  15.620  1.00  0.00    -0.197 NA
ENDBRANCH  29  31
ENDBRANCH  27  29
ENDBRANCH  26  27
ENDBRANCH  25  26
ENDBRANCH   1  25
TORSDOF 10
ENDMDL
MODEL 3
REMARK VINA RESULT:      -5.9      3.260      5.017
REMARK SMILES [H]/N=C1\C=C(n2cc(CCCCN(C)[C@@H](C)C#N)[nH+]n2)c2cccc3c(O)[n-]c1c23
REMARK SMILES IDX 10 1 9 2 8 3 6 4 20 5 7 6 19 7 5 9 3 10 4 11 29 12 28 13
REMARK SMILES IDX 30 14 21 15 26 16 25 17 22 18 24 19 23 20 2 21 1 22 27 23
REMARK SMILES IDX 11 25 12 26 13 27 14 28 15 29 16 30 17 31 18 32
REMARK H PARENT 19 8 27 24
ROOT
ATOM      1  C   UNL     1      37.591 136.697  13.437  1.00  0.00     0.010 C 
ENDROOT
BRANCH   1   2
ATOM      2  C   UNL     1      39.097 136.988  13.495  1.00  0.00     0.086 C 
BRANCH   2   3
ATOM      3  C   UNL     1      39.912 135.827  13.993  1.00  0.00     0.165 A 
ATOM      4  N   UNL     1      41.016 134.425  15.254  1.00  0.00    -0.101 N 
ATOM      5  N   UNL     1      40.771 133.847  14.088  1.00  0.00     0.093 NA
ATOM      6  C   UNL     1      40.471 135.657  15.246  1.00  0.00     0.281 A 
ATOM      7  N   UNL     1      40.105 134.683  13.309  1.00  0.00    -0.147 N 
ATOM      8  H   UNL     1      39.777 134.463  12.342  1.00  0.00     0.342 HD
BRANCH   4   9
ATOM      9  C   UNL     1      41.681 133.786  16.353  1.00  0.00     0.165 C 
ATOM     10  C   UNL     1      41.891 133.345  18.798  1.00  0.00     0.044 C 
ATOM     11  C   UNL     1      41.192 133.940  17.615  1.00  0.00     0.081 C 
ATOM     12  C   UNL     1      43.119 132.593  18.529  1.00  0.00    -0.100 A 
ATOM     13  N   UNL     1      43.920 131.911  19.381  1.00  0.00    -0.625 NA
ATOM     14  C   UNL     1      43.542 132.455  17.255  1.00  0.00    -0.018 A 
ATOM     15  C   UNL     1      42.919 132.966  16.133  1.00  0.00     0.031 A 
ATOM     16  C   UNL     1      44.859 131.341  18.572  1.00  0.00     0.021 A 
ATOM     17  C   UNL     1      44.634 131.662  17.240  1.00  0.00     0.001 A 
ATOM     18  C   UNL     1      43.479 132.603  14.886  1.00  0.00     0.013 A 
ATOM     19  C   UNL     1      45.232 131.299  16.033  1.00  0.00     0.010 A 
ATOM     20  C   UNL     1      44.638 131.780  14.842  1.00  0.00     0.002 A 
BRANCH  10  21
ATOM     21  N   UNL     1      41.439 133.483  20.003  1.00  0.00    -0.302 NA
ATOM     22  H   UNL     1      41.964 134.023  20.727  1.00  0.00     0.188 HD
ENDBRANCH  10  21
BRANCH  16  23
ATOM     23  O   UNL     1      45.886 130.533  19.049  1.00  0.00    -0.530 OA
ATOM     24  H   UNL     1      46.660 130.923  19.572  1.00  0.00     0.290 HD
ENDBRANCH  16  23
ENDBRANCH   4   9
ENDBRANCH   2   3
ENDBRANCH   1   2
BRANCH   1  25
ATOM     25  C   UNL     1      36.976 137.044  12.069  1.00  0.00     0.016 C 
BRANCH  25  26
ATOM     26  C   UNL     1      37.330 135.997  11.004  1.00  0.00     0.085 C 
BRANCH  26  27
ATOM     27  N   UNL     1      37.365 136.606   9.654  1.00  0.00    -0.291 NA
ATOM     28  C   UNL     1      36.957 135.642   8.615  1.00  0.00     0.106 C 
BRANCH  27  29
ATOM     29  C   UNL     1      38.646 137.302   9.362  1.00  0.00     0.157 C 
ATOM     30  C   UNL     1      39.620 136.490   8.489  1.00  0.00     0.041 C 
BRANCH  29  31
ATOM     31  C   UNL     1      38.366 138.601   8.732  1.00  0.00     0.081 C 
ATOM     32  N   UNL     1      38.146 139.624   8.237  1.00  0.00    -0.197 NA
ENDBRANCH  29  31
ENDBRANCH  27  29
ENDBRANCH  26  27
ENDBRANCH  25  26
ENDBRANCH   1  25
TORSDOF 10
ENDMDL
MODEL 4
REMARK VINA RESULT:      -5.8      3.031      7.472
REMARK SMILES [H]/N=C1\C=C(n2cc(CCCCN(C)[C@@H](C)C#N)[nH+]n2)c2cccc3c(O)[n-]c1c23
REMARK SMILES IDX 10 1 9 2 8 3 6 4 20 5 7 6 19 7 5 9 3 10 4 11 29 12 28 13
REMARK SMILES IDX 30 14 21 15 26 16 25 17 22 18 24 19 23 20 2 21 1 22 27 23
REMARK SMILES IDX 11 25 12 26 13 27 14 28 15 29 16 30 17 31 18 32
REMARK H PARENT 19 8 27 24
ROOT
ATOM      1  C   UNL     1      45.482 130.502  18.319  1.00  0.00     0.010 C 
ENDROOT
BRANCH   1   2
ATOM      2  C   UNL     1      45.202 131.741  19.182  1.00  0.00     0.086 C 
BRANCH   2   3
ATOM      3  C   UNL     1      43.840 132.335  18.951  1.00  0.00     0.165 A 
ATOM      4  N   UNL     1      42.182 133.578  18.258  1.00  0.00    -0.101 N 
ATOM      5  N   UNL     1      41.689 132.473  18.795  1.00  0.00     0.093 NA
ATOM      6  C   UNL     1      43.526 133.520  18.311  1.00  0.00     0.281 A 
ATOM      7  N   UNL     1      42.679 131.708  19.223  1.00  0.00    -0.147 N 
ATOM      8  H   UNL     1      42.558 130.772  19.671  1.00  0.00     0.342 HD
BRANCH   4   9
ATOM      9  C   UNL     1      41.389 134.610  17.653  1.00  0.00     0.165 C 
ATOM     10  C   UNL     1      39.975 136.654  17.855  1.00  0.00     0.044 C 
ATOM     11  C   UNL     1      40.861 135.594  18.434  1.00  0.00     0.081 C 
ATOM     12  C   UNL     1      39.709 136.578  16.416  1.00  0.00    -0.100 A 
ATOM     13  N   UNL     1      39.001 137.415  15.622  1.00  0.00    -0.625 NA
ATOM     14  C   UNL     1      40.281 135.594  15.691  1.00  0.00    -0.018 A 
ATOM     15  C   UNL     1      41.120 134.610  16.176  1.00  0.00     0.031 A 
ATOM     16  C   UNL     1      39.162 136.903  14.368  1.00  0.00     0.021 A 
ATOM     17  C   UNL     1      39.967 135.770  14.390  1.00  0.00     0.001 A 
ATOM     18  C   UNL     1      41.693 133.746  15.215  1.00  0.00     0.013 A 
ATOM     19  C   UNL     1      40.491 134.926  13.412  1.00  0.00     0.010 A 
ATOM     20  C   UNL     1      41.369 133.901  13.839  1.00  0.00     0.002 A 
BRANCH  10  21
ATOM     21  N   UNL     1      39.464 137.594  18.584  1.00  0.00    -0.302 NA
ATOM     22  H   UNL     1      39.271 137.455  19.601  1.00  0.00     0.188 HD
ENDBRANCH  10  21
BRANCH  16  23
ATOM     23  O   UNL     1      38.598 137.474  13.233  1.00  0.00    -0.530 OA
ATOM     24  H   UNL     1      38.687 137.035  12.325  1.00  0.00     0.290 HD
ENDBRANCH  16  23
ENDBRANCH   4   9
ENDBRANCH   2   3
ENDBRANCH   1   2
BRANCH   1  25
ATOM     25  C   UNL     1      45.582 130.839  16.820  1.00  0.00     0.016 C 
BRANCH  25  26
ATOM     26  C   UNL     1      46.768 130.126  16.154  1.00  0.00     0.085 C 
BRANCH  26  27
ATOM     27  N   UNL     1      46.426 129.704  14.777  1.00  0.00    -0.291 NA
ATOM     28  C   UNL     1      47.477 128.847  14.197  1.00  0.00     0.106 C 
BRANCH  27  29
ATOM     29  C   UNL     1      46.019 130.837  13.903  1.00  0.00     0.157 C 
ATOM     30  C   UNL     1      46.720 130.858  12.533  1.00  0.00     0.041 C 
BRANCH  29  31
ATOM     31  C   UNL     1      44.560 130.818  13.724  1.00  0.00     0.081 C 
ATOM     32  N   UNL     1      43.411 130.802  13.584  1.00  0.00    -0.197 NA
ENDBRANCH  29  31
ENDBRANCH  27  29
ENDBRANCH  26  27
ENDBRANCH  25  26
ENDBRANCH   1  25
TORSDOF 10
ENDMDL
MODEL 5
REMARK VINA RESULT:      -5.7      1.379      1.670
REMARK SMILES [H]/N=C1\C=C(n2cc(CCCCN(C)[C@@H](C)C#N)[nH+]n2)c2cccc3c(O)[n-]c1c23
REMARK SMILES IDX 10 1 9 2 8 3 6 4 20 5 7 6 19 7 5 9 3 10 4 11 29 12 28 13
REMARK SMILES IDX 30 14 21 15 26 16 25 17 22 18 24 19 23 20 2 21 1 22 27 23
REMARK SMILES IDX 11 25 12 26 13 27 14 28 15 29 16 30 17 31 18 32
REMARK H PARENT 19 8 27 24
ROOT
ATOM      1  C   UNL     1      37.798 135.159  17.928  1.00  0.00     0.010 C 
ENDROOT
BRANCH   1   2
ATOM      2  C   UNL     1      38.783 136.008  18.746  1.00  0.00     0.086 C 
BRANCH   2   3
ATOM      3  C   UNL     1      40.215 135.580  18.588  1.00  0.00     0.165 A 
ATOM      4  N   UNL     1      42.037 134.402  18.326  1.00  0.00    -0.101 N 
ATOM      5  N   UNL     1      42.317 135.676  18.096  1.00  0.00     0.093 NA
ATOM      6  C   UNL     1      40.725 134.296  18.612  1.00  0.00     0.281 A 
ATOM      7  N   UNL     1      41.225 136.406  18.252  1.00  0.00    -0.147 N 
ATOM      8  H   UNL     1      41.173 137.439  18.112  1.00  0.00     0.342 HD
BRANCH   4   9
ATOM      9  C   UNL     1      42.981 133.329  18.203  1.00  0.00     0.165 C 
ATOM     10  C   UNL     1      44.702 131.831  19.209  1.00  0.00     0.044 C 
ATOM     11  C   UNL     1      43.661 132.904  19.304  1.00  0.00     0.081 C 
ATOM     12  C   UNL     1      44.948 131.267  17.880  1.00  0.00    -0.100 A 
ATOM     13  N   UNL     1      45.777 130.264  17.505  1.00  0.00    -0.625 NA
ATOM     14  C   UNL     1      44.225 131.712  16.830  1.00  0.00    -0.018 A 
ATOM     15  C   UNL     1      43.242 132.681  16.874  1.00  0.00     0.031 A 
ATOM     16  C   UNL     1      45.532 130.108  16.172  1.00  0.00     0.021 A 
ATOM     17  C   UNL     1      44.559 130.998  15.735  1.00  0.00     0.001 A 
ATOM     18  C   UNL     1      42.536 132.912  15.671  1.00  0.00     0.013 A 
ATOM     19  C   UNL     1      43.905 131.210  14.521  1.00  0.00     0.010 A 
ATOM     20  C   UNL     1      42.877 132.183  14.498  1.00  0.00     0.002 A 
BRANCH  10  21
ATOM     21  N   UNL     1      45.357 131.417  20.246  1.00  0.00    -0.302 NA
ATOM     22  H   UNL     1      46.185 131.937  20.614  1.00  0.00     0.188 HD
ENDBRANCH  10  21
BRANCH  16  23
ATOM     23  O   UNL     1      46.176 129.159  15.385  1.00  0.00    -0.530 OA
ATOM     24  H   UNL     1      45.939 128.178  15.448  1.00  0.00     0.290 HD
ENDBRANCH  16  23
ENDBRANCH   4   9
ENDBRANCH   2   3
ENDBRANCH   1   2
BRANCH   1  25
ATOM     25  C   UNL     1      38.260 134.960  16.474  1.00  0.00     0.016 C 
BRANCH  25  26
ATOM     26  C   UNL     1      38.160 136.260  15.662  1.00  0.00     0.085 C 
BRANCH  26  27
ATOM     27  N   UNL     1      37.939 135.971  14.226  1.00  0.00    -0.291 NA
ATOM     28  C   UNL     1      37.161 134.733  14.037  1.00  0.00     0.106 C 
BRANCH  27  29
ATOM     29  C   UNL     1      39.187 136.030  13.420  1.00  0.00     0.157 C 
ATOM     30  C   UNL     1      40.029 134.742  13.468  1.00  0.00     0.041 C 
BRANCH  29  31
ATOM     31  C   UNL     1      38.856 136.364  12.027  1.00  0.00     0.081 C 
ATOM     32  N   UNL     1      38.596 136.629  10.931  1.00  0.00    -0.197 NA
ENDBRANCH  29  31
ENDBRANCH  27  29
ENDBRANCH  26  27
ENDBRANCH  25  26
ENDBRANCH   1  25
TORSDOF 10
ENDMDL
MODEL 6
REMARK VINA RESULT:      -5.7      2.030      3.504
REMARK SMILES [H]/N=C1\C=C(n2cc(CCCCN(C)[C@@H](C)C#N)[nH+]n2)c2cccc3c(O)[n-]c1c23
REMARK SMILES IDX 10 1 9 2 8 3 6 4 20 5 7 6 19 7 5 9 3 10 4 11 29 12 28 13
REMARK SMILES IDX 30 14 21 15 26 16 25 17 22 18 24 19 23 20 2 21 1 22 27 23
REMARK SMILES IDX 11 25 12 26 13 27 14 28 15 29 16 30 17 31 18 32
REMARK H PARENT 19 8 27 24
ROOT
ATOM      1  C   UNL     1      38.725 134.260  19.947  1.00  0.00     0.010 C 
ENDROOT
BRANCH   1   2
ATOM      2  C   UNL     1      39.080 134.655  18.506  1.00  0.00     0.086 C 
BRANCH   2   3
ATOM      3  C   UNL     1      40.521 134.405  18.155  1.00  0.00     0.165 A 
ATOM      4  N   UNL     1      42.434 133.457  17.693  1.00  0.00    -0.101 N 
ATOM      5  N   UNL     1      42.492 134.729  17.331  1.00  0.00     0.093 NA
ATOM      6  C   UNL     1      41.208 133.206  18.189  1.00  0.00     0.281 A 
ATOM      7  N   UNL     1      41.341 135.321  17.605  1.00  0.00    -0.147 N 
ATOM      8  H   UNL     1      41.122 136.322  17.402  1.00  0.00     0.342 HD
BRANCH   4   9
ATOM      9  C   UNL     1      43.494 132.509  17.498  1.00  0.00     0.165 C 
ATOM     10  C   UNL     1      45.413 131.192  18.392  1.00  0.00     0.044 C 
ATOM     11  C   UNL     1      44.257 132.129  18.561  1.00  0.00     0.081 C 
ATOM     12  C   UNL     1      45.679 130.710  17.035  1.00  0.00    -0.100 A 
ATOM     13  N   UNL     1      46.607 129.828  16.596  1.00  0.00    -0.625 NA
ATOM     14  C   UNL     1      44.873 131.103  16.026  1.00  0.00    -0.018 A 
ATOM     15  C   UNL     1      43.784 131.946  16.137  1.00  0.00     0.031 A 
ATOM     16  C   UNL     1      46.338 129.692  15.266  1.00  0.00     0.021 A 
ATOM     17  C   UNL     1      45.252 130.474  14.893  1.00  0.00     0.001 A 
ATOM     18  C   UNL     1      43.016 132.134  14.966  1.00  0.00     0.013 A 
ATOM     19  C   UNL     1      44.536 130.651  13.709  1.00  0.00     0.010 A 
ATOM     20  C   UNL     1      43.400 131.494  13.755  1.00  0.00     0.002 A 
BRANCH  10  21
ATOM     21  N   UNL     1      46.148 130.822  19.392  1.00  0.00    -0.302 NA
ATOM     22  H   UNL     1      46.559 131.516  20.056  1.00  0.00     0.188 HD
ENDBRANCH  10  21
BRANCH  16  23
ATOM     23  O   UNL     1      47.062 128.857  14.422  1.00  0.00    -0.530 OA
ATOM     24  H   UNL     1      46.624 128.405  13.630  1.00  0.00     0.290 HD
ENDBRANCH  16  23
ENDBRANCH   4   9
ENDBRANCH   2   3
ENDBRANCH   1   2
BRANCH   1  25
ATOM     25  C   UNL     1      39.232 135.282  20.979  1.00  0.00     0.016 C 
BRANCH  25  26
ATOM     26  C   UNL     1      39.160 136.718  20.441  1.00  0.00     0.085 C 
BRANCH  26  27
ATOM     27  N   UNL     1      39.430 137.701  21.516  1.00  0.00    -0.291 NA
ATOM     28  C   UNL     1      38.386 138.740  21.573  1.00  0.00     0.106 C 
BRANCH  27  29
ATOM     29  C   UNL     1      40.816 138.238  21.482  1.00  0.00     0.157 C 
ATOM     30  C   UNL     1      41.760 137.611  22.524  1.00  0.00     0.041 C 
BRANCH  29  31
ATOM     31  C   UNL     1      41.373 138.071  20.132  1.00  0.00     0.081 C 
ATOM     32  N   UNL     1      41.809 137.940  19.068  1.00  0.00    -0.197 NA
ENDBRANCH  29  31
ENDBRANCH  27  29
ENDBRANCH  26  27
ENDBRANCH  25  26
ENDBRANCH   1  25
TORSDOF 10
ENDMDL
MODEL 7
REMARK VINA RESULT:      -5.6      1.201      1.338
REMARK SMILES [H]/N=C1\C=C(n2cc(CCCCN(C)[C@@H](C)C#N)[nH+]n2)c2cccc3c(O)[n-]c1c23
REMARK SMILES IDX 10 1 9 2 8 3 6 4 20 5 7 6 19 7 5 9 3 10 4 11 29 12 28 13
REMARK SMILES IDX 30 14 21 15 26 16 25 17 22 18 24 19 23 20 2 21 1 22 27 23
REMARK SMILES IDX 11 25 12 26 13 27 14 28 15 29 16 30 17 31 18 32
REMARK H PARENT 19 8 27 24
ROOT
ATOM      1  C   UNL     1      38.580 135.522  18.856  1.00  0.00     0.010 C 
ENDROOT
BRANCH   1   2
ATOM      2  C   UNL     1      39.106 135.028  20.212  1.00  0.00     0.086 C 
BRANCH   2   3
ATOM      3  C   UNL     1      40.537 134.568  20.166  1.00  0.00     0.165 A 
ATOM      4  N   UNL     1      42.404 133.565  19.632  1.00  0.00    -0.101 N 
ATOM      5  N   UNL     1      42.683 134.593  20.419  1.00  0.00     0.093 NA
ATOM      6  C   UNL     1      41.073 133.530  19.427  1.00  0.00     0.281 A 
ATOM      7  N   UNL     1      41.563 135.212  20.755  1.00  0.00    -0.147 N 
ATOM      8  H   UNL     1      41.511 136.064  21.357  1.00  0.00     0.342 HD
BRANCH   4   9
ATOM      9  C   UNL     1      43.388 132.702  19.045  1.00  0.00     0.165 C 
ATOM     10  C   UNL     1      45.382 131.222  19.271  1.00  0.00     0.044 C 
ATOM     11  C   UNL     1      44.298 132.081  19.846  1.00  0.00     0.081 C 
ATOM     12  C   UNL     1      45.411 131.086  17.812  1.00  0.00    -0.100 A 
ATOM     13  N   UNL     1      46.229 130.344  17.029  1.00  0.00    -0.625 NA
ATOM     14  C   UNL     1      44.467 131.706  17.073  1.00  0.00    -0.018 A 
ATOM     15  C   UNL     1      43.438 132.488  17.560  1.00  0.00     0.031 A 
ATOM     16  C   UNL     1      45.745 130.534  15.767  1.00  0.00     0.021 A 
ATOM     17  C   UNL     1      44.639 131.374  15.776  1.00  0.00     0.001 A 
ATOM     18  C   UNL     1      42.498 132.949  16.610  1.00  0.00     0.013 A 
ATOM     19  C   UNL     1      43.750 131.827  14.802  1.00  0.00     0.010 A 
ATOM     20  C   UNL     1      42.663 132.625  15.234  1.00  0.00     0.002 A 
BRANCH  10  21
ATOM     21  N   UNL     1      46.255 130.627  20.018  1.00  0.00    -0.302 NA
ATOM     22  H   UNL     1      46.072 130.435  21.028  1.00  0.00     0.188 HD
ENDBRANCH  10  21
BRANCH  16  23
ATOM     23  O   UNL     1      46.299 129.933  14.641  1.00  0.00    -0.530 OA
ATOM     24  H   UNL     1      47.006 129.214  14.725  1.00  0.00     0.290 HD
ENDBRANCH  16  23
ENDBRANCH   4   9
ENDBRANCH   2   3
ENDBRANCH   1   2
BRANCH   1  25
ATOM     25  C   UNL     1      38.019 134.379  17.991  1.00  0.00     0.016 C 
BRANCH  25  26
ATOM     26  C   UNL     1      37.646 134.861  16.582  1.00  0.00     0.085 C 
BRANCH  26  27
ATOM     27  N   UNL     1      38.379 136.100  16.235  1.00  0.00    -0.291 NA
ATOM     28  C   UNL     1      37.463 137.162  15.781  1.00  0.00     0.106 C 
BRANCH  27  29
ATOM     29  C   UNL     1      39.527 135.862  15.320  1.00  0.00     0.157 C 
ATOM     30  C   UNL     1      40.906 136.000  15.990  1.00  0.00     0.041 C 
BRANCH  29  31
ATOM     31  C   UNL     1      39.396 134.533  14.705  1.00  0.00     0.081 C 
ATOM     32  N   UNL     1      39.294 133.486  14.221  1.00  0.00    -0.197 NA
ENDBRANCH  29  31
ENDBRANCH  27  29
ENDBRANCH  26  27
ENDBRANCH  25  26
ENDBRANCH   1  25
TORSDOF 10
ENDMDL
MODEL 8
REMARK VINA RESULT:      -5.6      3.328      8.001
REMARK SMILES [H]/N=C1\C=C(n2cc(CCCCN(C)[C@@H](C)C#N)[nH+]n2)c2cccc3c(O)[n-]c1c23
REMARK SMILES IDX 10 1 9 2 8 3 6 4 20 5 7 6 19 7 5 9 3 10 4 11 29 12 28 13
REMARK SMILES IDX 30 14 21 15 26 16 25 17 22 18 24 19 23 20 2 21 1 22 27 23
REMARK SMILES IDX 11 25 12 26 13 27 14 28 15 29 16 30 17 31 18 32
REMARK H PARENT 19 8 27 24
ROOT
ATOM      1  C   UNL     1      44.769 131.849  16.860  1.00  0.00     0.010 C 
ENDROOT
BRANCH   1   2
ATOM      2  C   UNL     1      44.068 131.969  18.222  1.00  0.00     0.086 C 
BRANCH   2   3
ATOM      3  C   UNL     1      42.876 132.884  18.202  1.00  0.00     0.165 A 
ATOM      4  N   UNL     1      41.404 134.402  17.650  1.00  0.00    -0.101 N 
ATOM      5  N   UNL     1      40.883 133.626  18.589  1.00  0.00     0.093 NA
ATOM      6  C   UNL     1      42.641 133.955  17.360  1.00  0.00     0.281 A 
ATOM      7  N   UNL     1      41.762 132.701  18.937  1.00  0.00    -0.147 N 
ATOM      8  H   UNL     1      41.592 131.955  19.648  1.00  0.00     0.342 HD
BRANCH   4   9
ATOM      9  C   UNL     1      40.707 135.481  17.011  1.00  0.00     0.165 C 
ATOM     10  C   UNL     1      40.227 137.917  16.784  1.00  0.00     0.044 C 
ATOM     11  C   UNL     1      40.976 136.765  17.378  1.00  0.00     0.081 C 
ATOM     12  C   UNL     1      39.197 137.594  15.793  1.00  0.00    -0.100 A 
ATOM     13  N   UNL     1      38.412 138.418  15.061  1.00  0.00    -0.625 NA
ATOM     14  C   UNL     1      38.993 136.304  15.451  1.00  0.00    -0.018 A 
ATOM     15  C   UNL     1      39.673 135.213  15.955  1.00  0.00     0.031 A 
ATOM     16  C   UNL     1      37.710 137.577  14.248  1.00  0.00     0.021 A 
ATOM     17  C   UNL     1      38.067 136.253  14.470  1.00  0.00     0.001 A 
ATOM     18  C   UNL     1      39.369 133.961  15.372  1.00  0.00     0.013 A 
ATOM     19  C   UNL     1      37.719 135.036  13.884  1.00  0.00     0.010 A 
ATOM     20  C   UNL     1      38.387 133.877  14.346  1.00  0.00     0.002 A 
BRANCH  10  21
ATOM     21  N   UNL     1      40.470 139.142  17.124  1.00  0.00    -0.302 NA
ATOM     22  H   UNL     1      39.831 139.923  16.854  1.00  0.00     0.188 HD
ENDBRANCH  10  21
BRANCH  16  23
ATOM     23  O   UNL     1      36.780 138.020  13.313  1.00  0.00    -0.530 OA
ATOM     24  H   UNL     1      36.549 137.463  12.500  1.00  0.00     0.290 HD
ENDBRANCH  16  23
ENDBRANCH   4   9
ENDBRANCH   2   3
ENDBRANCH   1   2
BRANCH   1  25
ATOM     25  C   UNL     1      45.797 130.704  16.827  1.00  0.00     0.016 C 
BRANCH  25  26
ATOM     26  C   UNL     1      45.389 129.600  15.841  1.00  0.00     0.085 C 
BRANCH  26  27
ATOM     27  N   UNL     1      46.249 129.622  14.636  1.00  0.00    -0.291 NA
ATOM     28  C   UNL     1      47.679 129.567  14.991  1.00  0.00     0.106 C 
BRANCH  27  29
ATOM     29  C   UNL     1      45.903 130.718  13.692  1.00  0.00     0.157 C 
ATOM     30  C   UNL     1      46.572 130.594  12.311  1.00  0.00     0.041 C 
BRANCH  29  31
ATOM     31  C   UNL     1      44.442 130.790  13.540  1.00  0.00     0.081 C 
ATOM     32  N   UNL     1      43.292 130.848  13.419  1.00  0.00    -0.197 NA
ENDBRANCH  29  31
ENDBRANCH  27  29
ENDBRANCH  26  27
ENDBRANCH  25  26
ENDBRANCH   1  25
TORSDOF 10
ENDMDL
MODEL 9
REMARK VINA RESULT:      -5.6      4.700      7.200
REMARK SMILES [H]/N=C1\C=C(n2cc(CCCCN(C)[C@@H](C)C#N)[nH+]n2)c2cccc3c(O)[n-]c1c23
REMARK SMILES IDX 10 1 9 2 8 3 6 4 20 5 7 6 19 7 5 9 3 10 4 11 29 12 28 13
REMARK SMILES IDX 30 14 21 15 26 16 25 17 22 18 24 19 23 20 2 21 1 22 27 23
REMARK SMILES IDX 11 25 12 26 13 27 14 28 15 29 16 30 17 31 18 32
REMARK H PARENT 19 8 27 24
ROOT
ATOM      1  C   UNL     1      42.057 132.811  16.234  1.00  0.00     0.010 C 
ENDROOT
BRANCH   1   2
ATOM      2  C   UNL     1      41.500 134.206  16.553  1.00  0.00     0.086 C 
BRANCH   2   3
ATOM      3  C   UNL     1      42.187 134.873  17.712  1.00  0.00     0.165 A 
ATOM      4  N   UNL     1      43.643 135.471  19.227  1.00  0.00    -0.101 N 
ATOM      5  N   UNL     1      42.677 136.376  19.185  1.00  0.00     0.093 NA
ATOM      6  C   UNL     1      43.388 134.526  18.302  1.00  0.00     0.281 A 
ATOM      7  N   UNL     1      41.784 136.029  18.274  1.00  0.00    -0.147 N 
ATOM      8  H   UNL     1      40.932 136.584  18.033  1.00  0.00     0.342 HD
BRANCH   4   9
ATOM      9  C   UNL     1      44.799 135.556  20.074  1.00  0.00     0.165 C 
ATOM     10  C   UNL     1      46.178 134.669  21.952  1.00  0.00     0.044 C 
ATOM     11  C   UNL     1      45.021 134.587  21.005  1.00  0.00     0.081 C 
ATOM     12  C   UNL     1      47.053 135.838  21.826  1.00  0.00    -0.100 A 
ATOM     13  N   UNL     1      48.186 136.147  22.497  1.00  0.00    -0.625 NA
ATOM     14  C   UNL     1      46.795 136.753  20.868  1.00  0.00    -0.018 A 
ATOM     15  C   UNL     1      45.755 136.708  19.959  1.00  0.00     0.031 A 
ATOM     16  C   UNL     1      48.620 137.299  21.909  1.00  0.00     0.021 A 
ATOM     17  C   UNL     1      47.769 137.688  20.883  1.00  0.00     0.001 A 
ATOM     18  C   UNL     1      45.742 137.719  18.972  1.00  0.00     0.013 A 
ATOM     19  C   UNL     1      47.780 138.717  19.941  1.00  0.00     0.010 A 
ATOM     20  C   UNL     1      46.748 138.724  18.973  1.00  0.00     0.002 A 
BRANCH  10  21
ATOM     21  N   UNL     1      46.402 133.756  22.842  1.00  0.00    -0.302 NA
ATOM     22  H   UNL     1      45.626 133.194  23.257  1.00  0.00     0.188 HD
ENDBRANCH  10  21
BRANCH  16  23
ATOM     23  O   UNL     1      49.779 137.963  22.297  1.00  0.00    -0.530 OA
ATOM     24  H   UNL     1      49.825 138.467  23.173  1.00  0.00     0.290 HD
ENDBRANCH  16  23
ENDBRANCH   4   9
ENDBRANCH   2   3
ENDBRANCH   1   2
BRANCH   1  25
ATOM     25  C   UNL     1      43.042 132.827  15.052  1.00  0.00     0.016 C 
BRANCH  25  26
ATOM     26  C   UNL     1      44.500 132.729  15.523  1.00  0.00     0.085 C 
BRANCH  26  27
ATOM     27  N   UNL     1      45.159 131.529  14.958  1.00  0.00    -0.291 NA
ATOM     28  C   UNL     1      44.295 130.849  13.976  1.00  0.00     0.106 C 
BRANCH  27  29
ATOM     29  C   UNL     1      45.718 130.626  15.999  1.00  0.00     0.157 C 
ATOM     30  C   UNL     1      45.273 130.967  17.433  1.00  0.00     0.041 C 
BRANCH  29  31
ATOM     31  C   UNL     1      45.368 129.234  15.680  1.00  0.00     0.081 C 
ATOM     32  N   UNL     1      45.093 128.138  15.430  1.00  0.00    -0.197 NA
ENDBRANCH  29  31
ENDBRANCH  27  29
ENDBRANCH  26  27
ENDBRANCH  25  26
ENDBRANCH   1  25
TORSDOF 10
ENDMDL


