MODEL 1
REMARK VINA RESULT:      -5.9      0.000      0.000
REMARK SMILES C[N+]1(C)Cc2cc3ccc(-n4cc(CCn5cc(CN)cn5)n[nH+]4)cc3cc2C1
REMARK SMILES IDX 15 1 14 2 13 3 11 4 12 5 24 6 23 7 10 9 2 10 4 11 29 12 5 13
REMARK SMILES IDX 28 14 6 15 27 16 7 17 26 18 8 19 25 20 9 21 1 22 3 23 16 24
REMARK SMILES IDX 17 25 22 26 18 27 21 28 19 29 20 30
REMARK H PARENT 24 8 20 31 20 32
ROOT
ATOM      1  C   UNL     1      36.437 135.030  19.673  1.00  0.00     0.151 C 
ENDROOT
BRANCH   1   2
ATOM      2  C   UNL     1      37.264 135.477  18.463  1.00  0.00     0.088 C 
BRANCH   2   3
ATOM      3  C   UNL     1      38.402 134.539  18.202  1.00  0.00     0.134 A 
ATOM      4  N   UNL     1      40.321 133.724  17.557  1.00  0.00    -0.104 N 
ATOM      5  C   UNL     1      39.674 134.881  17.790  1.00  0.00     0.190 A 
ATOM      6  N   UNL     1      39.476 132.734  17.814  1.00  0.00    -0.012 N 
ATOM      7  N   UNL     1      38.296 133.195  18.198  1.00  0.00     0.020 NA
ATOM      8  H   UNL     1      39.684 131.720  17.686  1.00  0.00     0.527 HD
BRANCH   4   9
ATOM      9  C   UNL     1      41.658 133.560  17.048  1.00  0.00     0.107 A 
ATOM     10  N   UNL     1      46.923 130.333  13.422  1.00  0.00    -0.321 N 
ATOM     11  C   UNL     1      47.185 131.576  14.217  1.00  0.00     0.301 C 
ATOM     12  C   UNL     1      45.466 130.016  13.578  1.00  0.00     0.301 C 
ATOM     13  C   UNL     1      45.885 131.957  14.809  1.00  0.00     0.016 A 
ATOM     14  C   UNL     1      44.915 131.072  14.453  1.00  0.00     0.016 A 
ATOM     15  C   UNL     1      45.611 133.050  15.633  1.00  0.00     0.018 A 
ATOM     16  C   UNL     1      43.598 131.212  14.895  1.00  0.00     0.019 A 
ATOM     17  C   UNL     1      44.294 133.229  16.100  1.00  0.00    -0.018 A 
ATOM     18  C   UNL     1      43.280 132.302  15.729  1.00  0.00    -0.016 A 
ATOM     19  C   UNL     1      43.973 134.309  16.931  1.00  0.00     0.011 A 
ATOM     20  C   UNL     1      41.972 132.478  16.204  1.00  0.00     0.041 A 
ATOM     21  C   UNL     1      42.668 134.471  17.402  1.00  0.00     0.033 A 
ATOM     22  C   UNL     1      47.250 130.558  11.994  1.00  0.00     0.334 C 
ATOM     23  C   UNL     1      47.750 129.213  13.931  1.00  0.00     0.334 C 
ENDBRANCH   4   9
ENDBRANCH   2   3
ENDBRANCH   1   2
BRANCH   1  24
ATOM     24  N   UNL     1      37.093 135.406  20.923  1.00  0.00    -0.272 N 
ATOM     25  C   UNL     1      37.383 134.576  21.942  1.00  0.00     0.113 A 
ATOM     26  N   UNL     1      37.574 136.616  21.170  1.00  0.00    -0.181 NA
ATOM     27  C   UNL     1      38.086 135.296  22.884  1.00  0.00     0.004 A 
ATOM     28  C   UNL     1      38.176 136.577  22.374  1.00  0.00     0.140 A 
BRANCH  27  29
ATOM     29  C   UNL     1      38.586 134.807  24.205  1.00  0.00     0.116 C 
BRANCH  29  30
ATOM     30  N   UNL     1      39.541 133.724  24.005  1.00  0.00    -0.326 NA
ATOM     31  H   UNL     1      40.480 134.068  24.309  1.00  0.00     0.119 HD
ATOM     32  H   UNL     1      39.288 132.942  24.654  1.00  0.00     0.119 HD
ENDBRANCH  29  30
ENDBRANCH  27  29
ENDBRANCH   1  24
TORSDOF 6
ENDMDL
MODEL 2
REMARK VINA RESULT:      -5.9      3.865      5.294
REMARK SMILES C[N+]1(C)Cc2cc3ccc(-n4cc(CCn5cc(CN)cn5)n[nH+]4)cc3cc2C1
REMARK SMILES IDX 15 1 14 2 13 3 11 4 12 5 24 6 23 7 10 9 2 10 4 11 29 12 5 13
REMARK SMILES IDX 28 14 6 15 27 16 7 17 26 18 8 19 25 20 9 21 1 22 3 23 16 24
REMARK SMILES IDX 17 25 22 26 18 27 21 28 19 29 20 30
REMARK H PARENT 24 8 20 31 20 32
ROOT
ATOM      1  C   UNL     1      43.084 138.873  20.731  1.00  0.00     0.151 C 
ENDROOT
BRANCH   1   2
ATOM      2  C   UNL     1      42.039 137.803  21.066  1.00  0.00     0.088 C 
BRANCH   2   3
ATOM      3  C   UNL     1      41.852 136.846  19.929  1.00  0.00     0.134 A 
ATOM      4  N   UNL     1      42.149 135.208  18.518  1.00  0.00    -0.104 N 
ATOM      5  C   UNL     1      42.550 135.675  19.715  1.00  0.00     0.190 A 
ATOM      6  N   UNL     1      41.255 136.061  18.035  1.00  0.00    -0.012 N 
ATOM      7  N   UNL     1      41.060 137.075  18.863  1.00  0.00     0.020 NA
ATOM      8  H   UNL     1      40.794 135.983  17.102  1.00  0.00     0.527 HD
BRANCH   4   9
ATOM      9  C   UNL     1      42.638 134.043  17.828  1.00  0.00     0.107 A 
ATOM     10  N   UNL     1      47.115 130.303  13.674  1.00  0.00    -0.321 N 
ATOM     11  C   UNL     1      45.866 129.678  14.218  1.00  0.00     0.301 C 
ATOM     12  C   UNL     1      47.150 131.714  14.179  1.00  0.00     0.301 C 
ATOM     13  C   UNL     1      45.209 130.728  15.026  1.00  0.00     0.016 A 
ATOM     14  C   UNL     1      45.932 131.880  14.999  1.00  0.00     0.016 A 
ATOM     15  C   UNL     1      44.013 130.632  15.739  1.00  0.00     0.018 A 
ATOM     16  C   UNL     1      45.513 133.023  15.682  1.00  0.00     0.019 A 
ATOM     17  C   UNL     1      43.555 131.762  16.443  1.00  0.00    -0.018 A 
ATOM     18  C   UNL     1      44.310 132.968  16.414  1.00  0.00    -0.016 A 
ATOM     19  C   UNL     1      42.359 131.714  17.170  1.00  0.00     0.011 A 
ATOM     20  C   UNL     1      43.846 134.095  17.108  1.00  0.00     0.041 A 
ATOM     21  C   UNL     1      41.904 132.844  17.854  1.00  0.00     0.033 A 
ATOM     22  C   UNL     1      48.307 129.559  14.143  1.00  0.00     0.334 C 
ATOM     23  C   UNL     1      47.094 130.288  12.192  1.00  0.00     0.334 C 
ENDBRANCH   4   9
ENDBRANCH   2   3
ENDBRANCH   1   2
BRANCH   1  24
ATOM     24  N   UNL     1      44.438 138.357  20.915  1.00  0.00    -0.272 N 
ATOM     25  C   UNL     1      45.498 138.625  20.129  1.00  0.00     0.113 A 
ATOM     26  N   UNL     1      44.814 137.621  21.951  1.00  0.00    -0.181 NA
ATOM     27  C   UNL     1      46.603 138.031  20.695  1.00  0.00     0.004 A 
ATOM     28  C   UNL     1      46.138 137.397  21.831  1.00  0.00     0.140 A 
BRANCH  27  29
ATOM     29  C   UNL     1      47.998 138.021  20.158  1.00  0.00     0.116 C 
BRANCH  29  30
ATOM     30  N   UNL     1      48.701 136.830  20.619  1.00  0.00    -0.326 NA
ATOM     31  H   UNL     1      49.007 136.295  19.775  1.00  0.00     0.119 HD
ATOM     32  H   UNL     1      49.574 137.136  21.108  1.00  0.00     0.119 HD
ENDBRANCH  29  30
ENDBRANCH  27  29
ENDBRANCH   1  24
TORSDOF 6
ENDMDL
MODEL 3
REMARK VINA RESULT:      -5.7      1.245      1.314
REMARK SMILES C[N+]1(C)Cc2cc3ccc(-n4cc(CCn5cc(CN)cn5)n[nH+]4)cc3cc2C1
REMARK SMILES IDX 15 1 14 2 13 3 11 4 12 5 24 6 23 7 10 9 2 10 4 11 29 12 5 13
REMARK SMILES IDX 28 14 6 15 27 16 7 17 26 18 8 19 25 20 9 21 1 22 3 23 16 24
REMARK SMILES IDX 17 25 22 26 18 27 21 28 19 29 20 30
REMARK H PARENT 24 8 20 31 20 32
ROOT
ATOM      1  C   UNL     1      37.560 135.778  20.177  1.00  0.00     0.151 C 
ENDROOT
BRANCH   1   2
ATOM      2  C   UNL     1      37.565 134.516  19.308  1.00  0.00     0.088 C 
BRANCH   2   3
ATOM      3  C   UNL     1      38.607 134.596  18.235  1.00  0.00     0.134 A 
ATOM      4  N   UNL     1      40.485 134.404  17.139  1.00  0.00    -0.104 N 
ATOM      5  C   UNL     1      39.823 133.943  18.217  1.00  0.00     0.190 A 
ATOM      6  N   UNL     1      39.704 135.294  16.540  1.00  0.00    -0.012 N 
ATOM      7  N   UNL     1      38.559 135.443  17.188  1.00  0.00     0.020 NA
ATOM      8  H   UNL     1      39.965 135.850  15.697  1.00  0.00     0.527 HD
BRANCH   4   9
ATOM      9  C   UNL     1      41.823 134.069  16.729  1.00  0.00     0.107 A 
ATOM     10  N   UNL     1      46.879 130.235  13.408  1.00  0.00    -0.321 N 
ATOM     11  C   UNL     1      47.242 131.411  14.263  1.00  0.00     0.301 C 
ATOM     12  C   UNL     1      45.384 130.119  13.440  1.00  0.00     0.301 C 
ATOM     13  C   UNL     1      45.962 131.953  14.767  1.00  0.00     0.016 A 
ATOM     14  C   UNL     1      44.913 131.219  14.306  1.00  0.00     0.016 A 
ATOM     15  C   UNL     1      45.772 133.053  15.605  1.00  0.00     0.018 A 
ATOM     16  C   UNL     1      43.596 131.529  14.650  1.00  0.00     0.019 A 
ATOM     17  C   UNL     1      44.459 133.401  15.975  1.00  0.00    -0.018 A 
ATOM     18  C   UNL     1      43.361 132.632  15.495  1.00  0.00    -0.016 A 
ATOM     19  C   UNL     1      44.221 134.495  16.817  1.00  0.00     0.011 A 
ATOM     20  C   UNL     1      42.056 132.976  15.874  1.00  0.00     0.041 A 
ATOM     21  C   UNL     1      42.916 134.824  17.191  1.00  0.00     0.033 A 
ATOM     22  C   UNL     1      47.348 130.448  12.018  1.00  0.00     0.334 C 
ATOM     23  C   UNL     1      47.502 129.000  13.939  1.00  0.00     0.334 C 
ENDBRANCH   4   9
ENDBRANCH   2   3
ENDBRANCH   1   2
BRANCH   1  24
ATOM     24  N   UNL     1      38.595 135.709  21.205  1.00  0.00    -0.272 N 
ATOM     25  C   UNL     1      39.053 134.586  21.790  1.00  0.00     0.113 A 
ATOM     26  N   UNL     1      39.287 136.757  21.629  1.00  0.00    -0.181 NA
ATOM     27  C   UNL     1      40.089 134.938  22.625  1.00  0.00     0.004 A 
ATOM     28  C   UNL     1      40.202 136.310  22.513  1.00  0.00     0.140 A 
BRANCH  27  29
ATOM     29  C   UNL     1      40.879 134.032  23.515  1.00  0.00     0.116 C 
BRANCH  29  30
ATOM     30  N   UNL     1      41.455 134.794  24.615  1.00  0.00    -0.326 NA
ATOM     31  H   UNL     1      41.685 134.122  25.382  1.00  0.00     0.119 HD
ATOM     32  H   UNL     1      42.366 135.196  24.291  1.00  0.00     0.119 HD
ENDBRANCH  29  30
ENDBRANCH  27  29
ENDBRANCH   1  24
TORSDOF 6
ENDMDL
MODEL 4
REMARK VINA RESULT:      -5.6      2.525      3.997
REMARK SMILES C[N+]1(C)Cc2cc3ccc(-n4cc(CCn5cc(CN)cn5)n[nH+]4)cc3cc2C1
REMARK SMILES IDX 15 1 14 2 13 3 11 4 12 5 24 6 23 7 10 9 2 10 4 11 29 12 5 13
REMARK SMILES IDX 28 14 6 15 27 16 7 17 26 18 8 19 25 20 9 21 1 22 3 23 16 24
REMARK SMILES IDX 17 25 22 26 18 27 21 28 19 29 20 30
REMARK H PARENT 24 8 20 31 20 32
ROOT
ATOM      1  C   UNL     1      38.862 136.748  21.171  1.00  0.00     0.151 C 
ENDROOT
BRANCH   1   2
ATOM      2  C   UNL     1      40.020 136.710  22.175  1.00  0.00     0.088 C 
BRANCH   2   3
ATOM      3  C   UNL     1      40.793 135.431  22.069  1.00  0.00     0.134 A 
ATOM      4  N   UNL     1      42.100 133.844  21.337  1.00  0.00    -0.104 N 
ATOM      5  C   UNL     1      41.777 135.138  21.147  1.00  0.00     0.190 A 
ATOM      6  N   UNL     1      41.344 133.384  22.325  1.00  0.00    -0.012 N 
ATOM      7  N   UNL     1      40.529 134.320  22.785  1.00  0.00     0.020 NA
ATOM      8  H   UNL     1      41.343 132.400  22.671  1.00  0.00     0.527 HD
BRANCH   4   9
ATOM      9  C   UNL     1      43.034 133.058  20.575  1.00  0.00     0.107 A 
ATOM     10  N   UNL     1      46.256 130.669  14.642  1.00  0.00    -0.321 N 
ATOM     11  C   UNL     1      46.608 130.111  15.987  1.00  0.00     0.301 C 
ATOM     12  C   UNL     1      45.203 131.714  14.866  1.00  0.00     0.301 C 
ATOM     13  C   UNL     1      45.765 130.840  16.959  1.00  0.00     0.016 A 
ATOM     14  C   UNL     1      44.967 131.741  16.325  1.00  0.00     0.016 A 
ATOM     15  C   UNL     1      45.728 130.679  18.345  1.00  0.00     0.018 A 
ATOM     16  C   UNL     1      44.071 132.548  17.028  1.00  0.00     0.019 A 
ATOM     17  C   UNL     1      44.839 131.475  19.093  1.00  0.00    -0.018 A 
ATOM     18  C   UNL     1      44.003 132.416  18.429  1.00  0.00    -0.016 A 
ATOM     19  C   UNL     1      44.765 131.346  20.485  1.00  0.00     0.011 A 
ATOM     20  C   UNL     1      43.112 133.200  19.177  1.00  0.00     0.041 A 
ATOM     21  C   UNL     1      43.870 132.129  21.218  1.00  0.00     0.033 A 
ATOM     22  C   UNL     1      47.452 131.273  14.008  1.00  0.00     0.334 C 
ATOM     23  C   UNL     1      45.737 129.598  13.760  1.00  0.00     0.334 C 
ENDBRANCH   4   9
ENDBRANCH   2   3
ENDBRANCH   1   2
BRANCH   1  24
ATOM     24  N   UNL     1      39.321 136.394  19.831  1.00  0.00    -0.272 N 
ATOM     25  C   UNL     1      39.132 135.209  19.220  1.00  0.00     0.113 A 
ATOM     26  N   UNL     1      39.910 137.244  19.002  1.00  0.00    -0.181 NA
ATOM     27  C   UNL     1      39.624 135.312  17.938  1.00  0.00     0.004 A 
ATOM     28  C   UNL     1      40.119 136.599  17.838  1.00  0.00     0.140 A 
BRANCH  27  29
ATOM     29  C   UNL     1      39.671 134.238  16.900  1.00  0.00     0.116 C 
BRANCH  29  30
ATOM     30  N   UNL     1      38.550 133.324  17.078  1.00  0.00    -0.326 NA
ATOM     31  H   UNL     1      38.906 132.352  16.933  1.00  0.00     0.119 HD
ATOM     32  H   UNL     1      38.239 133.380  18.076  1.00  0.00     0.119 HD
ENDBRANCH  29  30
ENDBRANCH  27  29
ENDBRANCH   1  24
TORSDOF 6
ENDMDL
MODEL 5
REMARK VINA RESULT:      -5.5      2.553      3.428
REMARK SMILES C[N+]1(C)Cc2cc3ccc(-n4cc(CCn5cc(CN)cn5)n[nH+]4)cc3cc2C1
REMARK SMILES IDX 15 1 14 2 13 3 11 4 12 5 24 6 23 7 10 9 2 10 4 11 29 12 5 13
REMARK SMILES IDX 28 14 6 15 27 16 7 17 26 18 8 19 25 20 9 21 1 22 3 23 16 24
REMARK SMILES IDX 17 25 22 26 18 27 21 28 19 29 20 30
REMARK H PARENT 24 8 20 31 20 32
ROOT
ATOM      1  C   UNL     1      40.772 137.262  22.131  1.00  0.00     0.151 C 
ENDROOT
BRANCH   1   2
ATOM      2  C   UNL     1      41.232 137.781  20.764  1.00  0.00     0.088 C 
BRANCH   2   3
ATOM      3  C   UNL     1      40.938 136.793  19.677  1.00  0.00     0.134 A 
ATOM      4  N   UNL     1      41.174 135.355  18.052  1.00  0.00    -0.104 N 
ATOM      5  C   UNL     1      41.848 135.975  19.040  1.00  0.00     0.190 A 
ATOM      6  N   UNL     1      39.920 135.785  18.094  1.00  0.00    -0.012 N 
ATOM      7  N   UNL     1      39.745 136.669  19.063  1.00  0.00     0.020 NA
ATOM      8  H   UNL     1      39.169 135.509  17.424  1.00  0.00     0.527 HD
BRANCH   4   9
ATOM      9  C   UNL     1      41.707 134.449  17.069  1.00  0.00     0.107 A 
ATOM     10  N   UNL     1      46.733 130.437  13.918  1.00  0.00    -0.321 N 
ATOM     11  C   UNL     1      45.361 130.555  13.329  1.00  0.00     0.301 C 
ATOM     12  C   UNL     1      46.743 131.268  15.167  1.00  0.00     0.301 C 
ATOM     13  C   UNL     1      44.605 131.439  14.241  1.00  0.00     0.016 A 
ATOM     14  C   UNL     1      45.388 131.847  15.276  1.00  0.00     0.016 A 
ATOM     15  C   UNL     1      43.276 131.851  14.123  1.00  0.00     0.018 A 
ATOM     16  C   UNL     1      44.902 132.698  16.270  1.00  0.00     0.019 A 
ATOM     17  C   UNL     1      42.746 132.709  15.106  1.00  0.00    -0.018 A 
ATOM     18  C   UNL     1      43.566 133.137  16.188  1.00  0.00    -0.016 A 
ATOM     19  C   UNL     1      41.420 133.151  15.028  1.00  0.00     0.011 A 
ATOM     20  C   UNL     1      43.038 134.000  17.160  1.00  0.00     0.041 A 
ATOM     21  C   UNL     1      40.906 134.013  15.999  1.00  0.00     0.033 A 
ATOM     22  C   UNL     1      47.034 129.022  14.241  1.00  0.00     0.334 C 
ATOM     23  C   UNL     1      47.749 130.936  12.961  1.00  0.00     0.334 C 
ENDBRANCH   4   9
ENDBRANCH   2   3
ENDBRANCH   1   2
BRANCH   1  24
ATOM     24  N   UNL     1      41.452 136.015  22.472  1.00  0.00    -0.272 N 
ATOM     25  C   UNL     1      42.743 135.894  22.835  1.00  0.00     0.113 A 
ATOM     26  N   UNL     1      40.843 134.840  22.555  1.00  0.00    -0.181 NA
ATOM     27  C   UNL     1      42.965 134.576  23.167  1.00  0.00     0.004 A 
ATOM     28  C   UNL     1      41.756 133.938  22.967  1.00  0.00     0.140 A 
BRANCH  27  29
ATOM     29  C   UNL     1      44.258 133.958  23.591  1.00  0.00     0.116 C 
BRANCH  29  30
ATOM     30  N   UNL     1      44.001 132.772  24.399  1.00  0.00    -0.326 NA
ATOM     31  H   UNL     1      44.896 132.510  24.873  1.00  0.00     0.119 HD
ATOM     32  H   UNL     1      43.330 133.034  25.159  1.00  0.00     0.119 HD
ENDBRANCH  29  30
ENDBRANCH  27  29
ENDBRANCH   1  24
TORSDOF 6
ENDMDL
MODEL 6
REMARK VINA RESULT:      -5.4      3.792      4.937
REMARK SMILES C[N+]1(C)Cc2cc3ccc(-n4cc(CCn5cc(CN)cn5)n[nH+]4)cc3cc2C1
REMARK SMILES IDX 15 1 14 2 13 3 11 4 12 5 24 6 23 7 10 9 2 10 4 11 29 12 5 13
REMARK SMILES IDX 28 14 6 15 27 16 7 17 26 18 8 19 25 20 9 21 1 22 3 23 16 24
REMARK SMILES IDX 17 25 22 26 18 27 21 28 19 29 20 30
REMARK H PARENT 24 8 20 31 20 32
ROOT
ATOM      1  C   UNL     1      43.878 139.590  21.034  1.00  0.00     0.151 C 
ENDROOT
BRANCH   1   2
ATOM      2  C   UNL     1      43.548 139.625  19.538  1.00  0.00     0.088 C 
BRANCH   2   3
ATOM      3  C   UNL     1      42.956 138.328  19.078  1.00  0.00     0.134 A 
ATOM      4  N   UNL     1      42.664 136.416  18.068  1.00  0.00    -0.104 N 
ATOM      5  C   UNL     1      43.604 137.328  18.383  1.00  0.00     0.190 A 
ATOM      6  N   UNL     1      41.507 136.851  18.549  1.00  0.00    -0.012 N 
ATOM      7  N   UNL     1      41.647 138.017  19.160  1.00  0.00     0.020 NA
ATOM      8  H   UNL     1      40.589 136.372  18.426  1.00  0.00     0.527 HD
BRANCH   4   9
ATOM      9  C   UNL     1      42.838 135.219  17.287  1.00  0.00     0.107 A 
ATOM     10  N   UNL     1      46.509 130.271  13.636  1.00  0.00    -0.321 N 
ATOM     11  C   UNL     1      45.014 130.212  13.723  1.00  0.00     0.301 C 
ATOM     12  C   UNL     1      46.943 131.474  14.418  1.00  0.00     0.301 C 
ATOM     13  C   UNL     1      44.613 131.369  14.552  1.00  0.00     0.016 A 
ATOM     14  C   UNL     1      45.702 132.085  14.939  1.00  0.00     0.016 A 
ATOM     15  C   UNL     1      43.321 131.745  14.923  1.00  0.00     0.018 A 
ATOM     16  C   UNL     1      45.582 133.233  15.725  1.00  0.00     0.019 A 
ATOM     17  C   UNL     1      43.155 132.896  15.717  1.00  0.00    -0.018 A 
ATOM     18  C   UNL     1      44.295 133.647  16.121  1.00  0.00    -0.016 A 
ATOM     19  C   UNL     1      41.878 133.314  16.111  1.00  0.00     0.011 A 
ATOM     20  C   UNL     1      44.125 134.798  16.904  1.00  0.00     0.041 A 
ATOM     21  C   UNL     1      41.721 134.465  16.887  1.00  0.00     0.033 A 
ATOM     22  C   UNL     1      47.105 129.042  14.211  1.00  0.00     0.334 C 
ATOM     23  C   UNL     1      46.937 130.394  12.222  1.00  0.00     0.334 C 
ENDBRANCH   4   9
ENDBRANCH   2   3
ENDBRANCH   1   2
BRANCH   1  24
ATOM     24  N   UNL     1      44.626 138.384  21.377  1.00  0.00    -0.272 N 
ATOM     25  C   UNL     1      44.116 137.271  21.937  1.00  0.00     0.113 A 
ATOM     26  N   UNL     1      45.906 138.201  21.087  1.00  0.00    -0.181 NA
ATOM     27  C   UNL     1      45.122 136.334  22.005  1.00  0.00     0.004 A 
ATOM     28  C   UNL     1      46.238 136.954  21.475  1.00  0.00     0.140 A 
BRANCH  27  29
ATOM     29  C   UNL     1      45.039 134.960  22.588  1.00  0.00     0.116 C 
BRANCH  29  30
ATOM     30  N   UNL     1      43.881 134.863  23.469  1.00  0.00    -0.326 NA
ATOM     31  H   UNL     1      43.180 135.569  23.151  1.00  0.00     0.119 HD
ATOM     32  H   UNL     1      43.441 133.924  23.327  1.00  0.00     0.119 HD
ENDBRANCH  29  30
ENDBRANCH  27  29
ENDBRANCH   1  24
TORSDOF 6
ENDMDL
MODEL 7
REMARK VINA RESULT:      -5.3      3.143      4.057
REMARK SMILES C[N+]1(C)Cc2cc3ccc(-n4cc(CCn5cc(CN)cn5)n[nH+]4)cc3cc2C1
REMARK SMILES IDX 15 1 14 2 13 3 11 4 12 5 24 6 23 7 10 9 2 10 4 11 29 12 5 13
REMARK SMILES IDX 28 14 6 15 27 16 7 17 26 18 8 19 25 20 9 21 1 22 3 23 16 24
REMARK SMILES IDX 17 25 22 26 18 27 21 28 19 29 20 30
REMARK H PARENT 24 8 20 31 20 32
ROOT
ATOM      1  C   UNL     1      40.709 135.350  22.884  1.00  0.00     0.151 C 
ENDROOT
BRANCH   1   2
ATOM      2  C   UNL     1      40.236 136.418  21.892  1.00  0.00     0.088 C 
BRANCH   2   3
ATOM      3  C   UNL     1      40.892 136.252  20.556  1.00  0.00     0.134 A 
ATOM      4  N   UNL     1      41.703 135.372  18.731  1.00  0.00    -0.104 N 
ATOM      5  C   UNL     1      40.889 135.116  19.772  1.00  0.00     0.190 A 
ATOM      6  N   UNL     1      42.174 136.603  18.884  1.00  0.00    -0.012 N 
ATOM      7  N   UNL     1      41.710 137.162  19.991  1.00  0.00     0.020 NA
ATOM      8  H   UNL     1      42.862 137.065  18.251  1.00  0.00     0.527 HD
BRANCH   4   9
ATOM      9  C   UNL     1      42.074 134.470  17.672  1.00  0.00     0.107 A 
ATOM     10  N   UNL     1      46.523 130.404  13.804  1.00  0.00    -0.321 N 
ATOM     11  C   UNL     1      45.085 130.560  13.412  1.00  0.00     0.301 C 
ATOM     12  C   UNL     1      46.724 131.214  15.050  1.00  0.00     0.301 C 
ATOM     13  C   UNL     1      44.483 131.446  14.431  1.00  0.00     0.016 A 
ATOM     14  C   UNL     1      45.411 131.820  15.353  1.00  0.00     0.016 A 
ATOM     15  C   UNL     1      43.161 131.887  14.504  1.00  0.00     0.018 A 
ATOM     16  C   UNL     1      45.087 132.665  16.416  1.00  0.00     0.019 A 
ATOM     17  C   UNL     1      42.792 132.741  15.561  1.00  0.00    -0.018 A 
ATOM     18  C   UNL     1      43.762 133.134  16.525  1.00  0.00    -0.016 A 
ATOM     19  C   UNL     1      41.478 133.212  15.673  1.00  0.00     0.011 A 
ATOM     20  C   UNL     1      43.393 133.991  17.571  1.00  0.00     0.041 A 
ATOM     21  C   UNL     1      41.123 134.069  16.717  1.00  0.00     0.033 A 
ATOM     22  C   UNL     1      46.832 128.978  14.064  1.00  0.00     0.334 C 
ATOM     23  C   UNL     1      47.408 130.896  12.722  1.00  0.00     0.334 C 
ENDBRANCH   4   9
ENDBRANCH   2   3
ENDBRANCH   1   2
BRANCH   1  24
ATOM     24  N   UNL     1      42.163 135.370  23.019  1.00  0.00    -0.272 N 
ATOM     25  C   UNL     1      42.901 136.411  23.448  1.00  0.00     0.113 A 
ATOM     26  N   UNL     1      42.939 134.314  22.820  1.00  0.00    -0.181 NA
ATOM     27  C   UNL     1      44.212 135.995  23.526  1.00  0.00     0.004 A 
ATOM     28  C   UNL     1      44.203 134.677  23.111  1.00  0.00     0.140 A 
BRANCH  27  29
ATOM     29  C   UNL     1      45.398 136.816  23.916  1.00  0.00     0.116 C 
BRANCH  29  30
ATOM     30  N   UNL     1      44.960 138.067  24.523  1.00  0.00    -0.326 NA
ATOM     31  H   UNL     1      44.256 137.833  25.260  1.00  0.00     0.119 HD
ATOM     32  H   UNL     1      45.777 138.492  25.020  1.00  0.00     0.119 HD
ENDBRANCH  29  30
ENDBRANCH  27  29
ENDBRANCH   1  24
TORSDOF 6
ENDMDL
MODEL 8
REMARK VINA RESULT:      -5.2      3.918      4.860
REMARK SMILES C[N+]1(C)Cc2cc3ccc(-n4cc(CCn5cc(CN)cn5)n[nH+]4)cc3cc2C1
REMARK SMILES IDX 15 1 14 2 13 3 11 4 12 5 24 6 23 7 10 9 2 10 4 11 29 12 5 13
REMARK SMILES IDX 28 14 6 15 27 16 7 17 26 18 8 19 25 20 9 21 1 22 3 23 16 24
REMARK SMILES IDX 17 25 22 26 18 27 21 28 19 29 20 30
REMARK H PARENT 24 8 20 31 20 32
ROOT
ATOM      1  C   UNL     1      42.171 138.456  21.972  1.00  0.00     0.151 C 
ENDROOT
BRANCH   1   2
ATOM      2  C   UNL     1      41.686 137.082  22.447  1.00  0.00     0.088 C 
BRANCH   2   3
ATOM      3  C   UNL     1      41.293 136.212  21.292  1.00  0.00     0.134 A 
ATOM      4  N   UNL     1      41.368 135.010  19.472  1.00  0.00    -0.104 N 
ATOM      5  C   UNL     1      42.145 135.563  20.423  1.00  0.00     0.190 A 
ATOM      6  N   UNL     1      40.109 135.316  19.757  1.00  0.00    -0.012 N 
ATOM      7  N   UNL     1      40.029 136.056  20.852  1.00  0.00     0.020 NA
ATOM      8  H   UNL     1      39.283 135.058  19.176  1.00  0.00     0.527 HD
BRANCH   4   9
ATOM      9  C   UNL     1      41.799 134.282  18.308  1.00  0.00     0.107 A 
ATOM     10  N   UNL     1      46.387 130.585  14.237  1.00  0.00    -0.321 N 
ATOM     11  C   UNL     1      45.022 130.939  13.731  1.00  0.00     0.301 C 
ATOM     12  C   UNL     1      46.493 131.139  15.626  1.00  0.00     0.301 C 
ATOM     13  C   UNL     1      44.365 131.679  14.829  1.00  0.00     0.016 A 
ATOM     14  C   UNL     1      45.198 131.797  15.898  1.00  0.00     0.016 A 
ATOM     15  C   UNL     1      43.077 132.219  14.844  1.00  0.00     0.018 A 
ATOM     16  C   UNL     1      44.808 132.465  17.060  1.00  0.00     0.019 A 
ATOM     17  C   UNL     1      42.644 132.899  15.998  1.00  0.00    -0.018 A 
ATOM     18  C   UNL     1      43.517 133.024  17.115  1.00  0.00    -0.016 A 
ATOM     19  C   UNL     1      41.362 133.460  16.057  1.00  0.00     0.011 A 
ATOM     20  C   UNL     1      43.085 133.711  18.259  1.00  0.00     0.041 A 
ATOM     21  C   UNL     1      40.945 134.146  17.200  1.00  0.00     0.033 A 
ATOM     22  C   UNL     1      46.563 129.114  14.255  1.00  0.00     0.334 C 
ATOM     23  C   UNL     1      47.428 131.181  13.366  1.00  0.00     0.334 C 
ENDBRANCH   4   9
ENDBRANCH   2   3
ENDBRANCH   1   2
BRANCH   1  24
ATOM     24  N   UNL     1      43.628 138.490  21.870  1.00  0.00    -0.272 N 
ATOM     25  C   UNL     1      44.490 137.837  22.673  1.00  0.00     0.113 A 
ATOM     26  N   UNL     1      44.287 139.105  20.899  1.00  0.00    -0.181 NA
ATOM     27  C   UNL     1      45.760 138.048  22.186  1.00  0.00     0.004 A 
ATOM     28  C   UNL     1      45.599 138.860  21.079  1.00  0.00     0.140 A 
BRANCH  27  29
ATOM     29  C   UNL     1      47.045 137.555  22.771  1.00  0.00     0.116 C 
BRANCH  29  30
ATOM     30  N   UNL     1      47.701 136.649  21.837  1.00  0.00    -0.326 NA
ATOM     31  H   UNL     1      48.485 137.171  21.385  1.00  0.00     0.119 HD
ATOM     32  H   UNL     1      48.141 135.875  22.388  1.00  0.00     0.119 HD
ENDBRANCH  29  30
ENDBRANCH  27  29
ENDBRANCH   1  24
TORSDOF 6
ENDMDL
MODEL 9
REMARK VINA RESULT:      -5.2      3.335      4.657
REMARK SMILES C[N+]1(C)Cc2cc3ccc(-n4cc(CCn5cc(CN)cn5)n[nH+]4)cc3cc2C1
REMARK SMILES IDX 15 1 14 2 13 3 11 4 12 5 24 6 23 7 10 9 2 10 4 11 29 12 5 13
REMARK SMILES IDX 28 14 6 15 27 16 7 17 26 18 8 19 25 20 9 21 1 22 3 23 16 24
REMARK SMILES IDX 17 25 22 26 18 27 21 28 19 29 20 30
REMARK H PARENT 24 8 20 31 20 32
ROOT
ATOM      1  C   UNL     1      42.499 134.600  23.919  1.00  0.00     0.151 C 
ENDROOT
BRANCH   1   2
ATOM      2  C   UNL     1      41.437 133.627  23.394  1.00  0.00     0.088 C 
BRANCH   2   3
ATOM      3  C   UNL     1      41.303 133.716  21.904  1.00  0.00     0.134 A 
ATOM      4  N   UNL     1      41.639 133.444  19.765  1.00  0.00    -0.104 N 
ATOM      5  C   UNL     1      41.955 132.936  20.971  1.00  0.00     0.190 A 
ATOM      6  N   UNL     1      40.838 134.482  19.966  1.00  0.00    -0.012 N 
ATOM      7  N   UNL     1      40.623 134.682  21.257  1.00  0.00     0.020 NA
ATOM      8  H   UNL     1      40.460 135.102  19.217  1.00  0.00     0.527 HD
BRANCH   4   9
ATOM      9  C   UNL     1      42.127 133.011  18.482  1.00  0.00     0.107 A 
ATOM     10  N   UNL     1      46.948 130.464  13.838  1.00  0.00    -0.321 N 
ATOM     11  C   UNL     1      45.584 130.884  13.380  1.00  0.00     0.301 C 
ATOM     12  C   UNL     1      46.997 130.691  15.320  1.00  0.00     0.301 C 
ATOM     13  C   UNL     1      44.873 131.337  14.594  1.00  0.00     0.016 A 
ATOM     14  C   UNL     1      45.673 131.234  15.689  1.00  0.00     0.016 A 
ATOM     15  C   UNL     1      43.567 131.823  14.686  1.00  0.00     0.018 A 
ATOM     16  C   UNL     1      45.230 131.610  16.958  1.00  0.00     0.019 A 
ATOM     17  C   UNL     1      43.080 132.212  15.949  1.00  0.00    -0.018 A 
ATOM     18  C   UNL     1      43.918 132.106  17.094  1.00  0.00    -0.016 A 
ATOM     19  C   UNL     1      41.778 132.709  16.090  1.00  0.00     0.011 A 
ATOM     20  C   UNL     1      43.432 132.503  18.349  1.00  0.00     0.041 A 
ATOM     21  C   UNL     1      41.307 133.106  17.344  1.00  0.00     0.033 A 
ATOM     22  C   UNL     1      47.174 129.033  13.530  1.00  0.00     0.334 C 
ATOM     23  C   UNL     1      47.990 131.271  13.160  1.00  0.00     0.334 C 
ENDBRANCH   4   9
ENDBRANCH   2   3
ENDBRANCH   1   2
BRANCH   1  24
ATOM     24  N   UNL     1      43.740 134.479  23.159  1.00  0.00    -0.272 N 
ATOM     25  C   UNL     1      44.412 133.337  22.922  1.00  0.00     0.113 A 
ATOM     26  N   UNL     1      44.317 135.487  22.520  1.00  0.00    -0.181 NA
ATOM     27  C   UNL     1      45.467 133.634  22.089  1.00  0.00     0.004 A 
ATOM     28  C   UNL     1      45.388 134.995  21.867  1.00  0.00     0.140 A 
BRANCH  27  29
ATOM     29  C   UNL     1      46.514 132.692  21.587  1.00  0.00     0.116 C 
BRANCH  29  30
ATOM     30  N   UNL     1      46.144 131.320  21.909  1.00  0.00    -0.326 NA
ATOM     31  H   UNL     1      47.019 130.805  22.160  1.00  0.00     0.119 HD
ATOM     32  H   UNL     1      45.553 131.336  22.773  1.00  0.00     0.119 HD
ENDBRANCH  29  30
ENDBRANCH  27  29
ENDBRANCH   1  24
TORSDOF 6
ENDMDL


