REMARK SMILES [N-]=[N+]=NC(=O)c1cc2ccccc2cc1OC(=O)[C@]1(N=[N+]=[N-])C[C@@H](CO)C1
REMARK SMILES IDX 16 1 17 2 18 3 19 4 24 5 27 6 23 7 25 8 26 9 20 11 21 12
REMARK SMILES IDX 22 13 15 14 6 15 14 16 7 17 13 18 8 19 12 20 9 21 11 22
REMARK SMILES IDX 10 23 4 24 5 25 3 26 2 27 1 28
REMARK H PARENT 26 10
ROOT
ATOM      1  O   UNL     1       0.205   0.285  -0.364  1.00  0.00    -0.425 OA
ENDROOT
BRANCH   1   2
ATOM      2  C   UNL     1       1.014  -0.838  -0.583  1.00  0.00     0.323 C 
ATOM      3  O   UNL     1       0.503  -1.923  -0.975  1.00  0.00    -0.251 OA
BRANCH   2   4
ATOM      4  C   UNL     1       2.508  -0.734  -0.367  1.00  0.00     0.147 C 
ATOM      5  C   UNL     1       3.533   1.045   0.312  1.00  0.00     0.017 C 
ATOM      6  C   UNL     1       3.158   0.472  -1.056  1.00  0.00     0.031 C 
ATOM      7  C   UNL     1       2.888  -0.161   1.001  1.00  0.00     0.031 C 
BRANCH   5   8
ATOM      8  C   UNL     1       5.049   1.151   0.538  1.00  0.00     0.159 C 
BRANCH   8   9
ATOM      9  O   UNL     1       5.319   1.502   1.868  1.00  0.00    -0.396 OA
ATOM     10  H   UNL     1       5.095   2.465   1.959  1.00  0.00     0.210 HD
ENDBRANCH   8   9
ENDBRANCH   5   8
BRANCH   4  11
ATOM     11  N   UNL     1       3.220  -1.984  -0.637  1.00  0.00    -0.075 NA
BRANCH  11  12
ATOM     12  N   UNL     1       3.277  -2.456  -1.774  1.00  0.00     0.002 N 
ATOM     13  N   UNL     1       3.335  -2.927  -2.909  1.00  0.00    -0.003 NA
ENDBRANCH  11  12
ENDBRANCH   4  11
ENDBRANCH   2   4
ENDBRANCH   1   2
BRANCH   1  14
ATOM     14  C   UNL     1      -1.186   0.273  -0.518  1.00  0.00     0.142 A 
ATOM     15  C   UNL     1      -2.026  -0.557   0.267  1.00  0.00     0.068 A 
ATOM     16  C   UNL     1      -1.742   1.113  -1.488  1.00  0.00     0.056 A 
ATOM     17  C   UNL     1      -3.408  -0.573   0.004  1.00  0.00     0.024 A 
ATOM     18  C   UNL     1      -3.120   1.105  -1.737  1.00  0.00    -0.015 A 
ATOM     19  C   UNL     1      -3.959   0.247  -0.990  1.00  0.00    -0.017 A 
ATOM     20  C   UNL     1      -3.674   1.934  -2.724  1.00  0.00     0.009 A 
ATOM     21  C   UNL     1      -5.341   0.235  -1.243  1.00  0.00     0.009 A 
ATOM     22  C   UNL     1      -5.051   1.912  -2.967  1.00  0.00     0.001 A 
ATOM     23  C   UNL     1      -5.881   1.065  -2.229  1.00  0.00     0.001 A 
BRANCH  15  24
ATOM     24  C   UNL     1      -1.498  -1.367   1.390  1.00  0.00     0.252 C 
ATOM     25  O   UNL     1      -0.447  -1.013   1.990  1.00  0.00    -0.287 OA
BRANCH  24  26
ATOM     26  N   UNL     1      -2.199  -2.540   1.818  1.00  0.00    -0.017 NA
BRANCH  26  27
ATOM     27  N   UNL     1      -1.785  -3.228   2.752  1.00  0.00     0.009 N 
ATOM     28  N   UNL     1      -1.373  -3.915   3.685  1.00  0.00    -0.003 NA
ENDBRANCH  26  27
ENDBRANCH  24  26
ENDBRANCH  15  24
ENDBRANCH   1  14
TORSDOF 10


