REMARK SMILES C=CC[C@](C)(CC)Oc1cc2nc(Cn3n[nH+]c(C)c3-c3nnc([C@@H]4C[C@@H]4C)o3)[n-]c2cc1C#N
REMARK SMILES IDX 9 1 10 2 11 3 12 4 13 5 30 6 31 7 32 8 33 9 8 10 4 11 5 12
REMARK SMILES IDX 3 13 2 14 1 15 6 16 7 17 34 18 35 19 14 20 15 21 16 22 20 23
REMARK SMILES IDX 17 24 18 25 19 27 21 28 22 29 29 30 23 31 24 32 25 33 26 34
REMARK SMILES IDX 27 35 28 36
REMARK H PARENT 17 26
ROOT
ATOM      1  C   UNL     1       2.545  -0.735   0.461  1.00  0.00     0.138 A 
ATOM      2  C   UNL     1       2.212   0.486  -0.185  1.00  0.00     0.051 A 
ATOM      3  C   UNL     1       0.886   0.911  -0.145  1.00  0.00    -0.035 A 
ATOM      4  N   UNL     1       0.360   2.007  -0.711  1.00  0.00    -0.436 NA
ATOM      5  C   UNL     1      -0.953   1.911  -0.373  1.00  0.00    -0.037 A 
ATOM      6  N   UNL     1      -1.268   0.808   0.352  1.00  0.00    -0.436 NA
ATOM      7  C   UNL     1      -0.081   0.199   0.484  1.00  0.00    -0.037 A 
ATOM      8  C   UNL     1       0.188  -1.004   1.123  1.00  0.00     0.027 A 
ATOM      9  C   UNL     1       1.515  -1.474   1.109  1.00  0.00     0.094 A 
ENDROOT
BRANCH   1  10
ATOM     10  O   UNL     1       3.845  -1.286   0.489  1.00  0.00    -0.486 OA
BRANCH  10  11
ATOM     11  C   UNL     1       5.122  -0.732   0.120  1.00  0.00     0.109 C 
ATOM     12  C   UNL     1       5.365   0.601   0.869  1.00  0.00     0.057 C 
BRANCH  11  13
ATOM     13  C   UNL     1       5.223  -0.534  -1.423  1.00  0.00     0.075 C 
BRANCH  13  14
ATOM     14  C   UNL     1       5.022  -1.817  -2.191  1.00  0.00    -0.031 C 
ATOM     15  C   UNL     1       3.802  -2.270  -2.510  1.00  0.00     0.004 C 
ENDBRANCH  13  14
ENDBRANCH  11  13
BRANCH  11  16
ATOM     16  C   UNL     1       6.170  -1.779   0.615  1.00  0.00     0.045 C 
ATOM     17  C   UNL     1       7.638  -1.498   0.262  1.00  0.00     0.008 C 
ENDBRANCH  11  16
ENDBRANCH  10  11
ENDBRANCH   1  10
BRANCH   9  18
ATOM     18  C   UNL     1       1.817  -2.723   1.762  1.00  0.00     0.103 C 
ATOM     19  N   UNL     1       2.060  -3.726   2.287  1.00  0.00    -0.192 NA
ENDBRANCH   9  18
BRANCH   5  20
ATOM     20  C   UNL     1      -1.987   2.875  -0.864  1.00  0.00     0.297 C 
BRANCH  20  21
ATOM     21  N   UNL     1      -2.654   2.327  -2.043  1.00  0.00    -0.120 N 
ATOM     22  N   UNL     1      -2.274   2.603  -3.283  1.00  0.00     0.089 NA
ATOM     23  C   UNL     1      -3.597   1.357  -2.099  1.00  0.00     0.257 A 
ATOM     24  N   UNL     1      -2.954   1.861  -4.142  1.00  0.00    -0.147 N 
ATOM     25  C   UNL     1      -3.784   1.067  -3.441  1.00  0.00     0.175 A 
ATOM     26  H   UNL     1      -2.835   1.892  -5.179  1.00  0.00     0.342 HD
ATOM     27  C   UNL     1      -4.705   0.055  -4.045  1.00  0.00     0.100 C 
BRANCH  23  28
ATOM     28  C   UNL     1      -4.270   0.724  -0.948  1.00  0.00     0.294 A 
ATOM     29  N   UNL     1      -4.925  -0.453  -1.000  1.00  0.00    -0.103 NA
ATOM     30  O   UNL     1      -4.316   1.233   0.258  1.00  0.00    -0.417 OA
ATOM     31  N   UNL     1      -5.389  -0.680   0.219  1.00  0.00    -0.112 NA
ATOM     32  C   UNL     1      -4.999   0.368   0.968  1.00  0.00     0.220 A 
BRANCH  32  33
ATOM     33  C   UNL     1      -5.332   0.532   2.421  1.00  0.00     0.081 C 
ATOM     34  C   UNL     1      -4.250   1.244   3.236  1.00  0.00     0.017 C 
ATOM     35  C   UNL     1      -4.496  -0.249   3.440  1.00  0.00    -0.001 C 
ATOM     36  C   UNL     1      -3.374  -1.166   2.930  1.00  0.00     0.008 C 
ENDBRANCH  32  33
ENDBRANCH  23  28
ENDBRANCH  20  21
ENDBRANCH   5  20
TORSDOF 10


