MODEL 1
REMARK VINA RESULT:      -6.4      0.000      0.000
REMARK SMILES C#Cc1ccc(-n2cc(CCCCN(C)[C@@H](C)C#N)[nH+]n2)cc(N=C=O)ccc2ccccc12
REMARK SMILES IDX 11 1 10 2 9 3 7 4 21 5 8 6 20 7 6 9 3 10 4 11 34 12 5 13
REMARK SMILES IDX 33 14 29 15 32 16 28 17 30 18 22 19 31 20 27 21 23 22 2 23
REMARK SMILES IDX 1 24 24 25 25 26 26 27 12 28 13 29 14 30 15 31 16 32 17 33
REMARK SMILES IDX 18 34 19 35
REMARK H PARENT 20 8
ROOT
ATOM      1  C   UNL     1      45.197 132.527  15.526  1.00  0.00     0.010 C 
ENDROOT
BRANCH   1   2
ATOM      2  C   UNL     1      44.573 133.715  16.268  1.00  0.00     0.086 C 
BRANCH   2   3
ATOM      3  C   UNL     1      43.181 133.411  16.737  1.00  0.00     0.165 A 
ATOM      4  N   UNL     1      41.234 133.504  17.723  1.00  0.00    -0.102 N 
ATOM      5  N   UNL     1      41.325 132.361  17.058  1.00  0.00     0.093 NA
ATOM      6  C   UNL     1      42.380 134.194  17.541  1.00  0.00     0.281 A 
ATOM      7  N   UNL     1      42.499 132.287  16.452  1.00  0.00    -0.147 N 
ATOM      8  H   UNL     1      42.820 131.483  15.869  1.00  0.00     0.342 HD
BRANCH   4   9
ATOM      9  C   UNL     1      40.097 133.884  18.525  1.00  0.00     0.157 A 
ATOM     10  C   UNL     1      38.743 134.592  15.888  1.00  0.00     0.032 A 
ATOM     11  C   UNL     1      38.308 133.630  16.828  1.00  0.00     0.022 A 
ATOM     12  C   UNL     1      39.452 135.782  16.223  1.00  0.00    -0.003 A 
ATOM     13  C   UNL     1      38.811 133.476  18.129  1.00  0.00     0.056 A 
ATOM     14  C   UNL     1      40.419 136.283  15.323  1.00  0.00     0.010 A 
ATOM     15  C   UNL     1      39.301 136.447  17.480  1.00  0.00    -0.017 A 
ATOM     16  C   UNL     1      41.286 137.309  15.698  1.00  0.00     0.001 A 
ATOM     17  C   UNL     1      38.174 136.240  18.295  1.00  0.00     0.011 A 
ATOM     18  C   UNL     1      40.243 137.418  17.870  1.00  0.00     0.009 A 
ATOM     19  C   UNL     1      40.287 134.585  19.734  1.00  0.00     0.083 A 
ATOM     20  C   UNL     1      41.226 137.846  16.980  1.00  0.00     0.001 A 
ATOM     21  C   UNL     1      38.239 136.012  19.679  1.00  0.00     0.030 A 
ATOM     22  C   UNL     1      39.323 135.420  20.361  1.00  0.00     0.081 A 
BRANCH  10  23
ATOM     23  C   UNL     1      38.415 134.330  14.505  1.00  0.00    -0.070 C 
ATOM     24  C   UNL     1      38.141 134.113  13.351  1.00  0.00     0.010 C 
ENDBRANCH  10  23
BRANCH  22  25
ATOM     25  N   UNL     1      39.419 135.709  21.766  1.00  0.00    -0.168 NA
BRANCH  25  26
ATOM     26  C   UNL     1      40.421 136.271  22.317  1.00  0.00     0.240 C 
ATOM     27  O   UNL     1      41.393 136.816  22.856  1.00  0.00    -0.211 OA
ENDBRANCH  25  26
ENDBRANCH  22  25
ENDBRANCH   4   9
ENDBRANCH   2   3
ENDBRANCH   1   2
BRANCH   1  28
ATOM     28  C   UNL     1      45.527 131.366  16.474  1.00  0.00     0.016 C 
BRANCH  28  29
ATOM     29  C   UNL     1      46.701 130.534  15.944  1.00  0.00     0.085 C 
BRANCH  29  30
ATOM     30  N   UNL     1      46.202 129.380  15.159  1.00  0.00    -0.291 NA
ATOM     31  C   UNL     1      44.739 129.236  15.273  1.00  0.00     0.106 C 
BRANCH  30  32
ATOM     32  C   UNL     1      46.644 129.373  13.740  1.00  0.00     0.157 C 
ATOM     33  C   UNL     1      46.074 130.531  12.903  1.00  0.00     0.041 C 
BRANCH  32  34
ATOM     34  C   UNL     1      48.115 129.371  13.672  1.00  0.00     0.081 C 
ATOM     35  N   UNL     1      49.271 129.368  13.620  1.00  0.00    -0.197 NA
ENDBRANCH  32  34
ENDBRANCH  30  32
ENDBRANCH  29  30
ENDBRANCH  28  29
ENDBRANCH   1  28
TORSDOF 11
ENDMDL
MODEL 2
REMARK VINA RESULT:      -6.0      3.554      6.268
REMARK SMILES C#Cc1ccc(-n2cc(CCCCN(C)[C@@H](C)C#N)[nH+]n2)cc(N=C=O)ccc2ccccc12
REMARK SMILES IDX 11 1 10 2 9 3 7 4 21 5 8 6 20 7 6 9 3 10 4 11 34 12 5 13
REMARK SMILES IDX 33 14 29 15 32 16 28 17 30 18 22 19 31 20 27 21 23 22 2 23
REMARK SMILES IDX 1 24 24 25 25 26 26 27 12 28 13 29 14 30 15 31 16 32 17 33
REMARK SMILES IDX 18 34 19 35
REMARK H PARENT 20 8
ROOT
ATOM      1  C   UNL     1      45.456 130.457  18.158  1.00  0.00     0.010 C 
ENDROOT
BRANCH   1   2
ATOM      2  C   UNL     1      45.516 131.193  16.813  1.00  0.00     0.086 C 
BRANCH   2   3
ATOM      3  C   UNL     1      44.198 131.818  16.460  1.00  0.00     0.165 A 
ATOM      4  N   UNL     1      42.644 133.081  15.589  1.00  0.00    -0.102 N 
ATOM      5  N   UNL     1      42.091 132.273  16.481  1.00  0.00     0.093 NA
ATOM      6  C   UNL     1      43.968 132.822  15.543  1.00  0.00     0.281 A 
ATOM      7  N   UNL     1      43.018 131.498  17.020  1.00  0.00    -0.147 N 
ATOM      8  H   UNL     1      42.841 130.779  17.756  1.00  0.00     0.342 HD
BRANCH   4   9
ATOM      9  C   UNL     1      41.918 134.080  14.844  1.00  0.00     0.157 A 
ATOM     10  C   UNL     1      42.918 136.060  16.933  1.00  0.00     0.032 A 
ATOM     11  C   UNL     1      43.179 136.096  15.544  1.00  0.00     0.022 A 
ATOM     12  C   UNL     1      41.724 135.543  17.516  1.00  0.00    -0.003 A 
ATOM     13  C   UNL     1      42.533 135.315  14.573  1.00  0.00     0.056 A 
ATOM     14  C   UNL     1      41.795 134.899  18.771  1.00  0.00     0.010 A 
ATOM     15  C   UNL     1      40.463 135.558  16.842  1.00  0.00    -0.017 A 
ATOM     16  C   UNL     1      40.706 134.190  19.277  1.00  0.00     0.001 A 
ATOM     17  C   UNL     1      40.208 136.431  15.769  1.00  0.00     0.011 A 
ATOM     18  C   UNL     1      39.407 134.764  17.327  1.00  0.00     0.009 A 
ATOM     19  C   UNL     1      40.641 133.785  14.323  1.00  0.00     0.083 A 
ATOM     20  C   UNL     1      39.531 134.087  18.539  1.00  0.00     0.001 A 
ATOM     21  C   UNL     1      39.594 136.038  14.569  1.00  0.00     0.030 A 
ATOM     22  C   UNL     1      39.638 134.742  14.012  1.00  0.00     0.081 A 
BRANCH  10  23
ATOM     23  C   UNL     1      43.944 136.609  17.792  1.00  0.00    -0.070 C 
ATOM     24  C   UNL     1      44.798 137.067  18.508  1.00  0.00     0.010 C 
ENDBRANCH  10  23
BRANCH  22  25
ATOM     25  N   UNL     1      38.588 134.417  13.086  1.00  0.00    -0.168 NA
BRANCH  25  26
ATOM     26  C   UNL     1      38.176 135.194  12.163  1.00  0.00     0.240 C 
ATOM     27  O   UNL     1      37.780 135.947  11.266  1.00  0.00    -0.211 OA
ENDBRANCH  25  26
ENDBRANCH  22  25
ENDBRANCH   4   9
ENDBRANCH   2   3
ENDBRANCH   1   2
BRANCH   1  28
ATOM     28  C   UNL     1      45.889 131.354  19.324  1.00  0.00     0.016 C 
BRANCH  28  29
ATOM     29  C   UNL     1      45.018 131.111  20.563  1.00  0.00     0.085 C 
BRANCH  29  30
ATOM     30  N   UNL     1      44.073 132.236  20.758  1.00  0.00    -0.291 NA
ATOM     31  C   UNL     1      42.715 131.757  21.076  1.00  0.00     0.106 C 
BRANCH  30  32
ATOM     32  C   UNL     1      44.535 133.258  21.733  1.00  0.00     0.157 C 
ATOM     33  C   UNL     1      43.564 134.439  21.907  1.00  0.00     0.041 C 
BRANCH  32  34
ATOM     34  C   UNL     1      44.807 132.625  23.034  1.00  0.00     0.081 C 
ATOM     35  N   UNL     1      45.020 132.129  24.057  1.00  0.00    -0.197 NA
ENDBRANCH  32  34
ENDBRANCH  30  32
ENDBRANCH  29  30
ENDBRANCH  28  29
ENDBRANCH   1  28
TORSDOF 11
ENDMDL
MODEL 3
REMARK VINA RESULT:      -6.0      2.896      4.817
REMARK SMILES C#Cc1ccc(-n2cc(CCCCN(C)[C@@H](C)C#N)[nH+]n2)cc(N=C=O)ccc2ccccc12
REMARK SMILES IDX 11 1 10 2 9 3 7 4 21 5 8 6 20 7 6 9 3 10 4 11 34 12 5 13
REMARK SMILES IDX 33 14 29 15 32 16 28 17 30 18 22 19 31 20 27 21 23 22 2 23
REMARK SMILES IDX 1 24 24 25 25 26 26 27 12 28 13 29 14 30 15 31 16 32 17 33
REMARK SMILES IDX 18 34 19 35
REMARK H PARENT 20 8
ROOT
ATOM      1  C   UNL     1      45.942 130.387  17.527  1.00  0.00     0.010 C 
ENDROOT
BRANCH   1   2
ATOM      2  C   UNL     1      45.052 131.481  18.130  1.00  0.00     0.086 C 
BRANCH   2   3
ATOM      3  C   UNL     1      44.607 132.471  17.094  1.00  0.00     0.165 A 
ATOM      4  N   UNL     1      43.400 133.760  15.808  1.00  0.00    -0.102 N 
ATOM      5  N   UNL     1      44.672 133.860  15.446  1.00  0.00     0.093 NA
ATOM      6  C   UNL     1      43.321 132.899  16.845  1.00  0.00     0.281 A 
ATOM      7  N   UNL     1      45.420 133.086  16.216  1.00  0.00    -0.147 N 
ATOM      8  H   UNL     1      46.454 132.981  16.130  1.00  0.00     0.342 HD
BRANCH   4   9
ATOM      9  C   UNL     1      42.316 134.446  15.149  1.00  0.00     0.157 A 
ATOM     10  C   UNL     1      42.861 136.730  17.091  1.00  0.00     0.032 A 
ATOM     11  C   UNL     1      42.939 136.785  15.680  1.00  0.00     0.022 A 
ATOM     12  C   UNL     1      41.967 135.890  17.816  1.00  0.00    -0.003 A 
ATOM     13  C   UNL     1      42.471 135.798  14.798  1.00  0.00     0.056 A 
ATOM     14  C   UNL     1      42.380 135.357  19.057  1.00  0.00     0.010 A 
ATOM     15  C   UNL     1      40.700 135.476  17.298  1.00  0.00    -0.017 A 
ATOM     16  C   UNL     1      41.637 134.365  19.695  1.00  0.00     0.001 A 
ATOM     17  C   UNL     1      40.062 136.176  16.258  1.00  0.00     0.011 A 
ATOM     18  C   UNL     1      40.013 134.412  17.912  1.00  0.00     0.009 A 
ATOM     19  C   UNL     1      41.149 133.740  14.788  1.00  0.00     0.083 A 
ATOM     20  C   UNL     1      40.480 133.864  19.104  1.00  0.00     0.001 A 
ATOM     21  C   UNL     1      39.474 135.557  15.144  1.00  0.00     0.030 A 
ATOM     22  C   UNL     1      39.865 134.317  14.593  1.00  0.00     0.081 A 
BRANCH  10  23
ATOM     23  C   UNL     1      43.748 137.612  17.816  1.00  0.00    -0.070 C 
ATOM     24  C   UNL     1      44.489 138.347  18.419  1.00  0.00     0.010 C 
ENDBRANCH  10  23
BRANCH  22  25
ATOM     25  N   UNL     1      38.877 133.637  13.803  1.00  0.00    -0.168 NA
BRANCH  25  26
ATOM     26  C   UNL     1      37.770 134.151  13.437  1.00  0.00     0.240 C 
ATOM     27  O   UNL     1      36.694 134.650  13.085  1.00  0.00    -0.211 OA
ENDBRANCH  25  26
ENDBRANCH  22  25
ENDBRANCH   4   9
ENDBRANCH   2   3
ENDBRANCH   1   2
BRANCH   1  28
ATOM     28  C   UNL     1      45.118 129.226  16.956  1.00  0.00     0.016 C 
BRANCH  28  29
ATOM     29  C   UNL     1      45.741 128.688  15.662  1.00  0.00     0.085 C 
BRANCH  29  30
ATOM     30  N   UNL     1      46.303 129.800  14.859  1.00  0.00    -0.291 NA
ATOM     31  C   UNL     1      47.766 129.681  14.714  1.00  0.00     0.106 C 
BRANCH  30  32
ATOM     32  C   UNL     1      45.637 129.999  13.546  1.00  0.00     0.157 C 
ATOM     33  C   UNL     1      44.402 130.916  13.605  1.00  0.00     0.041 C 
BRANCH  32  34
ATOM     34  C   UNL     1      46.607 130.513  12.563  1.00  0.00     0.081 C 
ATOM     35  N   UNL     1      47.368 130.915  11.791  1.00  0.00    -0.197 NA
ENDBRANCH  32  34
ENDBRANCH  30  32
ENDBRANCH  29  30
ENDBRANCH  28  29
ENDBRANCH   1  28
TORSDOF 11
ENDMDL
MODEL 4
REMARK VINA RESULT:      -5.9      3.734      6.354
REMARK SMILES C#Cc1ccc(-n2cc(CCCCN(C)[C@@H](C)C#N)[nH+]n2)cc(N=C=O)ccc2ccccc12
REMARK SMILES IDX 11 1 10 2 9 3 7 4 21 5 8 6 20 7 6 9 3 10 4 11 34 12 5 13
REMARK SMILES IDX 33 14 29 15 32 16 28 17 30 18 22 19 31 20 27 21 23 22 2 23
REMARK SMILES IDX 1 24 24 25 25 26 26 27 12 28 13 29 14 30 15 31 16 32 17 33
REMARK SMILES IDX 18 34 19 35
REMARK H PARENT 20 8
ROOT
ATOM      1  C   UNL     1      45.351 130.891  18.310  1.00  0.00     0.010 C 
ENDROOT
BRANCH   1   2
ATOM      2  C   UNL     1      45.511 131.184  16.813  1.00  0.00     0.086 C 
BRANCH   2   3
ATOM      3  C   UNL     1      44.312 131.891  16.251  1.00  0.00     0.165 A 
ATOM      4  N   UNL     1      42.980 133.378  15.364  1.00  0.00    -0.102 N 
ATOM      5  N   UNL     1      42.273 132.305  15.688  1.00  0.00     0.093 NA
ATOM      6  C   UNL     1      44.269 133.153  15.699  1.00  0.00     0.281 A 
ATOM      7  N   UNL     1      43.064 131.391  16.226  1.00  0.00    -0.147 N 
ATOM      8  H   UNL     1      42.748 130.459  16.572  1.00  0.00     0.342 HD
BRANCH   4   9
ATOM      9  C   UNL     1      42.418 134.574  14.788  1.00  0.00     0.157 A 
ATOM     10  C   UNL     1      43.027 135.894  17.467  1.00  0.00     0.032 A 
ATOM     11  C   UNL     1      43.544 136.268  16.205  1.00  0.00     0.022 A 
ATOM     12  C   UNL     1      41.740 135.316  17.671  1.00  0.00    -0.003 A 
ATOM     13  C   UNL     1      43.084 135.799  14.964  1.00  0.00     0.056 A 
ATOM     14  C   UNL     1      41.567 134.371  18.706  1.00  0.00     0.010 A 
ATOM     15  C   UNL     1      40.628 135.576  16.809  1.00  0.00    -0.017 A 
ATOM     16  C   UNL     1      40.395 133.621  18.805  1.00  0.00     0.001 A 
ATOM     17  C   UNL     1      40.588 136.707  15.974  1.00  0.00     0.011 A 
ATOM     18  C   UNL     1      39.492 134.748  16.873  1.00  0.00     0.009 A 
ATOM     19  C   UNL     1      41.258 134.497  13.989  1.00  0.00     0.083 A 
ATOM     20  C   UNL     1      39.379 133.779  17.868  1.00  0.00     0.001 A 
ATOM     21  C   UNL     1      40.206 136.670  14.624  1.00  0.00     0.030 A 
ATOM     22  C   UNL     1      40.341 135.558  13.764  1.00  0.00     0.081 A 
BRANCH  10  23
ATOM     23  C   UNL     1      43.878 136.145  18.607  1.00  0.00    -0.070 C 
ATOM     24  C   UNL     1      44.588 136.353  19.559  1.00  0.00     0.010 C 
ENDBRANCH  10  23
BRANCH  22  25
ATOM     25  N   UNL     1      39.480 135.542  12.614  1.00  0.00    -0.168 NA
BRANCH  25  26
ATOM     26  C   UNL     1      38.297 136.015  12.593  1.00  0.00     0.240 C 
ATOM     27  O   UNL     1      37.149 136.476  12.571  1.00  0.00    -0.211 OA
ENDBRANCH  25  26
ENDBRANCH  22  25
ENDBRANCH   4   9
ENDBRANCH   2   3
ENDBRANCH   1   2
BRANCH   1  28
ATOM     28  C   UNL     1      44.740 132.078  19.065  1.00  0.00     0.016 C 
BRANCH  28  29
ATOM     29  C   UNL     1      44.250 131.657  20.456  1.00  0.00     0.085 C 
BRANCH  29  30
ATOM     30  N   UNL     1      45.364 131.709  21.433  1.00  0.00    -0.291 NA
ATOM     31  C   UNL     1      46.003 133.038  21.458  1.00  0.00     0.106 C 
BRANCH  30  32
ATOM     32  C   UNL     1      44.997 131.252  22.799  1.00  0.00     0.157 C 
ATOM     33  C   UNL     1      44.934 132.384  23.839  1.00  0.00     0.041 C 
BRANCH  32  34
ATOM     34  C   UNL     1      43.718 130.524  22.759  1.00  0.00     0.081 C 
ATOM     35  N   UNL     1      42.713 129.952  22.726  1.00  0.00    -0.197 NA
ENDBRANCH  32  34
ENDBRANCH  30  32
ENDBRANCH  29  30
ENDBRANCH  28  29
ENDBRANCH   1  28
TORSDOF 11
ENDMDL
MODEL 5
REMARK VINA RESULT:      -5.9      3.861      6.405
REMARK SMILES C#Cc1ccc(-n2cc(CCCCN(C)[C@@H](C)C#N)[nH+]n2)cc(N=C=O)ccc2ccccc12
REMARK SMILES IDX 11 1 10 2 9 3 7 4 21 5 8 6 20 7 6 9 3 10 4 11 34 12 5 13
REMARK SMILES IDX 33 14 29 15 32 16 28 17 30 18 22 19 31 20 27 21 23 22 2 23
REMARK SMILES IDX 1 24 24 25 25 26 26 27 12 28 13 29 14 30 15 31 16 32 17 33
REMARK SMILES IDX 18 34 19 35
REMARK H PARENT 20 8
ROOT
ATOM      1  C   UNL     1      45.259 130.886  18.863  1.00  0.00     0.010 C 
ENDROOT
BRANCH   1   2
ATOM      2  C   UNL     1      45.384 131.164  17.359  1.00  0.00     0.086 C 
BRANCH   2   3
ATOM      3  C   UNL     1      44.161 131.839  16.813  1.00  0.00     0.165 A 
ATOM      4  N   UNL     1      42.806 133.191  15.760  1.00  0.00    -0.102 N 
ATOM      5  N   UNL     1      42.090 132.333  16.473  1.00  0.00     0.093 NA
ATOM      6  C   UNL     1      44.113 132.908  15.944  1.00  0.00     0.281 A 
ATOM      7  N   UNL     1      42.894 131.504  17.118  1.00  0.00    -0.147 N 
ATOM      8  H   UNL     1      42.577 130.739  17.753  1.00  0.00     0.342 HD
BRANCH   4   9
ATOM      9  C   UNL     1      42.240 134.254  14.967  1.00  0.00     0.157 A 
ATOM     10  C   UNL     1      43.127 136.114  17.212  1.00  0.00     0.032 A 
ATOM     11  C   UNL     1      43.546 136.160  15.862  1.00  0.00     0.022 A 
ATOM     12  C   UNL     1      41.842 135.671  17.641  1.00  0.00    -0.003 A 
ATOM     13  C   UNL     1      42.964 135.448  14.803  1.00  0.00     0.056 A 
ATOM     14  C   UNL     1      41.726 134.998  18.878  1.00  0.00     0.010 A 
ATOM     15  C   UNL     1      40.671 135.790  16.830  1.00  0.00    -0.017 A 
ATOM     16  C   UNL     1      40.540 134.358  19.237  1.00  0.00     0.001 A 
ATOM     17  C   UNL     1      40.600 136.700  15.761  1.00  0.00     0.011 A 
ATOM     18  C   UNL     1      39.514 135.062  17.171  1.00  0.00     0.009 A 
ATOM     19  C   UNL     1      41.013 134.061  14.298  1.00  0.00     0.083 A 
ATOM     20  C   UNL     1      39.452 134.354  18.369  1.00  0.00     0.001 A 
ATOM     21  C   UNL     1      40.101 136.377  14.489  1.00  0.00     0.030 A 
ATOM     22  C   UNL     1      40.120 135.093  13.903  1.00  0.00     0.081 A 
BRANCH  10  23
ATOM     23  C   UNL     1      44.083 136.571  18.195  1.00  0.00    -0.070 C 
ATOM     24  C   UNL     1      44.880 136.953  19.015  1.00  0.00     0.010 C 
ENDBRANCH  10  23
BRANCH  22  25
ATOM     25  N   UNL     1      39.162 134.863  12.857  1.00  0.00    -0.168 NA
BRANCH  25  26
ATOM     26  C   UNL     1      38.849 135.720  11.967  1.00  0.00     0.240 C 
ATOM     27  O   UNL     1      38.542 136.551  11.104  1.00  0.00    -0.211 OA
ENDBRANCH  25  26
ENDBRANCH  22  25
ENDBRANCH   4   9
ENDBRANCH   2   3
ENDBRANCH   1   2
BRANCH   1  28
ATOM     28  C   UNL     1      45.019 132.171  19.666  1.00  0.00     0.016 C 
BRANCH  28  29
ATOM     29  C   UNL     1      45.754 132.128  21.012  1.00  0.00     0.085 C 
BRANCH  29  30
ATOM     30  N   UNL     1      45.036 132.946  22.018  1.00  0.00    -0.291 NA
ATOM     31  C   UNL     1      44.360 134.100  21.399  1.00  0.00     0.106 C 
BRANCH  30  32
ATOM     32  C   UNL     1      44.112 132.170  22.885  1.00  0.00     0.157 C 
ATOM     33  C   UNL     1      42.765 131.837  22.220  1.00  0.00     0.041 C 
BRANCH  32  34
ATOM     34  C   UNL     1      44.771 130.936  23.346  1.00  0.00     0.081 C 
ATOM     35  N   UNL     1      45.288 129.967  23.709  1.00  0.00    -0.197 NA
ENDBRANCH  32  34
ENDBRANCH  30  32
ENDBRANCH  29  30
ENDBRANCH  28  29
ENDBRANCH   1  28
TORSDOF 11
ENDMDL
MODEL 6
REMARK VINA RESULT:      -5.5      3.541      6.544
REMARK SMILES C#Cc1ccc(-n2cc(CCCCN(C)[C@@H](C)C#N)[nH+]n2)cc(N=C=O)ccc2ccccc12
REMARK SMILES IDX 11 1 10 2 9 3 7 4 21 5 8 6 20 7 6 9 3 10 4 11 34 12 5 13
REMARK SMILES IDX 33 14 29 15 32 16 28 17 30 18 22 19 31 20 27 21 23 22 2 23
REMARK SMILES IDX 1 24 24 25 25 26 26 27 12 28 13 29 14 30 15 31 16 32 17 33
REMARK SMILES IDX 18 34 19 35
REMARK H PARENT 20 8
ROOT
ATOM      1  C   UNL     1      45.559 131.470  19.354  1.00  0.00     0.010 C 
ENDROOT
BRANCH   1   2
ATOM      2  C   UNL     1      44.712 130.964  18.180  1.00  0.00     0.086 C 
BRANCH   2   3
ATOM      3  C   UNL     1      44.439 132.049  17.180  1.00  0.00     0.165 A 
ATOM      4  N   UNL     1      43.457 133.526  15.905  1.00  0.00    -0.102 N 
ATOM      5  N   UNL     1      44.752 133.509  15.625  1.00  0.00     0.093 NA
ATOM      6  C   UNL     1      43.222 132.624  16.882  1.00  0.00     0.281 A 
ATOM      7  N   UNL     1      45.366 132.621  16.390  1.00  0.00    -0.147 N 
ATOM      8  H   UNL     1      46.387 132.412  16.359  1.00  0.00     0.342 HD
BRANCH   4   9
ATOM      9  C   UNL     1      42.493 134.356  15.226  1.00  0.00     0.157 A 
ATOM     10  C   UNL     1      43.263 136.520  17.227  1.00  0.00     0.032 A 
ATOM     11  C   UNL     1      43.395 136.586  15.821  1.00  0.00     0.022 A 
ATOM     12  C   UNL     1      42.244 135.792  17.907  1.00  0.00    -0.003 A 
ATOM     13  C   UNL     1      42.834 135.682  14.906  1.00  0.00     0.056 A 
ATOM     14  C   UNL     1      42.542 135.192  19.151  1.00  0.00     0.010 A 
ATOM     15  C   UNL     1      40.952 135.555  17.342  1.00  0.00    -0.017 A 
ATOM     16  C   UNL     1      41.655 134.295  19.745  1.00  0.00     0.001 A 
ATOM     17  C   UNL     1      40.445 136.347  16.296  1.00  0.00     0.011 A 
ATOM     18  C   UNL     1      40.113 134.580  17.913  1.00  0.00     0.009 A 
ATOM     19  C   UNL     1      41.258 133.813  14.814  1.00  0.00     0.083 A 
ATOM     20  C   UNL     1      40.464 133.957  19.109  1.00  0.00     0.001 A 
ATOM     21  C   UNL     1      39.820 135.827  15.152  1.00  0.00     0.030 A 
ATOM     22  C   UNL     1      40.067 134.555  14.590  1.00  0.00     0.081 A 
BRANCH  10  23
ATOM     23  C   UNL     1      44.231 137.268  17.997  1.00  0.00    -0.070 C 
ATOM     24  C   UNL     1      45.038 137.893  18.638  1.00  0.00     0.010 C 
ENDBRANCH  10  23
BRANCH  22  25
ATOM     25  N   UNL     1      39.026 134.021  13.756  1.00  0.00    -0.168 NA
BRANCH  25  26
ATOM     26  C   UNL     1      37.795 134.337  13.851  1.00  0.00     0.240 C 
ATOM     27  O   UNL     1      36.600 134.646  13.943  1.00  0.00    -0.211 OA
ENDBRANCH  25  26
ENDBRANCH  22  25
ENDBRANCH   4   9
ENDBRANCH   2   3
ENDBRANCH   1   2
BRANCH   1  28
ATOM     28  C   UNL     1      45.015 130.988  20.705  1.00  0.00     0.016 C 
BRANCH  28  29
ATOM     29  C   UNL     1      43.528 131.334  20.859  1.00  0.00     0.085 C 
BRANCH  29  30
ATOM     30  N   UNL     1      43.124 131.254  22.283  1.00  0.00    -0.291 NA
ATOM     31  C   UNL     1      44.229 130.778  23.136  1.00  0.00     0.106 C 
BRANCH  30  32
ATOM     32  C   UNL     1      42.521 132.503  22.815  1.00  0.00     0.157 C 
ATOM     33  C   UNL     1      41.853 132.336  24.191  1.00  0.00     0.041 C 
BRANCH  32  34
ATOM     34  C   UNL     1      43.535 133.570  22.866  1.00  0.00     0.081 C 
ATOM     35  N   UNL     1      44.331 134.408  22.905  1.00  0.00    -0.197 NA
ENDBRANCH  32  34
ENDBRANCH  30  32
ENDBRANCH  29  30
ENDBRANCH  28  29
ENDBRANCH   1  28
TORSDOF 11
ENDMDL
MODEL 7
REMARK VINA RESULT:      -5.5      3.597      6.369
REMARK SMILES C#Cc1ccc(-n2cc(CCCCN(C)[C@@H](C)C#N)[nH+]n2)cc(N=C=O)ccc2ccccc12
REMARK SMILES IDX 11 1 10 2 9 3 7 4 21 5 8 6 20 7 6 9 3 10 4 11 34 12 5 13
REMARK SMILES IDX 33 14 29 15 32 16 28 17 30 18 22 19 31 20 27 21 23 22 2 23
REMARK SMILES IDX 1 24 24 25 25 26 26 27 12 28 13 29 14 30 15 31 16 32 17 33
REMARK SMILES IDX 18 34 19 35
REMARK H PARENT 20 8
ROOT
ATOM      1  C   UNL     1      44.791 132.011  18.353  1.00  0.00     0.010 C 
ENDROOT
BRANCH   1   2
ATOM      2  C   UNL     1      44.083 131.557  17.071  1.00  0.00     0.086 C 
BRANCH   2   3
ATOM      3  C   UNL     1      43.572 132.721  16.273  1.00  0.00     0.165 A 
ATOM      4  N   UNL     1      42.291 134.117  15.187  1.00  0.00    -0.102 N 
ATOM      5  N   UNL     1      43.549 134.521  15.087  1.00  0.00     0.093 NA
ATOM      6  C   UNL     1      42.265 132.990  15.931  1.00  0.00     0.281 A 
ATOM      7  N   UNL     1      44.342 133.687  15.741  1.00  0.00    -0.147 N 
ATOM      8  H   UNL     1      45.379 133.780  15.808  1.00  0.00     0.342 HD
BRANCH   4   9
ATOM      9  C   UNL     1      41.176 134.781  14.559  1.00  0.00     0.157 A 
ATOM     10  C   UNL     1      41.365 136.798  16.835  1.00  0.00     0.032 A 
ATOM     11  C   UNL     1      41.513 137.067  15.455  1.00  0.00     0.022 A 
ATOM     12  C   UNL     1      40.530 135.775  17.371  1.00  0.00    -0.003 A 
ATOM     13  C   UNL     1      41.203 136.179  14.413  1.00  0.00     0.056 A 
ATOM     14  C   UNL     1      40.930 135.109  18.551  1.00  0.00     0.010 A 
ATOM     15  C   UNL     1      39.344 135.319  16.714  1.00  0.00    -0.017 A 
ATOM     16  C   UNL     1      40.265 133.965  18.990  1.00  0.00     0.001 A 
ATOM     17  C   UNL     1      38.691 136.097  15.742  1.00  0.00     0.011 A 
ATOM     18  C   UNL     1      38.744 134.113  17.124  1.00  0.00     0.009 A 
ATOM     19  C   UNL     1      40.113 134.024  14.022  1.00  0.00     0.083 A 
ATOM     20  C   UNL     1      39.203 133.444  18.256  1.00  0.00     0.001 A 
ATOM     21  C   UNL     1      38.235 135.594  14.514  1.00  0.00     0.030 A 
ATOM     22  C   UNL     1      38.787 134.494  13.822  1.00  0.00     0.081 A 
BRANCH  10  23
ATOM     23  C   UNL     1      42.111 137.647  17.737  1.00  0.00    -0.070 C 
ATOM     24  C   UNL     1      42.735 138.354  18.488  1.00  0.00     0.010 C 
ENDBRANCH  10  23
BRANCH  22  25
ATOM     25  N   UNL     1      37.922 133.842  12.878  1.00  0.00    -0.168 NA
BRANCH  25  26
ATOM     26  C   UNL     1      37.155 134.454  12.064  1.00  0.00     0.240 C 
ATOM     27  O   UNL     1      36.413 135.050  11.274  1.00  0.00    -0.211 OA
ENDBRANCH  25  26
ENDBRANCH  22  25
ENDBRANCH   4   9
ENDBRANCH   2   3
ENDBRANCH   1   2
BRANCH   1  28
ATOM     28  C   UNL     1      43.901 131.843  19.591  1.00  0.00     0.016 C 
BRANCH  28  29
ATOM     29  C   UNL     1      43.703 133.180  20.317  1.00  0.00     0.085 C 
BRANCH  29  30
ATOM     30  N   UNL     1      45.001 133.877  20.478  1.00  0.00    -0.291 NA
ATOM     31  C   UNL     1      44.840 135.343  20.438  1.00  0.00     0.106 C 
BRANCH  30  32
ATOM     32  C   UNL     1      45.781 133.444  21.665  1.00  0.00     0.157 C 
ATOM     33  C   UNL     1      47.180 134.078  21.758  1.00  0.00     0.041 C 
BRANCH  32  34
ATOM     34  C   UNL     1      45.017 133.713  22.895  1.00  0.00     0.081 C 
ATOM     35  N   UNL     1      44.417 133.927  23.860  1.00  0.00    -0.197 NA
ENDBRANCH  32  34
ENDBRANCH  30  32
ENDBRANCH  29  30
ENDBRANCH  28  29
ENDBRANCH   1  28
TORSDOF 11
ENDMDL
MODEL 8
REMARK VINA RESULT:      -5.4      3.113      4.087
REMARK SMILES C#Cc1ccc(-n2cc(CCCCN(C)[C@@H](C)C#N)[nH+]n2)cc(N=C=O)ccc2ccccc12
REMARK SMILES IDX 11 1 10 2 9 3 7 4 21 5 8 6 20 7 6 9 3 10 4 11 34 12 5 13
REMARK SMILES IDX 33 14 29 15 32 16 28 17 30 18 22 19 31 20 27 21 23 22 2 23
REMARK SMILES IDX 1 24 24 25 25 26 26 27 12 28 13 29 14 30 15 31 16 32 17 33
REMARK SMILES IDX 18 34 19 35
REMARK H PARENT 20 8
ROOT
ATOM      1  C   UNL     1      44.583 133.401  16.466  1.00  0.00     0.010 C 
ENDROOT
BRANCH   1   2
ATOM      2  C   UNL     1      43.990 133.995  15.182  1.00  0.00     0.086 C 
BRANCH   2   3
ATOM      3  C   UNL     1      42.497 133.846  15.137  1.00  0.00     0.165 A 
ATOM      4  N   UNL     1      40.362 133.980  15.579  1.00  0.00    -0.102 N 
ATOM      5  N   UNL     1      40.537 133.176  14.539  1.00  0.00     0.093 NA
ATOM      6  C   UNL     1      41.573 134.425  15.979  1.00  0.00     0.281 A 
ATOM      7  N   UNL     1      41.826 133.083  14.255  1.00  0.00    -0.147 N 
ATOM      8  H   UNL     1      42.226 132.505  13.484  1.00  0.00     0.342 HD
BRANCH   4   9
ATOM      9  C   UNL     1      39.080 134.270  16.171  1.00  0.00     0.157 A 
ATOM     10  C   UNL     1      38.586 136.024  13.729  1.00  0.00     0.032 A 
ATOM     11  C   UNL     1      37.828 134.899  14.127  1.00  0.00     0.022 A 
ATOM     12  C   UNL     1      39.264 136.897  14.628  1.00  0.00    -0.003 A 
ATOM     13  C   UNL     1      37.929 134.243  15.363  1.00  0.00     0.056 A 
ATOM     14  C   UNL     1      40.482 137.488  14.224  1.00  0.00     0.010 A 
ATOM     15  C   UNL     1      38.818 137.130  15.966  1.00  0.00    -0.017 A 
ATOM     16  C   UNL     1      41.287 138.168  15.137  1.00  0.00     0.001 A 
ATOM     17  C   UNL     1      37.494 136.868  16.362  1.00  0.00     0.011 A 
ATOM     18  C   UNL     1      39.686 137.741  16.891  1.00  0.00     0.009 A 
ATOM     19  C   UNL     1      38.977 134.493  17.560  1.00  0.00     0.083 A 
ATOM     20  C   UNL     1      40.911 138.258  16.475  1.00  0.00     0.001 A 
ATOM     21  C   UNL     1      37.148 136.193  17.542  1.00  0.00     0.030 A 
ATOM     22  C   UNL     1      37.945 135.232  18.200  1.00  0.00     0.081 A 
BRANCH  10  23
ATOM     23  C   UNL     1      38.641 136.289  12.309  1.00  0.00    -0.070 C 
ATOM     24  C   UNL     1      38.686 136.509  11.124  1.00  0.00     0.010 C 
ENDBRANCH  10  23
BRANCH  22  25
ATOM     25  N   UNL     1      37.664 135.025  19.594  1.00  0.00    -0.168 NA
BRANCH  25  26
ATOM     26  C   UNL     1      37.011 134.033  20.057  1.00  0.00     0.240 C 
ATOM     27  O   UNL     1      36.376 133.073  20.508  1.00  0.00    -0.211 OA
ENDBRANCH  25  26
ENDBRANCH  22  25
ENDBRANCH   4   9
ENDBRANCH   2   3
ENDBRANCH   1   2
BRANCH   1  28
ATOM     28  C   UNL     1      44.129 131.954  16.693  1.00  0.00     0.016 C 
BRANCH  28  29
ATOM     29  C   UNL     1      44.345 131.527  18.150  1.00  0.00     0.085 C 
BRANCH  29  30
ATOM     30  N   UNL     1      43.565 132.395  19.064  1.00  0.00    -0.291 NA
ATOM     31  C   UNL     1      42.136 132.031  19.072  1.00  0.00     0.106 C 
BRANCH  30  32
ATOM     32  C   UNL     1      44.116 132.480  20.441  1.00  0.00     0.157 C 
ATOM     33  C   UNL     1      45.123 131.367  20.779  1.00  0.00     0.041 C 
BRANCH  32  34
ATOM     34  C   UNL     1      44.726 133.803  20.658  1.00  0.00     0.081 C 
ATOM     35  N   UNL     1      45.205 134.842  20.827  1.00  0.00    -0.197 NA
ENDBRANCH  32  34
ENDBRANCH  30  32
ENDBRANCH  29  30
ENDBRANCH  28  29
ENDBRANCH   1  28
TORSDOF 11
ENDMDL
MODEL 9
REMARK VINA RESULT:      -5.4      2.443      3.687
REMARK SMILES C#Cc1ccc(-n2cc(CCCCN(C)[C@@H](C)C#N)[nH+]n2)cc(N=C=O)ccc2ccccc12
REMARK SMILES IDX 11 1 10 2 9 3 7 4 21 5 8 6 20 7 6 9 3 10 4 11 34 12 5 13
REMARK SMILES IDX 33 14 29 15 32 16 28 17 30 18 22 19 31 20 27 21 23 22 2 23
REMARK SMILES IDX 1 24 24 25 25 26 26 27 12 28 13 29 14 30 15 31 16 32 17 33
REMARK SMILES IDX 18 34 19 35
REMARK H PARENT 20 8
ROOT
ATOM      1  C   UNL     1      42.933 132.371  14.612  1.00  0.00     0.010 C 
ENDROOT
BRANCH   1   2
ATOM      2  C   UNL     1      42.578 133.825  14.950  1.00  0.00     0.086 C 
BRANCH   2   3
ATOM      3  C   UNL     1      41.748 133.922  16.196  1.00  0.00     0.165 A 
ATOM      4  N   UNL     1      41.096 134.013  18.279  1.00  0.00    -0.102 N 
ATOM      5  N   UNL     1      40.029 134.018  17.493  1.00  0.00     0.093 NA
ATOM      6  C   UNL     1      42.197 133.957  17.499  1.00  0.00     0.281 A 
ATOM      7  N   UNL     1      40.404 133.965  16.225  1.00  0.00    -0.147 N 
ATOM      8  H   UNL     1      39.752 133.950  15.411  1.00  0.00     0.342 HD
BRANCH   4   9
ATOM      9  C   UNL     1      41.040 134.025  19.720  1.00  0.00     0.157 A 
ATOM     10  C   UNL     1      40.497 137.012  19.462  1.00  0.00     0.032 A 
ATOM     11  C   UNL     1      39.647 136.048  20.049  1.00  0.00     0.022 A 
ATOM     12  C   UNL     1      41.920 136.936  19.459  1.00  0.00    -0.003 A 
ATOM     13  C   UNL     1      40.004 134.727  20.360  1.00  0.00     0.056 A 
ATOM     14  C   UNL     1      42.634 137.445  18.351  1.00  0.00     0.010 A 
ATOM     15  C   UNL     1      42.663 136.276  20.488  1.00  0.00    -0.017 A 
ATOM     16  C   UNL     1      43.998 137.200  18.202  1.00  0.00     0.001 A 
ATOM     17  C   UNL     1      42.110 136.027  21.757  1.00  0.00     0.011 A 
ATOM     18  C   UNL     1      44.019 135.964  20.273  1.00  0.00     0.009 A 
ATOM     19  C   UNL     1      41.967 133.271  20.470  1.00  0.00     0.083 A 
ATOM     20  C   UNL     1      44.680 136.426  19.137  1.00  0.00     0.001 A 
ATOM     21  C   UNL     1      42.212 134.800  22.428  1.00  0.00     0.030 A 
ATOM     22  C   UNL     1      42.350 133.537  21.812  1.00  0.00     0.081 A 
BRANCH  10  23
ATOM     23  C   UNL     1      39.849 138.149  18.847  1.00  0.00    -0.070 C 
ATOM     24  C   UNL     1      39.307 139.095  18.334  1.00  0.00     0.010 C 
ENDBRANCH  10  23
BRANCH  22  25
ATOM     25  N   UNL     1      42.915 132.496  22.625  1.00  0.00    -0.168 NA
BRANCH  25  26
ATOM     26  C   UNL     1      43.889 132.661  23.431  1.00  0.00     0.240 C 
ATOM     27  O   UNL     1      44.835 132.822  24.211  1.00  0.00    -0.211 OA
ENDBRANCH  25  26
ENDBRANCH  22  25
ENDBRANCH   4   9
ENDBRANCH   2   3
ENDBRANCH   1   2
BRANCH   1  28
ATOM     28  C   UNL     1      43.817 131.730  15.689  1.00  0.00     0.016 C 
BRANCH  28  29
ATOM     29  C   UNL     1      45.273 132.193  15.558  1.00  0.00     0.085 C 
BRANCH  29  30
ATOM     30  N   UNL     1      46.183 131.225  16.216  1.00  0.00    -0.291 NA
ATOM     31  C   UNL     1      45.574 130.640  17.425  1.00  0.00     0.106 C 
BRANCH  30  32
ATOM     32  C   UNL     1      46.714 130.175  15.308  1.00  0.00     0.157 C 
ATOM     33  C   UNL     1      45.684 129.095  14.934  1.00  0.00     0.041 C 
BRANCH  32  34
ATOM     34  C   UNL     1      47.267 130.795  14.092  1.00  0.00     0.081 C 
ATOM     35  N   UNL     1      47.701 131.283  13.138  1.00  0.00    -0.197 NA
ENDBRANCH  32  34
ENDBRANCH  30  32
ENDBRANCH  29  30
ENDBRANCH  28  29
ENDBRANCH   1  28
TORSDOF 11
ENDMDL


