REMARK SMILES C[N+]1(C)Cc2cc3ccc(-n4cc(CCn5cc(CN)cn5)n[nH+]4)cc3cc2C1
REMARK SMILES IDX 15 1 14 2 13 3 11 4 12 5 24 6 23 7 10 9 2 10 4 11 29 12 5 13
REMARK SMILES IDX 28 14 6 15 27 16 7 17 26 18 8 19 25 20 9 21 1 22 3 23 16 24
REMARK SMILES IDX 17 25 22 26 18 27 21 28 19 29 20 30
REMARK H PARENT 24 8 20 31 20 32
ROOT
ATOM      1  C   UNL     1      -1.346  -0.169  -5.528  1.00  0.00     0.151 C 
ENDROOT
BRANCH   1   2
ATOM      2  C   UNL     1      -2.131  -1.409  -5.086  1.00  0.00     0.088 C 
BRANCH   2   3
ATOM      3  C   UNL     1      -1.674  -1.896  -3.745  1.00  0.00     0.134 A 
ATOM      4  N   UNL     1      -1.176  -1.984  -1.622  1.00  0.00    -0.104 N 
ATOM      5  C   UNL     1      -1.856  -1.262  -2.533  1.00  0.00     0.190 A 
ATOM      6  N   UNL     1      -0.611  -3.001  -2.259  1.00  0.00    -0.012 N 
ATOM      7  N   UNL     1      -0.884  -2.971  -3.554  1.00  0.00     0.020 NA
ATOM      8  H   UNL     1       0.013  -3.712  -1.819  1.00  0.00     0.527 HD
BRANCH   4   9
ATOM      9  C   UNL     1      -1.011  -1.689  -0.223  1.00  0.00     0.107 A 
ATOM     10  N   UNL     1      -0.393   2.511   5.545  1.00  0.00    -0.321 N 
ATOM     11  C   UNL     1      -0.271   1.022   5.660  1.00  0.00     0.301 C 
ATOM     12  C   UNL     1      -0.648   2.816   4.099  1.00  0.00     0.301 C 
ATOM     13  C   UNL     1      -0.462   0.495   4.292  1.00  0.00     0.016 A 
ATOM     14  C   UNL     1      -0.669   1.509   3.409  1.00  0.00     0.016 A 
ATOM     15  C   UNL     1      -0.440  -0.839   3.881  1.00  0.00     0.018 A 
ATOM     16  C   UNL     1      -0.868   1.266   2.049  1.00  0.00     0.019 A 
ATOM     17  C   UNL     1      -0.638  -1.128   2.517  1.00  0.00    -0.018 A 
ATOM     18  C   UNL     1      -0.853  -0.067   1.593  1.00  0.00    -0.016 A 
ATOM     19  C   UNL     1      -0.621  -2.451   2.058  1.00  0.00     0.011 A 
ATOM     20  C   UNL     1      -1.040  -0.358   0.234  1.00  0.00     0.041 A 
ATOM     21  C   UNL     1      -0.804  -2.728   0.701  1.00  0.00     0.033 A 
ATOM     22  C   UNL     1      -1.516   3.000   6.379  1.00  0.00     0.334 C 
ATOM     23  C   UNL     1       0.858   3.166   5.995  1.00  0.00     0.334 C 
ENDBRANCH   4   9
ENDBRANCH   2   3
ENDBRANCH   1   2
BRANCH   1  24
ATOM     24  N   UNL     1       0.087  -0.447  -5.575  1.00  0.00    -0.272 N 
ATOM     25  C   UNL     1       0.971  -0.200  -4.590  1.00  0.00     0.113 A 
ATOM     26  N   UNL     1       0.686  -1.073  -6.578  1.00  0.00    -0.181 NA
ATOM     27  C   UNL     1       2.193  -0.696  -4.987  1.00  0.00     0.004 A 
ATOM     28  C   UNL     1       1.983  -1.225  -6.246  1.00  0.00     0.140 A 
BRANCH  27  29
ATOM     29  C   UNL     1       3.485  -0.618  -4.239  1.00  0.00     0.116 C 
BRANCH  29  30
ATOM     30  N   UNL     1       4.140   0.656  -4.509  1.00  0.00    -0.326 NA
ATOM     31  H   UNL     1       4.995   0.707  -3.910  1.00  0.00     0.119 HD
ATOM     32  H   UNL     1       4.474   0.647  -5.501  1.00  0.00     0.119 HD
ENDBRANCH  29  30
ENDBRANCH  27  29
ENDBRANCH   1  24
TORSDOF 6


