MODEL 1
REMARK VINA RESULT:      -6.0      0.000      0.000
REMARK SMILES CC(=O)n1ccnc1[C@H](N=C=O)C(=O)Oc1cccc2c(Cl)c(Cl)c(Cl)c(N=[N+]=[N-])c12
REMARK SMILES IDX 13 1 14 2 9 3 8 4 6 5 7 6 5 7 4 8 2 9 3 10 1 11 10 12 11 13
REMARK SMILES IDX 12 14 15 15 16 16 17 17 31 18 18 19 27 20 20 21 19 22 25 23
REMARK SMILES IDX 21 24 23 25 26 26 22 27 24 28 28 29 29 30 30 31
REMARK H PARENT
ROOT
ATOM      1  C   UNL     1      44.817 132.889  16.125  1.00  0.00     0.345 C 
ATOM      2  O   UNL     1      45.855 133.077  15.431  1.00  0.00    -0.249 OA
ENDROOT
BRANCH   1   3
ATOM      3  C   UNL     1      44.497 131.524  16.671  1.00  0.00     0.295 C 
BRANCH   3   4
ATOM      4  C   UNL     1      44.402 131.608  18.172  1.00  0.00     0.152 A 
ATOM      5  C   UNL     1      44.968 131.421  20.221  1.00  0.00     0.131 A 
ATOM      6  N   UNL     1      45.453 131.314  18.969  1.00  0.00    -0.238 NA
ATOM      7  C   UNL     1      43.638 131.765  20.172  1.00  0.00     0.116 A 
ATOM      8  N   UNL     1      43.283 131.896  18.882  1.00  0.00    -0.272 N 
BRANCH   8   9
ATOM      9  C   UNL     1      41.964 132.245  18.431  1.00  0.00     0.228 C 
ATOM     10  O   UNL     1      41.420 131.562  17.523  1.00  0.00    -0.274 OA
ATOM     11  C   UNL     1      41.185 133.358  19.060  1.00  0.00     0.115 C 
ENDBRANCH   8   9
ENDBRANCH   3   4
BRANCH   3  12
ATOM     12  N   UNL     1      45.527 130.548  16.315  1.00  0.00    -0.182 NA
BRANCH  12  13
ATOM     13  C   UNL     1      45.237 129.411  15.819  1.00  0.00     0.236 C 
ATOM     14  O   UNL     1      44.955 128.307  15.336  1.00  0.00    -0.211 OA
ENDBRANCH  12  13
ENDBRANCH   3  12
ENDBRANCH   1   3
BRANCH   1  15
ATOM     15  O   UNL     1      43.995 133.964  16.484  1.00  0.00    -0.424 OA
BRANCH  15  16
ATOM     16  C   UNL     1      42.906 134.437  15.739  1.00  0.00     0.139 A 
ATOM     17  C   UNL     1      42.524 133.762  14.570  1.00  0.00     0.048 A 
ATOM     18  C   UNL     1      42.154 135.563  16.187  1.00  0.00     0.037 A 
ATOM     19  C   UNL     1      41.424 134.181  13.836  1.00  0.00     0.005 A 
ATOM     20  C   UNL     1      42.503 136.283  17.365  1.00  0.00     0.069 A 
ATOM     21  C   UNL     1      41.018 135.976  15.430  1.00  0.00     0.006 A 
ATOM     22  C   UNL     1      40.675 135.273  14.257  1.00  0.00     0.010 A 
ATOM     23  C   UNL     1      41.741 137.412  17.748  1.00  0.00     0.071 A 
ATOM     24  C   UNL     1      40.245 137.079  15.856  1.00  0.00     0.069 A 
ATOM     25  C   UNL     1      40.613 137.792  17.006  1.00  0.00     0.079 A 
ATOM     26  Cl  UNL     1      42.241 138.433  19.104  1.00  0.00    -0.082 Cl
ATOM     27  Cl  UNL     1      38.814 137.600  14.951  1.00  0.00    -0.082 Cl
ATOM     28  Cl  UNL     1      39.658 139.191  17.513  1.00  0.00    -0.081 Cl
BRANCH  20  29
ATOM     29  N   UNL     1      43.662 135.889  18.123  1.00  0.00    -0.058 NA
BRANCH  29  30
ATOM     30  N   UNL     1      44.590 136.658  18.378  1.00  0.00     0.005 N 
ATOM     31  N   UNL     1      45.509 137.433  18.637  1.00  0.00    -0.003 NA
ENDBRANCH  29  30
ENDBRANCH  20  29
ENDBRANCH  15  16
ENDBRANCH   1  15
TORSDOF 9
ENDMDL
MODEL 2
REMARK VINA RESULT:      -5.9      2.643      4.976
REMARK SMILES CC(=O)n1ccnc1[C@H](N=C=O)C(=O)Oc1cccc2c(Cl)c(Cl)c(Cl)c(N=[N+]=[N-])c12
REMARK SMILES IDX 13 1 14 2 9 3 8 4 6 5 7 6 5 7 4 8 2 9 3 10 1 11 10 12 11 13
REMARK SMILES IDX 12 14 15 15 16 16 17 17 31 18 18 19 27 20 20 21 19 22 25 23
REMARK SMILES IDX 21 24 23 25 26 26 22 27 24 28 28 29 29 30 30 31
REMARK H PARENT
ROOT
ATOM      1  C   UNL     1      44.434 132.784  15.593  1.00  0.00     0.345 C 
ATOM      2  O   UNL     1      45.615 133.211  15.463  1.00  0.00    -0.249 OA
ENDROOT
BRANCH   1   3
ATOM      3  C   UNL     1      43.967 131.577  14.823  1.00  0.00     0.295 C 
BRANCH   3   4
ATOM      4  C   UNL     1      45.165 130.877  14.237  1.00  0.00     0.152 A 
ATOM      5  C   UNL     1      46.685 130.362  12.831  1.00  0.00     0.131 A 
ATOM      6  N   UNL     1      45.705 131.258  13.058  1.00  0.00    -0.238 NA
ATOM      7  C   UNL     1      46.723 129.450  13.859  1.00  0.00     0.116 A 
ATOM      8  N   UNL     1      45.775 129.780  14.752  1.00  0.00    -0.272 N 
BRANCH   8   9
ATOM      9  C   UNL     1      45.507 129.055  15.963  1.00  0.00     0.228 C 
ATOM     10  O   UNL     1      45.055 127.880  15.894  1.00  0.00    -0.274 OA
ATOM     11  C   UNL     1      45.817 129.629  17.310  1.00  0.00     0.115 C 
ENDBRANCH   8   9
ENDBRANCH   3   4
BRANCH   3  12
ATOM     12  N   UNL     1      43.058 131.950  13.740  1.00  0.00    -0.182 NA
BRANCH  12  13
ATOM     13  C   UNL     1      41.924 132.484  13.963  1.00  0.00     0.236 C 
ATOM     14  O   UNL     1      40.822 133.003  14.180  1.00  0.00    -0.211 OA
ENDBRANCH  12  13
ENDBRANCH   3  12
ENDBRANCH   1   3
BRANCH   1  15
ATOM     15  O   UNL     1      43.565 133.361  16.526  1.00  0.00    -0.424 OA
BRANCH  15  16
ATOM     16  C   UNL     1      43.905 133.717  17.839  1.00  0.00     0.139 A 
ATOM     17  C   UNL     1      44.227 132.714  18.766  1.00  0.00     0.048 A 
ATOM     18  C   UNL     1      43.978 135.089  18.222  1.00  0.00     0.037 A 
ATOM     19  C   UNL     1      44.610 133.040  20.059  1.00  0.00     0.005 A 
ATOM     20  C   UNL     1      43.660 136.143  17.319  1.00  0.00     0.069 A 
ATOM     21  C   UNL     1      44.385 135.410  19.551  1.00  0.00     0.006 A 
ATOM     22  C   UNL     1      44.692 134.370  20.452  1.00  0.00     0.010 A 
ATOM     23  C   UNL     1      43.719 137.486  17.761  1.00  0.00     0.071 A 
ATOM     24  C   UNL     1      44.481 136.760  19.956  1.00  0.00     0.069 A 
ATOM     25  C   UNL     1      44.144 137.787  19.063  1.00  0.00     0.079 A 
ATOM     26  Cl  UNL     1      43.168 138.812  16.726  1.00  0.00    -0.082 Cl
ATOM     27  Cl  UNL     1      45.007 137.192  21.592  1.00  0.00    -0.082 Cl
ATOM     28  Cl  UNL     1      44.235 139.473  19.590  1.00  0.00    -0.081 Cl
BRANCH  20  29
ATOM     29  N   UNL     1      43.225 135.828  15.984  1.00  0.00    -0.058 NA
BRANCH  29  30
ATOM     30  N   UNL     1      42.073 136.020  15.590  1.00  0.00     0.005 N 
ATOM     31  N   UNL     1      40.926 136.222  15.196  1.00  0.00    -0.003 NA
ENDBRANCH  29  30
ENDBRANCH  20  29
ENDBRANCH  15  16
ENDBRANCH   1  15
TORSDOF 9
ENDMDL
MODEL 3
REMARK VINA RESULT:      -5.8      3.077      4.700
REMARK SMILES CC(=O)n1ccnc1[C@H](N=C=O)C(=O)Oc1cccc2c(Cl)c(Cl)c(Cl)c(N=[N+]=[N-])c12
REMARK SMILES IDX 13 1 14 2 9 3 8 4 6 5 7 6 5 7 4 8 2 9 3 10 1 11 10 12 11 13
REMARK SMILES IDX 12 14 15 15 16 16 17 17 31 18 18 19 27 20 20 21 19 22 25 23
REMARK SMILES IDX 21 24 23 25 26 26 22 27 24 28 28 29 29 30 30 31
REMARK H PARENT
ROOT
ATOM      1  C   UNL     1      43.694 134.043  16.273  1.00  0.00     0.345 C 
ATOM      2  O   UNL     1      44.785 134.441  15.776  1.00  0.00    -0.249 OA
ENDROOT
BRANCH   1   3
ATOM      3  C   UNL     1      43.286 132.598  16.169  1.00  0.00     0.295 C 
BRANCH   3   4
ATOM      4  C   UNL     1      44.452 131.731  16.563  1.00  0.00     0.152 A 
ATOM      5  C   UNL     1      46.133 130.432  16.358  1.00  0.00     0.131 A 
ATOM      6  N   UNL     1      45.284 131.195  15.643  1.00  0.00    -0.238 NA
ATOM      7  C   UNL     1      45.805 130.504  17.691  1.00  0.00     0.116 A 
ATOM      8  N   UNL     1      44.755 131.332  17.824  1.00  0.00    -0.272 N 
BRANCH   8   9
ATOM      9  C   UNL     1      44.123 131.654  19.074  1.00  0.00     0.228 C 
ATOM     10  O   UNL     1      42.866 131.617  19.161  1.00  0.00    -0.274 OA
ATOM     11  C   UNL     1      44.921 131.965  20.302  1.00  0.00     0.115 C 
ENDBRANCH   8   9
ENDBRANCH   3   4
BRANCH   3  12
ATOM     12  N   UNL     1      42.877 132.252  14.808  1.00  0.00    -0.182 NA
BRANCH  12  13
ATOM     13  C   UNL     1      41.810 132.712  14.286  1.00  0.00     0.236 C 
ATOM     14  O   UNL     1      40.774 133.159  13.778  1.00  0.00    -0.211 OA
ENDBRANCH  12  13
ENDBRANCH   3  12
ENDBRANCH   1   3
BRANCH   1  15
ATOM     15  O   UNL     1      42.889 134.915  17.016  1.00  0.00    -0.424 OA
BRANCH  15  16
ATOM     16  C   UNL     1      42.924 135.062  18.411  1.00  0.00     0.139 A 
ATOM     17  C   UNL     1      44.132 135.401  19.038  1.00  0.00     0.048 A 
ATOM     18  C   UNL     1      41.735 134.921  19.185  1.00  0.00     0.037 A 
ATOM     19  C   UNL     1      44.188 135.596  20.411  1.00  0.00     0.005 A 
ATOM     20  C   UNL     1      40.486 134.576  18.596  1.00  0.00     0.069 A 
ATOM     21  C   UNL     1      41.805 135.136  20.594  1.00  0.00     0.006 A 
ATOM     22  C   UNL     1      43.041 135.468  21.184  1.00  0.00     0.010 A 
ATOM     23  C   UNL     1      39.344 134.419  19.415  1.00  0.00     0.071 A 
ATOM     24  C   UNL     1      40.641 135.019  21.386  1.00  0.00     0.069 A 
ATOM     25  C   UNL     1      39.421 134.657  20.795  1.00  0.00     0.079 A 
ATOM     26  Cl  UNL     1      37.816 133.826  18.747  1.00  0.00    -0.082 Cl
ATOM     27  Cl  UNL     1      40.689 135.304  23.134  1.00  0.00    -0.082 Cl
ATOM     28  Cl  UNL     1      37.978 134.480  21.801  1.00  0.00    -0.081 Cl
BRANCH  20  29
ATOM     29  N   UNL     1      40.412 134.333  17.179  1.00  0.00    -0.058 NA
BRANCH  29  30
ATOM     30  N   UNL     1      39.792 135.063  16.404  1.00  0.00     0.005 N 
ATOM     31  N   UNL     1      39.172 135.799  15.638  1.00  0.00    -0.003 NA
ENDBRANCH  29  30
ENDBRANCH  20  29
ENDBRANCH  15  16
ENDBRANCH   1  15
TORSDOF 9
ENDMDL
MODEL 4
REMARK VINA RESULT:      -5.7      2.724      4.309
REMARK SMILES CC(=O)n1ccnc1[C@H](N=C=O)C(=O)Oc1cccc2c(Cl)c(Cl)c(Cl)c(N=[N+]=[N-])c12
REMARK SMILES IDX 13 1 14 2 9 3 8 4 6 5 7 6 5 7 4 8 2 9 3 10 1 11 10 12 11 13
REMARK SMILES IDX 12 14 15 15 16 16 17 17 31 18 18 19 27 20 20 21 19 22 25 23
REMARK SMILES IDX 21 24 23 25 26 26 22 27 24 28 28 29 29 30 30 31
REMARK H PARENT
ROOT
ATOM      1  C   UNL     1      44.374 133.709  16.489  1.00  0.00     0.345 C 
ATOM      2  O   UNL     1      44.855 134.595  15.728  1.00  0.00    -0.249 OA
ENDROOT
BRANCH   1   3
ATOM      3  C   UNL     1      44.971 132.328  16.530  1.00  0.00     0.295 C 
BRANCH   3   4
ATOM      4  C   UNL     1      44.686 131.633  15.225  1.00  0.00     0.152 A 
ATOM      5  C   UNL     1      43.589 130.940  13.531  1.00  0.00     0.131 A 
ATOM      6  N   UNL     1      43.494 131.755  14.599  1.00  0.00    -0.238 NA
ATOM      7  C   UNL     1      44.820 130.329  13.526  1.00  0.00     0.116 A 
ATOM      8  N   UNL     1      45.517 130.774  14.585  1.00  0.00    -0.272 N 
BRANCH   8   9
ATOM      9  C   UNL     1      46.852 130.356  14.916  1.00  0.00     0.228 C 
ATOM     10  O   UNL     1      47.135 130.080  16.113  1.00  0.00    -0.274 OA
ATOM     11  C   UNL     1      47.902 130.170  13.866  1.00  0.00     0.115 C 
ENDBRANCH   8   9
ENDBRANCH   3   4
BRANCH   3  12
ATOM     12  N   UNL     1      44.411 131.533  17.623  1.00  0.00    -0.182 NA
BRANCH  12  13
ATOM     13  C   UNL     1      44.992 131.434  18.752  1.00  0.00     0.236 C 
ATOM     14  O   UNL     1      45.557 131.337  19.849  1.00  0.00    -0.211 OA
ENDBRANCH  12  13
ENDBRANCH   3  12
ENDBRANCH   1   3
BRANCH   1  15
ATOM     15  O   UNL     1      43.341 134.019  17.381  1.00  0.00    -0.424 OA
BRANCH  15  16
ATOM     16  C   UNL     1      41.986 134.148  17.041  1.00  0.00     0.139 A 
ATOM     17  C   UNL     1      41.610 134.139  15.690  1.00  0.00     0.048 A 
ATOM     18  C   UNL     1      40.989 134.234  18.057  1.00  0.00     0.037 A 
ATOM     19  C   UNL     1      40.274 134.220  15.325  1.00  0.00     0.005 A 
ATOM     20  C   UNL     1      41.320 134.249  19.441  1.00  0.00     0.069 A 
ATOM     21  C   UNL     1      39.618 134.305  17.668  1.00  0.00     0.006 A 
ATOM     22  C   UNL     1      39.286 134.301  16.298  1.00  0.00     0.010 A 
ATOM     23  C   UNL     1      40.292 134.368  20.407  1.00  0.00     0.071 A 
ATOM     24  C   UNL     1      38.606 134.377  18.651  1.00  0.00     0.069 A 
ATOM     25  C   UNL     1      38.948 134.412  20.010  1.00  0.00     0.079 A 
ATOM     26  Cl  UNL     1      40.672 134.562  22.124  1.00  0.00    -0.082 Cl
ATOM     27  Cl  UNL     1      36.894 134.441  18.201  1.00  0.00    -0.082 Cl
ATOM     28  Cl  UNL     1      37.675 134.536  21.232  1.00  0.00    -0.081 Cl
BRANCH  20  29
ATOM     29  N   UNL     1      42.702 134.203  19.843  1.00  0.00    -0.058 NA
BRANCH  29  30
ATOM     30  N   UNL     1      43.335 135.202  20.184  1.00  0.00     0.005 N 
ATOM     31  N   UNL     1      43.959 136.207  20.524  1.00  0.00    -0.003 NA
ENDBRANCH  29  30
ENDBRANCH  20  29
ENDBRANCH  15  16
ENDBRANCH   1  15
TORSDOF 9
ENDMDL
MODEL 5
REMARK VINA RESULT:      -5.7      3.286      6.096
REMARK SMILES CC(=O)n1ccnc1[C@H](N=C=O)C(=O)Oc1cccc2c(Cl)c(Cl)c(Cl)c(N=[N+]=[N-])c12
REMARK SMILES IDX 13 1 14 2 9 3 8 4 6 5 7 6 5 7 4 8 2 9 3 10 1 11 10 12 11 13
REMARK SMILES IDX 12 14 15 15 16 16 17 17 31 18 18 19 27 20 20 21 19 22 25 23
REMARK SMILES IDX 21 24 23 25 26 26 22 27 24 28 28 29 29 30 30 31
REMARK H PARENT
ROOT
ATOM      1  C   UNL     1      43.177 133.706  15.983  1.00  0.00     0.345 C 
ATOM      2  O   UNL     1      44.365 134.117  15.861  1.00  0.00    -0.249 OA
ENDROOT
BRANCH   1   3
ATOM      3  C   UNL     1      42.167 133.949  14.893  1.00  0.00     0.295 C 
BRANCH   3   4
ATOM      4  C   UNL     1      40.924 134.543  15.503  1.00  0.00     0.152 A 
ATOM      5  C   UNL     1      38.891 134.708  16.127  1.00  0.00     0.131 A 
ATOM      6  N   UNL     1      39.782 133.831  15.626  1.00  0.00    -0.238 NA
ATOM      7  C   UNL     1      39.492 135.933  16.291  1.00  0.00     0.116 A 
ATOM      8  N   UNL     1      40.776 135.828  15.910  1.00  0.00    -0.272 N 
BRANCH   8   9
ATOM      9  C   UNL     1      41.725 136.907  15.935  1.00  0.00     0.228 C 
ATOM     10  O   UNL     1      42.419 137.098  16.970  1.00  0.00    -0.274 OA
ATOM     11  C   UNL     1      41.967 137.771  14.736  1.00  0.00     0.115 C 
ENDBRANCH   8   9
ENDBRANCH   3   4
BRANCH   3  12
ATOM     12  N   UNL     1      41.811 132.708  14.205  1.00  0.00    -0.182 NA
BRANCH  12  13
ATOM     13  C   UNL     1      42.684 131.836  13.891  1.00  0.00     0.236 C 
ATOM     14  O   UNL     1      43.533 130.988  13.586  1.00  0.00    -0.211 OA
ENDBRANCH  12  13
ENDBRANCH   3  12
ENDBRANCH   1   3
BRANCH   1  15
ATOM     15  O   UNL     1      42.800 132.931  17.086  1.00  0.00    -0.424 OA
BRANCH  15  16
ATOM     16  C   UNL     1      43.675 132.194  17.897  1.00  0.00     0.139 A 
ATOM     17  C   UNL     1      44.704 131.449  17.303  1.00  0.00     0.048 A 
ATOM     18  C   UNL     1      43.559 132.240  19.318  1.00  0.00     0.037 A 
ATOM     19  C   UNL     1      45.612 130.746  18.083  1.00  0.00     0.005 A 
ATOM     20  C   UNL     1      42.531 132.980  19.968  1.00  0.00     0.069 A 
ATOM     21  C   UNL     1      44.506 131.523  20.107  1.00  0.00     0.006 A 
ATOM     22  C   UNL     1      45.519 130.781  19.469  1.00  0.00     0.010 A 
ATOM     23  C   UNL     1      42.442 132.967  21.380  1.00  0.00     0.071 A 
ATOM     24  C   UNL     1      44.425 131.561  21.517  1.00  0.00     0.069 A 
ATOM     25  C   UNL     1      43.394 132.276  22.144  1.00  0.00     0.079 A 
ATOM     26  Cl  UNL     1      41.083 133.730  22.216  1.00  0.00    -0.082 Cl
ATOM     27  Cl  UNL     1      45.601 130.701  22.526  1.00  0.00    -0.082 Cl
ATOM     28  Cl  UNL     1      43.283 132.290  23.909  1.00  0.00    -0.081 Cl
BRANCH  20  29
ATOM     29  N   UNL     1      41.556 133.687  19.179  1.00  0.00    -0.058 NA
BRANCH  29  30
ATOM     30  N   UNL     1      41.196 134.839  19.430  1.00  0.00     0.005 N 
ATOM     31  N   UNL     1      40.844 135.988  19.689  1.00  0.00    -0.003 NA
ENDBRANCH  29  30
ENDBRANCH  20  29
ENDBRANCH  15  16
ENDBRANCH   1  15
TORSDOF 9
ENDMDL
MODEL 6
REMARK VINA RESULT:      -5.6      3.347      6.006
REMARK SMILES CC(=O)n1ccnc1[C@H](N=C=O)C(=O)Oc1cccc2c(Cl)c(Cl)c(Cl)c(N=[N+]=[N-])c12
REMARK SMILES IDX 13 1 14 2 9 3 8 4 6 5 7 6 5 7 4 8 2 9 3 10 1 11 10 12 11 13
REMARK SMILES IDX 12 14 15 15 16 16 17 17 31 18 18 19 27 20 20 21 19 22 25 23
REMARK SMILES IDX 21 24 23 25 26 26 22 27 24 28 28 29 29 30 30 31
REMARK H PARENT
ROOT
ATOM      1  C   UNL     1      42.476 133.891  15.759  1.00  0.00     0.345 C 
ATOM      2  O   UNL     1      43.531 134.570  15.896  1.00  0.00    -0.249 OA
ENDROOT
BRANCH   1   3
ATOM      3  C   UNL     1      41.770 133.831  14.431  1.00  0.00     0.295 C 
BRANCH   3   4
ATOM      4  C   UNL     1      40.334 134.243  14.621  1.00  0.00     0.152 A 
ATOM      5  C   UNL     1      38.204 134.128  14.585  1.00  0.00     0.131 A 
ATOM      6  N   UNL     1      39.312 133.388  14.392  1.00  0.00    -0.238 NA
ATOM      7  C   UNL     1      38.560 135.414  14.915  1.00  0.00     0.116 A 
ATOM      8  N   UNL     1      39.901 135.485  14.951  1.00  0.00    -0.272 N 
BRANCH   8   9
ATOM      9  C   UNL     1      40.647 136.674  15.258  1.00  0.00     0.228 C 
ATOM     10  O   UNL     1      41.116 137.371  14.318  1.00  0.00    -0.274 OA
ATOM     11  C   UNL     1      40.824 137.152  16.665  1.00  0.00     0.115 C 
ENDBRANCH   8   9
ENDBRANCH   3   4
BRANCH   3  12
ATOM     12  N   UNL     1      41.806 132.483  13.865  1.00  0.00    -0.182 NA
BRANCH  12  13
ATOM     13  C   UNL     1      42.867 131.778  13.866  1.00  0.00     0.236 C 
ATOM     14  O   UNL     1      43.898 131.093  13.866  1.00  0.00    -0.211 OA
ENDBRANCH  12  13
ENDBRANCH   3  12
ENDBRANCH   1   3
BRANCH   1  15
ATOM     15  O   UNL     1      41.994 133.102  16.810  1.00  0.00    -0.424 OA
BRANCH  15  16
ATOM     16  C   UNL     1      42.755 132.643  17.895  1.00  0.00     0.139 A 
ATOM     17  C   UNL     1      43.899 131.867  17.656  1.00  0.00     0.048 A 
ATOM     18  C   UNL     1      42.406 133.004  19.230  1.00  0.00     0.037 A 
ATOM     19  C   UNL     1      44.695 131.436  18.707  1.00  0.00     0.005 A 
ATOM     20  C   UNL     1      41.255 133.788  19.524  1.00  0.00     0.069 A 
ATOM     21  C   UNL     1      43.240 132.564  20.300  1.00  0.00     0.006 A 
ATOM     22  C   UNL     1      44.376 131.779  20.015  1.00  0.00     0.010 A 
ATOM     23  C   UNL     1      40.937 134.090  20.869  1.00  0.00     0.071 A 
ATOM     24  C   UNL     1      42.929 132.917  21.632  1.00  0.00     0.069 A 
ATOM     25  C   UNL     1      41.780 133.671  21.909  1.00  0.00     0.079 A 
ATOM     26  Cl  UNL     1      39.428 134.914  21.287  1.00  0.00    -0.082 Cl
ATOM     27  Cl  UNL     1      43.959 132.407  22.980  1.00  0.00    -0.082 Cl
ATOM     28  Cl  UNL     1      41.381 134.079  23.582  1.00  0.00    -0.081 Cl
BRANCH  20  29
ATOM     29  N   UNL     1      40.393 134.216  18.453  1.00  0.00    -0.058 NA
BRANCH  29  30
ATOM     30  N   UNL     1      39.314 133.676  18.204  1.00  0.00     0.005 N 
ATOM     31  N   UNL     1      38.232 133.142  17.964  1.00  0.00    -0.003 NA
ENDBRANCH  29  30
ENDBRANCH  20  29
ENDBRANCH  15  16
ENDBRANCH   1  15
TORSDOF 9
ENDMDL
MODEL 7
REMARK VINA RESULT:      -5.5      3.789      6.989
REMARK SMILES CC(=O)n1ccnc1[C@H](N=C=O)C(=O)Oc1cccc2c(Cl)c(Cl)c(Cl)c(N=[N+]=[N-])c12
REMARK SMILES IDX 13 1 14 2 9 3 8 4 6 5 7 6 5 7 4 8 2 9 3 10 1 11 10 12 11 13
REMARK SMILES IDX 12 14 15 15 16 16 17 17 31 18 18 19 27 20 20 21 19 22 25 23
REMARK SMILES IDX 21 24 23 25 26 26 22 27 24 28 28 29 29 30 30 31
REMARK H PARENT
ROOT
ATOM      1  C   UNL     1      40.931 134.535  14.336  1.00  0.00     0.345 C 
ATOM      2  O   UNL     1      40.969 134.483  13.075  1.00  0.00    -0.249 OA
ENDROOT
BRANCH   1   3
ATOM      3  C   UNL     1      40.661 135.837  15.042  1.00  0.00     0.295 C 
BRANCH   3   4
ATOM      4  C   UNL     1      39.607 136.597  14.279  1.00  0.00     0.152 A 
ATOM      5  C   UNL     1      38.699 138.171  13.161  1.00  0.00     0.131 A 
ATOM      6  N   UNL     1      39.885 137.759  13.648  1.00  0.00    -0.238 NA
ATOM      7  C   UNL     1      37.721 137.269  13.507  1.00  0.00     0.116 A 
ATOM      8  N   UNL     1      38.293 136.270  14.200  1.00  0.00    -0.272 N 
BRANCH   8   9
ATOM      9  C   UNL     1      37.586 135.139  14.736  1.00  0.00     0.228 C 
ATOM     10  O   UNL     1      37.611 134.043  14.115  1.00  0.00    -0.274 OA
ATOM     11  C   UNL     1      36.877 135.206  16.052  1.00  0.00     0.115 C 
ENDBRANCH   8   9
ENDBRANCH   3   4
BRANCH   3  12
ATOM     12  N   UNL     1      41.867 136.659  15.132  1.00  0.00    -0.182 NA
BRANCH  12  13
ATOM     13  C   UNL     1      42.929 136.240  15.696  1.00  0.00     0.236 C 
ATOM     14  O   UNL     1      43.962 135.832  16.243  1.00  0.00    -0.211 OA
ENDBRANCH  12  13
ENDBRANCH   3  12
ENDBRANCH   1   3
BRANCH   1  15
ATOM     15  O   UNL     1      41.040 133.368  15.102  1.00  0.00    -0.424 OA
BRANCH  15  16
ATOM     16  C   UNL     1      41.080 133.318  16.503  1.00  0.00     0.139 A 
ATOM     17  C   UNL     1      39.981 133.783  17.241  1.00  0.00     0.048 A 
ATOM     18  C   UNL     1      42.202 132.751  17.177  1.00  0.00     0.037 A 
ATOM     19  C   UNL     1      39.974 133.705  18.627  1.00  0.00     0.005 A 
ATOM     20  C   UNL     1      43.340 132.268  16.473  1.00  0.00     0.069 A 
ATOM     21  C   UNL     1      42.175 132.666  18.601  1.00  0.00     0.006 A 
ATOM     22  C   UNL     1      41.055 133.153  19.303  1.00  0.00     0.010 A 
ATOM     23  C   UNL     1      44.440 131.743  17.193  1.00  0.00     0.071 A 
ATOM     24  C   UNL     1      43.265 132.097  19.296  1.00  0.00     0.069 A 
ATOM     25  C   UNL     1      44.390 131.645  18.591  1.00  0.00     0.079 A 
ATOM     26  Cl  UNL     1      45.939 131.292  16.369  1.00  0.00    -0.082 Cl
ATOM     27  Cl  UNL     1      43.253 131.955  21.062  1.00  0.00    -0.082 Cl
ATOM     28  Cl  UNL     1      45.763 130.964  19.474  1.00  0.00    -0.081 Cl
BRANCH  20  29
ATOM     29  N   UNL     1      43.386 132.371  15.038  1.00  0.00    -0.058 NA
BRANCH  29  30
ATOM     30  N   UNL     1      43.798 131.465  14.312  1.00  0.00     0.005 N 
ATOM     31  N   UNL     1      44.218 130.560  13.594  1.00  0.00    -0.003 NA
ENDBRANCH  29  30
ENDBRANCH  20  29
ENDBRANCH  15  16
ENDBRANCH   1  15
TORSDOF 9
ENDMDL
MODEL 8
REMARK VINA RESULT:      -5.5      3.634      6.674
REMARK SMILES CC(=O)n1ccnc1[C@H](N=C=O)C(=O)Oc1cccc2c(Cl)c(Cl)c(Cl)c(N=[N+]=[N-])c12
REMARK SMILES IDX 13 1 14 2 9 3 8 4 6 5 7 6 5 7 4 8 2 9 3 10 1 11 10 12 11 13
REMARK SMILES IDX 12 14 15 15 16 16 17 17 31 18 18 19 27 20 20 21 19 22 25 23
REMARK SMILES IDX 21 24 23 25 26 26 22 27 24 28 28 29 29 30 30 31
REMARK H PARENT
ROOT
ATOM      1  C   UNL     1      42.099 134.178  14.762  1.00  0.00     0.345 C 
ATOM      2  O   UNL     1      43.222 134.690  14.494  1.00  0.00    -0.249 OA
ENDROOT
BRANCH   1   3
ATOM      3  C   UNL     1      40.911 134.429  13.872  1.00  0.00     0.295 C 
BRANCH   3   4
ATOM      4  C   UNL     1      40.425 135.838  14.090  1.00  0.00     0.152 A 
ATOM      5  C   UNL     1      40.154 137.731  15.035  1.00  0.00     0.131 A 
ATOM      6  N   UNL     1      40.861 136.589  15.126  1.00  0.00    -0.238 NA
ATOM      7  C   UNL     1      39.297 137.659  13.962  1.00  0.00     0.116 A 
ATOM      8  N   UNL     1      39.476 136.472  13.358  1.00  0.00    -0.272 N 
BRANCH   8   9
ATOM      9  C   UNL     1      38.752 136.031  12.197  1.00  0.00     0.228 C 
ATOM     10  O   UNL     1      39.329 136.015  11.077  1.00  0.00    -0.274 OA
ATOM     11  C   UNL     1      37.349 135.520  12.292  1.00  0.00     0.115 C 
ENDBRANCH   8   9
ENDBRANCH   3   4
BRANCH   3  12
ATOM     12  N   UNL     1      39.818 133.500  14.161  1.00  0.00    -0.182 NA
BRANCH  12  13
ATOM     13  C   UNL     1      38.911 133.770  15.013  1.00  0.00     0.236 C 
ATOM     14  O   UNL     1      38.029 134.033  15.840  1.00  0.00    -0.211 OA
ENDBRANCH  12  13
ENDBRANCH   3  12
ENDBRANCH   1   3
BRANCH   1  15
ATOM     15  O   UNL     1      41.957 133.289  15.834  1.00  0.00    -0.424 OA
BRANCH  15  16
ATOM     16  C   UNL     1      42.991 132.527  16.398  1.00  0.00     0.139 A 
ATOM     17  C   UNL     1      43.722 131.648  15.586  1.00  0.00     0.048 A 
ATOM     18  C   UNL     1      43.336 132.678  17.774  1.00  0.00     0.037 A 
ATOM     19  C   UNL     1      44.778 130.913  16.106  1.00  0.00     0.005 A 
ATOM     20  C   UNL     1      42.624 133.556  18.639  1.00  0.00     0.069 A 
ATOM     21  C   UNL     1      44.432 131.926  18.292  1.00  0.00     0.006 A 
ATOM     22  C   UNL     1      45.134 131.049  17.442  1.00  0.00     0.010 A 
ATOM     23  C   UNL     1      42.989 133.645  20.003  1.00  0.00     0.071 A 
ATOM     24  C   UNL     1      44.807 132.065  19.647  1.00  0.00     0.069 A 
ATOM     25  C   UNL     1      44.083 132.917  20.493  1.00  0.00     0.079 A 
ATOM     26  Cl  UNL     1      42.024 134.590  21.146  1.00  0.00    -0.082 Cl
ATOM     27  Cl  UNL     1      46.179 131.165  20.315  1.00  0.00    -0.082 Cl
ATOM     28  Cl  UNL     1      44.541 133.059  22.196  1.00  0.00    -0.081 Cl
BRANCH  20  29
ATOM     29  N   UNL     1      41.501 134.300  18.130  1.00  0.00    -0.058 NA
BRANCH  29  30
ATOM     30  N   UNL     1      40.356 134.167  18.563  1.00  0.00     0.005 N 
ATOM     31  N   UNL     1      39.208 134.036  18.986  1.00  0.00    -0.003 NA
ENDBRANCH  29  30
ENDBRANCH  20  29
ENDBRANCH  15  16
ENDBRANCH   1  15
TORSDOF 9
ENDMDL
MODEL 9
REMARK VINA RESULT:      -5.5      2.738      5.161
REMARK SMILES CC(=O)n1ccnc1[C@H](N=C=O)C(=O)Oc1cccc2c(Cl)c(Cl)c(Cl)c(N=[N+]=[N-])c12
REMARK SMILES IDX 13 1 14 2 9 3 8 4 6 5 7 6 5 7 4 8 2 9 3 10 1 11 10 12 11 13
REMARK SMILES IDX 12 14 15 15 16 16 17 17 31 18 18 19 27 20 20 21 19 22 25 23
REMARK SMILES IDX 21 24 23 25 26 26 22 27 24 28 28 29 29 30 30 31
REMARK H PARENT
ROOT
ATOM      1  C   UNL     1      44.629 133.298  15.969  1.00  0.00     0.345 C 
ATOM      2  O   UNL     1      45.766 133.234  15.423  1.00  0.00    -0.249 OA
ENDROOT
BRANCH   1   3
ATOM      3  C   UNL     1      43.397 132.847  15.230  1.00  0.00     0.295 C 
BRANCH   3   4
ATOM      4  C   UNL     1      42.181 133.206  16.042  1.00  0.00     0.152 A 
ATOM      5  C   UNL     1      40.559 132.986  17.411  1.00  0.00     0.131 A 
ATOM      6  N   UNL     1      41.666 132.362  16.964  1.00  0.00    -0.238 NA
ATOM      7  C   UNL     1      40.409 134.185  16.755  1.00  0.00     0.116 A 
ATOM      8  N   UNL     1      41.436 134.331  15.902  1.00  0.00    -0.272 N 
BRANCH   8   9
ATOM      9  C   UNL     1      41.621 135.462  15.035  1.00  0.00     0.228 C 
ATOM     10  O   UNL     1      40.876 135.599  14.028  1.00  0.00    -0.274 OA
ATOM     11  C   UNL     1      42.631 136.526  15.334  1.00  0.00     0.115 C 
ENDBRANCH   8   9
ENDBRANCH   3   4
BRANCH   3  12
ATOM     12  N   UNL     1      43.406 131.402  15.002  1.00  0.00    -0.182 NA
BRANCH  12  13
ATOM     13  C   UNL     1      44.288 130.838  14.277  1.00  0.00     0.236 C 
ATOM     14  O   UNL     1      45.144 130.289  13.572  1.00  0.00    -0.211 OA
ENDBRANCH  12  13
ENDBRANCH   3  12
ENDBRANCH   1   3
BRANCH   1  15
ATOM     15  O   UNL     1      44.500 133.695  17.305  1.00  0.00    -0.424 OA
BRANCH  15  16
ATOM     16  C   UNL     1      44.593 132.845  18.417  1.00  0.00     0.139 A 
ATOM     17  C   UNL     1      45.147 131.566  18.263  1.00  0.00     0.048 A 
ATOM     18  C   UNL     1      44.180 133.291  19.707  1.00  0.00     0.037 A 
ATOM     19  C   UNL     1      45.293 130.720  19.353  1.00  0.00     0.005 A 
ATOM     20  C   UNL     1      43.610 134.579  19.914  1.00  0.00     0.069 A 
ATOM     21  C   UNL     1      44.346 132.416  20.821  1.00  0.00     0.006 A 
ATOM     22  C   UNL     1      44.900 131.136  20.619  1.00  0.00     0.010 A 
ATOM     23  C   UNL     1      43.188 134.959  21.210  1.00  0.00     0.071 A 
ATOM     24  C   UNL     1      43.959 132.834  22.114  1.00  0.00     0.069 A 
ATOM     25  C   UNL     1      43.380 134.097  22.300  1.00  0.00     0.079 A 
ATOM     26  Cl  UNL     1      42.322 136.478  21.479  1.00  0.00    -0.082 Cl
ATOM     27  Cl  UNL     1      44.176 131.780  23.521  1.00  0.00    -0.082 Cl
ATOM     28  Cl  UNL     1      42.868 134.598  23.917  1.00  0.00    -0.081 Cl
BRANCH  20  29
ATOM     29  N   UNL     1      43.416 135.460  18.792  1.00  0.00    -0.058 NA
BRANCH  29  30
ATOM     30  N   UNL     1      44.052 136.503  18.639  1.00  0.00     0.005 N 
ATOM     31  N   UNL     1      44.689 137.546  18.497  1.00  0.00    -0.003 NA
ENDBRANCH  29  30
ENDBRANCH  20  29
ENDBRANCH  15  16
ENDBRANCH   1  15
TORSDOF 9
ENDMDL


