REMARK SMILES Cc1nnn([C@@H]2O[C@@]2(O)Nc2cccc(C#N)c2C)c1-c1cc2ccccc2c2c1C[N+](C)(C)C2
REMARK SMILES IDX 6 1 7 2 8 3 5 4 2 5 3 6 20 7 4 8 1 9 21 10 22 11 30 12 23 13
REMARK SMILES IDX 29 14 31 15 24 16 28 17 35 18 32 19 25 20 27 21 26 22 33 23
REMARK SMILES IDX 34 24 9 25 10 27 11 29 12 30 18 31 13 32 15 33 14 34 19 35
REMARK SMILES IDX 16 36 17 37
REMARK H PARENT 9 26 10 28
ROOT
ATOM      1  C   UNL     1       0.185   0.457   2.888  1.00  0.00     0.327 C 
ATOM      2  O   UNL     1      -0.180   0.088   4.200  1.00  0.00    -0.295 OA
ATOM      3  C   UNL     1      -0.804  -0.615   3.154  1.00  0.00     0.298 C 
ENDROOT
BRANCH   1   4
ATOM      4  N   UNL     1       1.536   0.003   2.575  1.00  0.00    -0.208 N 
ATOM      5  C   UNL     1       3.324  -0.765   1.587  1.00  0.00     0.088 A 
ATOM      6  N   UNL     1       3.629  -0.523   2.878  1.00  0.00    -0.135 NA
ATOM      7  C   UNL     1       2.003  -0.427   1.389  1.00  0.00     0.095 A 
ATOM      8  N   UNL     1       2.529  -0.052   3.451  1.00  0.00    -0.064 NA
ATOM      9  C   UNL     1       4.270  -1.343   0.586  1.00  0.00     0.071 C 
BRANCH   7  10
ATOM     10  C   UNL     1       1.222  -0.572   0.149  1.00  0.00     0.012 A 
ATOM     11  C   UNL     1       0.919  -1.853  -0.344  1.00  0.00     0.019 A 
ATOM     12  C   UNL     1       0.782   0.545  -0.575  1.00  0.00     0.025 A 
ATOM     13  C   UNL     1       0.186  -2.004  -1.538  1.00  0.00    -0.017 A 
ATOM     14  C   UNL     1       0.069   0.410  -1.732  1.00  0.00     0.024 A 
ATOM     15  C   UNL     1       1.092   1.976  -0.332  1.00  0.00     0.301 C 
ATOM     16  C   UNL     1      -0.121  -3.281  -2.030  1.00  0.00     0.009 A 
ATOM     17  C   UNL     1      -0.242  -0.855  -2.255  1.00  0.00    -0.009 A 
ATOM     18  C   UNL     1      -0.232   1.746  -2.307  1.00  0.00     0.301 C 
ATOM     19  N   UNL     1       0.247   2.740  -1.298  1.00  0.00    -0.321 N 
ATOM     20  C   UNL     1      -0.835  -3.421  -3.224  1.00  0.00     0.001 A 
ATOM     21  C   UNL     1      -0.954  -1.011  -3.457  1.00  0.00     0.009 A 
ATOM     22  C   UNL     1      -1.248  -2.290  -3.935  1.00  0.00     0.001 A 
ATOM     23  C   UNL     1      -0.906   3.344  -0.589  1.00  0.00     0.334 C 
ATOM     24  C   UNL     1       1.031   3.813  -1.948  1.00  0.00     0.334 C 
ENDBRANCH   7  10
ENDBRANCH   1   4
BRANCH   3  25
ATOM     25  O   UNL     1      -0.433  -1.962   3.174  1.00  0.00    -0.345 OA
ATOM     26  H   UNL     1      -0.466  -2.257   2.228  1.00  0.00     0.216 HD
ENDBRANCH   3  25
BRANCH   3  27
ATOM     27  N   UNL     1      -2.228  -0.306   3.096  1.00  0.00    -0.330 N 
ATOM     28  H   UNL     1      -2.785  -0.385   3.977  1.00  0.00     0.166 HD
BRANCH  27  29
ATOM     29  C   UNL     1      -2.848   0.205   1.904  1.00  0.00     0.042 A 
ATOM     30  C   UNL     1      -2.562  -0.388   0.665  1.00  0.00     0.026 A 
ATOM     31  C   UNL     1      -3.766   1.282   1.971  1.00  0.00    -0.010 A 
ATOM     32  C   UNL     1      -3.197   0.054  -0.494  1.00  0.00     0.004 A 
ATOM     33  C   UNL     1      -4.410   1.715   0.785  1.00  0.00     0.057 A 
ATOM     34  C   UNL     1      -4.112   1.101  -0.437  1.00  0.00     0.020 A 
ATOM     35  C   UNL     1      -4.071   1.933   3.303  1.00  0.00     0.048 C 
BRANCH  33  36
ATOM     36  C   UNL     1      -5.387   2.778   0.792  1.00  0.00     0.099 C 
ATOM     37  N   UNL     1      -6.171   3.630   0.796  1.00  0.00    -0.192 NA
ENDBRANCH  33  36
ENDBRANCH  27  29
ENDBRANCH   3  27
TORSDOF 6


