MODEL 1
REMARK VINA RESULT:      -6.8      0.000      0.000
REMARK SMILES C[N+]1(C)Cc2cc3ccc(-n4cc(CCn5cc(CN)cn5)n[nH+]4)cc3cc2C1
REMARK SMILES IDX 15 1 14 2 13 3 11 4 12 5 24 6 23 7 10 9 2 10 4 11 29 12 5 13
REMARK SMILES IDX 28 14 6 15 27 16 7 17 26 18 8 19 25 20 9 21 1 22 3 23 16 24
REMARK SMILES IDX 17 25 22 26 18 27 21 28 19 29 20 30
REMARK H PARENT 24 8 20 31 20 32
ROOT
ATOM      1  C   UNL     1      45.165 130.008  16.691  1.00  0.00     0.151 C 
ENDROOT
BRANCH   1   2
ATOM      2  C   UNL     1      45.221 131.146  17.716  1.00  0.00     0.088 C 
BRANCH   2   3
ATOM      3  C   UNL     1      43.875 131.774  17.904  1.00  0.00     0.134 A 
ATOM      4  N   UNL     1      41.954 132.729  17.502  1.00  0.00    -0.104 N 
ATOM      5  C   UNL     1      42.954 132.043  16.915  1.00  0.00     0.190 A 
ATOM      6  N   UNL     1      42.267 132.868  18.784  1.00  0.00    -0.012 N 
ATOM      7  N   UNL     1      43.435 132.309  19.060  1.00  0.00     0.020 NA
ATOM      8  H   UNL     1      41.702 133.391  19.488  1.00  0.00     0.527 HD
BRANCH   4   9
ATOM      9  C   UNL     1      40.786 133.282  16.864  1.00  0.00     0.107 A 
ATOM     10  N   UNL     1      37.028 136.189  11.511  1.00  0.00    -0.321 N 
ATOM     11  C   UNL     1      36.430 136.052  12.878  1.00  0.00     0.301 C 
ATOM     12  C   UNL     1      38.482 135.853  11.648  1.00  0.00     0.301 C 
ATOM     13  C   UNL     1      37.472 135.406  13.706  1.00  0.00     0.016 A 
ATOM     14  C   UNL     1      38.635 135.293  13.008  1.00  0.00     0.016 A 
ATOM     15  C   UNL     1      37.368 134.974  15.028  1.00  0.00     0.018 A 
ATOM     16  C   UNL     1      39.780 134.739  13.581  1.00  0.00     0.019 A 
ATOM     17  C   UNL     1      38.500 134.403  15.642  1.00  0.00    -0.018 A 
ATOM     18  C   UNL     1      39.716 134.284  14.912  1.00  0.00    -0.016 A 
ATOM     19  C   UNL     1      38.445 133.955  16.967  1.00  0.00     0.011 A 
ATOM     20  C   UNL     1      40.842 133.720  15.528  1.00  0.00     0.041 A 
ATOM     21  C   UNL     1      39.576 133.401  17.571  1.00  0.00     0.033 A 
ATOM     22  C   UNL     1      36.856 137.569  11.002  1.00  0.00     0.334 C 
ATOM     23  C   UNL     1      36.375 135.244  10.575  1.00  0.00     0.334 C 
ENDBRANCH   4   9
ENDBRANCH   2   3
ENDBRANCH   1   2
BRANCH   1  24
ATOM     24  N   UNL     1      45.922 130.350  15.488  1.00  0.00    -0.272 N 
ATOM     25  C   UNL     1      46.287 129.495  14.514  1.00  0.00     0.113 A 
ATOM     26  N   UNL     1      46.426 131.553  15.251  1.00  0.00    -0.181 NA
ATOM     27  C   UNL     1      47.040 130.196  13.599  1.00  0.00     0.004 A 
ATOM     28  C   UNL     1      47.116 131.483  14.095  1.00  0.00     0.140 A 
BRANCH  27  29
ATOM     29  C   UNL     1      47.728 129.651  12.387  1.00  0.00     0.116 C 
BRANCH  29  30
ATOM     30  N   UNL     1      47.655 130.617  11.296  1.00  0.00    -0.326 NA
ATOM     31  H   UNL     1      48.332 131.388  11.497  1.00  0.00     0.119 HD
ATOM     32  H   UNL     1      46.702 131.047  11.314  1.00  0.00     0.119 HD
ENDBRANCH  29  30
ENDBRANCH  27  29
ENDBRANCH   1  24
TORSDOF 6
ENDMDL
MODEL 2
REMARK VINA RESULT:      -6.1      3.680      9.587
REMARK SMILES C[N+]1(C)Cc2cc3ccc(-n4cc(CCn5cc(CN)cn5)n[nH+]4)cc3cc2C1
REMARK SMILES IDX 15 1 14 2 13 3 11 4 12 5 24 6 23 7 10 9 2 10 4 11 29 12 5 13
REMARK SMILES IDX 28 14 6 15 27 16 7 17 26 18 8 19 25 20 9 21 1 22 3 23 16 24
REMARK SMILES IDX 17 25 22 26 18 27 21 28 19 29 20 30
REMARK H PARENT 24 8 20 31 20 32
ROOT
ATOM      1  C   UNL     1      36.706 133.508  19.325  1.00  0.00     0.151 C 
ENDROOT
BRANCH   1   2
ATOM      2  C   UNL     1      36.497 134.520  18.193  1.00  0.00     0.088 C 
BRANCH   2   3
ATOM      3  C   UNL     1      37.692 134.583  17.294  1.00  0.00     0.134 A 
ATOM      4  N   UNL     1      39.726 134.388  16.525  1.00  0.00    -0.104 N 
ATOM      5  C   UNL     1      38.899 133.947  17.493  1.00  0.00     0.190 A 
ATOM      6  N   UNL     1      39.045 135.252  15.784  1.00  0.00    -0.012 N 
ATOM      7  N   UNL     1      37.808 135.404  16.233  1.00  0.00     0.020 NA
ATOM      8  H   UNL     1      39.434 135.792  14.980  1.00  0.00     0.527 HD
BRANCH   4   9
ATOM      9  C   UNL     1      41.116 134.051  16.348  1.00  0.00     0.107 A 
ATOM     10  N   UNL     1      46.668 130.460  13.608  1.00  0.00    -0.321 N 
ATOM     11  C   UNL     1      46.870 131.448  14.717  1.00  0.00     0.301 C 
ATOM     12  C   UNL     1      45.188 130.278  13.465  1.00  0.00     0.301 C 
ATOM     13  C   UNL     1      45.527 131.996  15.010  1.00  0.00     0.016 A 
ATOM     14  C   UNL     1      44.574 131.333  14.300  1.00  0.00     0.016 A 
ATOM     15  C   UNL     1      45.197 133.022  15.896  1.00  0.00     0.018 A 
ATOM     16  C   UNL     1      43.220 131.647  14.423  1.00  0.00     0.019 A 
ATOM     17  C   UNL     1      43.841 133.374  16.045  1.00  0.00    -0.018 A 
ATOM     18  C   UNL     1      42.845 132.681  15.301  1.00  0.00    -0.016 A 
ATOM     19  C   UNL     1      43.460 134.396  16.922  1.00  0.00     0.011 A 
ATOM     20  C   UNL     1      41.496 133.030  15.456  1.00  0.00     0.041 A 
ATOM     21  C   UNL     1      42.113 134.731  17.072  1.00  0.00     0.033 A 
ATOM     22  C   UNL     1      47.325 129.173  13.931  1.00  0.00     0.334 C 
ATOM     23  C   UNL     1      47.239 130.990  12.347  1.00  0.00     0.334 C 
ENDBRANCH   4   9
ENDBRANCH   2   3
ENDBRANCH   1   2
BRANCH   1  24
ATOM     24  N   UNL     1      37.110 134.179  20.559  1.00  0.00    -0.272 N 
ATOM     25  C   UNL     1      36.710 133.855  21.803  1.00  0.00     0.113 A 
ATOM     26  N   UNL     1      37.866 135.268  20.593  1.00  0.00    -0.181 NA
ATOM     27  C   UNL     1      37.260 134.768  22.675  1.00  0.00     0.004 A 
ATOM     28  C   UNL     1      37.973 135.648  21.882  1.00  0.00     0.140 A 
BRANCH  27  29
ATOM     29  C   UNL     1      37.037 134.857  24.151  1.00  0.00     0.116 C 
BRANCH  29  30
ATOM     30  N   UNL     1      36.375 136.115  24.480  1.00  0.00    -0.326 NA
ATOM     31  H   UNL     1      36.674 136.834  23.782  1.00  0.00     0.119 HD
ATOM     32  H   UNL     1      36.737 136.433  25.408  1.00  0.00     0.119 HD
ENDBRANCH  29  30
ENDBRANCH  27  29
ENDBRANCH   1  24
TORSDOF 6
ENDMDL
MODEL 3
REMARK VINA RESULT:      -5.9      3.682      9.332
REMARK SMILES C[N+]1(C)Cc2cc3ccc(-n4cc(CCn5cc(CN)cn5)n[nH+]4)cc3cc2C1
REMARK SMILES IDX 15 1 14 2 13 3 11 4 12 5 24 6 23 7 10 9 2 10 4 11 29 12 5 13
REMARK SMILES IDX 28 14 6 15 27 16 7 17 26 18 8 19 25 20 9 21 1 22 3 23 16 24
REMARK SMILES IDX 17 25 22 26 18 27 21 28 19 29 20 30
REMARK H PARENT 24 8 20 31 20 32
ROOT
ATOM      1  C   UNL     1      37.350 134.937  20.168  1.00  0.00     0.151 C 
ENDROOT
BRANCH   1   2
ATOM      2  C   UNL     1      36.931 134.974  18.694  1.00  0.00     0.088 C 
BRANCH   2   3
ATOM      3  C   UNL     1      38.120 135.110  17.795  1.00  0.00     0.134 A 
ATOM      4  N   UNL     1      40.116 134.880  16.941  1.00  0.00    -0.104 N 
ATOM      5  C   UNL     1      39.254 134.325  17.815  1.00  0.00     0.190 A 
ATOM      6  N   UNL     1      39.527 135.950  16.426  1.00  0.00    -0.012 N 
ATOM      7  N   UNL     1      38.316 136.126  16.933  1.00  0.00     0.020 NA
ATOM      8  H   UNL     1      39.964 136.609  15.746  1.00  0.00     0.527 HD
BRANCH   4   9
ATOM      9  C   UNL     1      41.462 134.450  16.654  1.00  0.00     0.107 A 
ATOM     10  N   UNL     1      46.506 130.267  13.776  1.00  0.00    -0.321 N 
ATOM     11  C   UNL     1      46.875 131.364  14.727  1.00  0.00     0.301 C 
ATOM     12  C   UNL     1      45.013 130.151  13.820  1.00  0.00     0.301 C 
ATOM     13  C   UNL     1      45.600 132.016  15.098  1.00  0.00     0.016 A 
ATOM     14  C   UNL     1      44.544 131.327  14.583  1.00  0.00     0.016 A 
ATOM     15  C   UNL     1      45.417 133.154  15.883  1.00  0.00     0.018 A 
ATOM     16  C   UNL     1      43.228 131.726  14.815  1.00  0.00     0.019 A 
ATOM     17  C   UNL     1      44.103 133.594  16.137  1.00  0.00    -0.018 A 
ATOM     18  C   UNL     1      43.000 132.875  15.598  1.00  0.00    -0.016 A 
ATOM     19  C   UNL     1      43.869 134.731  16.920  1.00  0.00     0.011 A 
ATOM     20  C   UNL     1      41.693 133.313  15.857  1.00  0.00     0.041 A 
ATOM     21  C   UNL     1      42.562 135.153  17.176  1.00  0.00     0.033 A 
ATOM     22  C   UNL     1      47.142 128.992  14.178  1.00  0.00     0.334 C 
ATOM     23  C   UNL     1      46.948 130.615  12.404  1.00  0.00     0.334 C 
ENDBRANCH   4   9
ENDBRANCH   2   3
ENDBRANCH   1   2
BRANCH   1  24
ATOM     24  N   UNL     1      37.849 136.240  20.603  1.00  0.00    -0.272 N 
ATOM     25  C   UNL     1      39.051 136.480  21.162  1.00  0.00     0.113 A 
ATOM     26  N   UNL     1      37.128 137.351  20.580  1.00  0.00    -0.181 NA
ATOM     27  C   UNL     1      39.105 137.817  21.487  1.00  0.00     0.004 A 
ATOM     28  C   UNL     1      37.878 138.334  21.117  1.00  0.00     0.140 A 
BRANCH  27  29
ATOM     29  C   UNL     1      40.210 138.532  22.196  1.00  0.00     0.116 C 
BRANCH  29  30
ATOM     30  N   UNL     1      41.445 138.431  21.425  1.00  0.00    -0.326 NA
ATOM     31  H   UNL     1      41.823 139.396  21.288  1.00  0.00     0.119 HD
ATOM     32  H   UNL     1      41.199 138.070  20.475  1.00  0.00     0.119 HD
ENDBRANCH  29  30
ENDBRANCH  27  29
ENDBRANCH   1  24
TORSDOF 6
ENDMDL
MODEL 4
REMARK VINA RESULT:      -5.7      3.422      9.103
REMARK SMILES C[N+]1(C)Cc2cc3ccc(-n4cc(CCn5cc(CN)cn5)n[nH+]4)cc3cc2C1
REMARK SMILES IDX 15 1 14 2 13 3 11 4 12 5 24 6 23 7 10 9 2 10 4 11 29 12 5 13
REMARK SMILES IDX 28 14 6 15 27 16 7 17 26 18 8 19 25 20 9 21 1 22 3 23 16 24
REMARK SMILES IDX 17 25 22 26 18 27 21 28 19 29 20 30
REMARK H PARENT 24 8 20 31 20 32
ROOT
ATOM      1  C   UNL     1      36.424 135.212  10.373  1.00  0.00     0.151 C 
ENDROOT
BRANCH   1   2
ATOM      2  C   UNL     1      36.406 136.003  11.685  1.00  0.00     0.088 C 
BRANCH   2   3
ATOM      3  C   UNL     1      37.745 135.978  12.353  1.00  0.00     0.134 A 
ATOM      4  N   UNL     1      39.450 135.357  13.566  1.00  0.00    -0.104 N 
ATOM      5  C   UNL     1      38.317 134.902  12.998  1.00  0.00     0.190 A 
ATOM      6  N   UNL     1      39.550 136.648  13.277  1.00  0.00    -0.012 N 
ATOM      7  N   UNL     1      38.522 137.061  12.551  1.00  0.00     0.020 NA
ATOM      8  H   UNL     1      40.306 137.283  13.613  1.00  0.00     0.527 HD
BRANCH   4   9
ATOM      9  C   UNL     1      40.366 134.616  14.397  1.00  0.00     0.107 A 
ATOM     10  N   UNL     1      43.283 132.421  20.553  1.00  0.00    -0.321 N 
ATOM     11  C   UNL     1      43.889 132.032  19.240  1.00  0.00     0.301 C 
ATOM     12  C   UNL     1      42.238 133.451  20.251  1.00  0.00     0.301 C 
ATOM     13  C   UNL     1      43.025 132.643  18.206  1.00  0.00     0.016 A 
ATOM     14  C   UNL     1      42.089 133.447  18.780  1.00  0.00     0.016 A 
ATOM     15  C   UNL     1      43.110 132.492  16.821  1.00  0.00     0.018 A 
ATOM     16  C   UNL     1      41.168 134.160  18.012  1.00  0.00     0.019 A 
ATOM     17  C   UNL     1      42.194 133.191  16.010  1.00  0.00    -0.018 A 
ATOM     18  C   UNL     1      41.215 134.031  16.610  1.00  0.00    -0.016 A 
ATOM     19  C   UNL     1      42.240 133.072  14.616  1.00  0.00     0.011 A 
ATOM     20  C   UNL     1      40.308 134.729  15.799  1.00  0.00     0.041 A 
ATOM     21  C   UNL     1      41.336 133.777  13.818  1.00  0.00     0.033 A 
ATOM     22  C   UNL     1      44.315 132.974  21.461  1.00  0.00     0.334 C 
ATOM     23  C   UNL     1      42.660 131.239  21.194  1.00  0.00     0.334 C 
ENDBRANCH   4   9
ENDBRANCH   2   3
ENDBRANCH   1   2
BRANCH   1  24
ATOM     24  N   UNL     1      37.353 135.809   9.415  1.00  0.00    -0.272 N 
ATOM     25  C   UNL     1      38.662 135.515   9.294  1.00  0.00     0.113 A 
ATOM     26  N   UNL     1      37.031 136.797   8.592  1.00  0.00    -0.181 NA
ATOM     27  C   UNL     1      39.192 136.340   8.327  1.00  0.00     0.004 A 
ATOM     28  C   UNL     1      38.144 137.140   7.912  1.00  0.00     0.140 A 
BRANCH  27  29
ATOM     29  C   UNL     1      40.623 136.431   7.901  1.00  0.00     0.116 C 
BRANCH  29  30
ATOM     30  N   UNL     1      41.453 135.594   8.760  1.00  0.00    -0.326 NA
ATOM     31  H   UNL     1      41.821 134.801   8.186  1.00  0.00     0.119 HD
ATOM     32  H   UNL     1      40.833 135.171   9.488  1.00  0.00     0.119 HD
ENDBRANCH  29  30
ENDBRANCH  27  29
ENDBRANCH   1  24
TORSDOF 6
ENDMDL
MODEL 5
REMARK VINA RESULT:      -5.7      4.498      8.373
REMARK SMILES C[N+]1(C)Cc2cc3ccc(-n4cc(CCn5cc(CN)cn5)n[nH+]4)cc3cc2C1
REMARK SMILES IDX 15 1 14 2 13 3 11 4 12 5 24 6 23 7 10 9 2 10 4 11 29 12 5 13
REMARK SMILES IDX 28 14 6 15 27 16 7 17 26 18 8 19 25 20 9 21 1 22 3 23 16 24
REMARK SMILES IDX 17 25 22 26 18 27 21 28 19 29 20 30
REMARK H PARENT 24 8 20 31 20 32
ROOT
ATOM      1  C   UNL     1      45.167 138.457  20.961  1.00  0.00     0.151 C 
ENDROOT
BRANCH   1   2
ATOM      2  C   UNL     1      43.712 138.043  21.209  1.00  0.00     0.088 C 
BRANCH   2   3
ATOM      3  C   UNL     1      43.155 137.295  20.038  1.00  0.00     0.134 A 
ATOM      4  N   UNL     1      42.922 135.861  18.409  1.00  0.00    -0.104 N 
ATOM      5  C   UNL     1      43.620 136.098  19.537  1.00  0.00     0.190 A 
ATOM      6  N   UNL     1      42.082 136.873  18.241  1.00  0.00    -0.012 N 
ATOM      7  N   UNL     1      42.206 137.770  19.208  1.00  0.00     0.020 NA
ATOM      8  H   UNL     1      41.436 136.990  17.431  1.00  0.00     0.527 HD
BRANCH   4   9
ATOM      9  C   UNL     1      43.089 134.755  17.499  1.00  0.00     0.107 A 
ATOM     10  N   UNL     1      46.733 130.233  13.316  1.00  0.00    -0.321 N 
ATOM     11  C   UNL     1      45.235 130.210  13.342  1.00  0.00     0.301 C 
ATOM     12  C   UNL     1      47.153 131.453  14.077  1.00  0.00     0.301 C 
ATOM     13  C   UNL     1      44.838 131.253  14.314  1.00  0.00     0.016 A 
ATOM     14  C   UNL     1      45.926 131.957  14.731  1.00  0.00     0.016 A 
ATOM     15  C   UNL     1      43.554 131.556  14.767  1.00  0.00     0.018 A 
ATOM     16  C   UNL     1      45.810 133.016  15.631  1.00  0.00     0.019 A 
ATOM     17  C   UNL     1      43.394 132.615  15.682  1.00  0.00    -0.018 A 
ATOM     18  C   UNL     1      44.532 133.351  16.119  1.00  0.00    -0.016 A 
ATOM     19  C   UNL     1      42.125 132.957  16.165  1.00  0.00     0.011 A 
ATOM     20  C   UNL     1      44.368 134.407  17.025  1.00  0.00     0.041 A 
ATOM     21  C   UNL     1      41.975 134.016  17.063  1.00  0.00     0.033 A 
ATOM     22  C   UNL     1      47.229 130.290  11.922  1.00  0.00     0.334 C 
ATOM     23  C   UNL     1      47.270 129.017  13.971  1.00  0.00     0.334 C 
ENDBRANCH   4   9
ENDBRANCH   2   3
ENDBRANCH   1   2
BRANCH   1  24
ATOM     24  N   UNL     1      46.088 137.393  21.358  1.00  0.00    -0.272 N 
ATOM     25  C   UNL     1      45.931 136.561  22.404  1.00  0.00     0.113 A 
ATOM     26  N   UNL     1      47.257 137.174  20.773  1.00  0.00    -0.181 NA
ATOM     27  C   UNL     1      47.046 135.755  22.472  1.00  0.00     0.004 A 
ATOM     28  C   UNL     1      47.864 136.171  21.439  1.00  0.00     0.140 A 
BRANCH  27  29
ATOM     29  C   UNL     1      47.357 134.727  23.514  1.00  0.00     0.116 C 
BRANCH  29  30
ATOM     30  N   UNL     1      48.757 134.329  23.419  1.00  0.00    -0.326 NA
ATOM     31  H   UNL     1      48.932 133.581  24.128  1.00  0.00     0.119 HD
ATOM     32  H   UNL     1      49.342 135.149  23.701  1.00  0.00     0.119 HD
ENDBRANCH  29  30
ENDBRANCH  27  29
ENDBRANCH   1  24
TORSDOF 6
ENDMDL
MODEL 6
REMARK VINA RESULT:      -5.7      4.859      8.664
REMARK SMILES C[N+]1(C)Cc2cc3ccc(-n4cc(CCn5cc(CN)cn5)n[nH+]4)cc3cc2C1
REMARK SMILES IDX 15 1 14 2 13 3 11 4 12 5 24 6 23 7 10 9 2 10 4 11 29 12 5 13
REMARK SMILES IDX 28 14 6 15 27 16 7 17 26 18 8 19 25 20 9 21 1 22 3 23 16 24
REMARK SMILES IDX 17 25 22 26 18 27 21 28 19 29 20 30
REMARK H PARENT 24 8 20 31 20 32
ROOT
ATOM      1  C   UNL     1      44.805 138.677  20.319  1.00  0.00     0.151 C 
ENDROOT
BRANCH   1   2
ATOM      2  C   UNL     1      43.461 138.268  20.931  1.00  0.00     0.088 C 
BRANCH   2   3
ATOM      3  C   UNL     1      42.918 137.037  20.275  1.00  0.00     0.134 A 
ATOM      4  N   UNL     1      42.739 135.256  19.026  1.00  0.00    -0.104 N 
ATOM      5  C   UNL     1      43.638 136.116  19.544  1.00  0.00     0.190 A 
ATOM      6  N   UNL     1      41.537 135.648  19.426  1.00  0.00    -0.012 N 
ATOM      7  N   UNL     1      41.609 136.737  20.177  1.00  0.00     0.020 NA
ATOM      8  H   UNL     1      40.635 135.200  19.152  1.00  0.00     0.527 HD
BRANCH   4   9
ATOM      9  C   UNL     1      43.003 134.148  18.142  1.00  0.00     0.107 A 
ATOM     10  N   UNL     1      46.814 130.283  13.477  1.00  0.00    -0.321 N 
ATOM     11  C   UNL     1      45.402 129.907  13.807  1.00  0.00     0.301 C 
ATOM     12  C   UNL     1      47.050 131.628  14.092  1.00  0.00     0.301 C 
ATOM     13  C   UNL     1      44.945 130.904  14.800  1.00  0.00     0.016 A 
ATOM     14  C   UNL     1      45.881 131.879  14.962  1.00  0.00     0.016 A 
ATOM     15  C   UNL     1      43.734 130.930  15.492  1.00  0.00     0.018 A 
ATOM     16  C   UNL     1      45.674 132.954  15.828  1.00  0.00     0.019 A 
ATOM     17  C   UNL     1      43.489 131.995  16.381  1.00  0.00    -0.018 A 
ATOM     18  C   UNL     1      44.467 133.014  16.551  1.00  0.00    -0.016 A 
ATOM     19  C   UNL     1      42.288 132.065  17.098  1.00  0.00     0.011 A 
ATOM     20  C   UNL     1      44.217 134.075  17.433  1.00  0.00     0.041 A 
ATOM     21  C   UNL     1      42.048 133.130  17.968  1.00  0.00     0.033 A 
ATOM     22  C   UNL     1      47.011 130.337  12.011  1.00  0.00     0.334 C 
ATOM     23  C   UNL     1      47.751 129.289  14.054  1.00  0.00     0.334 C 
ENDBRANCH   4   9
ENDBRANCH   2   3
ENDBRANCH   1   2
BRANCH   1  24
ATOM     24  N   UNL     1      45.909 138.375  21.228  1.00  0.00    -0.272 N 
ATOM     25  C   UNL     1      46.948 137.559  20.967  1.00  0.00     0.113 A 
ATOM     26  N   UNL     1      45.974 138.809  22.479  1.00  0.00    -0.181 NA
ATOM     27  C   UNL     1      47.726 137.491  22.101  1.00  0.00     0.004 A 
ATOM     28  C   UNL     1      47.082 138.280  23.035  1.00  0.00     0.140 A 
BRANCH  27  29
ATOM     29  C   UNL     1      48.944 136.650  22.313  1.00  0.00     0.116 C 
BRANCH  29  30
ATOM     30  N   UNL     1      50.117 137.502  22.476  1.00  0.00    -0.326 NA
ATOM     31  H   UNL     1      49.845 138.322  23.065  1.00  0.00     0.119 HD
ATOM     32  H   UNL     1      50.368 137.882  21.534  1.00  0.00     0.119 HD
ENDBRANCH  29  30
ENDBRANCH  27  29
ENDBRANCH   1  24
TORSDOF 6
ENDMDL
MODEL 7
REMARK VINA RESULT:      -5.6      3.023      4.913
REMARK SMILES C[N+]1(C)Cc2cc3ccc(-n4cc(CCn5cc(CN)cn5)n[nH+]4)cc3cc2C1
REMARK SMILES IDX 15 1 14 2 13 3 11 4 12 5 24 6 23 7 10 9 2 10 4 11 29 12 5 13
REMARK SMILES IDX 28 14 6 15 27 16 7 17 26 18 8 19 25 20 9 21 1 22 3 23 16 24
REMARK SMILES IDX 17 25 22 26 18 27 21 28 19 29 20 30
REMARK H PARENT 24 8 20 31 20 32
ROOT
ATOM      1  C   UNL     1      44.939 131.989  21.611  1.00  0.00     0.151 C 
ENDROOT
BRANCH   1   2
ATOM      2  C   UNL     1      45.550 131.341  20.363  1.00  0.00     0.088 C 
BRANCH   2   3
ATOM      3  C   UNL     1      44.748 131.658  19.140  1.00  0.00     0.134 A 
ATOM      4  N   UNL     1      43.113 132.265  17.827  1.00  0.00    -0.104 N 
ATOM      5  C   UNL     1      43.541 132.323  19.103  1.00  0.00     0.190 A 
ATOM      6  N   UNL     1      44.022 131.592  17.133  1.00  0.00    -0.012 N 
ATOM      7  N   UNL     1      45.024 131.197  17.904  1.00  0.00     0.020 NA
ATOM      8  H   UNL     1      43.948 131.350  16.121  1.00  0.00     0.527 HD
BRANCH   4   9
ATOM      9  C   UNL     1      41.870 132.771  17.302  1.00  0.00     0.107 A 
ATOM     10  N   UNL     1      37.586 135.782  12.422  1.00  0.00    -0.321 N 
ATOM     11  C   UNL     1      37.084 135.491  13.803  1.00  0.00     0.301 C 
ATOM     12  C   UNL     1      39.067 135.554  12.451  1.00  0.00     0.301 C 
ATOM     13  C   UNL     1      38.220 134.866  14.516  1.00  0.00     0.016 A 
ATOM     14  C   UNL     1      39.344 134.903  13.749  1.00  0.00     0.016 A 
ATOM     15  C   UNL     1      38.229 134.324  15.802  1.00  0.00     0.018 A 
ATOM     16  C   UNL     1      40.560 134.399  14.211  1.00  0.00     0.019 A 
ATOM     17  C   UNL     1      39.437 133.799  16.303  1.00  0.00    -0.018 A 
ATOM     18  C   UNL     1      40.611 133.836  15.501  1.00  0.00    -0.016 A 
ATOM     19  C   UNL     1      39.496 133.244  17.587  1.00  0.00     0.011 A 
ATOM     20  C   UNL     1      41.812 133.317  16.005  1.00  0.00     0.041 A 
ATOM     21  C   UNL     1      40.700 132.737  18.081  1.00  0.00     0.033 A 
ATOM     22  C   UNL     1      37.280 137.180  12.040  1.00  0.00     0.334 C 
ATOM     23  C   UNL     1      36.951 134.865  11.447  1.00  0.00     0.334 C 
ENDBRANCH   4   9
ENDBRANCH   2   3
ENDBRANCH   1   2
BRANCH   1  24
ATOM     24  N   UNL     1      45.318 133.397  21.709  1.00  0.00    -0.272 N 
ATOM     25  C   UNL     1      46.570 133.886  21.629  1.00  0.00     0.113 A 
ATOM     26  N   UNL     1      44.465 134.374  21.981  1.00  0.00    -0.181 NA
ATOM     27  C   UNL     1      46.506 135.246  21.836  1.00  0.00     0.004 A 
ATOM     28  C   UNL     1      45.171 135.519  22.064  1.00  0.00     0.140 A 
BRANCH  27  29
ATOM     29  C   UNL     1      47.652 136.204  21.915  1.00  0.00     0.116 C 
BRANCH  29  30
ATOM     30  N   UNL     1      48.912 135.490  21.742  1.00  0.00    -0.326 NA
ATOM     31  H   UNL     1      49.693 136.177  21.842  1.00  0.00     0.119 HD
ATOM     32  H   UNL     1      48.948 135.139  20.758  1.00  0.00     0.119 HD
ENDBRANCH  29  30
ENDBRANCH  27  29
ENDBRANCH   1  24
TORSDOF 6
ENDMDL
MODEL 8
REMARK VINA RESULT:      -5.6      3.659      9.344
REMARK SMILES C[N+]1(C)Cc2cc3ccc(-n4cc(CCn5cc(CN)cn5)n[nH+]4)cc3cc2C1
REMARK SMILES IDX 15 1 14 2 13 3 11 4 12 5 24 6 23 7 10 9 2 10 4 11 29 12 5 13
REMARK SMILES IDX 28 14 6 15 27 16 7 17 26 18 8 19 25 20 9 21 1 22 3 23 16 24
REMARK SMILES IDX 17 25 22 26 18 27 21 28 19 29 20 30
REMARK H PARENT 24 8 20 31 20 32
ROOT
ATOM      1  C   UNL     1      37.554 134.249  20.346  1.00  0.00     0.151 C 
ENDROOT
BRANCH   1   2
ATOM      2  C   UNL     1      37.126 133.894  18.919  1.00  0.00     0.088 C 
BRANCH   2   3
ATOM      3  C   UNL     1      38.308 133.799  18.005  1.00  0.00     0.134 A 
ATOM      4  N   UNL     1      40.310 133.397  17.234  1.00  0.00    -0.104 N 
ATOM      5  C   UNL     1      39.470 133.097  18.243  1.00  0.00     0.190 A 
ATOM      6  N   UNL     1      39.680 134.245  16.431  1.00  0.00    -0.012 N 
ATOM      7  N   UNL     1      38.464 134.520  16.879  1.00  0.00     0.020 NA
ATOM      8  H   UNL     1      40.092 134.688  15.581  1.00  0.00     0.527 HD
BRANCH   4   9
ATOM      9  C   UNL     1      41.671 132.950  17.071  1.00  0.00     0.107 A 
ATOM     10  N   UNL     1      47.305 130.343  13.508  1.00  0.00    -0.321 N 
ATOM     11  C   UNL     1      47.369 130.554  14.990  1.00  0.00     0.301 C 
ATOM     12  C   UNL     1      45.873 130.541  13.113  1.00  0.00     0.301 C 
ATOM     13  C   UNL     1      46.051 131.109  15.371  1.00  0.00     0.016 A 
ATOM     14  C   UNL     1      45.204 131.102  14.306  1.00  0.00     0.016 A 
ATOM     15  C   UNL     1      45.646 131.566  16.625  1.00  0.00     0.018 A 
ATOM     16  C   UNL     1      43.888 131.552  14.416  1.00  0.00     0.019 A 
ATOM     17  C   UNL     1      44.326 132.035  16.777  1.00  0.00    -0.018 A 
ATOM     18  C   UNL     1      43.440 132.028  15.663  1.00  0.00    -0.016 A 
ATOM     19  C   UNL     1      43.873 132.503  18.016  1.00  0.00     0.011 A 
ATOM     20  C   UNL     1      42.126 132.491  15.820  1.00  0.00     0.041 A 
ATOM     21  C   UNL     1      42.559 132.955  18.161  1.00  0.00     0.033 A 
ATOM     22  C   UNL     1      47.761 128.980  13.155  1.00  0.00     0.334 C 
ATOM     23  C   UNL     1      48.164 131.334  12.817  1.00  0.00     0.334 C 
ENDBRANCH   4   9
ENDBRANCH   2   3
ENDBRANCH   1   2
BRANCH   1  24
ATOM     24  N   UNL     1      37.924 135.659  20.446  1.00  0.00    -0.272 N 
ATOM     25  C   UNL     1      39.007 136.150  21.080  1.00  0.00     0.113 A 
ATOM     26  N   UNL     1      37.175 136.652  19.990  1.00  0.00    -0.181 NA
ATOM     27  C   UNL     1      38.955 137.524  21.000  1.00  0.00     0.004 A 
ATOM     28  C   UNL     1      37.788 137.808  20.317  1.00  0.00     0.140 A 
BRANCH  27  29
ATOM     29  C   UNL     1      39.901 138.502  21.621  1.00  0.00     0.116 C 
BRANCH  29  30
ATOM     30  N   UNL     1      41.132 138.570  20.841  1.00  0.00    -0.326 NA
ATOM     31  H   UNL     1      41.648 139.436  21.121  1.00  0.00     0.119 HD
ATOM     32  H   UNL     1      40.867 138.693  19.837  1.00  0.00     0.119 HD
ENDBRANCH  29  30
ENDBRANCH  27  29
ENDBRANCH   1  24
TORSDOF 6
ENDMDL
MODEL 9
REMARK VINA RESULT:      -5.6      2.576      8.775
REMARK SMILES C[N+]1(C)Cc2cc3ccc(-n4cc(CCn5cc(CN)cn5)n[nH+]4)cc3cc2C1
REMARK SMILES IDX 15 1 14 2 13 3 11 4 12 5 24 6 23 7 10 9 2 10 4 11 29 12 5 13
REMARK SMILES IDX 28 14 6 15 27 16 7 17 26 18 8 19 25 20 9 21 1 22 3 23 16 24
REMARK SMILES IDX 17 25 22 26 18 27 21 28 19 29 20 30
REMARK H PARENT 24 8 20 31 20 32
ROOT
ATOM      1  C   UNL     1      37.128 135.054  18.448  1.00  0.00     0.151 C 
ENDROOT
BRANCH   1   2
ATOM      2  C   UNL     1      37.772 135.670  19.695  1.00  0.00     0.088 C 
BRANCH   2   3
ATOM      3  C   UNL     1      39.044 134.967  20.051  1.00  0.00     0.134 A 
ATOM      4  N   UNL     1      40.913 133.849  19.899  1.00  0.00    -0.104 N 
ATOM      5  C   UNL     1      40.022 134.552  19.172  1.00  0.00     0.190 A 
ATOM      6  N   UNL     1      40.484 133.840  21.154  1.00  0.00    -0.012 N 
ATOM      7  N   UNL     1      39.343 134.501  21.279  1.00  0.00     0.020 NA
ATOM      8  H   UNL     1      40.946 133.339  21.944  1.00  0.00     0.527 HD
BRANCH   4   9
ATOM      9  C   UNL     1      42.085 133.164  19.413  1.00  0.00     0.107 A 
ATOM     10  N   UNL     1      46.488 130.469  14.456  1.00  0.00    -0.321 N 
ATOM     11  C   UNL     1      46.733 130.219  15.912  1.00  0.00     0.301 C 
ATOM     12  C   UNL     1      45.134 131.101  14.355  1.00  0.00     0.301 C 
ATOM     13  C   UNL     1      45.650 130.930  16.627  1.00  0.00     0.016 A 
ATOM     14  C   UNL     1      44.744 131.430  15.743  1.00  0.00     0.016 A 
ATOM     15  C   UNL     1      45.491 131.084  18.004  1.00  0.00     0.018 A 
ATOM     16  C   UNL     1      43.611 132.122  16.172  1.00  0.00     0.019 A 
ATOM     17  C   UNL     1      44.363 131.782  18.478  1.00  0.00    -0.018 A 
ATOM     18  C   UNL     1      43.416 132.306  17.555  1.00  0.00    -0.016 A 
ATOM     19  C   UNL     1      44.160 131.962  19.852  1.00  0.00     0.011 A 
ATOM     20  C   UNL     1      42.291 132.996  18.031  1.00  0.00     0.041 A 
ATOM     21  C   UNL     1      43.033 132.645  20.314  1.00  0.00     0.033 A 
ATOM     22  C   UNL     1      46.531 129.200  13.694  1.00  0.00     0.334 C 
ATOM     23  C   UNL     1      47.519 131.389  13.919  1.00  0.00     0.334 C 
ENDBRANCH   4   9
ENDBRANCH   2   3
ENDBRANCH   1   2
BRANCH   1  24
ATOM     24  N   UNL     1      37.607 135.710  17.233  1.00  0.00    -0.272 N 
ATOM     25  C   UNL     1      38.253 136.890  17.174  1.00  0.00     0.113 A 
ATOM     26  N   UNL     1      37.381 135.253  16.010  1.00  0.00    -0.181 NA
ATOM     27  C   UNL     1      38.470 137.186  15.847  1.00  0.00     0.004 A 
ATOM     28  C   UNL     1      37.903 136.142  15.141  1.00  0.00     0.140 A 
BRANCH  27  29
ATOM     29  C   UNL     1      39.085 138.429  15.286  1.00  0.00     0.116 C 
BRANCH  29  30
ATOM     30  N   UNL     1      39.340 138.259  13.860  1.00  0.00    -0.326 NA
ATOM     31  H   UNL     1      39.084 137.280  13.597  1.00  0.00     0.119 HD
ATOM     32  H   UNL     1      40.371 138.348  13.707  1.00  0.00     0.119 HD
ENDBRANCH  29  30
ENDBRANCH  27  29
ENDBRANCH   1  24
TORSDOF 6
ENDMDL


