REMARK SMILES CC[C@H]1C[C@]1(NC(=O)c1noc(C)c1C)C(=O)Oc1c(Cl)c(Cl)c(N)c2ccccc12
REMARK SMILES IDX 16 1 17 2 5 3 3 4 4 5 2 6 1 7 6 8 7 9 8 11 9 12 10 13 14 14
REMARK SMILES IDX 11 15 12 16 15 17 13 18 18 19 19 20 20 21 31 22 22 23 30 24
REMARK SMILES IDX 26 25 24 26 29 27 27 28 28 29 21 30 23 31 25 32
REMARK H PARENT 6 10 25 33 25 34
ROOT
ATOM      1  C   UNL     1      -0.674  -0.828  -0.924  1.00  0.00     0.337 C 
ATOM      2  O   UNL     1      -1.165   0.138  -1.569  1.00  0.00    -0.249 OA
ENDROOT
BRANCH   1   3
ATOM      3  C   UNL     1      -1.357  -1.330   0.306  1.00  0.00     0.142 C 
ATOM      4  C   UNL     1      -1.956  -2.734   0.229  1.00  0.00     0.029 C 
ATOM      5  C   UNL     1      -2.870  -1.508   0.276  1.00  0.00     0.047 C 
BRANCH   4   6
ATOM      6  C   UNL     1      -2.012  -3.595   1.501  1.00  0.00     0.003 C 
ATOM      7  C   UNL     1      -0.812  -4.533   1.559  1.00  0.00     0.004 C 
ENDBRANCH   4   6
BRANCH   3   8
ATOM      8  N   UNL     1      -0.794  -0.913   1.589  1.00  0.00    -0.334 N 
ATOM      9  C   UNL     1      -0.922   0.438   2.054  1.00  0.00     0.274 C 
ATOM     10  H   UNL     1      -0.091  -1.539   2.043  1.00  0.00     0.165 HD
ATOM     11  O   UNL     1      -1.723   1.225   1.481  1.00  0.00    -0.267 OA
BRANCH   9  12
ATOM     12  C   UNL     1      -0.103   0.915   3.184  1.00  0.00     0.174 A 
ATOM     13  N   UNL     1       0.703   0.115   3.911  1.00  0.00    -0.074 NA
ATOM     14  C   UNL     1       0.001   2.212   3.660  1.00  0.00     0.025 A 
ATOM     15  O   UNL     1       1.288   0.862   4.803  1.00  0.00    -0.361 OA
ATOM     16  C   UNL     1       0.910   2.114   4.696  1.00  0.00     0.137 A 
ATOM     17  C   UNL     1      -0.677   3.446   3.147  1.00  0.00     0.051 C 
ATOM     18  C   UNL     1       1.409   3.219   5.567  1.00  0.00     0.091 C 
ENDBRANCH   9  12
ENDBRANCH   3   8
ENDBRANCH   1   3
BRANCH   1  19
ATOM     19  O   UNL     1       0.547  -1.393  -1.302  1.00  0.00    -0.422 OA
BRANCH  19  20
ATOM     20  C   UNL     1       1.391  -0.806  -2.252  1.00  0.00     0.159 A 
ATOM     21  C   UNL     1       1.609  -1.476  -3.460  1.00  0.00     0.105 A 
ATOM     22  C   UNL     1       2.031   0.427  -2.000  1.00  0.00     0.028 A 
ATOM     23  C   UNL     1       2.414  -0.903  -4.457  1.00  0.00     0.087 A 
ATOM     24  C   UNL     1       1.903   1.063  -0.748  1.00  0.00     0.013 A 
ATOM     25  C   UNL     1       2.847   1.018  -3.005  1.00  0.00     0.010 A 
ATOM     26  C   UNL     1       3.017   0.356  -4.250  1.00  0.00     0.060 A 
ATOM     27  C   UNL     1       2.544   2.273  -0.497  1.00  0.00     0.001 A 
ATOM     28  C   UNL     1       3.502   2.236  -2.715  1.00  0.00     0.011 A 
ATOM     29  C   UNL     1       3.340   2.858  -1.477  1.00  0.00     0.001 A 
ATOM     30  Cl  UNL     1       0.822  -3.032  -3.724  1.00  0.00    -0.078 Cl
ATOM     31  Cl  UNL     1       2.621  -1.754  -5.991  1.00  0.00    -0.080 Cl
BRANCH  26  32
ATOM     32  N   UNL     1       3.790   0.951  -5.307  1.00  0.00    -0.397 N 
ATOM     33  H   UNL     1       3.856   1.985  -5.426  1.00  0.00     0.156 HD
ATOM     34  H   UNL     1       4.225   0.370  -6.057  1.00  0.00     0.156 HD
ENDBRANCH  26  32
ENDBRANCH  19  20
ENDBRANCH   1  19
TORSDOF 7


