REMARK SMILES C#CCO/C([O-])=C\[C@@H]1[CH][C]2C=CC=C[C@@H]2CC1
REMARK SMILES IDX 4 1 3 2 2 3 1 4 5 5 6 6 7 7 8 8 9 9 17 10 10 11 16 12 11 13
REMARK SMILES IDX 15 14 12 15 14 16 13 17
REMARK H PARENT
ROOT
ATOM      1  O   UNL     1       3.181   0.590   0.096  1.00  0.00    -0.601 OA
ENDROOT
BRANCH   1   2
ATOM      2  C   UNL     1       4.501   1.035   0.378  1.00  0.00     0.160 C 
BRANCH   2   3
ATOM      3  C   UNL     1       5.217  -0.010   1.110  1.00  0.00    -0.095 C 
ATOM      4  C   UNL     1       5.805  -0.872   1.713  1.00  0.00     0.005 C 
ENDBRANCH   2   3
ENDBRANCH   1   2
BRANCH   1   5
ATOM      5  C   UNL     1       2.255   1.381  -0.590  1.00  0.00     0.049 C 
ATOM      6  O   UNL     1       2.613   2.650  -1.035  1.00  0.00    -0.547 OA
BRANCH   5   7
ATOM      7  C   UNL     1       1.021   0.929  -0.826  1.00  0.00     0.004 C 
BRANCH   7   8
ATOM      8  C   UNL     1       0.552  -0.430  -0.363  1.00  0.00     0.036 C 
ATOM      9  C   UNL     1      -0.633  -0.861  -1.200  1.00  0.00    -0.015 C 
ATOM     10  C   UNL     1       0.227  -0.416   1.146  1.00  0.00     0.013 C 
ATOM     11  C   UNL     1      -1.952  -0.759  -0.734  1.00  0.00    -0.045 C 
ATOM     12  C   UNL     1      -1.129   0.243   1.426  1.00  0.00     0.013 C 
ATOM     13  C   UNL     1      -3.085  -0.947  -1.663  1.00  0.00     0.004 C 
ATOM     14  C   UNL     1      -2.247  -0.556   0.742  1.00  0.00     0.041 C 
ATOM     15  C   UNL     1      -4.316  -0.587  -1.292  1.00  0.00    -0.000 C 
ATOM     16  C   UNL     1      -3.594   0.099   0.952  1.00  0.00    -0.019 C 
ATOM     17  C   UNL     1      -4.563   0.018   0.032  1.00  0.00    -0.004 C 
ENDBRANCH   7   8
ENDBRANCH   5   7
ENDBRANCH   1   5
TORSDOF 5


