REMARK SMILES [N-]=[N+]=Nc1ccc2c3c(cc(/C(O)=N/[NH+]=[N-])c(OC(=O)[C@]4(N)C[C@@H](CO)C4)c13)C=C2
REMARK SMILES IDX 18 1 17 2 11 3 10 4 9 5 28 6 8 7 29 8 4 9 7 10 30 11 5 12
REMARK SMILES IDX 6 13 12 14 13 15 14 17 15 18 16 20 3 21 2 22 1 23 19 24
REMARK SMILES IDX 20 25 21 26 23 27 27 28 24 29 22 30 25 33 26 34
REMARK H PARENT 13 16 15 19 22 31 22 32 26 35
ROOT
ATOM      1  O   UNL     1       0.321   0.444   0.014  1.00  0.00    -0.424 OA
ENDROOT
BRANCH   1   2
ATOM      2  C   UNL     1      -0.086  -0.843   0.387  1.00  0.00     0.150 A 
ATOM      3  C   UNL     1       0.728  -1.655   1.252  1.00  0.00     0.062 A 
ATOM      4  C   UNL     1       0.270  -2.935   1.661  1.00  0.00     0.024 A 
ATOM      5  C   UNL     1      -0.958  -3.381   1.184  1.00  0.00    -0.016 A 
ATOM      6  C   UNL     1      -1.319  -1.352  -0.098  1.00  0.00     0.036 A 
ATOM      7  C   UNL     1      -1.691  -2.612   0.343  1.00  0.00     0.000 A 
ATOM      8  C   UNL     1      -1.702  -4.629   1.384  1.00  0.00     0.009 C 
ATOM      9  C   UNL     1      -2.220  -0.688  -0.975  1.00  0.00     0.049 A 
ATOM     10  C   UNL     1      -2.837  -3.247  -0.011  1.00  0.00    -0.017 A 
ATOM     11  C   UNL     1      -2.834  -4.548   0.666  1.00  0.00     0.009 C 
ATOM     12  C   UNL     1      -3.431  -1.347  -1.355  1.00  0.00     0.011 A 
ATOM     13  C   UNL     1      -3.744  -2.636  -0.871  1.00  0.00     0.009 A 
BRANCH   3  14
ATOM     14  C   UNL     1       2.076  -1.214   1.681  1.00  0.00     0.172 C 
BRANCH  14  15
ATOM     15  O   UNL     1       2.531  -1.494   2.971  1.00  0.00    -0.506 OA
ATOM     16  H   UNL     1       1.940  -1.939   3.661  1.00  0.00     0.293 HD
ENDBRANCH  14  15
BRANCH  14  17
ATOM     17  N   UNL     1       2.838  -0.573   0.846  1.00  0.00    -0.151 NA
BRANCH  17  18
ATOM     18  N   UNL     1       4.122  -0.116   1.180  1.00  0.00    -0.169 N 
ATOM     19  H   UNL     1       4.521  -0.265   2.134  1.00  0.00     0.475 HD
ATOM     20  N   UNL     1       4.807   0.511   0.316  1.00  0.00    -0.151 NA
ENDBRANCH  17  18
ENDBRANCH  14  17
ENDBRANCH   3  14
BRANCH   9  21
ATOM     21  N   UNL     1      -1.909   0.623  -1.470  1.00  0.00    -0.060 NA
BRANCH  21  22
ATOM     22  N   UNL     1      -2.660   1.239  -2.228  1.00  0.00     0.005 N 
ATOM     23  N   UNL     1      -3.408   1.856  -2.984  1.00  0.00    -0.003 NA
ENDBRANCH  21  22
ENDBRANCH   9  21
ENDBRANCH   1   2
BRANCH   1  24
ATOM     24  C   UNL     1       0.568   1.468   0.936  1.00  0.00     0.331 C 
ATOM     25  O   UNL     1       0.257   1.319   2.151  1.00  0.00    -0.250 OA
BRANCH  24  26
ATOM     26  C   UNL     1       1.207   2.760   0.472  1.00  0.00     0.116 C 
ATOM     27  C   UNL     1       0.475   4.024   0.938  1.00  0.00     0.040 C 
ATOM     28  C   UNL     1       2.438   3.169   1.288  1.00  0.00     0.040 C 
ATOM     29  C   UNL     1       1.703   4.428   1.756  1.00  0.00     0.019 C 
BRANCH  26  30
ATOM     30  N   UNL     1       1.478   2.790  -0.969  1.00  0.00    -0.316 NA
ATOM     31  H   UNL     1       2.109   1.991  -1.209  1.00  0.00     0.119 HD
ATOM     32  H   UNL     1       0.578   2.646  -1.483  1.00  0.00     0.119 HD
ENDBRANCH  26  30
BRANCH  29  33
ATOM     33  C   UNL     1       2.352   5.738   1.283  1.00  0.00     0.159 C 
BRANCH  33  34
ATOM     34  O   UNL     1       3.568   5.946   1.948  1.00  0.00    -0.396 OA
ATOM     35  H   UNL     1       3.342   6.227   2.873  1.00  0.00     0.210 HD
ENDBRANCH  33  34
ENDBRANCH  29  33
ENDBRANCH  24  26
ENDBRANCH   1  24
TORSDOF 12


