MODEL 1
REMARK VINA RESULT:      -7.5      0.000      0.000
REMARK SMILES CC/C=C(/[O-])OC1=NC(=O)c2ccc(-n3cc(CCc4ccc(F)cc4C)nn3)c3cccc1c23
REMARK SMILES IDX 7 1 8 2 9 3 10 4 11 5 12 6 13 7 14 8 30 9 31 10 32 11 33 12
REMARK SMILES IDX 34 13 35 14 6 15 4 16 5 17 3 18 2 19 1 20 15 21 29 22 16 23
REMARK SMILES IDX 28 24 17 25 18 26 19 27 20 28 21 29 26 30 22 31 25 32 23 33
REMARK SMILES IDX 27 34 24 35
REMARK H PARENT
ROOT
ATOM      1  C   UNL     1      45.467 131.337  16.528  1.00  0.00     0.116 C 
ATOM      2  N   UNL     1      45.901 130.761  17.611  1.00  0.00    -0.201 NA
ATOM      3  C   UNL     1      45.443 131.135  18.914  1.00  0.00     0.278 C 
ATOM      4  O   UNL     1      45.894 130.538  19.928  1.00  0.00    -0.267 OA
ATOM      5  C   UNL     1      44.449 132.219  19.047  1.00  0.00     0.050 A 
ATOM      6  C   UNL     1      43.963 132.619  20.298  1.00  0.00     0.017 A 
ATOM      7  C   UNL     1      43.032 133.652  20.393  1.00  0.00     0.030 A 
ATOM      8  C   UNL     1      42.571 134.314  19.246  1.00  0.00     0.074 A 
ATOM      9  C   UNL     1      43.027 133.897  17.969  1.00  0.00     0.009 A 
ATOM     10  C   UNL     1      42.532 134.469  16.780  1.00  0.00     0.011 A 
ATOM     11  C   UNL     1      43.008 134.046  15.537  1.00  0.00     0.001 A 
ATOM     12  C   UNL     1      43.970 133.041  15.452  1.00  0.00     0.012 A 
ATOM     13  C   UNL     1      44.460 132.429  16.615  1.00  0.00     0.017 A 
ATOM     14  C   UNL     1      43.982 132.850  17.878  1.00  0.00     0.007 A 
ENDROOT
BRANCH   1  15
ATOM     15  O   UNL     1      45.938 130.946  15.266  1.00  0.00    -0.564 OA
BRANCH  15  16
ATOM     16  C   UNL     1      46.313 129.644  14.900  1.00  0.00     0.053 C 
ATOM     17  O   UNL     1      45.425 128.579  15.019  1.00  0.00    -0.547 OA
BRANCH  16  18
ATOM     18  C   UNL     1      47.540 129.411  14.430  1.00  0.00    -0.003 C 
BRANCH  18  19
ATOM     19  C   UNL     1      48.078 130.081  13.195  1.00  0.00     0.026 C 
ATOM     20  C   UNL     1      46.950 130.582  12.297  1.00  0.00     0.008 C 
ENDBRANCH  18  19
ENDBRANCH  16  18
ENDBRANCH  15  16
ENDBRANCH   1  15
BRANCH   8  21
ATOM     21  N   UNL     1      41.674 135.421  19.411  1.00  0.00    -0.220 N 
ATOM     22  N   UNL     1      42.052 136.690  19.435  1.00  0.00    -0.062 NA
ATOM     23  C   UNL     1      40.331 135.380  19.354  1.00  0.00     0.140 A 
ATOM     24  N   UNL     1      40.994 137.489  19.424  1.00  0.00    -0.135 NA
ATOM     25  C   UNL     1      39.907 136.691  19.381  1.00  0.00     0.083 A 
BRANCH  25  26
ATOM     26  C   UNL     1      38.502 137.177  19.208  1.00  0.00     0.065 C 
BRANCH  26  27
ATOM     27  C   UNL     1      37.556 136.046  18.776  1.00  0.00     0.042 C 
BRANCH  27  28
ATOM     28  C   UNL     1      37.488 135.907  17.266  1.00  0.00    -0.044 A 
ATOM     29  C   UNL     1      37.039 137.011  16.518  1.00  0.00     0.007 A 
ATOM     30  C   UNL     1      37.807 134.698  16.591  1.00  0.00    -0.045 A 
ATOM     31  C   UNL     1      36.905 136.926  15.133  1.00  0.00     0.039 A 
ATOM     32  C   UNL     1      37.669 134.634  15.193  1.00  0.00     0.043 A 
ATOM     33  C   UNL     1      37.217 135.740  14.471  1.00  0.00     0.123 A 
ATOM     34  C   UNL     1      38.318 133.485  17.326  1.00  0.00     0.045 C 
ATOM     35  F   UNL     1      37.085 135.662  13.123  1.00  0.00    -0.207 F 
ENDBRANCH  27  28
ENDBRANCH  26  27
ENDBRANCH  25  26
ENDBRANCH   8  21
TORSDOF 8
ENDMDL
MODEL 2
REMARK VINA RESULT:      -7.1      4.113      6.647
REMARK SMILES CC/C=C(/[O-])OC1=NC(=O)c2ccc(-n3cc(CCc4ccc(F)cc4C)nn3)c3cccc1c23
REMARK SMILES IDX 7 1 8 2 9 3 10 4 11 5 12 6 13 7 14 8 30 9 31 10 32 11 33 12
REMARK SMILES IDX 34 13 35 14 6 15 4 16 5 17 3 18 2 19 1 20 15 21 29 22 16 23
REMARK SMILES IDX 28 24 17 25 18 26 19 27 20 28 21 29 26 30 22 31 25 32 23 33
REMARK SMILES IDX 27 34 24 35
REMARK H PARENT
ROOT
ATOM      1  C   UNL     1      44.799 130.449  14.803  1.00  0.00     0.116 C 
ATOM      2  N   UNL     1      43.884 130.920  14.005  1.00  0.00    -0.201 NA
ATOM      3  C   UNL     1      42.880 131.839  14.447  1.00  0.00     0.278 C 
ATOM      4  O   UNL     1      42.023 132.266  13.629  1.00  0.00    -0.267 OA
ATOM      5  C   UNL     1      42.867 132.269  15.860  1.00  0.00     0.050 A 
ATOM      6  C   UNL     1      41.912 133.172  16.342  1.00  0.00     0.017 A 
ATOM      7  C   UNL     1      41.917 133.551  17.683  1.00  0.00     0.030 A 
ATOM      8  C   UNL     1      42.869 133.035  18.574  1.00  0.00     0.074 A 
ATOM      9  C   UNL     1      43.865 132.148  18.093  1.00  0.00     0.009 A 
ATOM     10  C   UNL     1      44.897 131.667  18.925  1.00  0.00     0.011 A 
ATOM     11  C   UNL     1      45.857 130.785  18.427  1.00  0.00     0.001 A 
ATOM     12  C   UNL     1      45.820 130.377  17.094  1.00  0.00     0.012 A 
ATOM     13  C   UNL     1      44.826 130.861  16.233  1.00  0.00     0.017 A 
ATOM     14  C   UNL     1      43.849 131.756  16.728  1.00  0.00     0.007 A 
ENDROOT
BRANCH   1  15
ATOM     15  O   UNL     1      45.767 129.548  14.336  1.00  0.00    -0.564 OA
BRANCH  15  16
ATOM     16  C   UNL     1      47.104 129.861  14.046  1.00  0.00     0.053 C 
ATOM     17  O   UNL     1      48.151 129.245  14.725  1.00  0.00    -0.547 OA
BRANCH  16  18
ATOM     18  C   UNL     1      47.388 130.764  13.105  1.00  0.00    -0.003 C 
BRANCH  18  19
ATOM     19  C   UNL     1      46.787 130.719  11.727  1.00  0.00     0.026 C 
ATOM     20  C   UNL     1      47.756 130.111  10.717  1.00  0.00     0.008 C 
ENDBRANCH  18  19
ENDBRANCH  16  18
ENDBRANCH  15  16
ENDBRANCH   1  15
BRANCH   8  21
ATOM     21  N   UNL     1      42.778 133.401  19.958  1.00  0.00    -0.220 N 
ATOM     22  N   UNL     1      41.807 133.012  20.770  1.00  0.00    -0.062 NA
ATOM     23  C   UNL     1      43.732 133.998  20.695  1.00  0.00     0.140 A 
ATOM     24  N   UNL     1      42.080 133.359  22.020  1.00  0.00    -0.135 NA
ATOM     25  C   UNL     1      43.276 133.983  21.995  1.00  0.00     0.083 A 
BRANCH  25  26
ATOM     26  C   UNL     1      44.037 134.411  23.211  1.00  0.00     0.065 C 
BRANCH  26  27
ATOM     27  C   UNL     1      44.476 135.881  23.121  1.00  0.00     0.042 C 
BRANCH  27  28
ATOM     28  C   UNL     1      45.807 136.035  22.409  1.00  0.00    -0.044 A 
ATOM     29  C   UNL     1      46.893 135.263  22.860  1.00  0.00     0.007 A 
ATOM     30  C   UNL     1      46.008 136.959  21.349  1.00  0.00    -0.045 A 
ATOM     31  C   UNL     1      48.154 135.399  22.280  1.00  0.00     0.039 A 
ATOM     32  C   UNL     1      47.286 137.079  20.774  1.00  0.00     0.043 A 
ATOM     33  C   UNL     1      48.352 136.306  21.240  1.00  0.00     0.123 A 
ATOM     34  C   UNL     1      44.884 137.800  20.798  1.00  0.00     0.045 C 
ATOM     35  F   UNL     1      49.579 136.436  20.679  1.00  0.00    -0.207 F 
ENDBRANCH  27  28
ENDBRANCH  26  27
ENDBRANCH  25  26
ENDBRANCH   8  21
TORSDOF 8
ENDMDL
MODEL 3
REMARK VINA RESULT:      -7.1      2.683      5.116
REMARK SMILES CC/C=C(/[O-])OC1=NC(=O)c2ccc(-n3cc(CCc4ccc(F)cc4C)nn3)c3cccc1c23
REMARK SMILES IDX 7 1 8 2 9 3 10 4 11 5 12 6 13 7 14 8 30 9 31 10 32 11 33 12
REMARK SMILES IDX 34 13 35 14 6 15 4 16 5 17 3 18 2 19 1 20 15 21 29 22 16 23
REMARK SMILES IDX 28 24 17 25 18 26 19 27 20 28 21 29 26 30 22 31 25 32 23 33
REMARK SMILES IDX 27 34 24 35
REMARK H PARENT
ROOT
ATOM      1  C   UNL     1      44.583 131.253  19.652  1.00  0.00     0.116 C 
ATOM      2  N   UNL     1      45.553 130.703  18.980  1.00  0.00    -0.201 NA
ATOM      3  C   UNL     1      45.662 130.818  17.558  1.00  0.00     0.278 C 
ATOM      4  O   UNL     1      46.626 130.268  16.961  1.00  0.00    -0.267 OA
ATOM      5  C   UNL     1      44.638 131.580  16.815  1.00  0.00     0.050 A 
ATOM      6  C   UNL     1      44.702 131.729  15.424  1.00  0.00     0.017 A 
ATOM      7  C   UNL     1      43.716 132.444  14.748  1.00  0.00     0.030 A 
ATOM      8  C   UNL     1      42.641 133.020  15.440  1.00  0.00     0.074 A 
ATOM      9  C   UNL     1      42.581 132.909  16.853  1.00  0.00     0.009 A 
ATOM     10  C   UNL     1      41.572 133.540  17.607  1.00  0.00     0.011 A 
ATOM     11  C   UNL     1      41.531 133.403  18.995  1.00  0.00     0.001 A 
ATOM     12  C   UNL     1      42.498 132.650  19.660  1.00  0.00     0.012 A 
ATOM     13  C   UNL     1      43.534 132.035  18.943  1.00  0.00     0.017 A 
ATOM     14  C   UNL     1      43.584 132.170  17.536  1.00  0.00     0.007 A 
ENDROOT
BRANCH   1  15
ATOM     15  O   UNL     1      44.506 131.119  21.046  1.00  0.00    -0.564 OA
BRANCH  15  16
ATOM     16  C   UNL     1      44.936 132.069  21.985  1.00  0.00     0.053 C 
ATOM     17  O   UNL     1      44.527 132.004  23.315  1.00  0.00    -0.547 OA
BRANCH  16  18
ATOM     18  C   UNL     1      45.748 133.059  21.608  1.00  0.00    -0.003 C 
BRANCH  18  19
ATOM     19  C   UNL     1      45.546 134.485  22.039  1.00  0.00     0.026 C 
ATOM     20  C   UNL     1      46.015 135.463  20.964  1.00  0.00     0.008 C 
ENDBRANCH  18  19
ENDBRANCH  16  18
ENDBRANCH  15  16
ENDBRANCH   1  15
BRANCH   8  21
ATOM     21  N   UNL     1      41.615 133.678  14.683  1.00  0.00    -0.220 N 
ATOM     22  N   UNL     1      40.535 133.076  14.211  1.00  0.00    -0.062 NA
ATOM     23  C   UNL     1      41.469 135.004  14.514  1.00  0.00     0.140 A 
ATOM     24  N   UNL     1      39.690 133.965  13.709  1.00  0.00    -0.135 NA
ATOM     25  C   UNL     1      40.257 135.177  13.881  1.00  0.00     0.083 A 
BRANCH  25  26
ATOM     26  C   UNL     1      39.581 136.481  13.592  1.00  0.00     0.065 C 
BRANCH  26  27
ATOM     27  C   UNL     1      39.251 137.251  14.879  1.00  0.00     0.042 C 
BRANCH  27  28
ATOM     28  C   UNL     1      38.428 136.420  15.845  1.00  0.00    -0.044 A 
ATOM     29  C   UNL     1      39.023 136.030  17.059  1.00  0.00     0.007 A 
ATOM     30  C   UNL     1      37.109 135.981  15.550  1.00  0.00    -0.045 A 
ATOM     31  C   UNL     1      38.335 135.222  17.963  1.00  0.00     0.039 A 
ATOM     32  C   UNL     1      36.430 135.170  16.477  1.00  0.00     0.043 A 
ATOM     33  C   UNL     1      37.041 134.791  17.673  1.00  0.00     0.123 A 
ATOM     34  C   UNL     1      36.400 136.382  14.281  1.00  0.00     0.045 C 
ATOM     35  F   UNL     1      36.375 134.005  18.555  1.00  0.00    -0.207 F 
ENDBRANCH  27  28
ENDBRANCH  26  27
ENDBRANCH  25  26
ENDBRANCH   8  21
TORSDOF 8
ENDMDL
MODEL 4
REMARK VINA RESULT:      -7.1      1.083      1.175
REMARK SMILES CC/C=C(/[O-])OC1=NC(=O)c2ccc(-n3cc(CCc4ccc(F)cc4C)nn3)c3cccc1c23
REMARK SMILES IDX 7 1 8 2 9 3 10 4 11 5 12 6 13 7 14 8 30 9 31 10 32 11 33 12
REMARK SMILES IDX 34 13 35 14 6 15 4 16 5 17 3 18 2 19 1 20 15 21 29 22 16 23
REMARK SMILES IDX 28 24 17 25 18 26 19 27 20 28 21 29 26 30 22 31 25 32 23 33
REMARK SMILES IDX 27 34 24 35
REMARK H PARENT
ROOT
ATOM      1  C   UNL     1      44.553 130.973  15.863  1.00  0.00     0.116 C 
ATOM      2  N   UNL     1      45.221 130.566  16.904  1.00  0.00    -0.201 NA
ATOM      3  C   UNL     1      45.070 131.167  18.194  1.00  0.00     0.278 C 
ATOM      4  O   UNL     1      45.739 130.728  19.167  1.00  0.00    -0.267 OA
ATOM      5  C   UNL     1      44.132 132.296  18.359  1.00  0.00     0.050 A 
ATOM      6  C   UNL     1      43.942 132.914  19.601  1.00  0.00     0.017 A 
ATOM      7  C   UNL     1      43.058 133.985  19.725  1.00  0.00     0.030 A 
ATOM      8  C   UNL     1      42.350 134.466  18.615  1.00  0.00     0.074 A 
ATOM      9  C   UNL     1      42.504 133.828  17.358  1.00  0.00     0.009 A 
ATOM     10  C   UNL     1      41.754 134.215  16.230  1.00  0.00     0.011 A 
ATOM     11  C   UNL     1      41.936 133.575  15.002  1.00  0.00     0.001 A 
ATOM     12  C   UNL     1      42.852 132.533  14.876  1.00  0.00     0.012 A 
ATOM     13  C   UNL     1      43.593 132.102  15.987  1.00  0.00     0.017 A 
ATOM     14  C   UNL     1      43.414 132.744  17.235  1.00  0.00     0.007 A 
ENDROOT
BRANCH   1  15
ATOM     15  O   UNL     1      44.726 130.361  14.612  1.00  0.00    -0.564 OA
BRANCH  15  16
ATOM     16  C   UNL     1      45.722 130.679  13.677  1.00  0.00     0.053 C 
ATOM     17  O   UNL     1      45.490 130.557  12.309  1.00  0.00    -0.547 OA
BRANCH  16  18
ATOM     18  C   UNL     1      46.917 131.105  14.093  1.00  0.00    -0.003 C 
BRANCH  18  19
ATOM     19  C   UNL     1      48.182 130.859  13.319  1.00  0.00     0.026 C 
ATOM     20  C   UNL     1      48.658 129.417  13.473  1.00  0.00     0.008 C 
ENDBRANCH  18  19
ENDBRANCH  16  18
ENDBRANCH  15  16
ENDBRANCH   1  15
BRANCH   8  21
ATOM     21  N   UNL     1      41.514 135.620  18.786  1.00  0.00    -0.220 N 
ATOM     22  N   UNL     1      41.693 136.771  18.157  1.00  0.00    -0.062 NA
ATOM     23  C   UNL     1      40.329 135.664  19.421  1.00  0.00     0.140 A 
ATOM     24  N   UNL     1      40.672 137.586  18.381  1.00  0.00    -0.135 NA
ATOM     25  C   UNL     1      39.811 136.917  19.175  1.00  0.00     0.083 A 
BRANCH  25  26
ATOM     26  C   UNL     1      38.449 137.408  19.556  1.00  0.00     0.065 C 
BRANCH  26  27
ATOM     27  C   UNL     1      37.369 136.344  19.311  1.00  0.00     0.042 C 
BRANCH  27  28
ATOM     28  C   UNL     1      37.167 136.068  17.832  1.00  0.00    -0.044 A 
ATOM     29  C   UNL     1      36.634 137.095  17.032  1.00  0.00     0.007 A 
ATOM     30  C   UNL     1      37.447 134.806  17.242  1.00  0.00    -0.045 A 
ATOM     31  C   UNL     1      36.378 136.884  15.678  1.00  0.00     0.039 A 
ATOM     32  C   UNL     1      37.185 134.614  15.873  1.00  0.00     0.043 A 
ATOM     33  C   UNL     1      36.650 135.645  15.099  1.00  0.00     0.123 A 
ATOM     34  C   UNL     1      38.042 133.669  18.032  1.00  0.00     0.045 C 
ATOM     35  F   UNL     1      36.400 135.444  13.782  1.00  0.00    -0.207 F 
ENDBRANCH  27  28
ENDBRANCH  26  27
ENDBRANCH  25  26
ENDBRANCH   8  21
TORSDOF 8
ENDMDL
MODEL 5
REMARK VINA RESULT:      -7.1      2.391      3.432
REMARK SMILES CC/C=C(/[O-])OC1=NC(=O)c2ccc(-n3cc(CCc4ccc(F)cc4C)nn3)c3cccc1c23
REMARK SMILES IDX 7 1 8 2 9 3 10 4 11 5 12 6 13 7 14 8 30 9 31 10 32 11 33 12
REMARK SMILES IDX 34 13 35 14 6 15 4 16 5 17 3 18 2 19 1 20 15 21 29 22 16 23
REMARK SMILES IDX 28 24 17 25 18 26 19 27 20 28 21 29 26 30 22 31 25 32 23 33
REMARK SMILES IDX 27 34 24 35
REMARK H PARENT
ROOT
ATOM      1  C   UNL     1      45.463 130.334  16.355  1.00  0.00     0.116 C 
ATOM      2  N   UNL     1      45.905 130.247  17.576  1.00  0.00    -0.201 NA
ATOM      3  C   UNL     1      45.347 131.011  18.649  1.00  0.00     0.278 C 
ATOM      4  O   UNL     1      45.812 130.882  19.814  1.00  0.00    -0.267 OA
ATOM      5  C   UNL     1      44.234 131.941  18.371  1.00  0.00     0.050 A 
ATOM      6  C   UNL     1      43.647 132.706  19.386  1.00  0.00     0.017 A 
ATOM      7  C   UNL     1      42.605 133.584  19.092  1.00  0.00     0.030 A 
ATOM      8  C   UNL     1      42.130 133.723  17.780  1.00  0.00     0.074 A 
ATOM      9  C   UNL     1      42.690 132.929  16.747  1.00  0.00     0.009 A 
ATOM     10  C   UNL     1      42.193 132.966  15.428  1.00  0.00     0.011 A 
ATOM     11  C   UNL     1      42.772 132.181  14.430  1.00  0.00     0.001 A 
ATOM     12  C   UNL     1      43.841 131.337  14.723  1.00  0.00     0.012 A 
ATOM     13  C   UNL     1      44.339 131.253  16.031  1.00  0.00     0.017 A 
ATOM     14  C   UNL     1      43.758 132.044  17.050  1.00  0.00     0.007 A 
ENDROOT
BRANCH   1  15
ATOM     15  O   UNL     1      46.035 129.570  15.326  1.00  0.00    -0.564 OA
BRANCH  15  16
ATOM     16  C   UNL     1      47.220 129.878  14.640  1.00  0.00     0.053 C 
ATOM     17  O   UNL     1      48.236 128.937  14.499  1.00  0.00    -0.547 OA
BRANCH  16  18
ATOM     18  C   UNL     1      47.386 131.092  14.110  1.00  0.00    -0.003 C 
BRANCH  18  19
ATOM     19  C   UNL     1      47.912 131.305  12.717  1.00  0.00     0.026 C 
ATOM     20  C   UNL     1      47.134 130.480  11.696  1.00  0.00     0.008 C 
ENDBRANCH  18  19
ENDBRANCH  16  18
ENDBRANCH  15  16
ENDBRANCH   1  15
BRANCH   8  21
ATOM     21  N   UNL     1      41.109 134.698  17.524  1.00  0.00    -0.220 N 
ATOM     22  N   UNL     1      41.298 135.811  16.832  1.00  0.00    -0.062 NA
ATOM     23  C   UNL     1      39.790 134.556  17.746  1.00  0.00     0.140 A 
ATOM     24  N   UNL     1      40.142 136.423  16.613  1.00  0.00    -0.135 NA
ATOM     25  C   UNL     1      39.187 135.659  17.182  1.00  0.00     0.083 A 
BRANCH  25  26
ATOM     26  C   UNL     1      37.715 135.899  17.050  1.00  0.00     0.065 C 
BRANCH  26  27
ATOM     27  C   UNL     1      37.261 137.122  17.861  1.00  0.00     0.042 C 
BRANCH  27  28
ATOM     28  C   UNL     1      37.421 136.906  19.354  1.00  0.00    -0.044 A 
ATOM     29  C   UNL     1      36.597 135.951  19.978  1.00  0.00     0.007 A 
ATOM     30  C   UNL     1      38.327 137.661  20.147  1.00  0.00    -0.045 A 
ATOM     31  C   UNL     1      36.662 135.745  21.355  1.00  0.00     0.039 A 
ATOM     32  C   UNL     1      38.380 137.435  21.534  1.00  0.00     0.043 A 
ATOM     33  C   UNL     1      37.549 136.486  22.133  1.00  0.00     0.123 A 
ATOM     34  C   UNL     1      39.257 138.682  19.543  1.00  0.00     0.045 C 
ATOM     35  F   UNL     1      37.609 136.283  23.473  1.00  0.00    -0.207 F 
ENDBRANCH  27  28
ENDBRANCH  26  27
ENDBRANCH  25  26
ENDBRANCH   8  21
TORSDOF 8
ENDMDL
MODEL 6
REMARK VINA RESULT:      -6.7      3.338      6.255
REMARK SMILES CC/C=C(/[O-])OC1=NC(=O)c2ccc(-n3cc(CCc4ccc(F)cc4C)nn3)c3cccc1c23
REMARK SMILES IDX 7 1 8 2 9 3 10 4 11 5 12 6 13 7 14 8 30 9 31 10 32 11 33 12
REMARK SMILES IDX 34 13 35 14 6 15 4 16 5 17 3 18 2 19 1 20 15 21 29 22 16 23
REMARK SMILES IDX 28 24 17 25 18 26 19 27 20 28 21 29 26 30 22 31 25 32 23 33
REMARK SMILES IDX 27 34 24 35
REMARK H PARENT
ROOT
ATOM      1  C   UNL     1      43.005 132.228  14.549  1.00  0.00     0.116 C 
ATOM      2  N   UNL     1      41.862 132.484  13.981  1.00  0.00    -0.201 NA
ATOM      3  C   UNL     1      40.783 133.114  14.678  1.00  0.00     0.278 C 
ATOM      4  O   UNL     1      39.701 133.343  14.075  1.00  0.00    -0.267 OA
ATOM      5  C   UNL     1      40.958 133.484  16.097  1.00  0.00     0.050 A 
ATOM      6  C   UNL     1      39.937 134.108  16.823  1.00  0.00     0.017 A 
ATOM      7  C   UNL     1      40.128 134.436  18.165  1.00  0.00     0.030 A 
ATOM      8  C   UNL     1      41.335 134.142  18.813  1.00  0.00     0.074 A 
ATOM      9  C   UNL     1      42.392 133.542  18.082  1.00  0.00     0.009 A 
ATOM     10  C   UNL     1      43.655 133.304  18.661  1.00  0.00     0.011 A 
ATOM     11  C   UNL     1      44.673 132.701  17.920  1.00  0.00     0.001 A 
ATOM     12  C   UNL     1      44.461 132.338  16.590  1.00  0.00     0.012 A 
ATOM     13  C   UNL     1      43.226 132.590  15.975  1.00  0.00     0.017 A 
ATOM     14  C   UNL     1      42.190 133.201  16.718  1.00  0.00     0.007 A 
ENDROOT
BRANCH   1  15
ATOM     15  O   UNL     1      44.041 131.608  13.835  1.00  0.00    -0.564 OA
BRANCH  15  16
ATOM     16  C   UNL     1      44.911 130.629  14.340  1.00  0.00     0.053 C 
ATOM     17  O   UNL     1      44.424 129.502  14.995  1.00  0.00    -0.547 OA
BRANCH  16  18
ATOM     18  C   UNL     1      46.230 130.773  14.196  1.00  0.00    -0.003 C 
BRANCH  18  19
ATOM     19  C   UNL     1      46.950 130.433  12.921  1.00  0.00     0.026 C 
ATOM     20  C   UNL     1      48.123 129.490  13.177  1.00  0.00     0.008 C 
ENDBRANCH  18  19
ENDBRANCH  16  18
ENDBRANCH  15  16
ENDBRANCH   1  15
BRANCH   8  21
ATOM     21  N   UNL     1      41.446 134.431  20.214  1.00  0.00    -0.220 N 
ATOM     22  N   UNL     1      41.122 135.592  20.764  1.00  0.00    -0.062 NA
ATOM     23  C   UNL     1      41.682 133.547  21.199  1.00  0.00     0.140 A 
ATOM     24  N   UNL     1      41.163 135.506  22.086  1.00  0.00    -0.135 NA
ATOM     25  C   UNL     1      41.518 134.238  22.380  1.00  0.00     0.083 A 
BRANCH  25  26
ATOM     26  C   UNL     1      41.544 133.661  23.761  1.00  0.00     0.065 C 
BRANCH  26  27
ATOM     27  C   UNL     1      42.976 133.530  24.299  1.00  0.00     0.042 C 
BRANCH  27  28
ATOM     28  C   UNL     1      43.905 132.875  23.294  1.00  0.00    -0.044 A 
ATOM     29  C   UNL     1      43.778 131.490  23.079  1.00  0.00     0.007 A 
ATOM     30  C   UNL     1      44.921 133.592  22.606  1.00  0.00    -0.045 A 
ATOM     31  C   UNL     1      44.637 130.823  22.206  1.00  0.00     0.039 A 
ATOM     32  C   UNL     1      45.774 132.901  21.727  1.00  0.00     0.043 A 
ATOM     33  C   UNL     1      45.635 131.526  21.533  1.00  0.00     0.123 A 
ATOM     34  C   UNL     1      45.097 135.080  22.768  1.00  0.00     0.045 C 
ATOM     35  F   UNL     1      46.468 130.873  20.685  1.00  0.00    -0.207 F 
ENDBRANCH  27  28
ENDBRANCH  26  27
ENDBRANCH  25  26
ENDBRANCH   8  21
TORSDOF 8
ENDMDL
MODEL 7
REMARK VINA RESULT:      -6.7      4.508      9.144
REMARK SMILES CC/C=C(/[O-])OC1=NC(=O)c2ccc(-n3cc(CCc4ccc(F)cc4C)nn3)c3cccc1c23
REMARK SMILES IDX 7 1 8 2 9 3 10 4 11 5 12 6 13 7 14 8 30 9 31 10 32 11 33 12
REMARK SMILES IDX 34 13 35 14 6 15 4 16 5 17 3 18 2 19 1 20 15 21 29 22 16 23
REMARK SMILES IDX 28 24 17 25 18 26 19 27 20 28 21 29 26 30 22 31 25 32 23 33
REMARK SMILES IDX 27 34 24 35
REMARK H PARENT
ROOT
ATOM      1  C   UNL     1      41.313 133.750  23.560  1.00  0.00     0.116 C 
ATOM      2  N   UNL     1      42.207 132.987  24.120  1.00  0.00    -0.201 NA
ATOM      3  C   UNL     1      43.116 132.185  23.360  1.00  0.00     0.278 C 
ATOM      4  O   UNL     1      43.965 131.470  23.957  1.00  0.00    -0.267 OA
ATOM      5  C   UNL     1      43.041 132.210  21.885  1.00  0.00     0.050 A 
ATOM      6  C   UNL     1      43.911 131.450  21.095  1.00  0.00     0.017 A 
ATOM      7  C   UNL     1      43.810 131.485  19.705  1.00  0.00     0.030 A 
ATOM      8  C   UNL     1      42.836 132.271  19.073  1.00  0.00     0.074 A 
ATOM      9  C   UNL     1      41.970 133.074  19.859  1.00  0.00     0.009 A 
ATOM     10  C   UNL     1      41.031 133.947  19.275  1.00  0.00     0.011 A 
ATOM     11  C   UNL     1      40.184 134.717  20.074  1.00  0.00     0.001 A 
ATOM     12  C   UNL     1      40.263 134.645  21.464  1.00  0.00     0.012 A 
ATOM     13  C   UNL     1      41.207 133.810  22.077  1.00  0.00     0.017 A 
ATOM     14  C   UNL     1      42.071 133.027  21.275  1.00  0.00     0.007 A 
ENDROOT
BRANCH   1  15
ATOM     15  O   UNL     1      40.437 134.522  24.336  1.00  0.00    -0.564 OA
BRANCH  15  16
ATOM     16  C   UNL     1      40.361 135.923  24.335  1.00  0.00     0.053 C 
ATOM     17  O   UNL     1      41.475 136.705  24.040  1.00  0.00    -0.547 OA
BRANCH  16  18
ATOM     18  C   UNL     1      39.207 136.528  24.624  1.00  0.00    -0.003 C 
BRANCH  18  19
ATOM     19  C   UNL     1      38.105 136.700  23.614  1.00  0.00     0.026 C 
ATOM     20  C   UNL     1      37.439 135.366  23.285  1.00  0.00     0.008 C 
ENDBRANCH  18  19
ENDBRANCH  16  18
ENDBRANCH  15  16
ENDBRANCH   1  15
BRANCH   8  21
ATOM     21  N   UNL     1      42.728 132.207  17.644  1.00  0.00    -0.220 N 
ATOM     22  N   UNL     1      41.655 132.575  16.960  1.00  0.00    -0.062 NA
ATOM     23  C   UNL     1      43.727 131.977  16.774  1.00  0.00     0.140 A 
ATOM     24  N   UNL     1      41.910 132.568  15.659  1.00  0.00    -0.135 NA
ATOM     25  C   UNL     1      43.197 132.190  15.520  1.00  0.00     0.083 A 
BRANCH  25  26
ATOM     26  C   UNL     1      43.947 132.190  14.224  1.00  0.00     0.065 C 
BRANCH  26  27
ATOM     27  C   UNL     1      44.156 130.766  13.686  1.00  0.00     0.042 C 
BRANCH  27  28
ATOM     28  C   UNL     1      45.621 130.373  13.670  1.00  0.00    -0.044 A 
ATOM     29  C   UNL     1      46.379 130.684  12.526  1.00  0.00     0.007 A 
ATOM     30  C   UNL     1      46.238 129.664  14.736  1.00  0.00    -0.045 A 
ATOM     31  C   UNL     1      47.717 130.302  12.431  1.00  0.00     0.039 A 
ATOM     32  C   UNL     1      47.590 129.292  14.623  1.00  0.00     0.043 A 
ATOM     33  C   UNL     1      48.322 129.605  13.476  1.00  0.00     0.123 A 
ATOM     34  C   UNL     1      45.495 129.320  16.002  1.00  0.00     0.045 C 
ATOM     35  F   UNL     1      49.623 129.236  13.380  1.00  0.00    -0.207 F 
ENDBRANCH  27  28
ENDBRANCH  26  27
ENDBRANCH  25  26
ENDBRANCH   8  21
TORSDOF 8
ENDMDL
MODEL 8
REMARK VINA RESULT:      -6.7      1.833      3.110
REMARK SMILES CC/C=C(/[O-])OC1=NC(=O)c2ccc(-n3cc(CCc4ccc(F)cc4C)nn3)c3cccc1c23
REMARK SMILES IDX 7 1 8 2 9 3 10 4 11 5 12 6 13 7 14 8 30 9 31 10 32 11 33 12
REMARK SMILES IDX 34 13 35 14 6 15 4 16 5 17 3 18 2 19 1 20 15 21 29 22 16 23
REMARK SMILES IDX 28 24 17 25 18 26 19 27 20 28 21 29 26 30 22 31 25 32 23 33
REMARK SMILES IDX 27 34 24 35
REMARK H PARENT
ROOT
ATOM      1  C   UNL     1      44.435 130.868  15.951  1.00  0.00     0.116 C 
ATOM      2  N   UNL     1      43.810 131.126  14.838  1.00  0.00    -0.201 NA
ATOM      3  C   UNL     1      42.797 132.133  14.744  1.00  0.00     0.278 C 
ATOM      4  O   UNL     1      42.229 132.343  13.639  1.00  0.00    -0.267 OA
ATOM      5  C   UNL     1      42.434 132.907  15.948  1.00  0.00     0.050 A 
ATOM      6  C   UNL     1      41.456 133.908  15.908  1.00  0.00     0.017 A 
ATOM      7  C   UNL     1      41.126 134.615  17.063  1.00  0.00     0.030 A 
ATOM      8  C   UNL     1      41.758 134.337  18.283  1.00  0.00     0.074 A 
ATOM      9  C   UNL     1      42.777 133.351  18.332  1.00  0.00     0.009 A 
ATOM     10  C   UNL     1      43.504 133.092  19.511  1.00  0.00     0.011 A 
ATOM     11  C   UNL     1      44.493 132.107  19.533  1.00  0.00     0.001 A 
ATOM     12  C   UNL     1      44.788 131.374  18.384  1.00  0.00     0.012 A 
ATOM     13  C   UNL     1      44.105 131.630  17.186  1.00  0.00     0.017 A 
ATOM     14  C   UNL     1      43.102 132.626  17.155  1.00  0.00     0.007 A 
ENDROOT
BRANCH   1  15
ATOM     15  O   UNL     1      45.422 129.873  16.008  1.00  0.00    -0.564 OA
BRANCH  15  16
ATOM     16  C   UNL     1      46.518 129.757  15.140  1.00  0.00     0.053 C 
ATOM     17  O   UNL     1      47.820 129.949  15.594  1.00  0.00    -0.547 OA
BRANCH  16  18
ATOM     18  C   UNL     1      46.321 129.459  13.854  1.00  0.00    -0.003 C 
BRANCH  18  19
ATOM     19  C   UNL     1      46.594 130.435  12.743  1.00  0.00     0.026 C 
ATOM     20  C   UNL     1      47.814 131.300  13.049  1.00  0.00     0.008 C 
ENDBRANCH  18  19
ENDBRANCH  16  18
ENDBRANCH  15  16
ENDBRANCH   1  15
BRANCH   8  21
ATOM     21  N   UNL     1      41.323 135.043  19.454  1.00  0.00    -0.220 N 
ATOM     22  N   UNL     1      41.687 136.279  19.758  1.00  0.00    -0.062 NA
ATOM     23  C   UNL     1      40.345 134.670  20.297  1.00  0.00     0.140 A 
ATOM     24  N   UNL     1      40.995 136.725  20.797  1.00  0.00    -0.135 NA
ATOM     25  C   UNL     1      40.155 135.732  21.155  1.00  0.00     0.083 A 
BRANCH  25  26
ATOM     26  C   UNL     1      39.083 135.858  22.193  1.00  0.00     0.065 C 
BRANCH  26  27
ATOM     27  C   UNL     1      37.829 136.548  21.637  1.00  0.00     0.042 C 
BRANCH  27  28
ATOM     28  C   UNL     1      37.458 136.031  20.259  1.00  0.00    -0.044 A 
ATOM     29  C   UNL     1      37.747 136.842  19.147  1.00  0.00     0.007 A 
ATOM     30  C   UNL     1      36.791 134.793  20.057  1.00  0.00    -0.045 A 
ATOM     31  C   UNL     1      37.383 136.444  17.861  1.00  0.00     0.039 A 
ATOM     32  C   UNL     1      36.436 134.407  18.752  1.00  0.00     0.043 A 
ATOM     33  C   UNL     1      36.727 135.230  17.663  1.00  0.00     0.123 A 
ATOM     34  C   UNL     1      36.474 133.861  21.200  1.00  0.00     0.045 C 
ATOM     35  F   UNL     1      36.375 134.847  16.411  1.00  0.00    -0.207 F 
ENDBRANCH  27  28
ENDBRANCH  26  27
ENDBRANCH  25  26
ENDBRANCH   8  21
TORSDOF 8
ENDMDL
MODEL 9
REMARK VINA RESULT:      -6.6      3.773      8.343
REMARK SMILES CC/C=C(/[O-])OC1=NC(=O)c2ccc(-n3cc(CCc4ccc(F)cc4C)nn3)c3cccc1c23
REMARK SMILES IDX 7 1 8 2 9 3 10 4 11 5 12 6 13 7 14 8 30 9 31 10 32 11 33 12
REMARK SMILES IDX 34 13 35 14 6 15 4 16 5 17 3 18 2 19 1 20 15 21 29 22 16 23
REMARK SMILES IDX 28 24 17 25 18 26 19 27 20 28 21 29 26 30 22 31 25 32 23 33
REMARK SMILES IDX 27 34 24 35
REMARK H PARENT
ROOT
ATOM      1  C   UNL     1      38.506 135.159  16.864  1.00  0.00     0.116 C 
ATOM      2  N   UNL     1      38.025 135.391  18.052  1.00  0.00    -0.201 NA
ATOM      3  C   UNL     1      38.721 135.023  19.246  1.00  0.00     0.278 C 
ATOM      4  O   UNL     1      38.209 135.277  20.369  1.00  0.00    -0.267 OA
ATOM      5  C   UNL     1      40.031 134.348  19.140  1.00  0.00     0.050 A 
ATOM      6  C   UNL     1      40.756 133.974  20.277  1.00  0.00     0.017 A 
ATOM      7  C   UNL     1      41.985 133.328  20.146  1.00  0.00     0.030 A 
ATOM      8  C   UNL     1      42.513 133.036  18.881  1.00  0.00     0.074 A 
ATOM      9  C   UNL     1      41.807 133.440  17.719  1.00  0.00     0.009 A 
ATOM     10  C   UNL     1      42.333 133.248  16.425  1.00  0.00     0.011 A 
ATOM     11  C   UNL     1      41.610 133.646  15.300  1.00  0.00     0.001 A 
ATOM     12  C   UNL     1      40.362 134.254  15.438  1.00  0.00     0.012 A 
ATOM     13  C   UNL     1      39.825 134.487  16.712  1.00  0.00     0.017 A 
ATOM     14  C   UNL     1      40.551 134.089  17.858  1.00  0.00     0.007 A 
ENDROOT
BRANCH   1  15
ATOM     15  O   UNL     1      37.796 135.533  15.714  1.00  0.00    -0.564 OA
BRANCH  15  16
ATOM     16  C   UNL     1      38.192 135.285  14.391  1.00  0.00     0.053 C 
ATOM     17  O   UNL     1      37.937 134.060  13.780  1.00  0.00    -0.547 OA
BRANCH  16  18
ATOM     18  C   UNL     1      38.826 136.232  13.696  1.00  0.00    -0.003 C 
BRANCH  18  19
ATOM     19  C   UNL     1      38.453 137.687  13.779  1.00  0.00     0.026 C 
ATOM     20  C   UNL     1      39.667 138.586  13.563  1.00  0.00     0.008 C 
ENDBRANCH  18  19
ENDBRANCH  16  18
ENDBRANCH  15  16
ENDBRANCH   1  15
BRANCH   8  21
ATOM     21  N   UNL     1      43.744 132.301  18.808  1.00  0.00    -0.220 N 
ATOM     22  N   UNL     1      44.392 131.826  19.861  1.00  0.00    -0.062 NA
ATOM     23  C   UNL     1      44.314 131.800  17.698  1.00  0.00     0.140 A 
ATOM     24  N   UNL     1      45.394 131.047  19.476  1.00  0.00    -0.135 NA
ATOM     25  C   UNL     1      45.368 131.023  18.127  1.00  0.00     0.083 A 
BRANCH  25  26
ATOM     26  C   UNL     1      46.233 130.147  17.276  1.00  0.00     0.065 C 
BRANCH  26  27
ATOM     27  C   UNL     1      45.433 129.473  16.152  1.00  0.00     0.042 C 
BRANCH  27  28
ATOM     28  C   UNL     1      46.009 129.777  14.782  1.00  0.00    -0.044 A 
ATOM     29  C   UNL     1      47.358 129.455  14.543  1.00  0.00     0.007 A 
ATOM     30  C   UNL     1      45.259 130.415  13.757  1.00  0.00    -0.045 A 
ATOM     31  C   UNL     1      47.958 129.757  13.321  1.00  0.00     0.039 A 
ATOM     32  C   UNL     1      45.882 130.708  12.530  1.00  0.00     0.043 A 
ATOM     33  C   UNL     1      47.223 130.385  12.317  1.00  0.00     0.123 A 
ATOM     34  C   UNL     1      43.804 130.765  13.933  1.00  0.00     0.045 C 
ATOM     35  F   UNL     1      47.810 130.677  11.130  1.00  0.00    -0.207 F 
ENDBRANCH  27  28
ENDBRANCH  26  27
ENDBRANCH  25  26
ENDBRANCH   8  21
TORSDOF 8
ENDMDL


