MODEL 1
REMARK VINA RESULT:      -7.6      0.000      0.000
REMARK SMILES [N-]=[N+]=NC(=O)c1cc2ccccc2cc1OC(=O)[C@]1(N=[N+]=[N-])C[C@H](CO)C1
REMARK SMILES IDX 16 1 17 2 18 3 19 4 24 5 27 6 23 7 25 8 26 9 20 11 21 12
REMARK SMILES IDX 22 13 15 14 6 15 14 16 7 17 13 18 8 19 12 20 9 21 11 22
REMARK SMILES IDX 10 23 4 24 5 25 3 26 2 27 1 28
REMARK H PARENT 26 10
ROOT
ATOM      1  O   UNL     1      42.345 132.568  15.956  1.00  0.00    -0.425 OA
ENDROOT
BRANCH   1   2
ATOM      2  C   UNL     1      41.688 133.296  14.956  1.00  0.00     0.323 C 
ATOM      3  O   UNL     1      41.185 132.706  13.960  1.00  0.00    -0.251 OA
BRANCH   2   4
ATOM      4  C   UNL     1      41.701 134.807  15.016  1.00  0.00     0.147 C 
ATOM      5  C   UNL     1      42.938 136.013  16.316  1.00  0.00     0.017 C 
ATOM      6  C   UNL     1      43.084 135.461  14.895  1.00  0.00     0.031 C 
ATOM      7  C   UNL     1      41.562 135.353  16.438  1.00  0.00     0.031 C 
BRANCH   5   8
ATOM      8  C   UNL     1      43.970 135.464  17.313  1.00  0.00     0.159 C 
BRANCH   8   9
ATOM      9  O   UNL     1      44.696 136.516  17.888  1.00  0.00    -0.396 OA
ATOM     10  H   UNL     1      44.875 137.171  17.164  1.00  0.00     0.210 HD
ENDBRANCH   8   9
ENDBRANCH   5   8
BRANCH   4  11
ATOM     11  N   UNL     1      40.724 135.411  14.110  1.00  0.00    -0.075 NA
BRANCH  11  12
ATOM     12  N   UNL     1      40.239 136.520  14.342  1.00  0.00     0.002 N 
ATOM     13  N   UNL     1      39.756 137.628  14.574  1.00  0.00    -0.003 NA
ENDBRANCH  11  12
ENDBRANCH   4  11
ENDBRANCH   2   4
ENDBRANCH   1   2
BRANCH   1  14
ATOM     14  C   UNL     1      43.587 131.929  15.812  1.00  0.00     0.142 A 
ATOM     15  C   UNL     1      44.327 131.565  16.964  1.00  0.00     0.068 A 
ATOM     16  C   UNL     1      44.080 131.606  14.534  1.00  0.00     0.056 A 
ATOM     17  C   UNL     1      45.565 130.910  16.803  1.00  0.00     0.024 A 
ATOM     18  C   UNL     1      45.310 130.956  14.385  1.00  0.00    -0.015 A 
ATOM     19  C   UNL     1      46.061 130.608  15.529  1.00  0.00    -0.017 A 
ATOM     20  C   UNL     1      45.802 130.641  13.108  1.00  0.00     0.009 A 
ATOM     21  C   UNL     1      47.296 129.955  15.378  1.00  0.00     0.009 A 
ATOM     22  C   UNL     1      47.032 129.991  12.970  1.00  0.00     0.001 A 
ATOM     23  C   UNL     1      47.777 129.650  14.102  1.00  0.00     0.001 A 
BRANCH  15  24
ATOM     24  C   UNL     1      43.836 131.868  18.338  1.00  0.00     0.252 C 
ATOM     25  O   UNL     1      42.612 131.756  18.621  1.00  0.00    -0.287 OA
BRANCH  24  26
ATOM     26  N   UNL     1      44.754 132.292  19.351  1.00  0.00    -0.017 NA
BRANCH  26  27
ATOM     27  N   UNL     1      44.533 133.288  20.040  1.00  0.00     0.009 N 
ATOM     28  N   UNL     1      44.311 134.283  20.730  1.00  0.00    -0.003 NA
ENDBRANCH  26  27
ENDBRANCH  24  26
ENDBRANCH  15  24
ENDBRANCH   1  14
TORSDOF 10
ENDMDL
MODEL 2
REMARK VINA RESULT:      -7.1      1.953      2.378
REMARK SMILES [N-]=[N+]=NC(=O)c1cc2ccccc2cc1OC(=O)[C@]1(N=[N+]=[N-])C[C@H](CO)C1
REMARK SMILES IDX 16 1 17 2 18 3 19 4 24 5 27 6 23 7 25 8 26 9 20 11 21 12
REMARK SMILES IDX 22 13 15 14 6 15 14 16 7 17 13 18 8 19 12 20 9 21 11 22
REMARK SMILES IDX 10 23 4 24 5 25 3 26 2 27 1 28
REMARK H PARENT 26 10
ROOT
ATOM      1  O   UNL     1      41.794 132.798  14.999  1.00  0.00    -0.425 OA
ENDROOT
BRANCH   1   2
ATOM      2  C   UNL     1      41.666 134.178  14.791  1.00  0.00     0.323 C 
ATOM      3  O   UNL     1      42.681 134.885  14.543  1.00  0.00    -0.251 OA
BRANCH   2   4
ATOM      4  C   UNL     1      40.318 134.832  14.997  1.00  0.00     0.147 C 
ATOM      5  C   UNL     1      39.338 135.145  16.899  1.00  0.00     0.017 C 
ATOM      6  C   UNL     1      40.286 135.971  16.025  1.00  0.00     0.031 C 
ATOM      7  C   UNL     1      39.378 134.006  15.877  1.00  0.00     0.031 C 
BRANCH   5   8
ATOM      8  C   UNL     1      39.921 134.760  18.268  1.00  0.00     0.159 C 
BRANCH   8   9
ATOM      9  O   UNL     1      39.126 135.281  19.297  1.00  0.00    -0.396 OA
ATOM     10  H   UNL     1      38.186 135.048  19.081  1.00  0.00     0.210 HD
ENDBRANCH   8   9
ENDBRANCH   5   8
BRANCH   4  11
ATOM     11  N   UNL     1      39.680 135.208  13.735  1.00  0.00    -0.075 NA
BRANCH  11  12
ATOM     12  N   UNL     1      38.768 134.532  13.255  1.00  0.00     0.002 N 
ATOM     13  N   UNL     1      37.858 133.858  12.776  1.00  0.00    -0.003 NA
ENDBRANCH  11  12
ENDBRANCH   4  11
ENDBRANCH   2   4
ENDBRANCH   1   2
BRANCH   1  14
ATOM     14  C   UNL     1      43.005 132.117  15.196  1.00  0.00     0.142 A 
ATOM     15  C   UNL     1      43.433 131.813  16.512  1.00  0.00     0.068 A 
ATOM     16  C   UNL     1      43.773 131.691  14.096  1.00  0.00     0.056 A 
ATOM     17  C   UNL     1      44.643 131.113  16.694  1.00  0.00     0.024 A 
ATOM     18  C   UNL     1      44.974 130.998  14.287  1.00  0.00    -0.015 A 
ATOM     19  C   UNL     1      45.415 130.709  15.597  1.00  0.00    -0.017 A 
ATOM     20  C   UNL     1      45.741 130.581  13.187  1.00  0.00     0.009 A 
ATOM     21  C   UNL     1      46.620 130.013  15.787  1.00  0.00     0.009 A 
ATOM     22  C   UNL     1      46.938 129.888  13.389  1.00  0.00     0.001 A 
ATOM     23  C   UNL     1      47.377 129.606  14.685  1.00  0.00     0.001 A 
BRANCH  15  24
ATOM     24  C   UNL     1      42.643 132.224  17.707  1.00  0.00     0.252 C 
ATOM     25  O   UNL     1      41.542 131.667  17.971  1.00  0.00    -0.287 OA
BRANCH  24  26
ATOM     26  N   UNL     1      43.129 133.259  18.568  1.00  0.00    -0.017 NA
BRANCH  26  27
ATOM     27  N   UNL     1      43.565 134.318  18.114  1.00  0.00     0.009 N 
ATOM     28  N   UNL     1      44.003 135.375  17.662  1.00  0.00    -0.003 NA
ENDBRANCH  26  27
ENDBRANCH  24  26
ENDBRANCH  15  24
ENDBRANCH   1  14
TORSDOF 10
ENDMDL
MODEL 3
REMARK VINA RESULT:      -7.0      2.084      2.755
REMARK SMILES [N-]=[N+]=NC(=O)c1cc2ccccc2cc1OC(=O)[C@]1(N=[N+]=[N-])C[C@H](CO)C1
REMARK SMILES IDX 16 1 17 2 18 3 19 4 24 5 27 6 23 7 25 8 26 9 20 11 21 12
REMARK SMILES IDX 22 13 15 14 6 15 14 16 7 17 13 18 8 19 12 20 9 21 11 22
REMARK SMILES IDX 10 23 4 24 5 25 3 26 2 27 1 28
REMARK H PARENT 26 10
ROOT
ATOM      1  O   UNL     1      42.830 132.318  16.639  1.00  0.00    -0.425 OA
ENDROOT
BRANCH   1   2
ATOM      2  C   UNL     1      42.121 133.281  15.906  1.00  0.00     0.323 C 
ATOM      3  O   UNL     1      41.266 132.929  15.047  1.00  0.00    -0.251 OA
BRANCH   2   4
ATOM      4  C   UNL     1      42.485 134.740  16.062  1.00  0.00     0.147 C 
ATOM      5  C   UNL     1      41.480 136.405  15.119  1.00  0.00     0.017 C 
ATOM      6  C   UNL     1      41.330 135.671  16.454  1.00  0.00     0.031 C 
ATOM      7  C   UNL     1      42.627 135.471  14.726  1.00  0.00     0.031 C 
BRANCH   5   8
ATOM      8  C   UNL     1      40.255 136.292  14.198  1.00  0.00     0.159 C 
BRANCH   8   9
ATOM      9  O   UNL     1      39.489 137.464  14.264  1.00  0.00    -0.396 OA
ATOM     10  H   UNL     1      39.847 138.081  13.574  1.00  0.00     0.210 HD
ENDBRANCH   8   9
ENDBRANCH   5   8
BRANCH   4  11
ATOM     11  N   UNL     1      43.662 134.935  16.909  1.00  0.00    -0.075 NA
BRANCH  11  12
ATOM     12  N   UNL     1      43.556 135.069  18.129  1.00  0.00     0.002 N 
ATOM     13  N   UNL     1      43.451 135.204  19.347  1.00  0.00    -0.003 NA
ENDBRANCH  11  12
ENDBRANCH   4  11
ENDBRANCH   2   4
ENDBRANCH   1   2
BRANCH   1  14
ATOM     14  C   UNL     1      44.024 131.704  16.229  1.00  0.00     0.142 A 
ATOM     15  C   UNL     1      44.940 131.234  17.202  1.00  0.00     0.068 A 
ATOM     16  C   UNL     1      44.296 131.510  14.862  1.00  0.00     0.056 A 
ATOM     17  C   UNL     1      46.127 130.604  16.776  1.00  0.00     0.024 A 
ATOM     18  C   UNL     1      45.477 130.885  14.449  1.00  0.00    -0.015 A 
ATOM     19  C   UNL     1      46.403 130.431  15.414  1.00  0.00    -0.017 A 
ATOM     20  C   UNL     1      45.748 130.699  13.084  1.00  0.00     0.009 A 
ATOM     21  C   UNL     1      47.589 129.803  14.998  1.00  0.00     0.009 A 
ATOM     22  C   UNL     1      46.931 130.072  12.682  1.00  0.00     0.001 A 
ATOM     23  C   UNL     1      47.850 129.627  13.636  1.00  0.00     0.001 A 
BRANCH  15  24
ATOM     24  C   UNL     1      44.686 131.398  18.661  1.00  0.00     0.252 C 
ATOM     25  O   UNL     1      45.619 131.242  19.496  1.00  0.00    -0.287 OA
BRANCH  24  26
ATOM     26  N   UNL     1      43.375 131.732  19.129  1.00  0.00    -0.017 NA
BRANCH  26  27
ATOM     27  N   UNL     1      43.000 131.422  20.260  1.00  0.00     0.009 N 
ATOM     28  N   UNL     1      42.625 131.112  21.391  1.00  0.00    -0.003 NA
ENDBRANCH  26  27
ENDBRANCH  24  26
ENDBRANCH  15  24
ENDBRANCH   1  14
TORSDOF 10
ENDMDL
MODEL 4
REMARK VINA RESULT:      -7.0      1.820      2.076
REMARK SMILES [N-]=[N+]=NC(=O)c1cc2ccccc2cc1OC(=O)[C@]1(N=[N+]=[N-])C[C@H](CO)C1
REMARK SMILES IDX 16 1 17 2 18 3 19 4 24 5 27 6 23 7 25 8 26 9 20 11 21 12
REMARK SMILES IDX 22 13 15 14 6 15 14 16 7 17 13 18 8 19 12 20 9 21 11 22
REMARK SMILES IDX 10 23 4 24 5 25 3 26 2 27 1 28
REMARK H PARENT 26 10
ROOT
ATOM      1  O   UNL     1      41.922 132.456  14.655  1.00  0.00    -0.425 OA
ENDROOT
BRANCH   1   2
ATOM      2  C   UNL     1      41.683 133.825  14.474  1.00  0.00     0.323 C 
ATOM      3  O   UNL     1      42.645 134.631  14.344  1.00  0.00    -0.251 OA
BRANCH   2   4
ATOM      4  C   UNL     1      40.265 134.344  14.567  1.00  0.00     0.147 C 
ATOM      5  C   UNL     1      39.623 136.088  15.672  1.00  0.00     0.017 C 
ATOM      6  C   UNL     1      40.082 135.830  14.234  1.00  0.00     0.031 C 
ATOM      7  C   UNL     1      39.814 134.606  16.005  1.00  0.00     0.031 C 
BRANCH   5   8
ATOM      8  C   UNL     1      40.549 137.019  16.470  1.00  0.00     0.159 C 
BRANCH   8   9
ATOM      9  O   UNL     1      41.813 137.080  15.867  1.00  0.00    -0.396 OA
ATOM     10  H   UNL     1      41.678 137.447  14.955  1.00  0.00     0.210 HD
ENDBRANCH   8   9
ENDBRANCH   5   8
BRANCH   4  11
ATOM     11  N   UNL     1      39.312 133.496  13.851  1.00  0.00    -0.075 NA
BRANCH  11  12
ATOM     12  N   UNL     1      38.211 133.927  13.502  1.00  0.00     0.002 N 
ATOM     13  N   UNL     1      37.113 134.357  13.155  1.00  0.00    -0.003 NA
ENDBRANCH  11  12
ENDBRANCH   4  11
ENDBRANCH   2   4
ENDBRANCH   1   2
BRANCH   1  14
ATOM     14  C   UNL     1      43.177 131.877  14.899  1.00  0.00     0.142 A 
ATOM     15  C   UNL     1      43.619 131.696  16.233  1.00  0.00     0.068 A 
ATOM     16  C   UNL     1      43.979 131.432  13.831  1.00  0.00     0.056 A 
ATOM     17  C   UNL     1      44.875 131.098  16.462  1.00  0.00     0.024 A 
ATOM     18  C   UNL     1      45.224 130.840  14.069  1.00  0.00    -0.015 A 
ATOM     19  C   UNL     1      45.678 130.675  15.396  1.00  0.00    -0.017 A 
ATOM     20  C   UNL     1      46.024 130.404  13.001  1.00  0.00     0.009 A 
ATOM     21  C   UNL     1      46.928 130.080  15.633  1.00  0.00     0.009 A 
ATOM     22  C   UNL     1      47.266 129.813  13.250  1.00  0.00     0.001 A 
ATOM     23  C   UNL     1      47.718 129.653  14.562  1.00  0.00     0.001 A 
BRANCH  15  24
ATOM     24  C   UNL     1      42.797 132.132  17.397  1.00  0.00     0.252 C 
ATOM     25  O   UNL     1      41.700 131.565  17.656  1.00  0.00    -0.287 OA
BRANCH  24  26
ATOM     26  N   UNL     1      43.245 133.204  18.232  1.00  0.00    -0.017 NA
BRANCH  26  27
ATOM     27  N   UNL     1      43.995 133.002  19.188  1.00  0.00     0.009 N 
ATOM     28  N   UNL     1      44.744 132.801  20.143  1.00  0.00    -0.003 NA
ENDBRANCH  26  27
ENDBRANCH  24  26
ENDBRANCH  15  24
ENDBRANCH   1  14
TORSDOF 10
ENDMDL
MODEL 5
REMARK VINA RESULT:      -7.0      2.792      5.260
REMARK SMILES [N-]=[N+]=NC(=O)c1cc2ccccc2cc1OC(=O)[C@]1(N=[N+]=[N-])C[C@H](CO)C1
REMARK SMILES IDX 16 1 17 2 18 3 19 4 24 5 27 6 23 7 25 8 26 9 20 11 21 12
REMARK SMILES IDX 22 13 15 14 6 15 14 16 7 17 13 18 8 19 12 20 9 21 11 22
REMARK SMILES IDX 10 23 4 24 5 25 3 26 2 27 1 28
REMARK H PARENT 26 10
ROOT
ATOM      1  O   UNL     1      44.634 130.779  18.627  1.00  0.00    -0.425 OA
ENDROOT
BRANCH   1   2
ATOM      2  C   UNL     1      45.357 131.317  19.700  1.00  0.00     0.323 C 
ATOM      3  O   UNL     1      46.515 130.894  19.967  1.00  0.00    -0.251 OA
BRANCH   2   4
ATOM      4  C   UNL     1      44.685 132.318  20.613  1.00  0.00     0.147 C 
ATOM      5  C   UNL     1      45.670 133.911  21.693  1.00  0.00     0.017 C 
ATOM      6  C   UNL     1      44.997 133.792  20.322  1.00  0.00     0.031 C 
ATOM      7  C   UNL     1      45.365 132.438  21.978  1.00  0.00     0.031 C 
BRANCH   5   8
ATOM      8  C   UNL     1      47.173 134.224  21.630  1.00  0.00     0.159 C 
BRANCH   8   9
ATOM      9  O   UNL     1      47.719 134.234  22.921  1.00  0.00    -0.396 OA
ATOM     10  H   UNL     1      48.381 133.495  22.959  1.00  0.00     0.210 HD
ENDBRANCH   8   9
ENDBRANCH   5   8
BRANCH   4  11
ATOM     11  N   UNL     1      43.248 132.073  20.748  1.00  0.00    -0.075 NA
BRANCH  11  12
ATOM     12  N   UNL     1      42.817 131.213  21.518  1.00  0.00     0.002 N 
ATOM     13  N   UNL     1      42.386 130.354  22.285  1.00  0.00    -0.003 NA
ENDBRANCH  11  12
ENDBRANCH   4  11
ENDBRANCH   2   4
ENDBRANCH   1   2
BRANCH   1  14
ATOM     14  C   UNL     1      45.017 130.842  17.278  1.00  0.00     0.142 A 
ATOM     15  C   UNL     1      44.302 131.677  16.384  1.00  0.00     0.068 A 
ATOM     16  C   UNL     1      46.133 130.120  16.817  1.00  0.00     0.056 A 
ATOM     17  C   UNL     1      44.708 131.743  15.036  1.00  0.00     0.024 A 
ATOM     18  C   UNL     1      46.529 130.191  15.477  1.00  0.00    -0.015 A 
ATOM     19  C   UNL     1      45.808 131.007  14.577  1.00  0.00    -0.017 A 
ATOM     20  C   UNL     1      47.639 129.464  15.019  1.00  0.00     0.009 A 
ATOM     21  C   UNL     1      46.206 131.077  13.232  1.00  0.00     0.009 A 
ATOM     22  C   UNL     1      48.026 129.543  13.678  1.00  0.00     0.001 A 
ATOM     23  C   UNL     1      47.311 130.346  12.787  1.00  0.00     0.001 A 
BRANCH  15  24
ATOM     24  C   UNL     1      43.126 132.476  16.829  1.00  0.00     0.252 C 
ATOM     25  O   UNL     1      41.979 131.954  16.888  1.00  0.00    -0.287 OA
BRANCH  24  26
ATOM     26  N   UNL     1      43.289 133.851  17.194  1.00  0.00    -0.017 NA
BRANCH  26  27
ATOM     27  N   UNL     1      43.121 134.756  16.376  1.00  0.00     0.009 N 
ATOM     28  N   UNL     1      42.955 135.660  15.558  1.00  0.00    -0.003 NA
ENDBRANCH  26  27
ENDBRANCH  24  26
ENDBRANCH  15  24
ENDBRANCH   1  14
TORSDOF 10
ENDMDL
MODEL 6
REMARK VINA RESULT:      -7.0      3.047      4.638
REMARK SMILES [N-]=[N+]=NC(=O)c1cc2ccccc2cc1OC(=O)[C@]1(N=[N+]=[N-])C[C@H](CO)C1
REMARK SMILES IDX 16 1 17 2 18 3 19 4 24 5 27 6 23 7 25 8 26 9 20 11 21 12
REMARK SMILES IDX 22 13 15 14 6 15 14 16 7 17 13 18 8 19 12 20 9 21 11 22
REMARK SMILES IDX 10 23 4 24 5 25 3 26 2 27 1 28
REMARK H PARENT 26 10
ROOT
ATOM      1  O   UNL     1      43.713 133.392  14.952  1.00  0.00    -0.425 OA
ENDROOT
BRANCH   1   2
ATOM      2  C   UNL     1      43.171 134.685  14.954  1.00  0.00     0.323 C 
ATOM      3  O   UNL     1      43.919 135.692  14.810  1.00  0.00    -0.251 OA
BRANCH   2   4
ATOM      4  C   UNL     1      41.702 134.867  15.261  1.00  0.00     0.147 C 
ATOM      5  C   UNL     1      40.758 136.705  15.897  1.00  0.00     0.017 C 
ATOM      6  C   UNL     1      41.017 136.037  14.543  1.00  0.00     0.031 C 
ATOM      7  C   UNL     1      41.449 135.540  16.611  1.00  0.00     0.031 C 
BRANCH   5   8
ATOM      8  C   UNL     1      41.477 138.050  16.082  1.00  0.00     0.159 C 
BRANCH   8   9
ATOM      9  O   UNL     1      40.542 139.080  16.257  1.00  0.00    -0.396 OA
ATOM     10  H   UNL     1      41.026 139.839  16.675  1.00  0.00     0.210 HD
ENDBRANCH   8   9
ENDBRANCH   5   8
BRANCH   4  11
ATOM     11  N   UNL     1      40.946 133.621  15.132  1.00  0.00    -0.075 NA
BRANCH  11  12
ATOM     12  N   UNL     1      39.936 133.557  14.430  1.00  0.00     0.002 N 
ATOM     13  N   UNL     1      38.928 133.492  13.728  1.00  0.00    -0.003 NA
ENDBRANCH  11  12
ENDBRANCH   4  11
ENDBRANCH   2   4
ENDBRANCH   1   2
BRANCH   1  14
ATOM     14  C   UNL     1      44.217 132.722  16.078  1.00  0.00     0.142 A 
ATOM     15  C   UNL     1      45.123 131.647  15.907  1.00  0.00     0.068 A 
ATOM     16  C   UNL     1      43.867 133.140  17.375  1.00  0.00     0.056 A 
ATOM     17  C   UNL     1      45.634 130.994  17.047  1.00  0.00     0.024 A 
ATOM     18  C   UNL     1      44.378 132.486  18.501  1.00  0.00    -0.015 A 
ATOM     19  C   UNL     1      45.267 131.401  18.336  1.00  0.00    -0.017 A 
ATOM     20  C   UNL     1      44.021 132.902  19.794  1.00  0.00     0.009 A 
ATOM     21  C   UNL     1      45.780 130.745  19.467  1.00  0.00     0.009 A 
ATOM     22  C   UNL     1      44.538 132.241  20.911  1.00  0.00     0.001 A 
ATOM     23  C   UNL     1      45.414 131.165  20.749  1.00  0.00     0.001 A 
BRANCH  15  24
ATOM     24  C   UNL     1      45.540 131.181  14.554  1.00  0.00     0.252 C 
ATOM     25  O   UNL     1      44.737 130.543  13.819  1.00  0.00    -0.287 OA
BRANCH  24  26
ATOM     26  N   UNL     1      46.862 131.453  14.076  1.00  0.00    -0.017 NA
BRANCH  26  27
ATOM     27  N   UNL     1      47.584 130.556  13.642  1.00  0.00     0.009 N 
ATOM     28  N   UNL     1      48.307 129.660  13.208  1.00  0.00    -0.003 NA
ENDBRANCH  26  27
ENDBRANCH  24  26
ENDBRANCH  15  24
ENDBRANCH   1  14
TORSDOF 10
ENDMDL
MODEL 7
REMARK VINA RESULT:      -7.0      2.976      6.110
REMARK SMILES [N-]=[N+]=NC(=O)c1cc2ccccc2cc1OC(=O)[C@]1(N=[N+]=[N-])C[C@H](CO)C1
REMARK SMILES IDX 16 1 17 2 18 3 19 4 24 5 27 6 23 7 25 8 26 9 20 11 21 12
REMARK SMILES IDX 22 13 15 14 6 15 14 16 7 17 13 18 8 19 12 20 9 21 11 22
REMARK SMILES IDX 10 23 4 24 5 25 3 26 2 27 1 28
REMARK H PARENT 26 10
ROOT
ATOM      1  O   UNL     1      43.957 132.186  16.300  1.00  0.00    -0.425 OA
ENDROOT
BRANCH   1   2
ATOM      2  C   UNL     1      44.967 132.011  15.344  1.00  0.00     0.323 C 
ATOM      3  O   UNL     1      45.896 132.858  15.233  1.00  0.00    -0.251 OA
BRANCH   2   4
ATOM      4  C   UNL     1      44.860 130.867  14.362  1.00  0.00     0.147 C 
ATOM      5  C   UNL     1      46.467 129.544  13.777  1.00  0.00     0.017 C 
ATOM      6  C   UNL     1      45.387 129.515  14.862  1.00  0.00     0.031 C 
ATOM      7  C   UNL     1      45.946 130.897  13.284  1.00  0.00     0.031 C 
BRANCH   5   8
ATOM      8  C   UNL     1      47.903 129.603  14.320  1.00  0.00     0.159 C 
BRANCH   8   9
ATOM      9  O   UNL     1      48.803 129.108  13.367  1.00  0.00    -0.396 OA
ATOM     10  H   UNL     1      48.852 129.783  12.641  1.00  0.00     0.210 HD
ENDBRANCH   8   9
ENDBRANCH   5   8
BRANCH   4  11
ATOM     11  N   UNL     1      43.524 130.757  13.775  1.00  0.00    -0.075 NA
BRANCH  11  12
ATOM     12  N   UNL     1      42.708 131.675  13.869  1.00  0.00     0.002 N 
ATOM     13  N   UNL     1      41.893 132.591  13.962  1.00  0.00    -0.003 NA
ENDBRANCH  11  12
ENDBRANCH   4  11
ENDBRANCH   2   4
ENDBRANCH   1   2
BRANCH   1  14
ATOM     14  C   UNL     1      44.160 132.586  17.631  1.00  0.00     0.142 A 
ATOM     15  C   UNL     1      43.929 133.934  18.001  1.00  0.00     0.068 A 
ATOM     16  C   UNL     1      44.543 131.649  18.608  1.00  0.00     0.056 A 
ATOM     17  C   UNL     1      44.121 134.317  19.344  1.00  0.00     0.024 A 
ATOM     18  C   UNL     1      44.731 132.039  19.939  1.00  0.00    -0.015 A 
ATOM     19  C   UNL     1      44.522 133.386  20.310  1.00  0.00    -0.017 A 
ATOM     20  C   UNL     1      45.120 131.103  20.910  1.00  0.00     0.009 A 
ATOM     21  C   UNL     1      44.711 133.776  21.646  1.00  0.00     0.009 A 
ATOM     22  C   UNL     1      45.305 131.503  22.237  1.00  0.00     0.001 A 
ATOM     23  C   UNL     1      45.102 132.836  22.603  1.00  0.00     0.001 A 
BRANCH  15  24
ATOM     24  C   UNL     1      43.502 134.958  17.005  1.00  0.00     0.252 C 
ATOM     25  O   UNL     1      44.343 135.748  16.497  1.00  0.00    -0.287 OA
BRANCH  24  26
ATOM     26  N   UNL     1      42.127 135.054  16.619  1.00  0.00    -0.017 NA
BRANCH  26  27
ATOM     27  N   UNL     1      41.729 135.959  15.886  1.00  0.00     0.009 N 
ATOM     28  N   UNL     1      41.331 136.863  15.152  1.00  0.00    -0.003 NA
ENDBRANCH  26  27
ENDBRANCH  24  26
ENDBRANCH  15  24
ENDBRANCH   1  14
TORSDOF 10
ENDMDL
MODEL 8
REMARK VINA RESULT:      -7.0      1.708      2.383
REMARK SMILES [N-]=[N+]=NC(=O)c1cc2ccccc2cc1OC(=O)[C@]1(N=[N+]=[N-])C[C@H](CO)C1
REMARK SMILES IDX 16 1 17 2 18 3 19 4 24 5 27 6 23 7 25 8 26 9 20 11 21 12
REMARK SMILES IDX 22 13 15 14 6 15 14 16 7 17 13 18 8 19 12 20 9 21 11 22
REMARK SMILES IDX 10 23 4 24 5 25 3 26 2 27 1 28
REMARK H PARENT 26 10
ROOT
ATOM      1  O   UNL     1      42.146 132.572  15.766  1.00  0.00    -0.425 OA
ENDROOT
BRANCH   1   2
ATOM      2  C   UNL     1      41.602 133.443  14.812  1.00  0.00     0.323 C 
ATOM      3  O   UNL     1      41.538 133.102  13.599  1.00  0.00    -0.251 OA
BRANCH   2   4
ATOM      4  C   UNL     1      41.214 134.843  15.230  1.00  0.00     0.147 C 
ATOM      5  C   UNL     1      39.301 135.440  16.042  1.00  0.00     0.017 C 
ATOM      6  C   UNL     1      40.631 134.973  16.643  1.00  0.00     0.031 C 
ATOM      7  C   UNL     1      39.883 135.302  14.632  1.00  0.00     0.031 C 
BRANCH   5   8
ATOM      8  C   UNL     1      38.122 134.493  16.313  1.00  0.00     0.159 C 
BRANCH   8   9
ATOM      9  O   UNL     1      36.964 135.230  16.596  1.00  0.00    -0.396 OA
ATOM     10  H   UNL     1      36.468 135.325  15.741  1.00  0.00     0.210 HD
ENDBRANCH   8   9
ENDBRANCH   5   8
BRANCH   4  11
ATOM     11  N   UNL     1      42.279 135.816  14.980  1.00  0.00    -0.075 NA
BRANCH  11  12
ATOM     12  N   UNL     1      42.040 137.023  14.927  1.00  0.00     0.002 N 
ATOM     13  N   UNL     1      41.802 138.229  14.875  1.00  0.00    -0.003 NA
ENDBRANCH  11  12
ENDBRANCH   4  11
ENDBRANCH   2   4
ENDBRANCH   1   2
BRANCH   1  14
ATOM     14  C   UNL     1      43.414 131.974  15.690  1.00  0.00     0.142 A 
ATOM     15  C   UNL     1      44.160 131.758  16.875  1.00  0.00     0.068 A 
ATOM     16  C   UNL     1      43.929 131.546  14.453  1.00  0.00     0.056 A 
ATOM     17  C   UNL     1      45.424 131.142  16.785  1.00  0.00     0.024 A 
ATOM     18  C   UNL     1      45.186 130.936  14.374  1.00  0.00    -0.015 A 
ATOM     19  C   UNL     1      45.942 130.735  15.549  1.00  0.00    -0.017 A 
ATOM     20  C   UNL     1      45.700 130.515  13.136  1.00  0.00     0.009 A 
ATOM     21  C   UNL     1      47.203 130.122  15.468  1.00  0.00     0.009 A 
ATOM     22  C   UNL     1      46.956 129.906  13.068  1.00  0.00     0.001 A 
ATOM     23  C   UNL     1      47.707 129.711  14.231  1.00  0.00     0.001 A 
BRANCH  15  24
ATOM     24  C   UNL     1      43.647 132.175  18.211  1.00  0.00     0.252 C 
ATOM     25  O   UNL     1      42.652 131.595  18.726  1.00  0.00    -0.287 OA
BRANCH  24  26
ATOM     26  N   UNL     1      44.280 133.244  18.922  1.00  0.00    -0.017 NA
BRANCH  26  27
ATOM     27  N   UNL     1      43.990 134.421  18.703  1.00  0.00     0.009 N 
ATOM     28  N   UNL     1      43.699 135.596  18.484  1.00  0.00    -0.003 NA
ENDBRANCH  26  27
ENDBRANCH  24  26
ENDBRANCH  15  24
ENDBRANCH   1  14
TORSDOF 10
ENDMDL
MODEL 9
REMARK VINA RESULT:      -7.0      2.085      4.589
REMARK SMILES [N-]=[N+]=NC(=O)c1cc2ccccc2cc1OC(=O)[C@]1(N=[N+]=[N-])C[C@H](CO)C1
REMARK SMILES IDX 16 1 17 2 18 3 19 4 24 5 27 6 23 7 25 8 26 9 20 11 21 12
REMARK SMILES IDX 22 13 15 14 6 15 14 16 7 17 13 18 8 19 12 20 9 21 11 22
REMARK SMILES IDX 10 23 4 24 5 25 3 26 2 27 1 28
REMARK H PARENT 26 10
ROOT
ATOM      1  O   UNL     1      43.306 131.501  17.236  1.00  0.00    -0.425 OA
ENDROOT
BRANCH   1   2
ATOM      2  C   UNL     1      43.533 132.511  18.180  1.00  0.00     0.323 C 
ATOM      3  O   UNL     1      44.644 133.110  18.221  1.00  0.00    -0.251 OA
BRANCH   2   4
ATOM      4  C   UNL     1      42.483 132.786  19.233  1.00  0.00     0.147 C 
ATOM      5  C   UNL     1      41.272 134.570  19.381  1.00  0.00     0.017 C 
ATOM      6  C   UNL     1      41.108 133.208  18.700  1.00  0.00     0.031 C 
ATOM      7  C   UNL     1      42.648 134.150  19.905  1.00  0.00     0.031 C 
BRANCH   5   8
ATOM      8  C   UNL     1      41.325 135.758  18.407  1.00  0.00     0.159 C 
BRANCH   8   9
ATOM      9  O   UNL     1      40.534 136.812  18.884  1.00  0.00    -0.396 OA
ATOM     10  H   UNL     1      40.884 137.644  18.472  1.00  0.00     0.210 HD
ENDBRANCH   8   9
ENDBRANCH   5   8
BRANCH   4  11
ATOM     11  N   UNL     1      42.386 131.709  20.219  1.00  0.00    -0.075 NA
BRANCH  11  12
ATOM     12  N   UNL     1      43.149 131.658  21.185  1.00  0.00     0.002 N 
ATOM     13  N   UNL     1      43.911 131.605  22.149  1.00  0.00    -0.003 NA
ENDBRANCH  11  12
ENDBRANCH   4  11
ENDBRANCH   2   4
ENDBRANCH   1   2
BRANCH   1  14
ATOM     14  C   UNL     1      44.095 131.258  16.101  1.00  0.00     0.142 A 
ATOM     15  C   UNL     1      43.692 131.769  14.843  1.00  0.00     0.068 A 
ATOM     16  C   UNL     1      45.309 130.553  16.212  1.00  0.00     0.056 A 
ATOM     17  C   UNL     1      44.504 131.531  13.715  1.00  0.00     0.024 A 
ATOM     18  C   UNL     1      46.107 130.322  15.087  1.00  0.00    -0.015 A 
ATOM     19  C   UNL     1      45.700 130.812  13.826  1.00  0.00    -0.017 A 
ATOM     20  C   UNL     1      47.314 129.612  15.200  1.00  0.00     0.009 A 
ATOM     21  C   UNL     1      46.503 130.579  12.698  1.00  0.00     0.009 A 
ATOM     22  C   UNL     1      48.104 129.387  14.070  1.00  0.00     0.001 A 
ATOM     23  C   UNL     1      47.700 129.868  12.822  1.00  0.00     0.001 A 
BRANCH  15  24
ATOM     24  C   UNL     1      42.426 132.539  14.679  1.00  0.00     0.252 C 
ATOM     25  O   UNL     1      41.485 132.084  13.974  1.00  0.00    -0.287 OA
BRANCH  24  26
ATOM     26  N   UNL     1      42.270 133.808  15.323  1.00  0.00    -0.017 NA
BRANCH  26  27
ATOM     27  N   UNL     1      43.059 134.731  15.122  1.00  0.00     0.009 N 
ATOM     28  N   UNL     1      43.848 135.653  14.921  1.00  0.00    -0.003 NA
ENDBRANCH  26  27
ENDBRANCH  24  26
ENDBRANCH  15  24
ENDBRANCH   1  14
TORSDOF 10
ENDMDL


