REMARK SMILES [N-]=[N+]=Nc1ccc2c3c(cc(/C(O)=N/[NH+]=[N-])c(OC(=O)[C@]4(N)C[C@H](CO)C4)c13)C=C2
REMARK SMILES IDX 18 1 17 2 11 3 10 4 9 5 28 6 8 7 29 8 4 9 7 10 30 11 5 12
REMARK SMILES IDX 6 13 12 14 13 15 14 17 15 18 16 20 3 21 2 22 1 23 19 24
REMARK SMILES IDX 20 25 21 26 27 27 23 28 24 29 22 30 25 33 26 34
REMARK H PARENT 13 16 15 19 22 31 22 32 26 35
ROOT
ATOM      1  O   UNL     1       0.431   0.665   0.323  1.00  0.00    -0.424 OA
ENDROOT
BRANCH   1   2
ATOM      2  C   UNL     1       0.017  -0.645   0.589  1.00  0.00     0.150 A 
ATOM      3  C   UNL     1       0.899  -1.584   1.223  1.00  0.00     0.062 A 
ATOM      4  C   UNL     1       0.485  -2.927   1.421  1.00  0.00     0.024 A 
ATOM      5  C   UNL     1      -0.794  -3.291   1.014  1.00  0.00    -0.016 A 
ATOM      6  C   UNL     1      -1.290  -1.055   0.213  1.00  0.00     0.036 A 
ATOM      7  C   UNL     1      -1.622  -2.379   0.450  1.00  0.00     0.000 A 
ATOM      8  C   UNL     1      -1.532  -4.557   1.085  1.00  0.00     0.009 C 
ATOM      9  C   UNL     1      -2.286  -0.245  -0.401  1.00  0.00     0.049 A 
ATOM     10  C   UNL     1      -2.819  -2.942   0.146  1.00  0.00    -0.017 A 
ATOM     11  C   UNL     1      -2.751  -4.347   0.561  1.00  0.00     0.009 C 
ATOM     12  C   UNL     1      -3.551  -0.827  -0.726  1.00  0.00     0.011 A 
ATOM     13  C   UNL     1      -3.822  -2.186  -0.451  1.00  0.00     0.009 A 
BRANCH   3  14
ATOM     14  C   UNL     1       2.224  -1.174   1.738  1.00  0.00     0.172 C 
BRANCH  14  15
ATOM     15  O   UNL     1       3.328  -2.014   1.581  1.00  0.00    -0.506 OA
ATOM     16  H   UNL     1       3.267  -2.881   1.062  1.00  0.00     0.293 HD
ENDBRANCH  14  15
BRANCH  14  17
ATOM     17  N   UNL     1       2.348  -0.043   2.365  1.00  0.00    -0.151 NA
BRANCH  17  18
ATOM     18  N   UNL     1       3.567   0.397   2.904  1.00  0.00    -0.169 N 
ATOM     19  H   UNL     1       4.444  -0.160   2.791  1.00  0.00     0.475 HD
ATOM     20  N   UNL     1       3.608   1.482   3.560  1.00  0.00    -0.151 NA
ENDBRANCH  17  18
ENDBRANCH  14  17
ENDBRANCH   3  14
BRANCH   9  21
ATOM     21  N   UNL     1      -2.017   1.135  -0.685  1.00  0.00    -0.060 NA
BRANCH  21  22
ATOM     22  N   UNL     1      -2.845   1.875  -1.219  1.00  0.00     0.005 N 
ATOM     23  N   UNL     1      -3.670   2.615  -1.752  1.00  0.00    -0.003 NA
ENDBRANCH  21  22
ENDBRANCH   9  21
ENDBRANCH   1   2
BRANCH   1  24
ATOM     24  C   UNL     1       1.447   0.975  -0.591  1.00  0.00     0.331 C 
ATOM     25  O   UNL     1       2.091   0.051  -1.160  1.00  0.00    -0.250 OA
BRANCH  24  26
ATOM     26  C   UNL     1       1.798   2.417  -0.892  1.00  0.00     0.116 C 
ATOM     27  C   UNL     1       2.873   2.983   0.046  1.00  0.00     0.040 C 
ATOM     28  C   UNL     1       0.793   3.456  -0.366  1.00  0.00     0.040 C 
ATOM     29  C   UNL     1       1.869   4.015   0.568  1.00  0.00     0.019 C 
BRANCH  26  30
ATOM     30  N   UNL     1       2.113   2.619  -2.313  1.00  0.00    -0.316 NA
ATOM     31  H   UNL     1       2.333   3.627  -2.491  1.00  0.00     0.119 HD
ATOM     32  H   UNL     1       2.984   2.087  -2.541  1.00  0.00     0.119 HD
ENDBRANCH  26  30
BRANCH  29  33
ATOM     33  C   UNL     1       1.540   3.849   2.057  1.00  0.00     0.159 C 
BRANCH  33  34
ATOM     34  O   UNL     1       0.507   4.725   2.408  1.00  0.00    -0.396 OA
ATOM     35  H   UNL     1       0.337   4.577   3.374  1.00  0.00     0.210 HD
ENDBRANCH  33  34
ENDBRANCH  29  33
ENDBRANCH  24  26
ENDBRANCH   1  24
TORSDOF 12


