MODEL 1
REMARK VINA RESULT:      -6.6      0.000      0.000
REMARK SMILES Cc1cc(-n2cc(C[C@@H](C)[N-]C(=O)[C@H](C)C#N)[nH+]n2)nc2ccc3ccccc3c12
REMARK SMILES IDX 9 1 10 2 8 3 7 4 5 5 6 6 19 7 18 8 4 10 2 11 3 12 30 13
REMARK SMILES IDX 29 14 21 15 20 16 28 17 24 18 22 19 27 20 23 21 25 22 26 23
REMARK SMILES IDX 1 24 11 25 12 26 13 27 14 28 15 29 16 30 17 31
REMARK H PARENT 18 9
ROOT
ATOM      1  C   UNL     1      37.933 138.265  11.424  1.00  0.00    -0.102 C 
ATOM      2  C   UNL     1      38.808 138.692  12.610  1.00  0.00    -0.013 C 
ENDROOT
BRANCH   1   3
ATOM      3  C   UNL     1      36.939 137.137  11.771  1.00  0.00     0.070 C 
BRANCH   3   4
ATOM      4  C   UNL     1      37.585 135.910  12.344  1.00  0.00     0.164 A 
ATOM      5  N   UNL     1      38.815 134.571  13.551  1.00  0.00    -0.084 N 
ATOM      6  C   UNL     1      38.619 135.871  13.254  1.00  0.00     0.283 A 
ATOM      7  N   UNL     1      37.953 133.846  12.852  1.00  0.00     0.095 NA
ATOM      8  N   UNL     1      37.200 134.642  12.109  1.00  0.00    -0.147 N 
ATOM      9  H   UNL     1      36.435 134.320  11.476  1.00  0.00     0.342 HD
BRANCH   5  10
ATOM     10  C   UNL     1      39.741 134.048  14.514  1.00  0.00     0.248 A 
ATOM     11  C   UNL     1      40.408 133.640  16.815  1.00  0.00    -0.035 A 
ATOM     12  C   UNL     1      39.495 134.161  15.882  1.00  0.00     0.080 A 
ATOM     13  C   UNL     1      41.660 133.120  16.355  1.00  0.00     0.011 A 
ATOM     14  C   UNL     1      42.769 132.752  17.188  1.00  0.00    -0.009 A 
ATOM     15  C   UNL     1      41.793 132.924  14.951  1.00  0.00     0.076 A 
ATOM     16  N   UNL     1      40.855 133.401  14.093  1.00  0.00    -0.207 NA
ATOM     17  C   UNL     1      42.926 133.198  18.523  1.00  0.00     0.009 A 
ATOM     18  C   UNL     1      43.833 131.986  16.628  1.00  0.00    -0.018 A 
ATOM     19  C   UNL     1      42.876 132.223  14.424  1.00  0.00     0.030 A 
ATOM     20  C   UNL     1      43.996 132.764  19.309  1.00  0.00     0.001 A 
ATOM     21  C   UNL     1      43.859 131.711  15.259  1.00  0.00     0.011 A 
ATOM     22  C   UNL     1      44.896 131.547  17.434  1.00  0.00     0.009 A 
ATOM     23  C   UNL     1      44.964 131.919  18.774  1.00  0.00     0.001 A 
ATOM     24  C   UNL     1      39.915 133.538  18.237  1.00  0.00     0.045 C 
ENDBRANCH   5  10
ENDBRANCH   3   4
ENDBRANCH   1   3
BRANCH   1  25
ATOM     25  N   UNL     1      38.726 137.956  10.226  1.00  0.00    -0.649 NA
BRANCH  25  26
ATOM     26  C   UNL     1      38.247 137.723   8.893  1.00  0.00     0.068 C 
ATOM     27  O   UNL     1      37.518 138.570   8.309  1.00  0.00    -0.319 OA
BRANCH  26  28
ATOM     28  C   UNL     1      38.629 136.455   8.185  1.00  0.00     0.137 C 
ATOM     29  C   UNL     1      37.815 135.271   8.712  1.00  0.00     0.031 C 
BRANCH  28  30
ATOM     30  C   UNL     1      40.068 136.200   8.355  1.00  0.00     0.071 C 
ATOM     31  N   UNL     1      41.199 136.000   8.488  1.00  0.00    -0.198 NA
ENDBRANCH  28  30
ENDBRANCH  26  28
ENDBRANCH  25  26
ENDBRANCH   1  25
TORSDOF 7
ENDMDL
MODEL 2
REMARK VINA RESULT:      -6.6      6.406      9.248
REMARK SMILES Cc1cc(-n2cc(C[C@@H](C)[N-]C(=O)[C@H](C)C#N)[nH+]n2)nc2ccc3ccccc3c12
REMARK SMILES IDX 9 1 10 2 8 3 7 4 5 5 6 6 19 7 18 8 4 10 2 11 3 12 30 13
REMARK SMILES IDX 29 14 21 15 20 16 28 17 24 18 22 19 27 20 23 21 25 22 26 23
REMARK SMILES IDX 1 24 11 25 12 26 13 27 14 28 15 29 16 30 17 31
REMARK H PARENT 18 9
ROOT
ATOM      1  C   UNL     1      40.053 135.955  22.402  1.00  0.00    -0.102 C 
ATOM      2  C   UNL     1      39.556 135.996  23.854  1.00  0.00    -0.013 C 
ENDROOT
BRANCH   1   3
ATOM      3  C   UNL     1      39.811 134.597  21.710  1.00  0.00     0.070 C 
BRANCH   3   4
ATOM      4  C   UNL     1      40.530 134.442  20.403  1.00  0.00     0.164 A 
ATOM      5  N   UNL     1      41.795 133.682  18.796  1.00  0.00    -0.084 N 
ATOM      6  C   UNL     1      41.496 133.509  20.099  1.00  0.00     0.283 A 
ATOM      7  N   UNL     1      41.057 134.678  18.325  1.00  0.00     0.095 NA
ATOM      8  N   UNL     1      40.285 135.156  19.288  1.00  0.00    -0.147 N 
ATOM      9  H   UNL     1      39.601 135.935  19.173  1.00  0.00     0.342 HD
BRANCH   5  10
ATOM     10  C   UNL     1      42.698 132.885  18.016  1.00  0.00     0.248 A 
ATOM     11  C   UNL     1      44.619 131.406  17.846  1.00  0.00    -0.035 A 
ATOM     12  C   UNL     1      43.744 132.186  18.619  1.00  0.00     0.080 A 
ATOM     13  C   UNL     1      44.518 131.447  16.418  1.00  0.00     0.011 A 
ATOM     14  C   UNL     1      45.461 130.880  15.497  1.00  0.00    -0.009 A 
ATOM     15  C   UNL     1      43.361 132.078  15.878  1.00  0.00     0.076 A 
ATOM     16  N   UNL     1      42.515 132.776  16.678  1.00  0.00    -0.207 NA
ATOM     17  C   UNL     1      46.790 130.542  15.847  1.00  0.00     0.009 A 
ATOM     18  C   UNL     1      45.093 130.741  14.126  1.00  0.00    -0.018 A 
ATOM     19  C   UNL     1      43.057 131.978  14.522  1.00  0.00     0.030 A 
ATOM     20  C   UNL     1      47.650 129.940  14.926  1.00  0.00     0.001 A 
ATOM     21  C   UNL     1      43.886 131.270  13.662  1.00  0.00     0.011 A 
ATOM     22  C   UNL     1      45.964 130.123  13.214  1.00  0.00     0.009 A 
ATOM     23  C   UNL     1      47.229 129.706  13.620  1.00  0.00     0.001 A 
ATOM     24  C   UNL     1      45.513 130.460  18.609  1.00  0.00     0.045 C 
ENDBRANCH   5  10
ENDBRANCH   3   4
ENDBRANCH   1   3
BRANCH   1  25
ATOM     25  N   UNL     1      41.445 136.402  22.273  1.00  0.00    -0.649 NA
BRANCH  25  26
ATOM     26  C   UNL     1      42.398 136.623  23.324  1.00  0.00     0.068 C 
ATOM     27  O   UNL     1      42.851 135.659  23.999  1.00  0.00    -0.319 OA
BRANCH  26  28
ATOM     28  C   UNL     1      42.863 138.021  23.615  1.00  0.00     0.137 C 
ATOM     29  C   UNL     1      41.876 139.049  23.057  1.00  0.00     0.031 C 
BRANCH  28  30
ATOM     30  C   UNL     1      44.200 138.234  23.042  1.00  0.00     0.071 C 
ATOM     31  N   UNL     1      45.253 138.401  22.591  1.00  0.00    -0.198 NA
ENDBRANCH  28  30
ENDBRANCH  26  28
ENDBRANCH  25  26
ENDBRANCH   1  25
TORSDOF 7
ENDMDL
MODEL 3
REMARK VINA RESULT:      -6.5      5.830      8.881
REMARK SMILES Cc1cc(-n2cc(C[C@@H](C)[N-]C(=O)[C@H](C)C#N)[nH+]n2)nc2ccc3ccccc3c12
REMARK SMILES IDX 9 1 10 2 8 3 7 4 5 5 6 6 19 7 18 8 4 10 2 11 3 12 30 13
REMARK SMILES IDX 29 14 21 15 20 16 28 17 24 18 22 19 27 20 23 21 25 22 26 23
REMARK SMILES IDX 1 24 11 25 12 26 13 27 14 28 15 29 16 30 17 31
REMARK H PARENT 18 9
ROOT
ATOM      1  C   UNL     1      39.661 136.366  21.965  1.00  0.00    -0.102 C 
ATOM      2  C   UNL     1      38.768 137.592  22.203  1.00  0.00    -0.013 C 
ENDROOT
BRANCH   1   3
ATOM      3  C   UNL     1      38.873 135.107  21.546  1.00  0.00     0.070 C 
BRANCH   3   4
ATOM      4  C   UNL     1      39.280 134.549  20.215  1.00  0.00     0.164 A 
ATOM      5  N   UNL     1      40.450 133.711  18.574  1.00  0.00    -0.084 N 
ATOM      6  C   UNL     1      40.563 134.281  19.790  1.00  0.00     0.283 A 
ATOM      7  N   UNL     1      39.163 133.642  18.261  1.00  0.00     0.095 NA
ATOM      8  N   UNL     1      38.437 134.150  19.245  1.00  0.00    -0.147 N 
ATOM      9  H   UNL     1      37.395 134.201  19.251  1.00  0.00     0.342 HD
BRANCH   5  10
ATOM     10  C   UNL     1      41.522 133.194  17.772  1.00  0.00     0.248 A 
ATOM     11  C   UNL     1      42.590 132.863  15.615  1.00  0.00    -0.035 A 
ATOM     12  C   UNL     1      41.533 133.370  16.388  1.00  0.00     0.080 A 
ATOM     13  C   UNL     1      43.582 132.040  16.238  1.00  0.00     0.011 A 
ATOM     14  C   UNL     1      44.591 131.284  15.552  1.00  0.00    -0.009 A 
ATOM     15  C   UNL     1      43.578 132.002  17.661  1.00  0.00     0.076 A 
ATOM     16  N   UNL     1      42.559 132.556  18.366  1.00  0.00    -0.207 NA
ATOM     17  C   UNL     1      44.517 130.944  14.180  1.00  0.00     0.009 A 
ATOM     18  C   UNL     1      45.681 130.747  16.298  1.00  0.00    -0.018 A 
ATOM     19  C   UNL     1      44.628 131.416  18.366  1.00  0.00     0.030 A 
ATOM     20  C   UNL     1      45.555 130.255  13.549  1.00  0.00     0.001 A 
ATOM     21  C   UNL     1      45.697 130.842  17.692  1.00  0.00     0.011 A 
ATOM     22  C   UNL     1      46.723 130.066  15.647  1.00  0.00     0.009 A 
ATOM     23  C   UNL     1      46.667 129.840  14.275  1.00  0.00     0.001 A 
ATOM     24  C   UNL     1      42.668 133.362  14.193  1.00  0.00     0.045 C 
ENDBRANCH   5  10
ENDBRANCH   3   4
ENDBRANCH   1   3
BRANCH   1  25
ATOM     25  N   UNL     1      40.565 136.105  23.092  1.00  0.00    -0.649 NA
BRANCH  25  26
ATOM     26  C   UNL     1      41.998 136.018  23.067  1.00  0.00     0.068 C 
ATOM     27  O   UNL     1      42.579 135.074  22.466  1.00  0.00    -0.319 OA
BRANCH  26  28
ATOM     28  C   UNL     1      42.811 137.073  23.760  1.00  0.00     0.137 C 
ATOM     29  C   UNL     1      41.988 138.346  23.968  1.00  0.00     0.031 C 
BRANCH  28  30
ATOM     30  C   UNL     1      44.021 137.369  22.978  1.00  0.00     0.071 C 
ATOM     31  N   UNL     1      44.972 137.602  22.362  1.00  0.00    -0.198 NA
ENDBRANCH  28  30
ENDBRANCH  26  28
ENDBRANCH  25  26
ENDBRANCH   1  25
TORSDOF 7
ENDMDL
MODEL 4
REMARK VINA RESULT:      -6.5      1.663      3.242
REMARK SMILES Cc1cc(-n2cc(C[C@@H](C)[N-]C(=O)[C@H](C)C#N)[nH+]n2)nc2ccc3ccccc3c12
REMARK SMILES IDX 9 1 10 2 8 3 7 4 5 5 6 6 19 7 18 8 4 10 2 11 3 12 30 13
REMARK SMILES IDX 29 14 21 15 20 16 28 17 24 18 22 19 27 20 23 21 25 22 26 23
REMARK SMILES IDX 1 24 11 25 12 26 13 27 14 28 15 29 16 30 17 31
REMARK H PARENT 18 9
ROOT
ATOM      1  C   UNL     1      37.224 135.092  11.559  1.00  0.00    -0.102 C 
ATOM      2  C   UNL     1      36.495 133.836  11.061  1.00  0.00    -0.013 C 
ENDROOT
BRANCH   1   3
ATOM      3  C   UNL     1      37.339 135.164  13.096  1.00  0.00     0.070 C 
BRANCH   3   4
ATOM      4  C   UNL     1      38.751 135.174  13.602  1.00  0.00     0.164 A 
ATOM      5  N   UNL     1      40.568 134.723  14.724  1.00  0.00    -0.084 N 
ATOM      6  C   UNL     1      39.240 134.497  14.698  1.00  0.00     0.283 A 
ATOM      7  N   UNL     1      40.880 135.508  13.702  1.00  0.00     0.095 NA
ATOM      8  N   UNL     1      39.788 135.796  13.011  1.00  0.00    -0.147 N 
ATOM      9  H   UNL     1      39.765 136.387  12.151  1.00  0.00     0.342 HD
BRANCH   5  10
ATOM     10  C   UNL     1      41.511 134.160  15.647  1.00  0.00     0.248 A 
ATOM     11  C   UNL     1      43.651 133.110  16.119  1.00  0.00    -0.035 A 
ATOM     12  C   UNL     1      42.735 133.656  15.205  1.00  0.00     0.080 A 
ATOM     13  C   UNL     1      43.262 132.943  17.487  1.00  0.00     0.011 A 
ATOM     14  C   UNL     1      43.998 132.218  18.483  1.00  0.00    -0.009 A 
ATOM     15  C   UNL     1      42.057 133.586  17.891  1.00  0.00     0.076 A 
ATOM     16  N   UNL     1      41.229 134.147  16.972  1.00  0.00    -0.207 NA
ATOM     17  C   UNL     1      44.996 131.262  18.176  1.00  0.00     0.009 A 
ATOM     18  C   UNL     1      43.648 132.376  19.856  1.00  0.00    -0.018 A 
ATOM     19  C   UNL     1      41.706 133.672  19.237  1.00  0.00     0.030 A 
ATOM     20  C   UNL     1      45.722 130.625  19.185  1.00  0.00     0.001 A 
ATOM     21  C   UNL     1      42.522 133.120  20.215  1.00  0.00     0.011 A 
ATOM     22  C   UNL     1      44.395 131.737  20.860  1.00  0.00     0.009 A 
ATOM     23  C   UNL     1      45.440 130.882  20.523  1.00  0.00     0.001 A 
ATOM     24  C   UNL     1      45.048 132.878  15.597  1.00  0.00     0.045 C 
ENDBRANCH   5  10
ENDBRANCH   3   4
ENDBRANCH   1   3
BRANCH   1  25
ATOM     25  N   UNL     1      36.671 136.326  10.986  1.00  0.00    -0.649 NA
BRANCH  25  26
ATOM     26  C   UNL     1      37.341 137.579  10.786  1.00  0.00     0.068 C 
ATOM     27  O   UNL     1      37.044 138.590  11.479  1.00  0.00    -0.319 OA
BRANCH  26  28
ATOM     28  C   UNL     1      38.415 137.681   9.741  1.00  0.00     0.137 C 
ATOM     29  C   UNL     1      38.206 138.917   8.864  1.00  0.00     0.031 C 
BRANCH  28  30
ATOM     30  C   UNL     1      38.426 136.465   8.915  1.00  0.00     0.071 C 
ATOM     31  N   UNL     1      38.435 135.508   8.265  1.00  0.00    -0.198 NA
ENDBRANCH  28  30
ENDBRANCH  26  28
ENDBRANCH  25  26
ENDBRANCH   1  25
TORSDOF 7
ENDMDL
MODEL 5
REMARK VINA RESULT:      -6.4      6.039      8.849
REMARK SMILES Cc1cc(-n2cc(C[C@@H](C)[N-]C(=O)[C@H](C)C#N)[nH+]n2)nc2ccc3ccccc3c12
REMARK SMILES IDX 9 1 10 2 8 3 7 4 5 5 6 6 19 7 18 8 4 10 2 11 3 12 30 13
REMARK SMILES IDX 29 14 21 15 20 16 28 17 24 18 22 19 27 20 23 21 25 22 26 23
REMARK SMILES IDX 1 24 11 25 12 26 13 27 14 28 15 29 16 30 17 31
REMARK H PARENT 18 9
ROOT
ATOM      1  C   UNL     1      42.115 138.534  22.450  1.00  0.00    -0.102 C 
ATOM      2  C   UNL     1      41.733 139.184  23.787  1.00  0.00    -0.013 C 
ENDROOT
BRANCH   1   3
ATOM      3  C   UNL     1      41.777 137.030  22.382  1.00  0.00     0.070 C 
BRANCH   3   4
ATOM      4  C   UNL     1      41.935 136.431  21.016  1.00  0.00     0.164 A 
ATOM      5  N   UNL     1      42.532 135.141  19.360  1.00  0.00    -0.084 N 
ATOM      6  C   UNL     1      42.789 135.412  20.655  1.00  0.00     0.283 A 
ATOM      7  N   UNL     1      41.575 135.958  18.942  1.00  0.00     0.095 NA
ATOM      8  N   UNL     1      41.202 136.753  19.933  1.00  0.00    -0.147 N 
ATOM      9  H   UNL     1      40.455 137.479  19.866  1.00  0.00     0.342 HD
BRANCH   5  10
ATOM     10  C   UNL     1      43.127 134.099  18.573  1.00  0.00     0.248 A 
ATOM     11  C   UNL     1      44.605 132.182  18.359  1.00  0.00    -0.035 A 
ATOM     12  C   UNL     1      44.032 133.201  19.139  1.00  0.00     0.080 A 
ATOM     13  C   UNL     1      44.366 132.161  16.948  1.00  0.00     0.011 A 
ATOM     14  C   UNL     1      45.040 131.323  15.998  1.00  0.00    -0.009 A 
ATOM     15  C   UNL     1      43.344 133.025  16.461  1.00  0.00     0.076 A 
ATOM     16  N   UNL     1      42.782 133.959  17.271  1.00  0.00    -0.207 NA
ATOM     17  C   UNL     1      46.278 130.687  16.257  1.00  0.00     0.009 A 
ATOM     18  C   UNL     1      44.505 131.197  14.682  1.00  0.00    -0.018 A 
ATOM     19  C   UNL     1      42.882 132.922  15.151  1.00  0.00     0.030 A 
ATOM     20  C   UNL     1      46.864 129.835  15.317  1.00  0.00     0.001 A 
ATOM     21  C   UNL     1      43.419 131.980  14.284  1.00  0.00     0.011 A 
ATOM     22  C   UNL     1      45.099 130.328  13.752  1.00  0.00     0.009 A 
ATOM     23  C   UNL     1      46.262 129.635  14.078  1.00  0.00     0.001 A 
ATOM     24  C   UNL     1      45.321 131.091  19.118  1.00  0.00     0.045 C 
ENDBRANCH   5  10
ENDBRANCH   3   4
ENDBRANCH   1   3
BRANCH   1  25
ATOM     25  N   UNL     1      43.507 138.807  22.072  1.00  0.00    -0.649 NA
BRANCH  25  26
ATOM     26  C   UNL     1      44.032 139.030  20.754  1.00  0.00     0.068 C 
ATOM     27  O   UNL     1      43.281 139.403  19.813  1.00  0.00    -0.319 OA
BRANCH  26  28
ATOM     28  C   UNL     1      45.498 138.822  20.501  1.00  0.00     0.137 C 
ATOM     29  C   UNL     1      45.726 138.160  19.140  1.00  0.00     0.031 C 
BRANCH  28  30
ATOM     30  C   UNL     1      46.080 138.001  21.573  1.00  0.00     0.071 C 
ATOM     31  N   UNL     1      46.538 137.354  22.415  1.00  0.00    -0.198 NA
ENDBRANCH  28  30
ENDBRANCH  26  28
ENDBRANCH  25  26
ENDBRANCH   1  25
TORSDOF 7
ENDMDL
MODEL 6
REMARK VINA RESULT:      -6.4      5.616      8.890
REMARK SMILES Cc1cc(-n2cc(C[C@@H](C)[N-]C(=O)[C@H](C)C#N)[nH+]n2)nc2ccc3ccccc3c12
REMARK SMILES IDX 9 1 10 2 8 3 7 4 5 5 6 6 19 7 18 8 4 10 2 11 3 12 30 13
REMARK SMILES IDX 29 14 21 15 20 16 28 17 24 18 22 19 27 20 23 21 25 22 26 23
REMARK SMILES IDX 1 24 11 25 12 26 13 27 14 28 15 29 16 30 17 31
REMARK H PARENT 18 9
ROOT
ATOM      1  C   UNL     1      46.440 130.861  15.597  1.00  0.00    -0.102 C 
ATOM      2  C   UNL     1      46.952 130.062  14.390  1.00  0.00    -0.013 C 
ENDROOT
BRANCH   1   3
ATOM      3  C   UNL     1      45.656 130.003  16.612  1.00  0.00     0.070 C 
BRANCH   3   4
ATOM      4  C   UNL     1      45.401 130.689  17.921  1.00  0.00     0.164 A 
ATOM      5  N   UNL     1      44.453 131.791  19.548  1.00  0.00    -0.084 N 
ATOM      6  C   UNL     1      44.303 131.452  18.252  1.00  0.00     0.283 A 
ATOM      7  N   UNL     1      45.590 131.272  19.989  1.00  0.00     0.095 NA
ATOM      8  N   UNL     1      46.183 130.602  19.013  1.00  0.00    -0.147 N 
ATOM      9  H   UNL     1      47.087 130.089  19.106  1.00  0.00     0.342 HD
BRANCH   5  10
ATOM     10  C   UNL     1      43.516 132.524  20.350  1.00  0.00     0.248 A 
ATOM     11  C   UNL     1      42.790 133.401  22.498  1.00  0.00    -0.035 A 
ATOM     12  C   UNL     1      43.712 132.678  21.723  1.00  0.00     0.080 A 
ATOM     13  C   UNL     1      41.574 133.858  21.895  1.00  0.00     0.011 A 
ATOM     14  C   UNL     1      40.453 134.418  22.594  1.00  0.00    -0.009 A 
ATOM     15  C   UNL     1      41.495 133.775  20.475  1.00  0.00     0.076 A 
ATOM     16  N   UNL     1      42.442 133.109  19.766  1.00  0.00    -0.207 NA
ATOM     17  C   UNL     1      40.236 134.252  23.983  1.00  0.00     0.009 A 
ATOM     18  C   UNL     1      39.439 135.092  21.852  1.00  0.00    -0.018 A 
ATOM     19  C   UNL     1      40.458 134.391  19.777  1.00  0.00     0.030 A 
ATOM     20  C   UNL     1      39.158 134.866  24.625  1.00  0.00     0.001 A 
ATOM     21  C   UNL     1      39.468 135.090  20.455  1.00  0.00     0.011 A 
ATOM     22  C   UNL     1      38.367 135.714  22.513  1.00  0.00     0.009 A 
ATOM     23  C   UNL     1      38.241 135.618  23.896  1.00  0.00     0.001 A 
ATOM     24  C   UNL     1      43.239 133.768  23.891  1.00  0.00     0.045 C 
ENDBRANCH   5  10
ENDBRANCH   3   4
ENDBRANCH   1   3
BRANCH   1  25
ATOM     25  N   UNL     1      45.697 132.064  15.197  1.00  0.00    -0.649 NA
BRANCH  25  26
ATOM     26  C   UNL     1      44.301 132.168  14.878  1.00  0.00     0.068 C 
ATOM     27  O   UNL     1      43.682 131.199  14.360  1.00  0.00    -0.319 OA
BRANCH  26  28
ATOM     28  C   UNL     1      43.572 133.447  15.172  1.00  0.00     0.137 C 
ATOM     29  C   UNL     1      44.405 134.350  16.085  1.00  0.00     0.031 C 
BRANCH  28  30
ATOM     30  C   UNL     1      42.273 133.152  15.794  1.00  0.00     0.071 C 
ATOM     31  N   UNL     1      41.250 132.920  16.283  1.00  0.00    -0.198 NA
ENDBRANCH  28  30
ENDBRANCH  26  28
ENDBRANCH  25  26
ENDBRANCH   1  25
TORSDOF 7
ENDMDL
MODEL 7
REMARK VINA RESULT:      -6.4      6.004      8.522
REMARK SMILES Cc1cc(-n2cc(C[C@@H](C)[N-]C(=O)[C@H](C)C#N)[nH+]n2)nc2ccc3ccccc3c12
REMARK SMILES IDX 9 1 10 2 8 3 7 4 5 5 6 6 19 7 18 8 4 10 2 11 3 12 30 13
REMARK SMILES IDX 29 14 21 15 20 16 28 17 24 18 22 19 27 20 23 21 25 22 26 23
REMARK SMILES IDX 1 24 11 25 12 26 13 27 14 28 15 29 16 30 17 31
REMARK H PARENT 18 9
ROOT
ATOM      1  C   UNL     1      38.971 134.884  22.355  1.00  0.00    -0.102 C 
ATOM      2  C   UNL     1      38.142 134.217  23.461  1.00  0.00    -0.013 C 
ENDROOT
BRANCH   1   3
ATOM      3  C   UNL     1      40.374 135.325  22.823  1.00  0.00     0.070 C 
BRANCH   3   4
ATOM      4  C   UNL     1      41.444 135.152  21.787  1.00  0.00     0.164 A 
ATOM      5  N   UNL     1      42.696 134.333  20.198  1.00  0.00    -0.084 N 
ATOM      6  C   UNL     1      41.723 134.007  21.072  1.00  0.00     0.283 A 
ATOM      7  N   UNL     1      43.008 135.609  20.373  1.00  0.00     0.095 NA
ATOM      8  N   UNL     1      42.261 136.123  21.338  1.00  0.00    -0.147 N 
ATOM      9  H   UNL     1      42.303 137.115  21.660  1.00  0.00     0.342 HD
BRANCH   5  10
ATOM     10  C   UNL     1      43.258 133.478  19.192  1.00  0.00     0.248 A 
ATOM     11  C   UNL     1      44.824 131.751  18.507  1.00  0.00    -0.035 A 
ATOM     12  C   UNL     1      44.286 132.586  19.500  1.00  0.00     0.080 A 
ATOM     13  C   UNL     1      44.411 131.922  17.147  1.00  0.00     0.011 A 
ATOM     14  C   UNL     1      45.017 131.299  16.004  1.00  0.00    -0.009 A 
ATOM     15  C   UNL     1      43.280 132.758  16.924  1.00  0.00     0.076 A 
ATOM     16  N   UNL     1      42.762 133.506  17.931  1.00  0.00    -0.207 NA
ATOM     17  C   UNL     1      46.318 130.741  16.016  1.00  0.00     0.009 A 
ATOM     18  C   UNL     1      44.331 131.328  14.755  1.00  0.00    -0.018 A 
ATOM     19  C   UNL     1      42.665 132.815  15.675  1.00  0.00     0.030 A 
ATOM     20  C   UNL     1      46.838 130.096  14.892  1.00  0.00     0.001 A 
ATOM     21  C   UNL     1      43.153 132.065  14.613  1.00  0.00     0.011 A 
ATOM     22  C   UNL     1      44.862 130.664  13.636  1.00  0.00     0.009 A 
ATOM     23  C   UNL     1      46.100 130.034  13.713  1.00  0.00     0.001 A 
ATOM     24  C   UNL     1      45.702 130.624  18.995  1.00  0.00     0.045 C 
ENDBRANCH   5  10
ENDBRANCH   3   4
ENDBRANCH   1   3
BRANCH   1  25
ATOM     25  N   UNL     1      38.243 135.970  21.687  1.00  0.00    -0.649 NA
BRANCH  25  26
ATOM     26  C   UNL     1      38.451 136.483  20.362  1.00  0.00     0.068 C 
ATOM     27  O   UNL     1      38.928 135.750  19.453  1.00  0.00    -0.319 OA
BRANCH  26  28
ATOM     28  C   UNL     1      38.088 137.908  20.058  1.00  0.00     0.137 C 
ATOM     29  C   UNL     1      38.847 138.413  18.829  1.00  0.00     0.031 C 
BRANCH  28  30
ATOM     30  C   UNL     1      38.378 138.758  21.222  1.00  0.00     0.071 C 
ATOM     31  N   UNL     1      38.607 139.426  22.138  1.00  0.00    -0.198 NA
ENDBRANCH  28  30
ENDBRANCH  26  28
ENDBRANCH  25  26
ENDBRANCH   1  25
TORSDOF 7
ENDMDL
MODEL 8
REMARK VINA RESULT:      -6.4      5.799      8.003
REMARK SMILES Cc1cc(-n2cc(C[C@@H](C)[N-]C(=O)[C@H](C)C#N)[nH+]n2)nc2ccc3ccccc3c12
REMARK SMILES IDX 9 1 10 2 8 3 7 4 5 5 6 6 19 7 18 8 4 10 2 11 3 12 30 13
REMARK SMILES IDX 29 14 21 15 20 16 28 17 24 18 22 19 27 20 23 21 25 22 26 23
REMARK SMILES IDX 1 24 11 25 12 26 13 27 14 28 15 29 16 30 17 31
REMARK H PARENT 18 9
ROOT
ATOM      1  C   UNL     1      40.155 137.971  21.991  1.00  0.00    -0.102 C 
ATOM      2  C   UNL     1      39.739 139.432  22.213  1.00  0.00    -0.013 C 
ENDROOT
BRANCH   1   3
ATOM      3  C   UNL     1      41.511 137.824  21.269  1.00  0.00     0.070 C 
BRANCH   3   4
ATOM      4  C   UNL     1      41.899 136.403  20.986  1.00  0.00     0.164 A 
ATOM      5  N   UNL     1      42.652 134.602  20.012  1.00  0.00    -0.084 N 
ATOM      6  C   UNL     1      42.335 135.891  19.783  1.00  0.00     0.283 A 
ATOM      7  N   UNL     1      42.415 134.331  21.287  1.00  0.00     0.095 NA
ATOM      8  N   UNL     1      41.953 135.412  21.895  1.00  0.00    -0.147 N 
ATOM      9  H   UNL     1      41.701 135.466  22.906  1.00  0.00     0.342 HD
BRANCH   5  10
ATOM     10  C   UNL     1      43.223 133.684  19.067  1.00  0.00     0.248 A 
ATOM     11  C   UNL     1      44.756 131.880  18.521  1.00  0.00    -0.035 A 
ATOM     12  C   UNL     1      44.209 132.776  19.454  1.00  0.00     0.080 A 
ATOM     13  C   UNL     1      44.400 132.001  17.140  1.00  0.00     0.011 A 
ATOM     14  C   UNL     1      45.026 131.307  16.051  1.00  0.00    -0.009 A 
ATOM     15  C   UNL     1      43.305 132.860  16.836  1.00  0.00     0.076 A 
ATOM     16  N   UNL     1      42.775 133.670  17.789  1.00  0.00    -0.207 NA
ATOM     17  C   UNL     1      46.307 130.711  16.137  1.00  0.00     0.009 A 
ATOM     18  C   UNL     1      44.388 131.299  14.776  1.00  0.00    -0.018 A 
ATOM     19  C   UNL     1      42.739 132.878  15.563  1.00  0.00     0.030 A 
ATOM     20  C   UNL     1      46.846 129.998  15.064  1.00  0.00     0.001 A 
ATOM     21  C   UNL     1      43.241 132.065  14.556  1.00  0.00     0.011 A 
ATOM     22  C   UNL     1      44.938 130.569  13.709  1.00  0.00     0.009 A 
ATOM     23  C   UNL     1      46.152 129.905  13.861  1.00  0.00     0.001 A 
ATOM     24  C   UNL     1      45.578 130.750  19.092  1.00  0.00     0.045 C 
ENDBRANCH   5  10
ENDBRANCH   3   4
ENDBRANCH   1   3
BRANCH   1  25
ATOM     25  N   UNL     1      39.097 137.178  21.350  1.00  0.00    -0.649 NA
BRANCH  25  26
ATOM     26  C   UNL     1      38.535 137.358  20.042  1.00  0.00     0.068 C 
ATOM     27  O   UNL     1      38.305 138.512  19.589  1.00  0.00    -0.319 OA
BRANCH  26  28
ATOM     28  C   UNL     1      38.225 136.152  19.202  1.00  0.00     0.137 C 
ATOM     29  C   UNL     1      37.390 136.540  17.980  1.00  0.00     0.031 C 
BRANCH  28  30
ATOM     30  C   UNL     1      37.514 135.149  20.009  1.00  0.00     0.071 C 
ATOM     31  N   UNL     1      36.955 134.360  20.644  1.00  0.00    -0.198 NA
ENDBRANCH  28  30
ENDBRANCH  26  28
ENDBRANCH  25  26
ENDBRANCH   1  25
TORSDOF 7
ENDMDL
MODEL 9
REMARK VINA RESULT:      -6.3      6.442      9.470
REMARK SMILES Cc1cc(-n2cc(C[C@@H](C)[N-]C(=O)[C@H](C)C#N)[nH+]n2)nc2ccc3ccccc3c12
REMARK SMILES IDX 9 1 10 2 8 3 7 4 5 5 6 6 19 7 18 8 4 10 2 11 3 12 30 13
REMARK SMILES IDX 29 14 21 15 20 16 28 17 24 18 22 19 27 20 23 21 25 22 26 23
REMARK SMILES IDX 1 24 11 25 12 26 13 27 14 28 15 29 16 30 17 31
REMARK H PARENT 18 9
ROOT
ATOM      1  C   UNL     1      40.091 135.468  23.336  1.00  0.00    -0.102 C 
ATOM      2  C   UNL     1      39.921 134.197  24.180  1.00  0.00    -0.013 C 
ENDROOT
BRANCH   1   3
ATOM      3  C   UNL     1      40.108 135.197  21.818  1.00  0.00     0.070 C 
BRANCH   3   4
ATOM      4  C   UNL     1      41.250 134.337  21.365  1.00  0.00     0.164 A 
ATOM      5  N   UNL     1      42.636 133.191  20.129  1.00  0.00    -0.084 N 
ATOM      6  C   UNL     1      41.446 133.823  20.102  1.00  0.00     0.283 A 
ATOM      7  N   UNL     1      43.142 133.301  21.349  1.00  0.00     0.095 NA
ATOM      8  N   UNL     1      42.312 133.991  22.116  1.00  0.00    -0.147 N 
ATOM      9  H   UNL     1      42.484 134.228  23.118  1.00  0.00     0.342 HD
BRANCH   5  10
ATOM     10  C   UNL     1      43.294 132.565  19.017  1.00  0.00     0.248 A 
ATOM     11  C   UNL     1      45.081 131.194  18.107  1.00  0.00    -0.035 A 
ATOM     12  C   UNL     1      44.449 131.805  19.202  1.00  0.00     0.080 A 
ATOM     13  C   UNL     1      44.616 131.474  16.783  1.00  0.00     0.011 A 
ATOM     14  C   UNL     1      45.279 131.100  15.566  1.00  0.00    -0.009 A 
ATOM     15  C   UNL     1      43.369 132.154  16.675  1.00  0.00     0.076 A 
ATOM     16  N   UNL     1      42.770 132.681  17.773  1.00  0.00    -0.207 NA
ATOM     17  C   UNL     1      46.648 130.746  15.500  1.00  0.00     0.009 A 
ATOM     18  C   UNL     1      44.567 131.185  14.334  1.00  0.00    -0.018 A 
ATOM     19  C   UNL     1      42.723 132.277  15.447  1.00  0.00     0.030 A 
ATOM     20  C   UNL     1      47.231 130.334  14.299  1.00  0.00     0.001 A 
ATOM     21  C   UNL     1      43.291 131.750  14.294  1.00  0.00     0.011 A 
ATOM     22  C   UNL     1      45.163 130.757  13.136  1.00  0.00     0.009 A 
ATOM     23  C   UNL     1      46.483 130.315  13.125  1.00  0.00     0.001 A 
ATOM     24  C   UNL     1      46.127 130.158  18.440  1.00  0.00     0.045 C 
ENDBRANCH   5  10
ENDBRANCH   3   4
ENDBRANCH   1   3
BRANCH   1  25
ATOM     25  N   UNL     1      41.238 136.278  23.768  1.00  0.00    -0.649 NA
BRANCH  25  26
ATOM     26  C   UNL     1      41.771 137.452  23.137  1.00  0.00     0.068 C 
ATOM     27  O   UNL     1      41.007 138.326  22.646  1.00  0.00    -0.319 OA
BRANCH  26  28
ATOM     28  C   UNL     1      43.260 137.639  23.070  1.00  0.00     0.137 C 
ATOM     29  C   UNL     1      43.624 139.124  23.125  1.00  0.00     0.031 C 
BRANCH  28  30
ATOM     30  C   UNL     1      43.787 137.029  21.841  1.00  0.00     0.071 C 
ATOM     31  N   UNL     1      44.202 136.549  20.874  1.00  0.00    -0.198 NA
ENDBRANCH  28  30
ENDBRANCH  26  28
ENDBRANCH  25  26
ENDBRANCH   1  25
TORSDOF 7
ENDMDL


