MODEL 1
REMARK VINA RESULT:      -6.0      0.000      0.000
REMARK SMILES C#C/C(O)=N\[C@H](c1c(C)[nH+]nn1-c1c2ccccc2c(C(=O)N=[N+]=[N-])c2ccccc12)C(C)C
REMARK SMILES IDX 7 1 8 2 9 3 10 4 11 6 12 7 6 8 5 9 3 10 2 11 1 12 4 13 32 15
REMARK SMILES IDX 33 16 34 17 13 18 14 19 31 20 15 21 19 22 30 23 26 24 16 25
REMARK SMILES IDX 18 26 20 27 29 28 27 29 17 30 28 31 21 32 22 33 23 34 24 35
REMARK SMILES IDX 25 36
REMARK H PARENT 10 5 4 14
ROOT
ATOM      1  C   UNL     1      42.050 134.989  19.885  1.00  0.00     0.201 A 
ATOM      2  C   UNL     1      41.025 135.174  20.807  1.00  0.00     0.167 A 
ATOM      3  C   UNL     1      40.754 136.362  21.677  1.00  0.00     0.100 C 
ATOM      4  N   UNL     1      40.223 134.094  20.736  1.00  0.00    -0.147 N 
ATOM      5  H   UNL     1      39.350 133.920  21.281  1.00  0.00     0.342 HD
ATOM      6  N   UNL     1      40.723 133.265  19.834  1.00  0.00     0.094 NA
ATOM      7  N   UNL     1      41.823 133.784  19.315  1.00  0.00    -0.095 N 
ENDROOT
BRANCH   1   8
ATOM      8  C   UNL     1      43.233 135.882  19.568  1.00  0.00     0.190 C 
BRANCH   8   9
ATOM      9  N   UNL     1      42.790 137.086  18.850  1.00  0.00    -0.231 NA
BRANCH   9  10
ATOM     10  C   UNL     1      42.885 137.309  17.571  1.00  0.00     0.261 C 
BRANCH  10  11
ATOM     11  C   UNL     1      43.703 136.489  16.707  1.00  0.00    -0.012 C 
ATOM     12  C   UNL     1      44.387 135.801  15.991  1.00  0.00     0.015 C 
ENDBRANCH  10  11
BRANCH  10  13
ATOM     13  O   UNL     1      42.170 138.369  17.022  1.00  0.00    -0.487 OA
ATOM     14  H   UNL     1      41.514 138.223  16.263  1.00  0.00     0.296 HD
ENDBRANCH  10  13
ENDBRANCH   9  10
ENDBRANCH   8   9
BRANCH   8  15
ATOM     15  C   UNL     1      44.031 136.246  20.849  1.00  0.00     0.016 C 
ATOM     16  C   UNL     1      45.422 135.598  20.845  1.00  0.00     0.010 C 
ATOM     17  C   UNL     1      44.151 137.762  21.067  1.00  0.00     0.010 C 
ENDBRANCH   8  15
ENDBRANCH   1   8
BRANCH   7  18
ATOM     18  C   UNL     1      42.618 133.135  18.309  1.00  0.00     0.171 A 
ATOM     19  C   UNL     1      43.729 132.350  18.686  1.00  0.00     0.032 A 
ATOM     20  C   UNL     1      42.261 133.250  16.949  1.00  0.00     0.032 A 
ATOM     21  C   UNL     1      44.117 132.255  20.040  1.00  0.00     0.013 A 
ATOM     22  C   UNL     1      44.468 131.643  17.701  1.00  0.00    -0.002 A 
ATOM     23  C   UNL     1      41.155 134.036  16.559  1.00  0.00     0.013 A 
ATOM     24  C   UNL     1      42.998 132.549  15.958  1.00  0.00    -0.002 A 
ATOM     25  C   UNL     1      45.204 131.468  20.418  1.00  0.00     0.001 A 
ATOM     26  C   UNL     1      45.574 130.861  18.111  1.00  0.00     0.009 A 
ATOM     27  C   UNL     1      44.096 131.735  16.337  1.00  0.00     0.040 A 
ATOM     28  C   UNL     1      40.784 134.131  15.220  1.00  0.00     0.001 A 
ATOM     29  C   UNL     1      42.596 132.658  14.606  1.00  0.00     0.009 A 
ATOM     30  C   UNL     1      45.930 130.773  19.456  1.00  0.00     0.001 A 
ATOM     31  C   UNL     1      41.503 133.445  14.247  1.00  0.00     0.001 A 
BRANCH  27  32
ATOM     32  C   UNL     1      44.837 130.961  15.310  1.00  0.00     0.250 C 
ATOM     33  O   UNL     1      44.523 129.760  15.095  1.00  0.00    -0.287 OA
BRANCH  32  34
ATOM     34  N   UNL     1      45.905 131.551  14.562  1.00  0.00    -0.017 NA
BRANCH  34  35
ATOM     35  N   UNL     1      46.878 130.889  14.200  1.00  0.00     0.009 N 
ATOM     36  N   UNL     1      47.849 130.226  13.838  1.00  0.00    -0.003 NA
ENDBRANCH  34  35
ENDBRANCH  32  34
ENDBRANCH  27  32
ENDBRANCH   7  18
TORSDOF 10
ENDMDL
MODEL 2
REMARK VINA RESULT:      -5.9      1.387      2.535
REMARK SMILES C#C/C(O)=N\[C@H](c1c(C)[nH+]nn1-c1c2ccccc2c(C(=O)N=[N+]=[N-])c2ccccc12)C(C)C
REMARK SMILES IDX 7 1 8 2 9 3 10 4 11 6 12 7 6 8 5 9 3 10 2 11 1 12 4 13 32 15
REMARK SMILES IDX 33 16 34 17 13 18 14 19 31 20 15 21 19 22 30 23 26 24 16 25
REMARK SMILES IDX 18 26 20 27 29 28 27 29 17 30 28 31 21 32 22 33 23 34 24 35
REMARK SMILES IDX 25 36
REMARK H PARENT 10 5 4 14
ROOT
ATOM      1  C   UNL     1      41.509 135.156  18.288  1.00  0.00     0.201 A 
ATOM      2  C   UNL     1      40.277 135.514  18.825  1.00  0.00     0.167 A 
ATOM      3  C   UNL     1      39.738 136.884  19.099  1.00  0.00     0.100 C 
ATOM      4  N   UNL     1      39.572 134.379  18.999  1.00  0.00    -0.147 N 
ATOM      5  H   UNL     1      38.598 134.292  19.367  1.00  0.00     0.342 HD
ATOM      6  N   UNL     1      40.321 133.361  18.611  1.00  0.00     0.094 NA
ATOM      7  N   UNL     1      41.491 133.808  18.184  1.00  0.00    -0.095 N 
ENDROOT
BRANCH   1   8
ATOM      8  C   UNL     1      42.689 136.032  17.919  1.00  0.00     0.190 C 
BRANCH   8   9
ATOM      9  N   UNL     1      43.853 135.705  18.754  1.00  0.00    -0.231 NA
BRANCH   9  10
ATOM     10  C   UNL     1      44.186 136.264  19.881  1.00  0.00     0.261 C 
BRANCH  10  11
ATOM     11  C   UNL     1      45.296 135.790  20.675  1.00  0.00    -0.012 C 
ATOM     12  C   UNL     1      46.226 135.395  21.334  1.00  0.00     0.015 C 
ENDBRANCH  10  11
BRANCH  10  13
ATOM     13  O   UNL     1      43.451 137.358  20.328  1.00  0.00    -0.487 OA
ATOM     14  H   UNL     1      42.906 137.922  19.686  1.00  0.00     0.296 HD
ENDBRANCH  10  13
ENDBRANCH   9  10
ENDBRANCH   8   9
BRANCH   8  15
ATOM     15  C   UNL     1      43.025 135.926  16.407  1.00  0.00     0.016 C 
ATOM     16  C   UNL     1      42.721 137.239  15.672  1.00  0.00     0.010 C 
ATOM     17  C   UNL     1      44.477 135.496  16.147  1.00  0.00     0.010 C 
ENDBRANCH   8  15
ENDBRANCH   1   8
BRANCH   7  18
ATOM     18  C   UNL     1      42.544 132.960  17.698  1.00  0.00     0.171 A 
ATOM     19  C   UNL     1      43.480 132.409  18.601  1.00  0.00     0.032 A 
ATOM     20  C   UNL     1      42.616 132.646  16.325  1.00  0.00     0.032 A 
ATOM     21  C   UNL     1      43.440 132.743  19.972  1.00  0.00     0.013 A 
ATOM     22  C   UNL     1      44.472 131.507  18.134  1.00  0.00    -0.002 A 
ATOM     23  C   UNL     1      41.689 133.195  15.412  1.00  0.00     0.013 A 
ATOM     24  C   UNL     1      43.609 131.748  15.850  1.00  0.00    -0.002 A 
ATOM     25  C   UNL     1      44.352 132.188  20.868  1.00  0.00     0.001 A 
ATOM     26  C   UNL     1      45.393 130.968  19.064  1.00  0.00     0.009 A 
ATOM     27  C   UNL     1      44.531 131.170  16.759  1.00  0.00     0.040 A 
ATOM     28  C   UNL     1      41.741 132.867  14.059  1.00  0.00     0.001 A 
ATOM     29  C   UNL     1      43.635 131.428  14.472  1.00  0.00     0.009 A 
ATOM     30  C   UNL     1      45.325 131.304  20.415  1.00  0.00     0.001 A 
ATOM     31  C   UNL     1      42.711 131.987  13.591  1.00  0.00     0.001 A 
BRANCH  27  32
ATOM     32  C   UNL     1      45.537 130.192  16.275  1.00  0.00     0.250 C 
ATOM     33  O   UNL     1      45.238 128.969  16.225  1.00  0.00    -0.287 OA
BRANCH  32  34
ATOM     34  N   UNL     1      46.844 130.610  15.870  1.00  0.00    -0.017 NA
BRANCH  34  35
ATOM     35  N   UNL     1      47.062 131.024  14.730  1.00  0.00     0.009 N 
ATOM     36  N   UNL     1      47.279 131.436  13.592  1.00  0.00    -0.003 NA
ENDBRANCH  34  35
ENDBRANCH  32  34
ENDBRANCH  27  32
ENDBRANCH   7  18
TORSDOF 10
ENDMDL
MODEL 3
REMARK VINA RESULT:      -5.8      1.957      4.712
REMARK SMILES C#C/C(O)=N\[C@H](c1c(C)[nH+]nn1-c1c2ccccc2c(C(=O)N=[N+]=[N-])c2ccccc12)C(C)C
REMARK SMILES IDX 7 1 8 2 9 3 10 4 11 6 12 7 6 8 5 9 3 10 2 11 1 12 4 13 32 15
REMARK SMILES IDX 33 16 34 17 13 18 14 19 31 20 15 21 19 22 30 23 26 24 16 25
REMARK SMILES IDX 18 26 20 27 29 28 27 29 17 30 28 31 21 32 22 33 23 34 24 35
REMARK SMILES IDX 25 36
REMARK H PARENT 10 5 4 14
ROOT
ATOM      1  C   UNL     1      42.065 135.136  19.439  1.00  0.00     0.201 A 
ATOM      2  C   UNL     1      42.007 136.488  19.758  1.00  0.00     0.167 A 
ATOM      3  C   UNL     1      40.967 137.218  20.550  1.00  0.00     0.100 C 
ATOM      4  N   UNL     1      43.131 137.060  19.286  1.00  0.00    -0.147 N 
ATOM      5  H   UNL     1      43.413 138.062  19.371  1.00  0.00     0.342 HD
ATOM      6  N   UNL     1      43.851 136.126  18.686  1.00  0.00     0.094 NA
ATOM      7  N   UNL     1      43.225 134.963  18.765  1.00  0.00    -0.095 N 
ENDROOT
BRANCH   1   8
ATOM      8  C   UNL     1      41.057 134.038  19.713  1.00  0.00     0.190 C 
BRANCH   8   9
ATOM      9  N   UNL     1      40.899 133.834  21.159  1.00  0.00    -0.231 NA
BRANCH   9  10
ATOM     10  C   UNL     1      41.776 133.325  21.975  1.00  0.00     0.261 C 
BRANCH  10  11
ATOM     11  C   UNL     1      42.222 131.955  21.866  1.00  0.00    -0.012 C 
ATOM     12  C   UNL     1      42.589 130.810  21.777  1.00  0.00     0.015 C 
ENDBRANCH  10  11
BRANCH  10  13
ATOM     13  O   UNL     1      42.304 134.132  22.978  1.00  0.00    -0.487 OA
ATOM     14  H   UNL     1      41.976 134.064  23.934  1.00  0.00     0.296 HD
ENDBRANCH  10  13
ENDBRANCH   9  10
ENDBRANCH   8   9
BRANCH   8  15
ATOM     15  C   UNL     1      39.695 134.332  19.028  1.00  0.00     0.016 C 
ATOM     16  C   UNL     1      39.376 133.291  17.946  1.00  0.00     0.010 C 
ATOM     17  C   UNL     1      38.533 134.433  20.028  1.00  0.00     0.010 C 
ENDBRANCH   8  15
ENDBRANCH   1   8
BRANCH   7  18
ATOM     18  C   UNL     1      43.732 133.740  18.208  1.00  0.00     0.171 A 
ATOM     19  C   UNL     1      43.411 133.383  16.880  1.00  0.00     0.032 A 
ATOM     20  C   UNL     1      44.585 132.919  18.975  1.00  0.00     0.032 A 
ATOM     21  C   UNL     1      42.531 134.177  16.114  1.00  0.00     0.013 A 
ATOM     22  C   UNL     1      43.975 132.216  16.301  1.00  0.00    -0.002 A 
ATOM     23  C   UNL     1      44.910 133.263  20.305  1.00  0.00     0.013 A 
ATOM     24  C   UNL     1      45.150 131.748  18.404  1.00  0.00    -0.002 A 
ATOM     25  C   UNL     1      42.224 133.836  14.798  1.00  0.00     0.001 A 
ATOM     26  C   UNL     1      43.638 131.887  14.966  1.00  0.00     0.009 A 
ATOM     27  C   UNL     1      44.853 131.403  17.061  1.00  0.00     0.040 A 
ATOM     28  C   UNL     1      45.772 132.469  21.057  1.00  0.00     0.001 A 
ATOM     29  C   UNL     1      46.028 130.963  19.188  1.00  0.00     0.009 A 
ATOM     30  C   UNL     1      42.776 132.694  14.226  1.00  0.00     0.001 A 
ATOM     31  C   UNL     1      46.328 131.322  20.501  1.00  0.00     0.001 A 
BRANCH  27  32
ATOM     32  C   UNL     1      45.482 130.209  16.444  1.00  0.00     0.250 C 
ATOM     33  O   UNL     1      44.860 129.113  16.441  1.00  0.00    -0.287 OA
BRANCH  32  34
ATOM     34  N   UNL     1      46.785 130.275  15.855  1.00  0.00    -0.017 NA
BRANCH  34  35
ATOM     35  N   UNL     1      46.983 130.876  14.798  1.00  0.00     0.009 N 
ATOM     36  N   UNL     1      47.184 131.476  13.743  1.00  0.00    -0.003 NA
ENDBRANCH  34  35
ENDBRANCH  32  34
ENDBRANCH  27  32
ENDBRANCH   7  18
TORSDOF 10
ENDMDL
MODEL 4
REMARK VINA RESULT:      -5.3      2.604      6.092
REMARK SMILES C#C/C(O)=N\[C@H](c1c(C)[nH+]nn1-c1c2ccccc2c(C(=O)N=[N+]=[N-])c2ccccc12)C(C)C
REMARK SMILES IDX 7 1 8 2 9 3 10 4 11 6 12 7 6 8 5 9 3 10 2 11 1 12 4 13 32 15
REMARK SMILES IDX 33 16 34 17 13 18 14 19 31 20 15 21 19 22 30 23 26 24 16 25
REMARK SMILES IDX 18 26 20 27 29 28 27 29 17 30 28 31 21 32 22 33 23 34 24 35
REMARK SMILES IDX 25 36
REMARK H PARENT 10 5 4 14
ROOT
ATOM      1  C   UNL     1      43.983 132.651  17.764  1.00  0.00     0.201 A 
ATOM      2  C   UNL     1      44.666 131.741  18.566  1.00  0.00     0.167 A 
ATOM      3  C   UNL     1      45.553 130.610  18.149  1.00  0.00     0.100 C 
ATOM      4  N   UNL     1      44.458 132.102  19.847  1.00  0.00    -0.147 N 
ATOM      5  H   UNL     1      44.843 131.643  20.702  1.00  0.00     0.342 HD
ATOM      6  N   UNL     1      43.674 133.168  19.856  1.00  0.00     0.094 NA
ATOM      7  N   UNL     1      43.375 133.510  18.613  1.00  0.00    -0.095 N 
ENDROOT
BRANCH   1   8
ATOM      8  C   UNL     1      43.861 132.701  16.254  1.00  0.00     0.190 C 
BRANCH   8   9
ATOM      9  N   UNL     1      44.196 134.042  15.756  1.00  0.00    -0.231 NA
BRANCH   9  10
ATOM     10  C   UNL     1      43.453 134.803  15.006  1.00  0.00     0.261 C 
BRANCH  10  11
ATOM     11  C   UNL     1      42.185 134.355  14.477  1.00  0.00    -0.012 C 
ATOM     12  C   UNL     1      41.129 133.976  14.035  1.00  0.00     0.015 C 
ENDBRANCH  10  11
BRANCH  10  13
ATOM     13  O   UNL     1      43.893 136.090  14.714  1.00  0.00    -0.487 OA
ATOM     14  H   UNL     1      43.714 136.863  15.346  1.00  0.00     0.296 HD
ENDBRANCH  10  13
ENDBRANCH   9  10
ENDBRANCH   8   9
BRANCH   8  15
ATOM     15  C   UNL     1      44.732 131.609  15.577  1.00  0.00     0.016 C 
ATOM     16  C   UNL     1      44.011 130.982  14.376  1.00  0.00     0.010 C 
ATOM     17  C   UNL     1      46.116 132.126  15.154  1.00  0.00     0.010 C 
ENDBRANCH   8  15
ENDBRANCH   1   8
BRANCH   7  18
ATOM     18  C   UNL     1      42.534 134.623  18.268  1.00  0.00     0.171 A 
ATOM     19  C   UNL     1      43.071 135.929  18.237  1.00  0.00     0.032 A 
ATOM     20  C   UNL     1      41.186 134.403  17.919  1.00  0.00     0.032 A 
ATOM     21  C   UNL     1      44.410 136.166  18.616  1.00  0.00     0.013 A 
ATOM     22  C   UNL     1      42.264 137.019  17.818  1.00  0.00    -0.002 A 
ATOM     23  C   UNL     1      40.636 133.103  17.951  1.00  0.00     0.013 A 
ATOM     24  C   UNL     1      40.371 135.490  17.503  1.00  0.00    -0.002 A 
ATOM     25  C   UNL     1      44.947 137.451  18.572  1.00  0.00     0.001 A 
ATOM     26  C   UNL     1      42.831 138.316  17.794  1.00  0.00     0.009 A 
ATOM     27  C   UNL     1      40.916 136.798  17.442  1.00  0.00     0.040 A 
ATOM     28  C   UNL     1      39.312 132.879  17.583  1.00  0.00     0.001 A 
ATOM     29  C   UNL     1      39.031 135.233  17.129  1.00  0.00     0.009 A 
ATOM     30  C   UNL     1      44.160 138.523  18.162  1.00  0.00     0.001 A 
ATOM     31  C   UNL     1      38.512 133.940  17.174  1.00  0.00     0.001 A 
BRANCH  27  32
ATOM     32  C   UNL     1      40.083 137.928  16.960  1.00  0.00     0.250 C 
ATOM     33  O   UNL     1      39.293 138.499  17.757  1.00  0.00    -0.287 OA
BRANCH  32  34
ATOM     34  N   UNL     1      40.156 138.379  15.604  1.00  0.00    -0.017 NA
BRANCH  34  35
ATOM     35  N   UNL     1      39.719 137.698  14.675  1.00  0.00     0.009 N 
ATOM     36  N   UNL     1      39.284 137.019  13.746  1.00  0.00    -0.003 NA
ENDBRANCH  34  35
ENDBRANCH  32  34
ENDBRANCH  27  32
ENDBRANCH   7  18
TORSDOF 10
ENDMDL
MODEL 5
REMARK VINA RESULT:      -5.3      1.820      2.604
REMARK SMILES C#C/C(O)=N\[C@H](c1c(C)[nH+]nn1-c1c2ccccc2c(C(=O)N=[N+]=[N-])c2ccccc12)C(C)C
REMARK SMILES IDX 7 1 8 2 9 3 10 4 11 6 12 7 6 8 5 9 3 10 2 11 1 12 4 13 32 15
REMARK SMILES IDX 33 16 34 17 13 18 14 19 31 20 15 21 19 22 30 23 26 24 16 25
REMARK SMILES IDX 18 26 20 27 29 28 27 29 17 30 28 31 21 32 22 33 23 34 24 35
REMARK SMILES IDX 25 36
REMARK H PARENT 10 5 4 14
ROOT
ATOM      1  C   UNL     1      42.041 135.263  20.442  1.00  0.00     0.201 A 
ATOM      2  C   UNL     1      40.942 135.328  21.291  1.00  0.00     0.167 A 
ATOM      3  C   UNL     1      40.619 136.361  22.325  1.00  0.00     0.100 C 
ATOM      4  N   UNL     1      40.127 134.304  20.970  1.00  0.00    -0.147 N 
ATOM      5  H   UNL     1      39.205 134.072  21.402  1.00  0.00     0.342 HD
ATOM      6  N   UNL     1      40.688 133.620  19.986  1.00  0.00     0.094 NA
ATOM      7  N   UNL     1      41.841 134.179  19.658  1.00  0.00    -0.095 N 
ENDROOT
BRANCH   1   8
ATOM      8  C   UNL     1      43.266 136.154  20.383  1.00  0.00     0.190 C 
BRANCH   8   9
ATOM      9  N   UNL     1      44.485 135.368  20.614  1.00  0.00    -0.231 NA
BRANCH   9  10
ATOM     10  C   UNL     1      45.185 135.319  21.710  1.00  0.00     0.261 C 
BRANCH  10  11
ATOM     11  C   UNL     1      46.519 134.766  21.745  1.00  0.00    -0.012 C 
ATOM     12  C   UNL     1      47.632 134.303  21.780  1.00  0.00     0.015 C 
ENDBRANCH  10  11
BRANCH  10  13
ATOM     13  O   UNL     1      44.630 135.824  22.881  1.00  0.00    -0.487 OA
ATOM     14  H   UNL     1      45.208 136.049  23.683  1.00  0.00     0.296 HD
ENDBRANCH  10  13
ENDBRANCH   9  10
ENDBRANCH   8   9
BRANCH   8  15
ATOM     15  C   UNL     1      43.337 136.934  19.041  1.00  0.00     0.016 C 
ATOM     16  C   UNL     1      42.876 138.387  19.213  1.00  0.00     0.010 C 
ATOM     17  C   UNL     1      44.733 136.891  18.400  1.00  0.00     0.010 C 
ENDBRANCH   8  15
ENDBRANCH   1   8
BRANCH   7  18
ATOM     18  C   UNL     1      42.709 133.681  18.627  1.00  0.00     0.171 A 
ATOM     19  C   UNL     1      43.688 132.711  18.938  1.00  0.00     0.032 A 
ATOM     20  C   UNL     1      42.553 134.129  17.299  1.00  0.00     0.032 A 
ATOM     21  C   UNL     1      43.877 132.279  20.269  1.00  0.00     0.013 A 
ATOM     22  C   UNL     1      44.493 132.158  17.907  1.00  0.00    -0.002 A 
ATOM     23  C   UNL     1      41.582 135.101  16.977  1.00  0.00     0.013 A 
ATOM     24  C   UNL     1      43.358 133.583  16.264  1.00  0.00    -0.002 A 
ATOM     25  C   UNL     1      44.831 131.311  20.576  1.00  0.00     0.001 A 
ATOM     26  C   UNL     1      45.462 131.185  18.249  1.00  0.00     0.009 A 
ATOM     27  C   UNL     1      44.321 132.588  16.568  1.00  0.00     0.040 A 
ATOM     28  C   UNL     1      41.408 135.528  15.663  1.00  0.00     0.001 A 
ATOM     29  C   UNL     1      43.156 134.030  14.937  1.00  0.00     0.009 A 
ATOM     30  C   UNL     1      45.622 130.766  19.569  1.00  0.00     0.001 A 
ATOM     31  C   UNL     1      42.193 134.995  14.646  1.00  0.00     0.001 A 
BRANCH  27  32
ATOM     32  C   UNL     1      45.128 131.978  15.482  1.00  0.00     0.250 C 
ATOM     33  O   UNL     1      46.183 132.550  15.098  1.00  0.00    -0.287 OA
BRANCH  32  34
ATOM     34  N   UNL     1      44.728 130.754  14.857  1.00  0.00    -0.017 NA
BRANCH  34  35
ATOM     35  N   UNL     1      45.555 129.909  14.510  1.00  0.00     0.009 N 
ATOM     36  N   UNL     1      46.379 129.065  14.162  1.00  0.00    -0.003 NA
ENDBRANCH  34  35
ENDBRANCH  32  34
ENDBRANCH  27  32
ENDBRANCH   7  18
TORSDOF 10
ENDMDL
MODEL 6
REMARK VINA RESULT:      -5.3      1.171      1.303
REMARK SMILES C#C/C(O)=N\[C@H](c1c(C)[nH+]nn1-c1c2ccccc2c(C(=O)N=[N+]=[N-])c2ccccc12)C(C)C
REMARK SMILES IDX 7 1 8 2 9 3 10 4 11 6 12 7 6 8 5 9 3 10 2 11 1 12 4 13 32 15
REMARK SMILES IDX 33 16 34 17 13 18 14 19 31 20 15 21 19 22 30 23 26 24 16 25
REMARK SMILES IDX 18 26 20 27 29 28 27 29 17 30 28 31 21 32 22 33 23 34 24 35
REMARK SMILES IDX 25 36
REMARK H PARENT 10 5 4 14
ROOT
ATOM      1  C   UNL     1      42.817 135.392  18.988  1.00  0.00     0.201 A 
ATOM      2  C   UNL     1      41.866 135.913  19.860  1.00  0.00     0.167 A 
ATOM      3  C   UNL     1      41.822 137.268  20.494  1.00  0.00     0.100 C 
ATOM      4  N   UNL     1      40.896 134.988  19.991  1.00  0.00    -0.147 N 
ATOM      5  H   UNL     1      40.023 135.066  20.560  1.00  0.00     0.342 HD
ATOM      6  N   UNL     1      41.223 133.935  19.260  1.00  0.00     0.094 NA
ATOM      7  N   UNL     1      42.377 134.158  18.652  1.00  0.00    -0.095 N 
ENDROOT
BRANCH   1   8
ATOM      8  C   UNL     1      44.120 136.001  18.510  1.00  0.00     0.190 C 
BRANCH   8   9
ATOM      9  N   UNL     1      43.898 136.808  17.303  1.00  0.00    -0.231 NA
BRANCH   9  10
ATOM     10  C   UNL     1      42.966 137.699  17.121  1.00  0.00     0.261 C 
BRANCH  10  11
ATOM     11  C   UNL     1      41.958 137.557  16.096  1.00  0.00    -0.012 C 
ATOM     12  C   UNL     1      41.114 137.442  15.242  1.00  0.00     0.015 C 
ENDBRANCH  10  11
BRANCH  10  13
ATOM     13  O   UNL     1      42.939 138.817  17.948  1.00  0.00    -0.487 OA
ATOM     14  H   UNL     1      43.572 138.904  18.736  1.00  0.00     0.296 HD
ENDBRANCH  10  13
ENDBRANCH   9  10
ENDBRANCH   8   9
BRANCH   8  15
ATOM     15  C   UNL     1      44.806 136.830  19.630  1.00  0.00     0.016 C 
ATOM     16  C   UNL     1      45.348 135.925  20.744  1.00  0.00     0.010 C 
ATOM     17  C   UNL     1      45.920 137.745  19.099  1.00  0.00     0.010 C 
ENDBRANCH   8  15
ENDBRANCH   1   8
BRANCH   7  18
ATOM     18  C   UNL     1      43.022 133.212  17.784  1.00  0.00     0.171 A 
ATOM     19  C   UNL     1      44.035 132.368  18.290  1.00  0.00     0.032 A 
ATOM     20  C   UNL     1      42.612 133.099  16.440  1.00  0.00     0.032 A 
ATOM     21  C   UNL     1      44.478 132.495  19.624  1.00  0.00     0.013 A 
ATOM     22  C   UNL     1      44.618 131.378  17.456  1.00  0.00    -0.002 A 
ATOM     23  C   UNL     1      41.603 133.940  15.921  1.00  0.00     0.013 A 
ATOM     24  C   UNL     1      43.193 132.113  15.598  1.00  0.00    -0.002 A 
ATOM     25  C   UNL     1      45.467 131.653  20.131  1.00  0.00     0.001 A 
ATOM     26  C   UNL     1      45.628 130.545  17.992  1.00  0.00     0.009 A 
ATOM     27  C   UNL     1      44.189 131.245  16.112  1.00  0.00     0.040 A 
ATOM     28  C   UNL     1      41.178 133.814  14.601  1.00  0.00     0.001 A 
ATOM     29  C   UNL     1      42.738 132.003  14.263  1.00  0.00     0.009 A 
ATOM     30  C   UNL     1      46.040 130.682  19.317  1.00  0.00     0.001 A 
ATOM     31  C   UNL     1      41.744 132.850  13.775  1.00  0.00     0.001 A 
BRANCH  27  32
ATOM     32  C   UNL     1      44.763 130.180  15.250  1.00  0.00     0.250 C 
ATOM     33  O   UNL     1      44.725 128.983  15.639  1.00  0.00    -0.287 OA
BRANCH  32  34
ATOM     34  N   UNL     1      45.364 130.489  13.989  1.00  0.00    -0.017 NA
BRANCH  34  35
ATOM     35  N   UNL     1      46.416 131.126  13.916  1.00  0.00     0.009 N 
ATOM     36  N   UNL     1      47.467 131.760  13.843  1.00  0.00    -0.003 NA
ENDBRANCH  34  35
ENDBRANCH  32  34
ENDBRANCH  27  32
ENDBRANCH   7  18
TORSDOF 10
ENDMDL
MODEL 7
REMARK VINA RESULT:      -5.3      2.691      4.376
REMARK SMILES C#C/C(O)=N\[C@H](c1c(C)[nH+]nn1-c1c2ccccc2c(C(=O)N=[N+]=[N-])c2ccccc12)C(C)C
REMARK SMILES IDX 7 1 8 2 9 3 10 4 11 6 12 7 6 8 5 9 3 10 2 11 1 12 4 13 32 15
REMARK SMILES IDX 33 16 34 17 13 18 14 19 31 20 15 21 19 22 30 23 26 24 16 25
REMARK SMILES IDX 18 26 20 27 29 28 27 29 17 30 28 31 21 32 22 33 23 34 24 35
REMARK SMILES IDX 25 36
REMARK H PARENT 10 5 4 14
ROOT
ATOM      1  C   UNL     1      43.774 133.575  21.697  1.00  0.00     0.201 A 
ATOM      2  C   UNL     1      43.433 132.825  22.818  1.00  0.00     0.167 A 
ATOM      3  C   UNL     1      43.917 132.976  24.226  1.00  0.00     0.100 C 
ATOM      4  N   UNL     1      42.489 131.943  22.436  1.00  0.00    -0.147 N 
ATOM      5  H   UNL     1      42.001 131.241  23.038  1.00  0.00     0.342 HD
ATOM      6  N   UNL     1      42.259 132.113  21.145  1.00  0.00     0.094 NA
ATOM      7  N   UNL     1      43.025 133.087  20.682  1.00  0.00    -0.095 N 
ENDROOT
BRANCH   1   8
ATOM      8  C   UNL     1      44.795 134.686  21.557  1.00  0.00     0.190 C 
BRANCH   8   9
ATOM      9  N   UNL     1      44.181 135.988  21.851  1.00  0.00    -0.231 NA
BRANCH   9  10
ATOM     10  C   UNL     1      44.358 137.099  21.195  1.00  0.00     0.261 C 
BRANCH  10  11
ATOM     11  C   UNL     1      44.792 137.116  19.817  1.00  0.00    -0.012 C 
ATOM     12  C   UNL     1      45.158 137.126  18.668  1.00  0.00     0.015 C 
ENDBRANCH  10  11
BRANCH  10  13
ATOM     13  O   UNL     1      44.114 138.305  21.844  1.00  0.00    -0.487 OA
ATOM     14  H   UNL     1      43.243 138.470  22.336  1.00  0.00     0.296 HD
ENDBRANCH  10  13
ENDBRANCH   9  10
ENDBRANCH   8   9
BRANCH   8  15
ATOM     15  C   UNL     1      46.040 134.430  22.448  1.00  0.00     0.016 C 
ATOM     16  C   UNL     1      47.296 134.187  21.599  1.00  0.00     0.010 C 
ATOM     17  C   UNL     1      46.293 135.558  23.459  1.00  0.00     0.010 C 
ENDBRANCH   8  15
ENDBRANCH   1   8
BRANCH   7  18
ATOM     18  C   UNL     1      43.028 133.523  19.313  1.00  0.00     0.171 A 
ATOM     19  C   UNL     1      42.259 134.643  18.928  1.00  0.00     0.032 A 
ATOM     20  C   UNL     1      43.833 132.858  18.365  1.00  0.00     0.032 A 
ATOM     21  C   UNL     1      41.423 135.297  19.858  1.00  0.00     0.013 A 
ATOM     22  C   UNL     1      42.323 135.125  17.594  1.00  0.00    -0.002 A 
ATOM     23  C   UNL     1      44.603 131.734  18.737  1.00  0.00     0.013 A 
ATOM     24  C   UNL     1      43.899 133.331  17.028  1.00  0.00    -0.002 A 
ATOM     25  C   UNL     1      40.674 136.412  19.485  1.00  0.00     0.001 A 
ATOM     26  C   UNL     1      41.543 136.252  17.239  1.00  0.00     0.009 A 
ATOM     27  C   UNL     1      43.151 134.474  16.646  1.00  0.00     0.040 A 
ATOM     28  C   UNL     1      45.419 131.090  17.810  1.00  0.00     0.001 A 
ATOM     29  C   UNL     1      44.740 132.662  16.108  1.00  0.00     0.009 A 
ATOM     30  C   UNL     1      40.734 136.887  18.180  1.00  0.00     0.001 A 
ATOM     31  C   UNL     1      45.487 131.552  16.500  1.00  0.00     0.001 A 
BRANCH  27  32
ATOM     32  C   UNL     1      43.256 135.002  15.263  1.00  0.00     0.250 C 
ATOM     33  O   UNL     1      44.230 135.739  14.954  1.00  0.00    -0.287 OA
BRANCH  32  34
ATOM     34  N   UNL     1      42.268 134.697  14.274  1.00  0.00    -0.017 NA
BRANCH  34  35
ATOM     35  N   UNL     1      41.831 133.553  14.133  1.00  0.00     0.009 N 
ATOM     36  N   UNL     1      41.397 132.411  13.992  1.00  0.00    -0.003 NA
ENDBRANCH  34  35
ENDBRANCH  32  34
ENDBRANCH  27  32
ENDBRANCH   7  18
TORSDOF 10
ENDMDL
MODEL 8
REMARK VINA RESULT:      -5.3      1.372      1.585
REMARK SMILES C#C/C(O)=N\[C@H](c1c(C)[nH+]nn1-c1c2ccccc2c(C(=O)N=[N+]=[N-])c2ccccc12)C(C)C
REMARK SMILES IDX 7 1 8 2 9 3 10 4 11 6 12 7 6 8 5 9 3 10 2 11 1 12 4 13 32 15
REMARK SMILES IDX 33 16 34 17 13 18 14 19 31 20 15 21 19 22 30 23 26 24 16 25
REMARK SMILES IDX 18 26 20 27 29 28 27 29 17 30 28 31 21 32 22 33 23 34 24 35
REMARK SMILES IDX 25 36
REMARK H PARENT 10 5 4 14
ROOT
ATOM      1  C   UNL     1      41.756 135.268  20.050  1.00  0.00     0.201 A 
ATOM      2  C   UNL     1      40.661 135.307  20.906  1.00  0.00     0.167 A 
ATOM      3  C   UNL     1      40.262 136.386  21.864  1.00  0.00     0.100 C 
ATOM      4  N   UNL     1      39.930 134.200  20.672  1.00  0.00    -0.147 N 
ATOM      5  H   UNL     1      39.032 133.928  21.132  1.00  0.00     0.342 HD
ATOM      6  N   UNL     1      40.538 133.492  19.735  1.00  0.00     0.094 NA
ATOM      7  N   UNL     1      41.640 134.116  19.351  1.00  0.00    -0.095 N 
ENDROOT
BRANCH   1   8
ATOM      8  C   UNL     1      42.904 136.248  19.909  1.00  0.00     0.190 C 
BRANCH   8   9
ATOM      9  N   UNL     1      42.394 137.607  19.684  1.00  0.00    -0.231 NA
BRANCH   9  10
ATOM     10  C   UNL     1      41.728 138.028  18.648  1.00  0.00     0.261 C 
BRANCH  10  11
ATOM     11  C   UNL     1      42.362 138.264  17.371  1.00  0.00    -0.012 C 
ATOM     12  C   UNL     1      42.895 138.458  16.307  1.00  0.00     0.015 C 
ENDBRANCH  10  11
BRANCH  10  13
ATOM     13  O   UNL     1      40.360 138.249  18.777  1.00  0.00    -0.487 OA
ATOM     14  H   UNL     1      39.988 138.814  19.532  1.00  0.00     0.296 HD
ENDBRANCH  10  13
ENDBRANCH   9  10
ENDBRANCH   8   9
BRANCH   8  15
ATOM     15  C   UNL     1      43.853 136.192  21.137  1.00  0.00     0.016 C 
ATOM     16  C   UNL     1      43.715 137.448  22.008  1.00  0.00     0.010 C 
ATOM     17  C   UNL     1      43.653 134.930  21.989  1.00  0.00     0.010 C 
ENDBRANCH   8  15
ENDBRANCH   1   8
BRANCH   7  18
ATOM     18  C   UNL     1      42.539 133.613  18.349  1.00  0.00     0.171 A 
ATOM     19  C   UNL     1      43.552 132.696  18.707  1.00  0.00     0.032 A 
ATOM     20  C   UNL     1      42.380 134.003  17.003  1.00  0.00     0.032 A 
ATOM     21  C   UNL     1      43.742 132.324  20.055  1.00  0.00     0.013 A 
ATOM     22  C   UNL     1      44.389 132.136  17.707  1.00  0.00    -0.002 A 
ATOM     23  C   UNL     1      41.375 134.922  16.634  1.00  0.00     0.013 A 
ATOM     24  C   UNL     1      43.217 133.450  15.998  1.00  0.00    -0.002 A 
ATOM     25  C   UNL     1      44.731 131.408  20.410  1.00  0.00     0.001 A 
ATOM     26  C   UNL     1      45.393 131.217  18.096  1.00  0.00     0.009 A 
ATOM     27  C   UNL     1      44.216 132.506  16.350  1.00  0.00     0.040 A 
ATOM     28  C   UNL     1      41.199 135.291  15.302  1.00  0.00     0.001 A 
ATOM     29  C   UNL     1      43.013 133.837  14.652  1.00  0.00     0.009 A 
ATOM     30  C   UNL     1      45.553 130.856  19.433  1.00  0.00     0.001 A 
ATOM     31  C   UNL     1      42.015 134.750  14.315  1.00  0.00     0.001 A 
BRANCH  27  32
ATOM     32  C   UNL     1      45.059 131.888  15.297  1.00  0.00     0.250 C 
ATOM     33  O   UNL     1      46.176 132.399  15.019  1.00  0.00    -0.287 OA
BRANCH  32  34
ATOM     34  N   UNL     1      44.624 130.725  14.586  1.00  0.00    -0.017 NA
BRANCH  34  35
ATOM     35  N   UNL     1      44.860 129.590  15.003  1.00  0.00     0.009 N 
ATOM     36  N   UNL     1      45.095 128.457  15.422  1.00  0.00    -0.003 NA
ENDBRANCH  34  35
ENDBRANCH  32  34
ENDBRANCH  27  32
ENDBRANCH   7  18
TORSDOF 10
ENDMDL
MODEL 9
REMARK VINA RESULT:      -5.1      2.897      4.878
REMARK SMILES C#C/C(O)=N\[C@H](c1c(C)[nH+]nn1-c1c2ccccc2c(C(=O)N=[N+]=[N-])c2ccccc12)C(C)C
REMARK SMILES IDX 7 1 8 2 9 3 10 4 11 6 12 7 6 8 5 9 3 10 2 11 1 12 4 13 32 15
REMARK SMILES IDX 33 16 34 17 13 18 14 19 31 20 15 21 19 22 30 23 26 24 16 25
REMARK SMILES IDX 18 26 20 27 29 28 27 29 17 30 28 31 21 32 22 33 23 34 24 35
REMARK SMILES IDX 25 36
REMARK H PARENT 10 5 4 14
ROOT
ATOM      1  C   UNL     1      43.550 132.894  21.250  1.00  0.00     0.201 A 
ATOM      2  C   UNL     1      43.281 131.959  22.245  1.00  0.00     0.167 A 
ATOM      3  C   UNL     1      43.678 131.989  23.688  1.00  0.00     0.100 C 
ATOM      4  N   UNL     1      42.498 131.009  21.698  1.00  0.00    -0.147 N 
ATOM      5  H   UNL     1      42.099 130.170  22.176  1.00  0.00     0.342 HD
ATOM      6  N   UNL     1      42.299 131.314  20.427  1.00  0.00     0.094 NA
ATOM      7  N   UNL     1      42.927 132.443  20.138  1.00  0.00    -0.095 N 
ENDROOT
BRANCH   1   8
ATOM      8  C   UNL     1      44.396 134.150  21.313  1.00  0.00     0.190 C 
BRANCH   8   9
ATOM      9  N   UNL     1      43.974 134.998  22.437  1.00  0.00    -0.231 NA
BRANCH   9  10
ATOM     10  C   UNL     1      42.889 135.714  22.508  1.00  0.00     0.261 C 
BRANCH  10  11
ATOM     11  C   UNL     1      41.719 135.266  23.227  1.00  0.00    -0.012 C 
ATOM     12  C   UNL     1      40.739 134.895  23.825  1.00  0.00     0.015 C 
ENDBRANCH  10  11
BRANCH  10  13
ATOM     13  O   UNL     1      42.863 136.953  21.875  1.00  0.00    -0.487 OA
ATOM     14  H   UNL     1      42.204 137.671  22.153  1.00  0.00     0.296 HD
ENDBRANCH  10  13
ENDBRANCH   9  10
ENDBRANCH   8   9
BRANCH   8  15
ATOM     15  C   UNL     1      45.909 133.813  21.392  1.00  0.00     0.016 C 
ATOM     16  C   UNL     1      46.509 134.245  22.737  1.00  0.00     0.010 C 
ATOM     17  C   UNL     1      46.205 132.329  21.131  1.00  0.00     0.010 C 
ENDBRANCH   8  15
ENDBRANCH   1   8
BRANCH   7  18
ATOM     18  C   UNL     1      42.921 133.053  18.838  1.00  0.00     0.171 A 
ATOM     19  C   UNL     1      42.062 134.143  18.575  1.00  0.00     0.032 A 
ATOM     20  C   UNL     1      43.803 132.590  17.840  1.00  0.00     0.032 A 
ATOM     21  C   UNL     1      41.151 134.594  19.553  1.00  0.00     0.013 A 
ATOM     22  C   UNL     1      42.112 134.800  17.317  1.00  0.00    -0.002 A 
ATOM     23  C   UNL     1      44.663 131.498  18.089  1.00  0.00     0.013 A 
ATOM     24  C   UNL     1      43.855 133.239  16.577  1.00  0.00    -0.002 A 
ATOM     25  C   UNL     1      40.313 135.680  19.302  1.00  0.00     0.001 A 
ATOM     26  C   UNL     1      41.242 135.892  17.084  1.00  0.00     0.009 A 
ATOM     27  C   UNL     1      43.015 134.353  16.321  1.00  0.00     0.040 A 
ATOM     28  C   UNL     1      45.553 131.054  17.115  1.00  0.00     0.001 A 
ATOM     29  C   UNL     1      44.773 132.771  15.608  1.00  0.00     0.009 A 
ATOM     30  C   UNL     1      40.359 136.326  18.071  1.00  0.00     0.001 A 
ATOM     31  C   UNL     1      45.608 131.688  15.878  1.00  0.00     0.001 A 
BRANCH  27  32
ATOM     32  C   UNL     1      43.103 135.066  15.022  1.00  0.00     0.250 C 
ATOM     33  O   UNL     1      43.999 135.934  14.851  1.00  0.00    -0.287 OA
BRANCH  32  34
ATOM     34  N   UNL     1      42.185 134.789  13.960  1.00  0.00    -0.017 NA
BRANCH  34  35
ATOM     35  N   UNL     1      41.319 133.919  14.067  1.00  0.00     0.009 N 
ATOM     36  N   UNL     1      40.457 133.048  14.175  1.00  0.00    -0.003 NA
ENDBRANCH  34  35
ENDBRANCH  32  34
ENDBRANCH  27  32
ENDBRANCH   7  18
TORSDOF 10
ENDMDL


