REMARK SMILES C#C/C(N=[N+]=[N-])=N\[C@H](c1c(C)n[nH+]n1-c1c2ccccc2c(C=O)c2ccccc12)C(C)C
REMARK SMILES IDX 7 1 3 2 2 3 1 4 4 5 5 6 6 7 8 8 9 9 10 10 14 11 12 12 13 13
REMARK SMILES IDX 11 14 15 16 16 17 30 18 17 19 21 20 29 21 25 22 18 23 20 24
REMARK SMILES IDX 22 25 28 26 26 27 19 28 27 29 23 30 24 31 31 32 32 33 33 34
REMARK H PARENT 13 15
ROOT
ATOM      1  N   UNL     1       2.464   0.464  -0.907  1.00  0.00    -0.264 NA
ENDROOT
BRANCH   1   2
ATOM      2  C   UNL     1       2.575   0.275  -2.190  1.00  0.00     0.172 C 
BRANCH   2   3
ATOM      3  C   UNL     1       1.413   0.180  -3.047  1.00  0.00    -0.049 C 
ATOM      4  C   UNL     1       0.462   0.095  -3.781  1.00  0.00     0.011 C 
ENDBRANCH   2   3
BRANCH   2   5
ATOM      5  N   UNL     1       3.888   0.163  -2.748  1.00  0.00    -0.032 NA
BRANCH   5   6
ATOM      6  N   UNL     1       4.068  -0.007  -3.955  1.00  0.00     0.008 N 
ATOM      7  N   UNL     1       4.250  -0.177  -5.160  1.00  0.00    -0.003 NA
ENDBRANCH   5   6
ENDBRANCH   2   5
ENDBRANCH   1   2
BRANCH   1   8
ATOM      8  C   UNL     1       1.220   0.610  -0.141  1.00  0.00     0.164 C 
BRANCH   8   9
ATOM      9  C   UNL     1       0.614   1.998  -0.303  1.00  0.00     0.137 A 
ATOM     10  C   UNL     1       1.234   3.198  -0.651  1.00  0.00     0.135 A 
ATOM     11  N   UNL     1      -0.671   2.317  -0.029  1.00  0.00    -0.097 N 
ATOM     12  N   UNL     1       0.311   4.181  -0.608  1.00  0.00     0.020 NA
ATOM     13  N   UNL     1      -0.823   3.615  -0.227  1.00  0.00    -0.012 N 
ATOM     14  C   UNL     1       2.661   3.437  -1.030  1.00  0.00     0.076 C 
ATOM     15  H   UNL     1      -1.715   4.138  -0.079  1.00  0.00     0.527 HD
BRANCH  11  16
ATOM     16  C   UNL     1      -1.702   1.460   0.492  1.00  0.00     0.123 A 
ATOM     17  C   UNL     1      -1.972   1.447   1.877  1.00  0.00     0.013 A 
ATOM     18  C   UNL     1      -2.447   0.641  -0.380  1.00  0.00     0.013 A 
ATOM     19  C   UNL     1      -1.254   2.289   2.755  1.00  0.00     0.011 A 
ATOM     20  C   UNL     1      -2.948   0.560   2.407  1.00  0.00    -0.005 A 
ATOM     21  C   UNL     1      -2.239   0.707  -1.773  1.00  0.00     0.011 A 
ATOM     22  C   UNL     1      -3.437  -0.239   0.136  1.00  0.00    -0.005 A 
ATOM     23  C   UNL     1      -1.472   2.241   4.129  1.00  0.00     0.001 A 
ATOM     24  C   UNL     1      -3.127   0.513   3.811  1.00  0.00     0.009 A 
ATOM     25  C   UNL     1      -3.690  -0.279   1.533  1.00  0.00     0.030 A 
ATOM     26  C   UNL     1      -2.979  -0.090  -2.644  1.00  0.00     0.001 A 
ATOM     27  C   UNL     1      -4.175  -1.034  -0.773  1.00  0.00     0.009 A 
ATOM     28  C   UNL     1      -2.399   1.350   4.656  1.00  0.00     0.001 A 
ATOM     29  C   UNL     1      -3.940  -0.961  -2.145  1.00  0.00     0.001 A 
BRANCH  25  30
ATOM     30  C   UNL     1      -4.739  -1.186   2.062  1.00  0.00     0.261 C 
ATOM     31  O   UNL     1      -5.670  -0.742   2.784  1.00  0.00    -0.298 OA
ENDBRANCH  25  30
ENDBRANCH  11  16
ENDBRANCH   8   9
BRANCH   8  32
ATOM     32  C   UNL     1       1.482   0.267   1.349  1.00  0.00     0.014 C 
ATOM     33  C   UNL     1       1.933  -1.192   1.506  1.00  0.00     0.010 C 
ATOM     34  C   UNL     1       2.499   1.211   2.009  1.00  0.00     0.010 C 
ENDBRANCH   8  32
ENDBRANCH   1   8
TORSDOF 9


