REMARK SMILES C[C@@H](C#N)N(C)CCCCc1cn(-c2cc(N=C=O)c3c4c(cccc24)C(=O)[N-]3)nn1
REMARK SMILES IDX 9 1 10 2 11 3 13 4 30 5 12 6 31 7 14 8 24 9 23 10 25 11
REMARK SMILES IDX 22 12 26 13 21 14 27 15 20 16 29 17 15 18 16 19 28 20 17 21
REMARK SMILES IDX 18 22 19 23 8 24 7 25 5 26 6 27 2 28 1 29 3 30 4 31
REMARK H PARENT
ROOT
ATOM      1  C   UNL     1      -1.129  -3.798   2.299  1.00  0.00     0.008 C 
ENDROOT
BRANCH   1   2
ATOM      2  C   UNL     1      -2.418  -3.255   1.668  1.00  0.00     0.060 C 
BRANCH   2   3
ATOM      3  C   UNL     1      -2.180  -2.728   0.286  1.00  0.00     0.083 A 
ATOM      4  N   UNL     1      -1.708  -1.423  -1.388  1.00  0.00    -0.220 N 
ATOM      5  N   UNL     1      -1.724  -2.679  -1.808  1.00  0.00    -0.062 NA
ATOM      6  C   UNL     1      -1.969  -1.415  -0.069  1.00  0.00     0.140 A 
ATOM      7  N   UNL     1      -2.014  -3.498  -0.808  1.00  0.00    -0.135 NA
BRANCH   4   8
ATOM      8  C   UNL     1      -1.312  -0.306  -2.199  1.00  0.00     0.076 A 
ATOM      9  C   UNL     1      -3.804   2.485  -1.537  1.00  0.00     0.001 A 
ATOM     10  C   UNL     1      -3.236   3.499  -2.341  1.00  0.00     0.011 A 
ATOM     11  C   UNL     1      -3.204   1.202  -1.452  1.00  0.00     0.011 A 
ATOM     12  C   UNL     1      -2.073   3.189  -3.043  1.00  0.00     0.006 A 
ATOM     13  C   UNL     1      -2.013   0.928  -2.167  1.00  0.00     0.007 A 
ATOM     14  C   UNL     1      -1.510   1.958  -2.948  1.00  0.00    -0.019 A 
ATOM     15  C   UNL     1      -1.235   3.913  -3.992  1.00  0.00     0.086 C 
ATOM     16  C   UNL     1      -0.414   1.856  -3.754  1.00  0.00    -0.098 A 
ATOM     17  N   UNL     1      -0.164   3.077  -4.462  1.00  0.00    -0.620 NA
ATOM     18  C   UNL     1      -0.177  -0.437  -3.049  1.00  0.00     0.057 A 
ATOM     19  C   UNL     1       0.287   0.653  -3.839  1.00  0.00     0.064 A 
ATOM     20  O   UNL     1      -1.411   5.101  -4.366  1.00  0.00    -0.315 OA
BRANCH  19  21
ATOM     21  N   UNL     1       1.430   0.558  -4.702  1.00  0.00    -0.169 NA
BRANCH  21  22
ATOM     22  C   UNL     1       2.124  -0.500  -4.840  1.00  0.00     0.240 C 
ATOM     23  O   UNL     1       2.799  -1.529  -4.973  1.00  0.00    -0.211 OA
ENDBRANCH  21  22
ENDBRANCH  19  21
ENDBRANCH   4   8
ENDBRANCH   2   3
ENDBRANCH   1   2
BRANCH   1  24
ATOM     24  C   UNL     1      -0.112  -2.685   2.596  1.00  0.00     0.016 C 
BRANCH  24  25
ATOM     25  C   UNL     1       1.143  -3.247   3.274  1.00  0.00     0.085 C 
BRANCH  25  26
ATOM     26  N   UNL     1       2.104  -2.154   3.550  1.00  0.00    -0.291 NA
ATOM     27  C   UNL     1       2.810  -2.382   4.827  1.00  0.00     0.106 C 
BRANCH  26  28
ATOM     28  C   UNL     1       3.014  -1.903   2.398  1.00  0.00     0.157 C 
ATOM     29  C   UNL     1       3.575  -0.479   2.444  1.00  0.00     0.041 C 
BRANCH  28  30
ATOM     30  C   UNL     1       4.113  -2.888   2.304  1.00  0.00     0.081 C 
ATOM     31  N   UNL     1       4.972  -3.659   2.231  1.00  0.00    -0.197 NA
ENDBRANCH  28  30
ENDBRANCH  26  28
ENDBRANCH  25  26
ENDBRANCH  24  25
ENDBRANCH   1  24
TORSDOF 10


