MODEL 1
REMARK VINA RESULT:      -7.3      0.000      0.000
REMARK SMILES [N-]=[N+]=Nc1c(Cl)c(Cl)c(Cl)c2cccc(OC(=O)[C@@H](N=C=O)c3[nH]cc[nH+]3)c12
REMARK SMILES IDX 16 1 15 2 13 3 14 4 12 5 11 6 28 7 9 8 4 9 7 10 5 11 10 12
REMARK SMILES IDX 8 13 6 14 3 15 2 16 1 17 17 18 18 19 19 20 20 21 21 22 22 23
REMARK SMILES IDX 23 24 24 25 27 26 25 27 26 28
REMARK H PARENT 24 29 27 30
ROOT
ATOM      1  O   UNL     1      44.121 131.945  16.600  1.00  0.00    -0.424 OA
ENDROOT
BRANCH   1   2
ATOM      2  C   UNL     1      44.510 132.030  17.947  1.00  0.00     0.139 A 
ATOM      3  C   UNL     1      45.616 131.034  19.866  1.00  0.00     0.005 A 
ATOM      4  C   UNL     1      45.148 130.940  18.562  1.00  0.00     0.048 A 
ATOM      5  C   UNL     1      45.469 132.218  20.579  1.00  0.00     0.010 A 
ATOM      6  C   UNL     1      44.805 133.323  20.012  1.00  0.00     0.006 A 
ATOM      7  C   UNL     1      44.261 133.214  18.697  1.00  0.00     0.037 A 
ATOM      8  C   UNL     1      44.684 134.537  20.729  1.00  0.00     0.069 A 
ATOM      9  C   UNL     1      43.525 134.309  18.167  1.00  0.00     0.069 A 
ATOM     10  C   UNL     1      44.030 135.635  20.148  1.00  0.00     0.079 A 
ATOM     11  C   UNL     1      43.452 135.518  18.877  1.00  0.00     0.071 A 
ATOM     12  Cl  UNL     1      45.366 134.714  22.353  1.00  0.00    -0.082 Cl
ATOM     13  Cl  UNL     1      43.909 137.162  21.029  1.00  0.00    -0.081 Cl
ATOM     14  Cl  UNL     1      42.581 136.884  18.174  1.00  0.00    -0.082 Cl
BRANCH   9  15
ATOM     15  N   UNL     1      42.792 134.213  16.941  1.00  0.00    -0.058 NA
BRANCH  15  16
ATOM     16  N   UNL     1      43.200 134.760  15.916  1.00  0.00     0.005 N 
ATOM     17  N   UNL     1      43.606 135.308  14.893  1.00  0.00    -0.003 NA
ENDBRANCH  15  16
ENDBRANCH   9  15
ENDBRANCH   1   2
BRANCH   1  18
ATOM     18  C   UNL     1      44.985 131.726  15.517  1.00  0.00     0.349 C 
ATOM     19  O   UNL     1      45.924 132.530  15.266  1.00  0.00    -0.248 OA
BRANCH  18  20
ATOM     20  C   UNL     1      44.717 130.593  14.576  1.00  0.00     0.341 C 
BRANCH  20  21
ATOM     21  N   UNL     1      43.763 131.021  13.555  1.00  0.00    -0.177 NA
BRANCH  21  22
ATOM     22  C   UNL     1      42.720 131.691  13.845  1.00  0.00     0.236 C 
ATOM     23  O   UNL     1      41.707 132.341  14.128  1.00  0.00    -0.211 OA
ENDBRANCH  21  22
ENDBRANCH  20  21
BRANCH  20  24
ATOM     24  C   UNL     1      46.011 130.148  13.954  1.00  0.00     0.289 A 
ATOM     25  N   UNL     1      46.426 130.508  12.722  1.00  0.00    -0.245 N 
ATOM     26  N   UNL     1      46.936 129.413  14.604  1.00  0.00    -0.245 N 
ATOM     27  C   UNL     1      47.650 129.966  12.585  1.00  0.00     0.240 A 
ATOM     28  C   UNL     1      47.964 129.291  13.745  1.00  0.00     0.240 A 
ATOM     29  H   UNL     1      45.915 131.087  12.021  1.00  0.00     0.311 HD
ATOM     30  H   UNL     1      46.877 129.030  15.574  1.00  0.00     0.311 HD
ENDBRANCH  20  24
ENDBRANCH  18  20
ENDBRANCH   1  18
TORSDOF 8
ENDMDL
MODEL 2
REMARK VINA RESULT:      -7.1      1.815      1.974
REMARK SMILES [N-]=[N+]=Nc1c(Cl)c(Cl)c(Cl)c2cccc(OC(=O)[C@@H](N=C=O)c3[nH]cc[nH+]3)c12
REMARK SMILES IDX 16 1 15 2 13 3 14 4 12 5 11 6 28 7 9 8 4 9 7 10 5 11 10 12
REMARK SMILES IDX 8 13 6 14 3 15 2 16 1 17 17 18 18 19 19 20 20 21 21 22 22 23
REMARK SMILES IDX 23 24 24 25 27 26 25 27 26 28
REMARK H PARENT 24 29 27 30
ROOT
ATOM      1  O   UNL     1      43.934 132.033  16.661  1.00  0.00    -0.424 OA
ENDROOT
BRANCH   1   2
ATOM      2  C   UNL     1      44.253 131.723  17.993  1.00  0.00     0.139 A 
ATOM      3  C   UNL     1      45.771 130.706  19.593  1.00  0.00     0.005 A 
ATOM      4  C   UNL     1      45.391 130.951  18.280  1.00  0.00     0.048 A 
ATOM      5  C   UNL     1      45.032 131.233  20.645  1.00  0.00     0.010 A 
ATOM      6  C   UNL     1      43.865 131.984  20.403  1.00  0.00     0.006 A 
ATOM      7  C   UNL     1      43.430 132.185  19.059  1.00  0.00     0.037 A 
ATOM      8  C   UNL     1      43.133 132.546  21.475  1.00  0.00     0.069 A 
ATOM      9  C   UNL     1      42.208 132.877  18.831  1.00  0.00     0.069 A 
ATOM     10  C   UNL     1      41.979 133.302  21.218  1.00  0.00     0.079 A 
ATOM     11  C   UNL     1      41.519 133.462  19.905  1.00  0.00     0.071 A 
ATOM     12  Cl  UNL     1      43.658 132.334  23.153  1.00  0.00    -0.082 Cl
ATOM     13  Cl  UNL     1      41.083 134.033  22.555  1.00  0.00    -0.081 Cl
ATOM     14  Cl  UNL     1      40.034 134.366  19.592  1.00  0.00    -0.082 Cl
BRANCH   9  15
ATOM     15  N   UNL     1      41.608 132.957  17.533  1.00  0.00    -0.058 NA
BRANCH  15  16
ATOM     16  N   UNL     1      41.590 134.019  16.910  1.00  0.00     0.005 N 
ATOM     17  N   UNL     1      41.572 135.079  16.286  1.00  0.00    -0.003 NA
ENDBRANCH  15  16
ENDBRANCH   9  15
ENDBRANCH   1   2
BRANCH   1  18
ATOM     18  C   UNL     1      44.780 131.844  15.557  1.00  0.00     0.349 C 
ATOM     19  O   UNL     1      45.621 132.725  15.229  1.00  0.00    -0.248 OA
BRANCH  18  20
ATOM     20  C   UNL     1      44.602 130.638  14.689  1.00  0.00     0.341 C 
BRANCH  20  21
ATOM     21  N   UNL     1      43.656 130.942  13.617  1.00  0.00    -0.177 NA
BRANCH  21  22
ATOM     22  C   UNL     1      42.624 131.661  13.813  1.00  0.00     0.236 C 
ATOM     23  O   UNL     1      41.621 132.359  14.006  1.00  0.00    -0.211 OA
ENDBRANCH  21  22
ENDBRANCH  20  21
BRANCH  20  24
ATOM     24  C   UNL     1      45.937 130.227  14.132  1.00  0.00     0.289 A 
ATOM     25  N   UNL     1      46.692 129.225  14.628  1.00  0.00    -0.245 N 
ATOM     26  N   UNL     1      46.476 130.762  13.018  1.00  0.00    -0.245 N 
ATOM     27  C   UNL     1      47.753 129.136  13.806  1.00  0.00     0.240 A 
ATOM     28  C   UNL     1      47.619 130.084  12.814  1.00  0.00     0.240 A 
ATOM     29  H   UNL     1      46.498 128.635  15.467  1.00  0.00     0.311 HD
ATOM     30  H   UNL     1      46.084 131.530  12.428  1.00  0.00     0.311 HD
ENDBRANCH  20  24
ENDBRANCH  18  20
ENDBRANCH   1  18
TORSDOF 8
ENDMDL
MODEL 3
REMARK VINA RESULT:      -7.0      1.191      1.461
REMARK SMILES [N-]=[N+]=Nc1c(Cl)c(Cl)c(Cl)c2cccc(OC(=O)[C@@H](N=C=O)c3[nH]cc[nH+]3)c12
REMARK SMILES IDX 16 1 15 2 13 3 14 4 12 5 11 6 28 7 9 8 4 9 7 10 5 11 10 12
REMARK SMILES IDX 8 13 6 14 3 15 2 16 1 17 17 18 18 19 19 20 20 21 21 22 22 23
REMARK SMILES IDX 23 24 24 25 27 26 25 27 26 28
REMARK H PARENT 24 29 27 30
ROOT
ATOM      1  O   UNL     1      44.451 131.388  17.657  1.00  0.00    -0.424 OA
ENDROOT
BRANCH   1   2
ATOM      2  C   UNL     1      44.797 131.809  18.952  1.00  0.00     0.139 A 
ATOM      3  C   UNL     1      45.937 131.376  21.052  1.00  0.00     0.005 A 
ATOM      4  C   UNL     1      45.512 130.949  19.801  1.00  0.00     0.048 A 
ATOM      5  C   UNL     1      45.668 132.671  21.477  1.00  0.00     0.010 A 
ATOM      6  C   UNL     1      44.924 133.556  20.671  1.00  0.00     0.006 A 
ATOM      7  C   UNL     1      44.425 133.104  19.413  1.00  0.00     0.037 A 
ATOM      8  C   UNL     1      44.679 134.883  21.094  1.00  0.00     0.069 A 
ATOM      9  C   UNL     1      43.610 133.980  18.644  1.00  0.00     0.069 A 
ATOM     10  C   UNL     1      43.946 135.758  20.276  1.00  0.00     0.079 A 
ATOM     11  C   UNL     1      43.413 135.305  19.062  1.00  0.00     0.071 A 
ATOM     12  Cl  UNL     1      45.301 135.483  22.639  1.00  0.00    -0.082 Cl
ATOM     13  Cl  UNL     1      43.668 137.426  20.787  1.00  0.00    -0.081 Cl
ATOM     14  Cl  UNL     1      42.444 136.393  18.063  1.00  0.00    -0.082 Cl
BRANCH   9  15
ATOM     15  N   UNL     1      42.920 133.543  17.468  1.00  0.00    -0.058 NA
BRANCH  15  16
ATOM     16  N   UNL     1      41.771 133.104  17.537  1.00  0.00     0.005 N 
ATOM     17  N   UNL     1      40.625 132.665  17.607  1.00  0.00    -0.003 NA
ENDBRANCH  15  16
ENDBRANCH   9  15
ENDBRANCH   1   2
BRANCH   1  18
ATOM     18  C   UNL     1      45.327 130.799  16.733  1.00  0.00     0.349 C 
ATOM     19  O   UNL     1      46.487 130.444  17.077  1.00  0.00    -0.248 OA
BRANCH  18  20
ATOM     20  C   UNL     1      44.924 130.700  15.294  1.00  0.00     0.341 C 
BRANCH  20  21
ATOM     21  N   UNL     1      44.300 131.953  14.874  1.00  0.00    -0.177 NA
BRANCH  21  22
ATOM     22  C   UNL     1      43.125 131.988  14.385  1.00  0.00     0.236 C 
ATOM     23  O   UNL     1      41.984 132.023  13.907  1.00  0.00    -0.211 OA
ENDBRANCH  21  22
ENDBRANCH  20  21
BRANCH  20  24
ATOM     24  C   UNL     1      46.138 130.395  14.460  1.00  0.00     0.289 A 
ATOM     25  N   UNL     1      46.892 131.329  13.845  1.00  0.00    -0.245 N 
ATOM     26  N   UNL     1      46.650 129.156  14.316  1.00  0.00    -0.245 N 
ATOM     27  C   UNL     1      47.907 130.652  13.279  1.00  0.00     0.240 A 
ATOM     28  C   UNL     1      47.758 129.313  13.569  1.00  0.00     0.240 A 
ATOM     29  H   UNL     1      46.731 132.359  13.814  1.00  0.00     0.311 HD
ATOM     30  H   UNL     1      46.277 128.264  14.710  1.00  0.00     0.311 HD
ENDBRANCH  20  24
ENDBRANCH  18  20
ENDBRANCH   1  18
TORSDOF 8
ENDMDL
MODEL 4
REMARK VINA RESULT:      -6.7      1.873      2.699
REMARK SMILES [N-]=[N+]=Nc1c(Cl)c(Cl)c(Cl)c2cccc(OC(=O)[C@@H](N=C=O)c3[nH]cc[nH+]3)c12
REMARK SMILES IDX 16 1 15 2 13 3 14 4 12 5 11 6 28 7 9 8 4 9 7 10 5 11 10 12
REMARK SMILES IDX 8 13 6 14 3 15 2 16 1 17 17 18 18 19 19 20 20 21 21 22 22 23
REMARK SMILES IDX 23 24 24 25 27 26 25 27 26 28
REMARK H PARENT 24 29 27 30
ROOT
ATOM      1  O   UNL     1      44.194 132.208  16.170  1.00  0.00    -0.424 OA
ENDROOT
BRANCH   1   2
ATOM      2  C   UNL     1      43.872 132.747  17.426  1.00  0.00     0.139 A 
ATOM      3  C   UNL     1      43.908 132.561  19.847  1.00  0.00     0.005 A 
ATOM      4  C   UNL     1      44.139 132.012  18.593  1.00  0.00     0.048 A 
ATOM      5  C   UNL     1      43.417 133.855  19.965  1.00  0.00     0.010 A 
ATOM      6  C   UNL     1      43.102 134.615  18.821  1.00  0.00     0.006 A 
ATOM      7  C   UNL     1      43.273 134.035  17.528  1.00  0.00     0.037 A 
ATOM      8  C   UNL     1      42.632 135.943  18.943  1.00  0.00     0.069 A 
ATOM      9  C   UNL     1      42.879 134.782  16.384  1.00  0.00     0.069 A 
ATOM     10  C   UNL     1      42.334 136.692  17.795  1.00  0.00     0.079 A 
ATOM     11  C   UNL     1      42.453 136.112  16.525  1.00  0.00     0.071 A 
ATOM     12  Cl  UNL     1      42.428 136.700  20.531  1.00  0.00    -0.082 Cl
ATOM     13  Cl  UNL     1      41.778 138.363  17.946  1.00  0.00    -0.081 Cl
ATOM     14  Cl  UNL     1      42.023 137.041  15.085  1.00  0.00    -0.082 Cl
BRANCH   9  15
ATOM     15  N   UNL     1      42.842 134.207  15.073  1.00  0.00    -0.058 NA
BRANCH  15  16
ATOM     16  N   UNL     1      41.793 133.755  14.612  1.00  0.00     0.005 N 
ATOM     17  N   UNL     1      40.747 133.302  14.151  1.00  0.00    -0.003 NA
ENDBRANCH  15  16
ENDBRANCH   9  15
ENDBRANCH   1   2
BRANCH   1  18
ATOM     18  C   UNL     1      45.486 131.885  15.731  1.00  0.00     0.349 C 
ATOM     19  O   UNL     1      46.240 132.766  15.235  1.00  0.00    -0.248 OA
BRANCH  18  20
ATOM     20  C   UNL     1      45.933 130.456  15.740  1.00  0.00     0.341 C 
BRANCH  20  21
ATOM     21  N   UNL     1      44.764 129.579  15.752  1.00  0.00    -0.177 NA
BRANCH  21  22
ATOM     22  C   UNL     1      44.874 128.311  15.765  1.00  0.00     0.236 C 
ATOM     23  O   UNL     1      44.981 127.078  15.779  1.00  0.00    -0.211 OA
ENDBRANCH  21  22
ENDBRANCH  20  21
BRANCH  20  24
ATOM     24  C   UNL     1      46.790 130.197  14.532  1.00  0.00     0.289 A 
ATOM     25  N   UNL     1      47.821 129.328  14.504  1.00  0.00    -0.245 N 
ATOM     26  N   UNL     1      46.557 130.744  13.322  1.00  0.00    -0.245 N 
ATOM     27  C   UNL     1      48.264 129.340  13.234  1.00  0.00     0.240 A 
ATOM     28  C   UNL     1      47.485 130.213  12.505  1.00  0.00     0.240 A 
ATOM     29  H   UNL     1      48.198 128.759  15.293  1.00  0.00     0.311 HD
ATOM     30  H   UNL     1      45.808 131.425  13.066  1.00  0.00     0.311 HD
ENDBRANCH  20  24
ENDBRANCH  18  20
ENDBRANCH   1  18
TORSDOF 8
ENDMDL
MODEL 5
REMARK VINA RESULT:      -6.6      1.509      2.006
REMARK SMILES [N-]=[N+]=Nc1c(Cl)c(Cl)c(Cl)c2cccc(OC(=O)[C@@H](N=C=O)c3[nH]cc[nH+]3)c12
REMARK SMILES IDX 16 1 15 2 13 3 14 4 12 5 11 6 28 7 9 8 4 9 7 10 5 11 10 12
REMARK SMILES IDX 8 13 6 14 3 15 2 16 1 17 17 18 18 19 19 20 20 21 21 22 22 23
REMARK SMILES IDX 23 24 24 25 27 26 25 27 26 28
REMARK H PARENT 24 29 27 30
ROOT
ATOM      1  O   UNL     1      44.614 131.460  17.011  1.00  0.00    -0.424 OA
ENDROOT
BRANCH   1   2
ATOM      2  C   UNL     1      44.840 131.794  18.357  1.00  0.00     0.139 A 
ATOM      3  C   UNL     1      45.782 131.217  20.519  1.00  0.00     0.005 A 
ATOM      4  C   UNL     1      45.474 130.875  19.209  1.00  0.00     0.048 A 
ATOM      5  C   UNL     1      45.476 132.483  21.003  1.00  0.00     0.010 A 
ATOM      6  C   UNL     1      44.809 133.423  20.192  1.00  0.00     0.006 A 
ATOM      7  C   UNL     1      44.428 133.058  18.866  1.00  0.00     0.037 A 
ATOM      8  C   UNL     1      44.526 134.721  20.677  1.00  0.00     0.069 A 
ATOM      9  C   UNL     1      43.686 133.987  18.086  1.00  0.00     0.069 A 
ATOM     10  C   UNL     1      43.871 135.652  19.855  1.00  0.00     0.079 A 
ATOM     11  C   UNL     1      43.452 135.283  18.570  1.00  0.00     0.071 A 
ATOM     12  Cl  UNL     1      45.004 135.215  22.309  1.00  0.00    -0.082 Cl
ATOM     13  Cl  UNL     1      43.548 137.285  20.447  1.00  0.00    -0.081 Cl
ATOM     14  Cl  UNL     1      42.578 136.440  17.560  1.00  0.00    -0.082 Cl
BRANCH   9  15
ATOM     15  N   UNL     1      43.107 133.632  16.825  1.00  0.00    -0.058 NA
BRANCH  15  16
ATOM     16  N   UNL     1      41.909 133.361  16.735  1.00  0.00     0.005 N 
ATOM     17  N   UNL     1      40.712 133.091  16.647  1.00  0.00    -0.003 NA
ENDBRANCH  15  16
ENDBRANCH   9  15
ENDBRANCH   1   2
BRANCH   1  18
ATOM     18  C   UNL     1      45.612 131.263  16.045  1.00  0.00     0.349 C 
ATOM     19  O   UNL     1      46.128 132.241  15.439  1.00  0.00    -0.248 OA
BRANCH  18  20
ATOM     20  C   UNL     1      45.983 129.870  15.642  1.00  0.00     0.341 C 
BRANCH  20  21
ATOM     21  N   UNL     1      44.780 129.041  15.580  1.00  0.00    -0.177 NA
BRANCH  21  22
ATOM     22  C   UNL     1      44.810 127.791  15.818  1.00  0.00     0.236 C 
ATOM     23  O   UNL     1      44.840 126.576  16.050  1.00  0.00    -0.211 OA
ENDBRANCH  21  22
ENDBRANCH  20  21
BRANCH  20  24
ATOM     24  C   UNL     1      46.680 129.908  14.310  1.00  0.00     0.289 A 
ATOM     25  N   UNL     1      46.211 130.557  13.224  1.00  0.00    -0.245 N 
ATOM     26  N   UNL     1      47.897 129.370  14.091  1.00  0.00    -0.245 N 
ATOM     27  C   UNL     1      47.159 130.408  12.282  1.00  0.00     0.240 A 
ATOM     28  C   UNL     1      48.199 129.677  12.816  1.00  0.00     0.240 A 
ATOM     29  H   UNL     1      45.308 131.071  13.129  1.00  0.00     0.311 HD
ATOM     30  H   UNL     1      48.489 128.841  14.769  1.00  0.00     0.311 HD
ENDBRANCH  20  24
ENDBRANCH  18  20
ENDBRANCH   1  18
TORSDOF 8
ENDMDL
MODEL 6
REMARK VINA RESULT:      -6.5      3.233      5.230
REMARK SMILES [N-]=[N+]=Nc1c(Cl)c(Cl)c(Cl)c2cccc(OC(=O)[C@@H](N=C=O)c3[nH]cc[nH+]3)c12
REMARK SMILES IDX 16 1 15 2 13 3 14 4 12 5 11 6 28 7 9 8 4 9 7 10 5 11 10 12
REMARK SMILES IDX 8 13 6 14 3 15 2 16 1 17 17 18 18 19 19 20 20 21 21 22 22 23
REMARK SMILES IDX 23 24 24 25 27 26 25 27 26 28
REMARK H PARENT 24 29 27 30
ROOT
ATOM      1  O   UNL     1      42.276 132.485  15.294  1.00  0.00    -0.424 OA
ENDROOT
BRANCH   1   2
ATOM      2  C   UNL     1      43.364 131.904  15.966  1.00  0.00     0.139 A 
ATOM      3  C   UNL     1      45.510 130.771  15.873  1.00  0.00     0.005 A 
ATOM      4  C   UNL     1      44.385 131.276  15.234  1.00  0.00     0.048 A 
ATOM      5  C   UNL     1      45.645 130.891  17.251  1.00  0.00     0.010 A 
ATOM      6  C   UNL     1      44.629 131.482  18.027  1.00  0.00     0.006 A 
ATOM      7  C   UNL     1      43.440 131.944  17.387  1.00  0.00     0.037 A 
ATOM      8  C   UNL     1      44.783 131.631  19.425  1.00  0.00     0.069 A 
ATOM      9  C   UNL     1      42.389 132.468  18.190  1.00  0.00     0.069 A 
ATOM     10  C   UNL     1      43.768 132.233  20.184  1.00  0.00     0.079 A 
ATOM     11  C   UNL     1      42.578 132.644  19.569  1.00  0.00     0.071 A 
ATOM     12  Cl  UNL     1      46.254 131.089  20.247  1.00  0.00    -0.082 Cl
ATOM     13  Cl  UNL     1      43.974 132.450  21.926  1.00  0.00    -0.081 Cl
ATOM     14  Cl  UNL     1      41.280 133.349  20.538  1.00  0.00    -0.082 Cl
BRANCH   9  15
ATOM     15  N   UNL     1      41.099 132.776  17.650  1.00  0.00    -0.058 NA
BRANCH  15  16
ATOM     16  N   UNL     1      40.649 133.921  17.705  1.00  0.00     0.005 N 
ATOM     17  N   UNL     1      40.197 135.064  17.760  1.00  0.00    -0.003 NA
ENDBRANCH  15  16
ENDBRANCH   9  15
ENDBRANCH   1   2
BRANCH   1  18
ATOM     18  C   UNL     1      42.307 133.704  14.600  1.00  0.00     0.349 C 
ATOM     19  O   UNL     1      43.316 134.457  14.660  1.00  0.00    -0.248 OA
BRANCH  18  20
ATOM     20  C   UNL     1      41.082 134.172  13.877  1.00  0.00     0.341 C 
BRANCH  20  21
ATOM     21  N   UNL     1      39.950 133.316  14.227  1.00  0.00    -0.177 NA
BRANCH  21  22
ATOM     22  C   UNL     1      38.785 133.788  14.423  1.00  0.00     0.236 C 
ATOM     23  O   UNL     1      37.651 134.246  14.612  1.00  0.00    -0.211 OA
ENDBRANCH  21  22
ENDBRANCH  20  21
BRANCH  20  24
ATOM     24  C   UNL     1      40.809 135.605  14.241  1.00  0.00     0.289 A 
ATOM     25  N   UNL     1      41.384 136.249  15.278  1.00  0.00    -0.245 N 
ATOM     26  N   UNL     1      40.026 136.423  13.511  1.00  0.00    -0.245 N 
ATOM     27  C   UNL     1      40.933 137.514  15.208  1.00  0.00     0.240 A 
ATOM     28  C   UNL     1      40.096 137.622  14.118  1.00  0.00     0.240 A 
ATOM     29  H   UNL     1      42.043 135.857  15.986  1.00  0.00     0.311 HD
ATOM     30  H   UNL     1      39.488 136.185  12.647  1.00  0.00     0.311 HD
ENDBRANCH  20  24
ENDBRANCH  18  20
ENDBRANCH   1  18
TORSDOF 8
ENDMDL
MODEL 7
REMARK VINA RESULT:      -6.5      1.649      2.114
REMARK SMILES [N-]=[N+]=Nc1c(Cl)c(Cl)c(Cl)c2cccc(OC(=O)[C@@H](N=C=O)c3[nH]cc[nH+]3)c12
REMARK SMILES IDX 16 1 15 2 13 3 14 4 12 5 11 6 28 7 9 8 4 9 7 10 5 11 10 12
REMARK SMILES IDX 8 13 6 14 3 15 2 16 1 17 17 18 18 19 19 20 20 21 21 22 22 23
REMARK SMILES IDX 23 24 24 25 27 26 25 27 26 28
REMARK H PARENT 24 29 27 30
ROOT
ATOM      1  O   UNL     1      44.170 131.157  17.622  1.00  0.00    -0.424 OA
ENDROOT
BRANCH   1   2
ATOM      2  C   UNL     1      44.604 131.671  18.854  1.00  0.00     0.139 A 
ATOM      3  C   UNL     1      46.043 131.486  20.802  1.00  0.00     0.005 A 
ATOM      4  C   UNL     1      45.537 130.955  19.622  1.00  0.00     0.048 A 
ATOM      5  C   UNL     1      45.639 132.743  21.233  1.00  0.00     0.010 A 
ATOM      6  C   UNL     1      44.679 133.480  20.512  1.00  0.00     0.006 A 
ATOM      7  C   UNL     1      44.103 132.914  19.335  1.00  0.00     0.037 A 
ATOM      8  C   UNL     1      44.293 134.772  20.937  1.00  0.00     0.069 A 
ATOM      9  C   UNL     1      43.079 133.634  18.659  1.00  0.00     0.069 A 
ATOM     10  C   UNL     1      43.344 135.500  20.202  1.00  0.00     0.079 A 
ATOM     11  C   UNL     1      42.740 134.931  19.074  1.00  0.00     0.071 A 
ATOM     12  Cl  UNL     1      45.002 135.513  22.381  1.00  0.00    -0.082 Cl
ATOM     13  Cl  UNL     1      42.886 137.129  20.713  1.00  0.00    -0.081 Cl
ATOM     14  Cl  UNL     1      41.505 135.828  18.185  1.00  0.00    -0.082 Cl
BRANCH   9  15
ATOM     15  N   UNL     1      42.323 133.058  17.587  1.00  0.00    -0.058 NA
BRANCH  15  16
ATOM     16  N   UNL     1      41.131 132.787  17.731  1.00  0.00     0.005 N 
ATOM     17  N   UNL     1      39.940 132.515  17.874  1.00  0.00    -0.003 NA
ENDBRANCH  15  16
ENDBRANCH   9  15
ENDBRANCH   1   2
BRANCH   1  18
ATOM     18  C   UNL     1      44.988 130.916  16.508  1.00  0.00     0.349 C 
ATOM     19  O   UNL     1      45.820 129.969  16.510  1.00  0.00    -0.248 OA
BRANCH  18  20
ATOM     20  C   UNL     1      44.957 131.865  15.351  1.00  0.00     0.341 C 
BRANCH  20  21
ATOM     21  N   UNL     1      45.330 133.203  15.806  1.00  0.00    -0.177 NA
BRANCH  21  22
ATOM     22  C   UNL     1      44.631 134.229  15.525  1.00  0.00     0.236 C 
ATOM     23  O   UNL     1      43.953 135.227  15.251  1.00  0.00    -0.211 OA
ENDBRANCH  21  22
ENDBRANCH  20  21
BRANCH  20  24
ATOM     24  C   UNL     1      45.896 131.376  14.283  1.00  0.00     0.289 A 
ATOM     25  N   UNL     1      47.217 131.648  14.250  1.00  0.00    -0.245 N 
ATOM     26  N   UNL     1      45.528 130.536  13.295  1.00  0.00    -0.245 N 
ATOM     27  C   UNL     1      47.695 130.968  13.192  1.00  0.00     0.240 A 
ATOM     28  C   UNL     1      46.654 130.283  12.603  1.00  0.00     0.240 A 
ATOM     29  H   UNL     1      47.761 132.252  14.904  1.00  0.00     0.311 HD
ATOM     30  H   UNL     1      44.575 130.151  13.110  1.00  0.00     0.311 HD
ENDBRANCH  20  24
ENDBRANCH  18  20
ENDBRANCH   1  18
TORSDOF 8
ENDMDL
MODEL 8
REMARK VINA RESULT:      -6.5      2.401      4.096
REMARK SMILES [N-]=[N+]=Nc1c(Cl)c(Cl)c(Cl)c2cccc(OC(=O)[C@@H](N=C=O)c3[nH]cc[nH+]3)c12
REMARK SMILES IDX 16 1 15 2 13 3 14 4 12 5 11 6 28 7 9 8 4 9 7 10 5 11 10 12
REMARK SMILES IDX 8 13 6 14 3 15 2 16 1 17 17 18 18 19 19 20 20 21 21 22 22 23
REMARK SMILES IDX 23 24 24 25 27 26 25 27 26 28
REMARK H PARENT 24 29 27 30
ROOT
ATOM      1  O   UNL     1      44.059 131.821  16.250  1.00  0.00    -0.424 OA
ENDROOT
BRANCH   1   2
ATOM      2  C   UNL     1      43.000 132.673  15.894  1.00  0.00     0.139 A 
ATOM      3  C   UNL     1      41.391 133.421  14.237  1.00  0.00     0.005 A 
ATOM      4  C   UNL     1      42.492 132.650  14.585  1.00  0.00     0.048 A 
ATOM      5  C   UNL     1      40.769 134.221  15.187  1.00  0.00     0.010 A 
ATOM      6  C   UNL     1      41.267 134.301  16.502  1.00  0.00     0.006 A 
ATOM      7  C   UNL     1      42.438 133.563  16.852  1.00  0.00     0.037 A 
ATOM      8  C   UNL     1      40.613 135.092  17.475  1.00  0.00     0.069 A 
ATOM      9  C   UNL     1      42.976 133.713  18.160  1.00  0.00     0.069 A 
ATOM     10  C   UNL     1      41.113 135.153  18.785  1.00  0.00     0.079 A 
ATOM     11  C   UNL     1      42.290 134.470  19.121  1.00  0.00     0.071 A 
ATOM     12  Cl  UNL     1      39.146 136.002  17.081  1.00  0.00    -0.082 Cl
ATOM     13  Cl  UNL     1      40.278 136.114  20.010  1.00  0.00    -0.081 Cl
ATOM     14  Cl  UNL     1      42.947 134.595  20.756  1.00  0.00    -0.082 Cl
BRANCH   9  15
ATOM     15  N   UNL     1      44.245 133.160  18.530  1.00  0.00    -0.058 NA
BRANCH  15  16
ATOM     16  N   UNL     1      44.320 132.250  19.356  1.00  0.00     0.005 N 
ATOM     17  N   UNL     1      44.394 131.340  20.180  1.00  0.00    -0.003 NA
ENDBRANCH  15  16
ENDBRANCH   9  15
ENDBRANCH   1   2
BRANCH   1  18
ATOM     18  C   UNL     1      45.405 132.007  15.900  1.00  0.00     0.349 C 
ATOM     19  O   UNL     1      45.789 133.078  15.354  1.00  0.00    -0.248 OA
BRANCH  18  20
ATOM     20  C   UNL     1      46.374 130.878  16.065  1.00  0.00     0.341 C 
BRANCH  20  21
ATOM     21  N   UNL     1      45.699 129.743  16.692  1.00  0.00    -0.177 NA
BRANCH  21  22
ATOM     22  C   UNL     1      45.246 128.769  16.010  1.00  0.00     0.236 C 
ATOM     23  O   UNL     1      44.804 127.822  15.348  1.00  0.00    -0.211 OA
ENDBRANCH  21  22
ENDBRANCH  20  21
BRANCH  20  24
ATOM     24  C   UNL     1      46.930 130.501  14.720  1.00  0.00     0.289 A 
ATOM     25  N   UNL     1      47.872 129.555  14.525  1.00  0.00    -0.245 N 
ATOM     26  N   UNL     1      46.476 131.009  13.557  1.00  0.00    -0.245 N 
ATOM     27  C   UNL     1      48.029 129.477  13.191  1.00  0.00     0.240 A 
ATOM     28  C   UNL     1      47.168 130.373  12.595  1.00  0.00     0.240 A 
ATOM     29  H   UNL     1      48.374 128.995  15.249  1.00  0.00     0.311 HD
ATOM     30  H   UNL     1      45.734 131.733  13.426  1.00  0.00     0.311 HD
ENDBRANCH  20  24
ENDBRANCH  18  20
ENDBRANCH   1  18
TORSDOF 8
ENDMDL
MODEL 9
REMARK VINA RESULT:      -6.4      2.070      2.847
REMARK SMILES [N-]=[N+]=Nc1c(Cl)c(Cl)c(Cl)c2cccc(OC(=O)[C@@H](N=C=O)c3[nH]cc[nH+]3)c12
REMARK SMILES IDX 16 1 15 2 13 3 14 4 12 5 11 6 28 7 9 8 4 9 7 10 5 11 10 12
REMARK SMILES IDX 8 13 6 14 3 15 2 16 1 17 17 18 18 19 19 20 20 21 21 22 22 23
REMARK SMILES IDX 23 24 24 25 27 26 25 27 26 28
REMARK H PARENT 24 29 27 30
ROOT
ATOM      1  O   UNL     1      43.953 132.114  16.457  1.00  0.00    -0.424 OA
ENDROOT
BRANCH   1   2
ATOM      2  C   UNL     1      43.464 132.614  17.675  1.00  0.00     0.139 A 
ATOM      3  C   UNL     1      43.315 132.441  20.093  1.00  0.00     0.005 A 
ATOM      4  C   UNL     1      43.717 131.920  18.870  1.00  0.00     0.048 A 
ATOM      5  C   UNL     1      42.664 133.667  20.152  1.00  0.00     0.010 A 
ATOM      6  C   UNL     1      42.360 134.380  18.975  1.00  0.00     0.006 A 
ATOM      7  C   UNL     1      42.709 133.821  17.709  1.00  0.00     0.037 A 
ATOM      8  C   UNL     1      41.725 135.642  19.040  1.00  0.00     0.069 A 
ATOM      9  C   UNL     1      42.326 134.512  16.526  1.00  0.00     0.069 A 
ATOM     10  C   UNL     1      41.438 136.347  17.860  1.00  0.00     0.079 A 
ATOM     11  C   UNL     1      41.734 135.781  16.613  1.00  0.00     0.071 A 
ATOM     12  Cl  UNL     1      41.298 136.374  20.594  1.00  0.00    -0.082 Cl
ATOM     13  Cl  UNL     1      40.676 137.939  17.942  1.00  0.00    -0.081 Cl
ATOM     14  Cl  UNL     1      41.320 136.647  15.130  1.00  0.00    -0.082 Cl
BRANCH   9  15
ATOM     15  N   UNL     1      42.470 133.932  15.224  1.00  0.00    -0.058 NA
BRANCH  15  16
ATOM     16  N   UNL     1      41.498 133.464  14.631  1.00  0.00     0.005 N 
ATOM     17  N   UNL     1      40.526 132.996  14.040  1.00  0.00    -0.003 NA
ENDBRANCH  15  16
ENDBRANCH   9  15
ENDBRANCH   1   2
BRANCH   1  18
ATOM     18  C   UNL     1      45.286 132.187  16.026  1.00  0.00     0.349 C 
ATOM     19  O   UNL     1      45.744 133.245  15.517  1.00  0.00    -0.248 OA
BRANCH  18  20
ATOM     20  C   UNL     1      46.141 130.958  16.061  1.00  0.00     0.341 C 
BRANCH  20  21
ATOM     21  N   UNL     1      45.390 129.857  16.661  1.00  0.00    -0.177 NA
BRANCH  21  22
ATOM     22  C   UNL     1      45.121 128.794  16.014  1.00  0.00     0.236 C 
ATOM     23  O   UNL     1      44.858 127.762  15.385  1.00  0.00    -0.211 OA
ENDBRANCH  21  22
ENDBRANCH  20  21
BRANCH  20  24
ATOM     24  C   UNL     1      46.575 130.617  14.662  1.00  0.00     0.289 A 
ATOM     25  N   UNL     1      45.840 130.858  13.557  1.00  0.00    -0.245 N 
ATOM     26  N   UNL     1      47.789 130.115  14.361  1.00  0.00    -0.245 N 
ATOM     27  C   UNL     1      46.612 130.479  12.524  1.00  0.00     0.240 A 
ATOM     28  C   UNL     1      47.814 130.020  13.019  1.00  0.00     0.240 A 
ATOM     29  H   UNL     1      44.877 131.259  13.507  1.00  0.00     0.311 HD
ATOM     30  H   UNL     1      48.556 129.864  15.025  1.00  0.00     0.311 HD
ENDBRANCH  20  24
ENDBRANCH  18  20
ENDBRANCH   1  18
TORSDOF 8
ENDMDL


