REMARK SMILES CCN(CC/N=C(/OC(=O)[C@H]1C[C@@H]1CO)C1(C#N)CC1)c1cc(N=[N+]=[N-])c2c3c(cccc13)C(=O)N2
REMARK SMILES IDX 6 1 7 2 8 3 9 4 10 5 11 6 13 7 12 8 14 9 15 10 16 12 19 13
REMARK SMILES IDX 20 14 17 15 18 16 5 17 4 18 3 19 21 20 22 21 33 22 23 23
REMARK SMILES IDX 32 24 28 25 27 26 31 27 29 28 36 29 30 30 34 31 35 33 24 34
REMARK SMILES IDX 25 35 26 36 2 37 1 38
REMARK H PARENT 15 11 36 32
ROOT
ATOM      1  N   UNL     1      -0.455   1.086  -0.938  1.00  0.00    -0.252 NA
ENDROOT
BRANCH   1   2
ATOM      2  C   UNL     1       0.248   0.199  -1.581  1.00  0.00     0.214 C 
BRANCH   2   3
ATOM      3  O   UNL     1       1.597  -0.010  -1.251  1.00  0.00    -0.410 OA
BRANCH   3   4
ATOM      4  C   UNL     1       2.354   0.790  -0.377  1.00  0.00     0.315 C 
ATOM      5  O   UNL     1       1.907   1.893   0.044  1.00  0.00    -0.251 OA
BRANCH   4   6
ATOM      6  C   UNL     1       3.730   0.364   0.049  1.00  0.00     0.105 C 
ATOM      7  C   UNL     1       4.505  -0.461  -0.975  1.00  0.00     0.030 C 
ATOM      8  C   UNL     1       3.909  -1.138   0.257  1.00  0.00     0.022 C 
BRANCH   7   9
ATOM      9  C   UNL     1       6.026  -0.271  -0.937  1.00  0.00     0.160 C 
BRANCH   9  10
ATOM     10  O   UNL     1       6.654  -1.423  -1.424  1.00  0.00    -0.396 OA
ATOM     11  H   UNL     1       6.734  -2.048  -0.656  1.00  0.00     0.210 HD
ENDBRANCH   9  10
ENDBRANCH   7   9
ENDBRANCH   4   6
ENDBRANCH   3   4
ENDBRANCH   2   3
BRANCH   2  12
ATOM     12  C   UNL     1      -0.361  -0.675  -2.642  1.00  0.00     0.133 C 
ATOM     13  C   UNL     1       0.493  -0.879  -3.886  1.00  0.00     0.034 C 
ATOM     14  C   UNL     1      -0.761  -0.020  -3.955  1.00  0.00     0.034 C 
BRANCH  12  15
ATOM     15  C   UNL     1      -1.133  -1.856  -2.229  1.00  0.00     0.079 C 
ATOM     16  N   UNL     1      -1.740  -2.787  -1.905  1.00  0.00    -0.197 NA
ENDBRANCH  12  15
ENDBRANCH   2  12
ENDBRANCH   1   2
BRANCH   1  17
ATOM     17  C   UNL     1      -1.876   1.373  -1.132  1.00  0.00     0.167 C 
BRANCH  17  18
ATOM     18  C   UNL     1      -2.374   2.280   0.000  1.00  0.00     0.140 C 
BRANCH  18  19
ATOM     19  N   UNL     1      -2.550   1.544   1.266  1.00  0.00    -0.369 N 
BRANCH  19  20
ATOM     20  C   UNL     1      -1.523   0.659   1.750  1.00  0.00     0.045 A 
ATOM     21  C   UNL     1      -1.650  -0.745   1.537  1.00  0.00     0.039 A 
ATOM     22  C   UNL     1      -0.353   1.164   2.368  1.00  0.00     0.008 A 
ATOM     23  C   UNL     1      -0.619  -1.646   1.928  1.00  0.00     0.064 A 
ATOM     24  C   UNL     1      -0.088   2.521   2.665  1.00  0.00     0.011 A 
ATOM     25  C   UNL     1       0.628   0.245   2.709  1.00  0.00     0.021 A 
ATOM     26  C   UNL     1       0.528  -1.102   2.509  1.00  0.00     0.059 A 
ATOM     27  C   UNL     1       1.144   2.884   3.275  1.00  0.00     0.002 A 
ATOM     28  C   UNL     1       1.812   0.574   3.299  1.00  0.00     0.050 A 
ATOM     29  N   UNL     1       1.700  -1.770   2.983  1.00  0.00    -0.321 N 
ATOM     30  C   UNL     1       2.112   1.902   3.597  1.00  0.00     0.014 A 
ATOM     31  C   UNL     1       2.510  -0.697   3.484  1.00  0.00     0.256 C 
ATOM     32  H   UNL     1       1.916  -2.791   2.969  1.00  0.00     0.170 HD
ATOM     33  O   UNL     1       3.644  -0.851   4.008  1.00  0.00    -0.269 OA
BRANCH  23  34
ATOM     34  N   UNL     1      -0.724  -3.064   1.746  1.00  0.00    -0.058 NA
BRANCH  34  35
ATOM     35  N   UNL     1      -1.752  -3.597   1.325  1.00  0.00     0.005 N 
ATOM     36  N   UNL     1      -2.779  -4.131   0.907  1.00  0.00    -0.003 NA
ENDBRANCH  34  35
ENDBRANCH  23  34
ENDBRANCH  19  20
BRANCH  19  37
ATOM     37  C   UNL     1      -3.690   1.857   2.142  1.00  0.00     0.113 C 
ATOM     38  C   UNL     1      -4.767   0.783   2.034  1.00  0.00     0.027 C 
ENDBRANCH  19  37
ENDBRANCH  18  19
ENDBRANCH  17  18
ENDBRANCH   1  17
TORSDOF 15


