MODEL 1
REMARK VINA RESULT:      -7.4      0.000      0.000
REMARK SMILES C=C(C)C(OC(=O)[C@H]1C[C@@H]2C[C@@H]2C1)=[N+]1C[C@@H]2CC[C@H](Oc3ccc4c5c(ccc(N=[N+]=[N-])c35)CC4)[C@@H]2C1
REMARK SMILES IDX 14 1 37 2 36 3 19 4 18 5 17 6 16 7 15 8 4 9 2 10 1 11 3 12
REMARK SMILES IDX 5 13 6 14 7 15 8 16 9 17 13 18 10 19 12 20 11 21 20 22 21 23
REMARK SMILES IDX 22 24 33 25 23 26 29 27 25 28 24 29 28 30 26 31 35 32 27 33
REMARK SMILES IDX 34 34 30 35 31 36 32 37
REMARK H PARENT
ROOT
ATOM      1  N   UNL     1      43.454 132.900  17.943  1.00  0.00    -0.197 N 
ATOM      2  C   UNL     1      44.295 133.565  18.931  1.00  0.00     0.362 C 
ATOM      3  C   UNL     1      43.940 132.935  20.288  1.00  0.00     0.105 C 
ATOM      4  C   UNL     1      43.784 133.916  21.469  1.00  0.00     0.183 C 
ATOM      5  C   UNL     1      42.280 134.147  21.642  1.00  0.00     0.046 C 
ATOM      6  C   UNL     1      41.574 133.346  20.553  1.00  0.00     0.014 C 
ATOM      7  C   UNL     1      42.581 132.298  20.075  1.00  0.00     0.068 C 
ATOM      8  C   UNL     1      42.484 132.014  18.575  1.00  0.00     0.358 C 
ENDROOT
BRANCH   1   9
ATOM      9  C   UNL     1      43.429 133.204  16.665  1.00  0.00     0.372 C 
BRANCH   9  10
ATOM     10  C   UNL     1      42.832 134.466  16.166  1.00  0.00     0.054 C 
ATOM     11  C   UNL     1      41.788 134.993  16.811  1.00  0.00     0.023 C 
ATOM     12  C   UNL     1      43.364 135.141  14.934  1.00  0.00     0.055 C 
ENDBRANCH   9  10
BRANCH   9  13
ATOM     13  O   UNL     1      43.892 132.297  15.706  1.00  0.00    -0.371 OA
BRANCH  13  14
ATOM     14  C   UNL     1      44.724 131.212  16.010  1.00  0.00     0.318 C 
ATOM     15  O   UNL     1      44.246 130.159  16.518  1.00  0.00    -0.251 OA
BRANCH  14  16
ATOM     16  C   UNL     1      46.202 131.305  15.737  1.00  0.00     0.100 C 
ATOM     17  C   UNL     1      46.842 129.917  15.749  1.00  0.00     0.019 C 
ATOM     18  C   UNL     1      46.467 131.862  14.337  1.00  0.00     0.019 C 
ATOM     19  C   UNL     1      46.867 129.440  14.301  1.00  0.00    -0.007 C 
ATOM     20  C   UNL     1      46.637 130.657  13.418  1.00  0.00    -0.007 C 
ATOM     21  C   UNL     1      47.993 129.968  13.426  1.00  0.00     0.007 C 
ENDBRANCH  14  16
ENDBRANCH  13  14
ENDBRANCH   9  13
ENDBRANCH   1   9
BRANCH   4  22
ATOM     22  O   UNL     1      44.457 135.160  21.251  1.00  0.00    -0.489 OA
BRANCH  22  23
ATOM     23  C   UNL     1      45.806 135.402  21.552  1.00  0.00     0.128 A 
ATOM     24  C   UNL     1      46.494 134.623  22.526  1.00  0.00     0.047 A 
ATOM     25  C   UNL     1      46.513 136.409  20.844  1.00  0.00     0.034 A 
ATOM     26  C   UNL     1      47.866 134.822  22.774  1.00  0.00     0.008 A 
ATOM     27  C   UNL     1      45.971 137.242  19.829  1.00  0.00     0.049 A 
ATOM     28  C   UNL     1      47.872 136.551  21.128  1.00  0.00    -0.008 A 
ATOM     29  C   UNL     1      48.539 135.802  22.046  1.00  0.00    -0.039 A 
ATOM     30  C   UNL     1      46.829 138.158  19.154  1.00  0.00     0.011 A 
ATOM     31  C   UNL     1      48.696 137.418  20.484  1.00  0.00    -0.039 A 
ATOM     32  C   UNL     1      49.989 136.169  22.067  1.00  0.00     0.041 C 
ATOM     33  C   UNL     1      48.197 138.241  19.477  1.00  0.00     0.005 A 
ATOM     34  C   UNL     1      50.098 137.283  20.988  1.00  0.00     0.041 C 
BRANCH  27  35
ATOM     35  N   UNL     1      44.578 137.160  19.491  1.00  0.00    -0.060 NA
BRANCH  35  36
ATOM     36  N   UNL     1      43.826 138.133  19.546  1.00  0.00     0.005 N 
ATOM     37  N   UNL     1      43.074 139.104  19.603  1.00  0.00    -0.003 NA
ENDBRANCH  35  36
ENDBRANCH  27  35
ENDBRANCH  22  23
ENDBRANCH   4  22
TORSDOF 9
ENDMDL
MODEL 2
REMARK VINA RESULT:      -7.2      1.349      3.370
REMARK SMILES C=C(C)C(OC(=O)[C@H]1C[C@@H]2C[C@@H]2C1)=[N+]1C[C@@H]2CC[C@H](Oc3ccc4c5c(ccc(N=[N+]=[N-])c35)CC4)[C@@H]2C1
REMARK SMILES IDX 14 1 37 2 36 3 19 4 18 5 17 6 16 7 15 8 4 9 2 10 1 11 3 12
REMARK SMILES IDX 5 13 6 14 7 15 8 16 9 17 13 18 10 19 12 20 11 21 20 22 21 23
REMARK SMILES IDX 22 24 33 25 23 26 29 27 25 28 24 29 28 30 26 31 35 32 27 33
REMARK SMILES IDX 34 34 30 35 31 36 32 37
REMARK H PARENT
ROOT
ATOM      1  N   UNL     1      43.554 132.164  18.364  1.00  0.00    -0.197 N 
ATOM      2  C   UNL     1      44.382 133.097  19.117  1.00  0.00     0.362 C 
ATOM      3  C   UNL     1      43.699 133.269  20.484  1.00  0.00     0.105 C 
ATOM      4  C   UNL     1      43.620 134.713  21.023  1.00  0.00     0.183 C 
ATOM      5  C   UNL     1      42.208 135.214  20.708  1.00  0.00     0.046 C 
ATOM      6  C   UNL     1      41.490 134.095  19.962  1.00  0.00     0.014 C 
ATOM      7  C   UNL     1      42.270 132.814  20.260  1.00  0.00     0.068 C 
ATOM      8  C   UNL     1      42.319 131.851  19.073  1.00  0.00     0.358 C 
ENDROOT
BRANCH   1   9
ATOM      9  C   UNL     1      43.783 131.804  17.121  1.00  0.00     0.372 C 
BRANCH   9  10
ATOM     10  C   UNL     1      45.136 131.425  16.647  1.00  0.00     0.054 C 
ATOM     11  C   UNL     1      45.761 130.392  17.217  1.00  0.00     0.023 C 
ATOM     12  C   UNL     1      45.823 132.202  15.560  1.00  0.00     0.055 C 
ENDBRANCH   9  10
BRANCH   9  13
ATOM     13  O   UNL     1      42.765 131.852  16.163  1.00  0.00    -0.371 OA
BRANCH  13  14
ATOM     14  C   UNL     1      42.231 133.048  15.666  1.00  0.00     0.318 C 
ATOM     15  O   UNL     1      41.562 133.056  14.595  1.00  0.00    -0.251 OA
BRANCH  14  16
ATOM     16  C   UNL     1      42.465 134.336  16.409  1.00  0.00     0.100 C 
ATOM     17  C   UNL     1      43.710 135.047  15.878  1.00  0.00     0.019 C 
ATOM     18  C   UNL     1      41.312 135.316  16.186  1.00  0.00     0.019 C 
ATOM     19  C   UNL     1      43.225 136.042  14.830  1.00  0.00    -0.007 C 
ATOM     20  C   UNL     1      41.726 136.213  15.025  1.00  0.00    -0.007 C 
ATOM     21  C   UNL     1      42.671 137.362  15.344  1.00  0.00     0.007 C 
ENDBRANCH  14  16
ENDBRANCH  13  14
ENDBRANCH   9  13
ENDBRANCH   1   9
BRANCH   4  22
ATOM     22  O   UNL     1      44.597 135.578  20.438  1.00  0.00    -0.489 OA
BRANCH  22  23
ATOM     23  C   UNL     1      45.878 135.808  20.964  1.00  0.00     0.128 A 
ATOM     24  C   UNL     1      46.397 135.004  22.018  1.00  0.00     0.047 A 
ATOM     25  C   UNL     1      46.691 136.831  20.409  1.00  0.00     0.034 A 
ATOM     26  C   UNL     1      47.709 135.191  22.494  1.00  0.00     0.008 A 
ATOM     27  C   UNL     1      46.324 137.691  19.339  1.00  0.00     0.049 A 
ATOM     28  C   UNL     1      47.984 136.961  20.916  1.00  0.00    -0.008 A 
ATOM     29  C   UNL     1      48.491 136.187  21.912  1.00  0.00    -0.039 A 
ATOM     30  C   UNL     1      47.281 138.621  18.839  1.00  0.00     0.011 A 
ATOM     31  C   UNL     1      48.903 137.841  20.440  1.00  0.00    -0.039 A 
ATOM     32  C   UNL     1      49.918 136.549  22.183  1.00  0.00     0.041 C 
ATOM     33  C   UNL     1      48.577 138.692  19.386  1.00  0.00     0.005 A 
ATOM     34  C   UNL     1      50.202 137.689  21.165  1.00  0.00     0.041 C 
BRANCH  27  35
ATOM     35  N   UNL     1      45.006 137.623  18.774  1.00  0.00    -0.060 NA
BRANCH  35  36
ATOM     36  N   UNL     1      44.422 138.613  18.336  1.00  0.00     0.005 N 
ATOM     37  N   UNL     1      43.837 139.602  17.897  1.00  0.00    -0.003 NA
ENDBRANCH  35  36
ENDBRANCH  27  35
ENDBRANCH  22  23
ENDBRANCH   4  22
TORSDOF 9
ENDMDL
MODEL 3
REMARK VINA RESULT:      -7.1      1.689      3.854
REMARK SMILES C=C(C)C(OC(=O)[C@H]1C[C@@H]2C[C@@H]2C1)=[N+]1C[C@@H]2CC[C@H](Oc3ccc4c5c(ccc(N=[N+]=[N-])c35)CC4)[C@@H]2C1
REMARK SMILES IDX 14 1 37 2 36 3 19 4 18 5 17 6 16 7 15 8 4 9 2 10 1 11 3 12
REMARK SMILES IDX 5 13 6 14 7 15 8 16 9 17 13 18 10 19 12 20 11 21 20 22 21 23
REMARK SMILES IDX 22 24 33 25 23 26 29 27 25 28 24 29 28 30 26 31 35 32 27 33
REMARK SMILES IDX 34 34 30 35 31 36 32 37
REMARK H PARENT
ROOT
ATOM      1  N   UNL     1      43.592 132.332  17.330  1.00  0.00    -0.197 N 
ATOM      2  C   UNL     1      44.224 133.155  18.354  1.00  0.00     0.362 C 
ATOM      3  C   UNL     1      43.377 132.982  19.625  1.00  0.00     0.105 C 
ATOM      4  C   UNL     1      43.081 134.271  20.420  1.00  0.00     0.183 C 
ATOM      5  C   UNL     1      41.667 134.706  20.026  1.00  0.00     0.046 C 
ATOM      6  C   UNL     1      41.163 133.709  18.988  1.00  0.00     0.014 C 
ATOM      7  C   UNL     1      42.041 132.465  19.131  1.00  0.00     0.068 C 
ATOM      8  C   UNL     1      42.328 131.776  17.796  1.00  0.00     0.358 C 
ENDROOT
BRANCH   1   9
ATOM      9  C   UNL     1      43.998 132.258  16.082  1.00  0.00     0.372 C 
BRANCH   9  10
ATOM     10  C   UNL     1      45.068 131.326  15.655  1.00  0.00     0.054 C 
ATOM     11  C   UNL     1      44.968 130.031  15.963  1.00  0.00     0.023 C 
ATOM     12  C   UNL     1      46.275 131.821  14.909  1.00  0.00     0.055 C 
ENDBRANCH   9  10
BRANCH   9  13
ATOM     13  O   UNL     1      43.490 133.131  15.114  1.00  0.00    -0.371 OA
BRANCH  13  14
ATOM     14  C   UNL     1      42.141 133.164  14.738  1.00  0.00     0.318 C 
ATOM     15  O   UNL     1      41.667 132.283  13.968  1.00  0.00    -0.251 OA
BRANCH  14  16
ATOM     16  C   UNL     1      41.251 134.265  15.251  1.00  0.00     0.100 C 
ATOM     17  C   UNL     1      41.094 135.365  14.200  1.00  0.00     0.019 C 
ATOM     18  C   UNL     1      39.835 133.749  15.512  1.00  0.00     0.019 C 
ATOM     19  C   UNL     1      39.819 135.046  13.428  1.00  0.00    -0.007 C 
ATOM     20  C   UNL     1      39.030 134.038  14.250  1.00  0.00    -0.007 C 
ATOM     21  C   UNL     1      38.505 135.456  14.076  1.00  0.00     0.007 C 
ENDBRANCH  14  16
ENDBRANCH  13  14
ENDBRANCH   9  13
ENDBRANCH   1   9
BRANCH   4  22
ATOM     22  O   UNL     1      44.017 135.319  20.150  1.00  0.00    -0.489 OA
BRANCH  22  23
ATOM     23  C   UNL     1      45.278 135.439  20.754  1.00  0.00     0.128 A 
ATOM     24  C   UNL     1      45.720 134.501  21.729  1.00  0.00     0.047 A 
ATOM     25  C   UNL     1      46.149 136.487  20.356  1.00  0.00     0.034 A 
ATOM     26  C   UNL     1      47.014 134.584  22.280  1.00  0.00     0.008 A 
ATOM     27  C   UNL     1      45.860 137.477  19.378  1.00  0.00     0.049 A 
ATOM     28  C   UNL     1      47.420 136.510  20.931  1.00  0.00    -0.008 A 
ATOM     29  C   UNL     1      47.854 135.610  21.852  1.00  0.00    -0.039 A 
ATOM     30  C   UNL     1      46.870 138.421  19.031  1.00  0.00     0.011 A 
ATOM     31  C   UNL     1      48.388 137.405  20.600  1.00  0.00    -0.039 A 
ATOM     32  C   UNL     1      49.278 135.885  22.224  1.00  0.00     0.041 C 
ATOM     33  C   UNL     1      48.140 138.381  19.638  1.00  0.00     0.005 A 
ATOM     34  C   UNL     1      49.647 137.122  21.358  1.00  0.00     0.041 C 
BRANCH  27  35
ATOM     35  N   UNL     1      44.570 137.523  18.753  1.00  0.00    -0.060 NA
BRANCH  35  36
ATOM     36  N   UNL     1      44.171 138.506  18.129  1.00  0.00     0.005 N 
ATOM     37  N   UNL     1      43.771 139.487  17.506  1.00  0.00    -0.003 NA
ENDBRANCH  35  36
ENDBRANCH  27  35
ENDBRANCH  22  23
ENDBRANCH   4  22
TORSDOF 9
ENDMDL
MODEL 4
REMARK VINA RESULT:      -6.9      1.425      3.533
REMARK SMILES C=C(C)C(OC(=O)[C@H]1C[C@@H]2C[C@@H]2C1)=[N+]1C[C@@H]2CC[C@H](Oc3ccc4c5c(ccc(N=[N+]=[N-])c35)CC4)[C@@H]2C1
REMARK SMILES IDX 14 1 37 2 36 3 19 4 18 5 17 6 16 7 15 8 4 9 2 10 1 11 3 12
REMARK SMILES IDX 5 13 6 14 7 15 8 16 9 17 13 18 10 19 12 20 11 21 20 22 21 23
REMARK SMILES IDX 22 24 33 25 23 26 29 27 25 28 24 29 28 30 26 31 35 32 27 33
REMARK SMILES IDX 34 34 30 35 31 36 32 37
REMARK H PARENT
ROOT
ATOM      1  N   UNL     1      44.008 132.651  17.682  1.00  0.00    -0.197 N 
ATOM      2  C   UNL     1      44.359 133.400  18.882  1.00  0.00     0.362 C 
ATOM      3  C   UNL     1      43.293 133.047  19.933  1.00  0.00     0.105 C 
ATOM      4  C   UNL     1      42.744 134.228  20.762  1.00  0.00     0.183 C 
ATOM      5  C   UNL     1      41.407 134.617  20.127  1.00  0.00     0.046 C 
ATOM      6  C   UNL     1      41.199 133.704  18.923  1.00  0.00     0.014 C 
ATOM      7  C   UNL     1      42.125 132.506  19.131  1.00  0.00     0.068 C 
ATOM      8  C   UNL     1      42.724 131.976  17.827  1.00  0.00     0.358 C 
ENDROOT
BRANCH   1   9
ATOM      9  C   UNL     1      44.657 132.730  16.542  1.00  0.00     0.372 C 
BRANCH   9  10
ATOM     10  C   UNL     1      45.489 131.615  16.029  1.00  0.00     0.054 C 
ATOM     11  C   UNL     1      45.918 130.678  16.877  1.00  0.00     0.023 C 
ATOM     12  C   UNL     1      45.878 131.542  14.579  1.00  0.00     0.055 C 
ENDBRANCH   9  10
BRANCH   9  13
ATOM     13  O   UNL     1      44.661 133.918  15.803  1.00  0.00    -0.371 OA
BRANCH  13  14
ATOM     14  C   UNL     1      43.551 134.768  15.707  1.00  0.00     0.318 C 
ATOM     15  O   UNL     1      43.315 135.618  16.610  1.00  0.00    -0.251 OA
BRANCH  14  16
ATOM     16  C   UNL     1      42.629 134.662  14.521  1.00  0.00     0.100 C 
ATOM     17  C   UNL     1      41.906 133.315  14.520  1.00  0.00     0.019 C 
ATOM     18  C   UNL     1      41.524 135.716  14.590  1.00  0.00     0.019 C 
ATOM     19  C   UNL     1      40.568 133.543  15.213  1.00  0.00    -0.007 C 
ATOM     20  C   UNL     1      40.326 135.044  15.253  1.00  0.00    -0.007 C 
ATOM     21  C   UNL     1      39.458 134.157  14.374  1.00  0.00     0.007 C 
ENDBRANCH  14  16
ENDBRANCH  13  14
ENDBRANCH   9  13
ENDBRANCH   1   9
BRANCH   4  22
ATOM     22  O   UNL     1      43.630 135.351  20.783  1.00  0.00    -0.489 OA
BRANCH  22  23
ATOM     23  C   UNL     1      44.944 135.323  21.276  1.00  0.00     0.128 A 
ATOM     24  C   UNL     1      45.354 134.343  22.225  1.00  0.00     0.047 A 
ATOM     25  C   UNL     1      45.896 136.257  20.789  1.00  0.00     0.034 A 
ATOM     26  C   UNL     1      46.691 134.274  22.663  1.00  0.00     0.008 A 
ATOM     27  C   UNL     1      45.643 137.269  19.824  1.00  0.00     0.049 A 
ATOM     28  C   UNL     1      47.206 136.131  21.254  1.00  0.00    -0.008 A 
ATOM     29  C   UNL     1      47.608 135.190  22.148  1.00  0.00    -0.039 A 
ATOM     30  C   UNL     1      46.724 138.084  19.377  1.00  0.00     0.011 A 
ATOM     31  C   UNL     1      48.241 136.901  20.827  1.00  0.00    -0.039 A 
ATOM     32  C   UNL     1      49.080 135.295  22.393  1.00  0.00     0.041 C 
ATOM     33  C   UNL     1      48.028 137.895  19.875  1.00  0.00     0.005 A 
ATOM     34  C   UNL     1      49.517 136.474  21.480  1.00  0.00     0.041 C 
BRANCH  27  35
ATOM     35  N   UNL     1      44.318 137.465  19.310  1.00  0.00    -0.060 NA
BRANCH  35  36
ATOM     36  N   UNL     1      44.069 138.271  18.413  1.00  0.00     0.005 N 
ATOM     37  N   UNL     1      43.821 139.077  17.519  1.00  0.00    -0.003 NA
ENDBRANCH  35  36
ENDBRANCH  27  35
ENDBRANCH  22  23
ENDBRANCH   4  22
TORSDOF 9
ENDMDL
MODEL 5
REMARK VINA RESULT:      -6.8      3.630      6.122
REMARK SMILES C=C(C)C(OC(=O)[C@H]1C[C@@H]2C[C@@H]2C1)=[N+]1C[C@@H]2CC[C@H](Oc3ccc4c5c(ccc(N=[N+]=[N-])c35)CC4)[C@@H]2C1
REMARK SMILES IDX 14 1 37 2 36 3 19 4 18 5 17 6 16 7 15 8 4 9 2 10 1 11 3 12
REMARK SMILES IDX 5 13 6 14 7 15 8 16 9 17 13 18 10 19 12 20 11 21 20 22 21 23
REMARK SMILES IDX 22 24 33 25 23 26 29 27 25 28 24 29 28 30 26 31 35 32 27 33
REMARK SMILES IDX 34 34 30 35 31 36 32 37
REMARK H PARENT
ROOT
ATOM      1  N   UNL     1      39.552 134.607  20.111  1.00  0.00    -0.197 N 
ATOM      2  C   UNL     1      40.872 134.047  19.853  1.00  0.00     0.362 C 
ATOM      3  C   UNL     1      41.456 133.675  21.226  1.00  0.00     0.105 C 
ATOM      4  C   UNL     1      42.936 134.047  21.455  1.00  0.00     0.183 C 
ATOM      5  C   UNL     1      42.935 135.349  22.260  1.00  0.00     0.046 C 
ATOM      6  C   UNL     1      41.477 135.751  22.462  1.00  0.00     0.014 C 
ATOM      7  C   UNL     1      40.649 134.488  22.221  1.00  0.00     0.068 C 
ATOM      8  C   UNL     1      39.310 134.771  21.539  1.00  0.00     0.358 C 
ENDROOT
BRANCH   1   9
ATOM      9  C   UNL     1      38.758 135.093  19.183  1.00  0.00     0.372 C 
BRANCH   9  10
ATOM     10  C   UNL     1      38.592 136.551  18.972  1.00  0.00     0.054 C 
ATOM     11  C   UNL     1      37.548 137.176  19.520  1.00  0.00     0.023 C 
ATOM     12  C   UNL     1      39.564 137.327  18.128  1.00  0.00     0.055 C 
ENDBRANCH   9  10
BRANCH   9  13
ATOM     13  O   UNL     1      37.960 134.244  18.409  1.00  0.00    -0.371 OA
BRANCH  13  14
ATOM     14  C   UNL     1      37.772 134.408  17.031  1.00  0.00     0.318 C 
ATOM     15  O   UNL     1      36.837 135.135  16.592  1.00  0.00    -0.251 OA
BRANCH  14  16
ATOM     16  C   UNL     1      38.687 133.704  16.064  1.00  0.00     0.100 C 
ATOM     17  C   UNL     1      38.343 134.081  14.623  1.00  0.00     0.019 C 
ATOM     18  C   UNL     1      40.139 134.144  16.264  1.00  0.00     0.019 C 
ATOM     19  C   UNL     1      39.262 135.239  14.249  1.00  0.00    -0.007 C 
ATOM     20  C   UNL     1      40.387 135.275  15.272  1.00  0.00    -0.007 C 
ATOM     21  C   UNL     1      40.681 134.880  13.832  1.00  0.00     0.007 C 
ENDBRANCH  14  16
ENDBRANCH  13  14
ENDBRANCH   9  13
ENDBRANCH   1   9
BRANCH   4  22
ATOM     22  O   UNL     1      43.661 134.217  20.234  1.00  0.00    -0.489 OA
BRANCH  22  23
ATOM     23  C   UNL     1      44.271 133.178  19.515  1.00  0.00     0.128 A 
ATOM     24  C   UNL     1      44.799 132.034  20.179  1.00  0.00     0.047 A 
ATOM     25  C   UNL     1      44.325 133.242  18.098  1.00  0.00     0.034 A 
ATOM     26  C   UNL     1      45.346 130.961  19.449  1.00  0.00     0.008 A 
ATOM     27  C   UNL     1      43.815 134.300  17.298  1.00  0.00     0.049 A 
ATOM     28  C   UNL     1      44.870 132.144  17.432  1.00  0.00    -0.008 A 
ATOM     29  C   UNL     1      45.363 131.043  18.058  1.00  0.00    -0.039 A 
ATOM     30  C   UNL     1      43.875 134.185  15.879  1.00  0.00     0.011 A 
ATOM     31  C   UNL     1      44.925 132.026  16.079  1.00  0.00    -0.039 A 
ATOM     32  C   UNL     1      45.822 130.032  17.055  1.00  0.00     0.041 C 
ATOM     33  C   UNL     1      44.425 133.041  15.267  1.00  0.00     0.005 A 
ATOM     34  C   UNL     1      45.517 130.709  15.690  1.00  0.00     0.041 C 
BRANCH  27  35
ATOM     35  N   UNL     1      43.251 135.467  17.913  1.00  0.00    -0.060 NA
BRANCH  35  36
ATOM     36  N   UNL     1      43.105 136.529  17.309  1.00  0.00     0.005 N 
ATOM     37  N   UNL     1      42.960 137.590  16.704  1.00  0.00    -0.003 NA
ENDBRANCH  35  36
ENDBRANCH  27  35
ENDBRANCH  22  23
ENDBRANCH   4  22
TORSDOF 9
ENDMDL
MODEL 6
REMARK VINA RESULT:      -6.7      3.208      5.511
REMARK SMILES C=C(C)C(OC(=O)[C@H]1C[C@@H]2C[C@@H]2C1)=[N+]1C[C@@H]2CC[C@H](Oc3ccc4c5c(ccc(N=[N+]=[N-])c35)CC4)[C@@H]2C1
REMARK SMILES IDX 14 1 37 2 36 3 19 4 18 5 17 6 16 7 15 8 4 9 2 10 1 11 3 12
REMARK SMILES IDX 5 13 6 14 7 15 8 16 9 17 13 18 10 19 12 20 11 21 20 22 21 23
REMARK SMILES IDX 22 24 33 25 23 26 29 27 25 28 24 29 28 30 26 31 35 32 27 33
REMARK SMILES IDX 34 34 30 35 31 36 32 37
REMARK H PARENT
ROOT
ATOM      1  N   UNL     1      44.334 132.466  18.273  1.00  0.00    -0.197 N 
ATOM      2  C   UNL     1      44.210 133.656  19.106  1.00  0.00     0.362 C 
ATOM      3  C   UNL     1      44.696 133.249  20.508  1.00  0.00     0.105 C 
ATOM      4  C   UNL     1      43.841 133.750  21.691  1.00  0.00     0.183 C 
ATOM      5  C   UNL     1      42.947 132.578  22.104  1.00  0.00     0.046 C 
ATOM      6  C   UNL     1      43.246 131.427  21.151  1.00  0.00     0.014 C 
ATOM      7  C   UNL     1      44.606 131.735  20.523  1.00  0.00     0.068 C 
ATOM      8  C   UNL     1      44.705 131.297  19.061  1.00  0.00     0.358 C 
ENDROOT
BRANCH   1   9
ATOM      9  C   UNL     1      43.964 132.401  17.014  1.00  0.00     0.372 C 
BRANCH   9  10
ATOM     10  C   UNL     1      43.263 133.520  16.339  1.00  0.00     0.054 C 
ATOM     11  C   UNL     1      41.941 133.453  16.166  1.00  0.00     0.023 C 
ATOM     12  C   UNL     1      44.021 134.710  15.822  1.00  0.00     0.055 C 
ENDBRANCH   9  10
BRANCH   9  13
ATOM     13  O   UNL     1      44.140 131.224  16.277  1.00  0.00    -0.371 OA
BRANCH  13  14
ATOM     14  C   UNL     1      44.819 131.177  15.053  1.00  0.00     0.318 C 
ATOM     15  O   UNL     1      44.180 131.063  13.969  1.00  0.00    -0.251 OA
BRANCH  14  16
ATOM     16  C   UNL     1      46.322 131.252  15.029  1.00  0.00     0.100 C 
ATOM     17  C   UNL     1      46.936 129.936  15.508  1.00  0.00     0.019 C 
ATOM     18  C   UNL     1      46.839 131.446  13.603  1.00  0.00     0.019 C 
ATOM     19  C   UNL     1      47.215 129.110  14.257  1.00  0.00    -0.007 C 
ATOM     20  C   UNL     1      47.159 130.054  13.067  1.00  0.00    -0.007 C 
ATOM     21  C   UNL     1      48.486 129.440  13.488  1.00  0.00     0.007 C 
ENDBRANCH  14  16
ENDBRANCH  13  14
ENDBRANCH   9  13
ENDBRANCH   1   9
BRANCH   4  22
ATOM     22  O   UNL     1      43.045 134.891  21.357  1.00  0.00    -0.489 OA
BRANCH  22  23
ATOM     23  C   UNL     1      41.650 134.874  21.202  1.00  0.00     0.128 A 
ATOM     24  C   UNL     1      41.047 134.388  20.008  1.00  0.00     0.047 A 
ATOM     25  C   UNL     1      40.820 135.306  22.271  1.00  0.00     0.034 A 
ATOM     26  C   UNL     1      39.647 134.306  19.884  1.00  0.00     0.008 A 
ATOM     27  C   UNL     1      41.274 135.786  23.528  1.00  0.00     0.049 A 
ATOM     28  C   UNL     1      39.441 135.191  22.091  1.00  0.00    -0.008 A 
ATOM     29  C   UNL     1      38.859 134.715  20.959  1.00  0.00    -0.039 A 
ATOM     30  C   UNL     1      40.315 136.111  24.532  1.00  0.00     0.011 A 
ATOM     31  C   UNL     1      38.523 135.494  23.046  1.00  0.00    -0.039 A 
ATOM     32  C   UNL     1      37.371 134.674  21.112  1.00  0.00     0.041 C 
ATOM     33  C   UNL     1      38.936 135.958  24.292  1.00  0.00     0.005 A 
ATOM     34  C   UNL     1      37.140 135.209  22.553  1.00  0.00     0.041 C 
BRANCH  27  35
ATOM     35  N   UNL     1      42.678 135.942  23.781  1.00  0.00    -0.060 NA
BRANCH  35  36
ATOM     36  N   UNL     1      43.200 137.042  23.961  1.00  0.00     0.005 N 
ATOM     37  N   UNL     1      43.723 138.140  24.140  1.00  0.00    -0.003 NA
ENDBRANCH  35  36
ENDBRANCH  27  35
ENDBRANCH  22  23
ENDBRANCH   4  22
TORSDOF 9
ENDMDL
MODEL 7
REMARK VINA RESULT:      -6.7      2.035      3.297
REMARK SMILES C=C(C)C(OC(=O)[C@H]1C[C@@H]2C[C@@H]2C1)=[N+]1C[C@@H]2CC[C@H](Oc3ccc4c5c(ccc(N=[N+]=[N-])c35)CC4)[C@@H]2C1
REMARK SMILES IDX 14 1 37 2 36 3 19 4 18 5 17 6 16 7 15 8 4 9 2 10 1 11 3 12
REMARK SMILES IDX 5 13 6 14 7 15 8 16 9 17 13 18 10 19 12 20 11 21 20 22 21 23
REMARK SMILES IDX 22 24 33 25 23 26 29 27 25 28 24 29 28 30 26 31 35 32 27 33
REMARK SMILES IDX 34 34 30 35 31 36 32 37
REMARK H PARENT
ROOT
ATOM      1  N   UNL     1      44.199 133.169  18.838  1.00  0.00    -0.197 N 
ATOM      2  C   UNL     1      44.808 133.971  19.892  1.00  0.00     0.362 C 
ATOM      3  C   UNL     1      44.443 133.285  21.218  1.00  0.00     0.105 C 
ATOM      4  C   UNL     1      44.001 134.220  22.364  1.00  0.00     0.183 C 
ATOM      5  C   UNL     1      42.470 134.179  22.389  1.00  0.00     0.046 C 
ATOM      6  C   UNL     1      42.027 133.266  21.250  1.00  0.00     0.014 C 
ATOM      7  C   UNL     1      43.245 132.416  20.885  1.00  0.00     0.068 C 
ATOM      8  C   UNL     1      43.345 132.123  19.388  1.00  0.00     0.358 C 
ENDROOT
BRANCH   1   9
ATOM      9  C   UNL     1      44.244 133.467  17.559  1.00  0.00     0.372 C 
BRANCH   9  10
ATOM     10  C   UNL     1      43.409 134.542  16.970  1.00  0.00     0.054 C 
ATOM     11  C   UNL     1      42.084 134.497  17.124  1.00  0.00     0.023 C 
ATOM     12  C   UNL     1      44.030 135.660  16.181  1.00  0.00     0.055 C 
ENDBRANCH   9  10
BRANCH   9  13
ATOM     13  O   UNL     1      45.025 132.713  16.677  1.00  0.00    -0.371 OA
BRANCH  13  14
ATOM     14  C   UNL     1      44.488 131.788  15.772  1.00  0.00     0.318 C 
ATOM     15  O   UNL     1      43.406 131.191  16.030  1.00  0.00    -0.251 OA
BRANCH  14  16
ATOM     16  C   UNL     1      45.213 131.496  14.484  1.00  0.00     0.100 C 
ATOM     17  C   UNL     1      46.725 131.613  14.678  1.00  0.00     0.019 C 
ATOM     18  C   UNL     1      44.972 130.055  14.034  1.00  0.00     0.019 C 
ATOM     19  C   UNL     1      47.231 130.208  14.980  1.00  0.00    -0.007 C 
ATOM     20  C   UNL     1      46.137 129.233  14.574  1.00  0.00    -0.007 C 
ATOM     21  C   UNL     1      47.440 129.284  13.790  1.00  0.00     0.007 C 
ENDBRANCH  14  16
ENDBRANCH  13  14
ENDBRANCH   9  13
ENDBRANCH   1   9
BRANCH   4  22
ATOM     22  O   UNL     1      44.460 135.564  22.192  1.00  0.00    -0.489 OA
BRANCH  22  23
ATOM     23  C   UNL     1      44.089 136.406  21.133  1.00  0.00     0.128 A 
ATOM     24  C   UNL     1      42.719 136.629  20.814  1.00  0.00     0.047 A 
ATOM     25  C   UNL     1      45.092 137.085  20.392  1.00  0.00     0.034 A 
ATOM     26  C   UNL     1      42.350 137.531  19.797  1.00  0.00     0.008 A 
ATOM     27  C   UNL     1      46.492 136.986  20.612  1.00  0.00     0.049 A 
ATOM     28  C   UNL     1      44.662 137.972  19.404  1.00  0.00    -0.008 A 
ATOM     29  C   UNL     1      43.357 138.200  19.104  1.00  0.00    -0.039 A 
ATOM     30  C   UNL     1      47.373 137.792  19.834  1.00  0.00     0.011 A 
ATOM     31  C   UNL     1      45.497 138.746  18.663  1.00  0.00    -0.039 A 
ATOM     32  C   UNL     1      43.239 139.242  18.037  1.00  0.00     0.041 C 
ATOM     33  C   UNL     1      46.874 138.680  18.861  1.00  0.00     0.005 A 
ATOM     34  C   UNL     1      44.716 139.621  17.734  1.00  0.00     0.041 C 
BRANCH  27  35
ATOM     35  N   UNL     1      47.009 136.087  21.604  1.00  0.00    -0.060 NA
BRANCH  35  36
ATOM     36  N   UNL     1      48.212 135.982  21.841  1.00  0.00     0.005 N 
ATOM     37  N   UNL     1      49.414 135.880  22.077  1.00  0.00    -0.003 NA
ENDBRANCH  35  36
ENDBRANCH  27  35
ENDBRANCH  22  23
ENDBRANCH   4  22
TORSDOF 9
ENDMDL
MODEL 8
REMARK VINA RESULT:      -6.5      3.080      5.018
REMARK SMILES C=C(C)C(OC(=O)[C@H]1C[C@@H]2C[C@@H]2C1)=[N+]1C[C@@H]2CC[C@H](Oc3ccc4c5c(ccc(N=[N+]=[N-])c35)CC4)[C@@H]2C1
REMARK SMILES IDX 14 1 37 2 36 3 19 4 18 5 17 6 16 7 15 8 4 9 2 10 1 11 3 12
REMARK SMILES IDX 5 13 6 14 7 15 8 16 9 17 13 18 10 19 12 20 11 21 20 22 21 23
REMARK SMILES IDX 22 24 33 25 23 26 29 27 25 28 24 29 28 30 26 31 35 32 27 33
REMARK SMILES IDX 34 34 30 35 31 36 32 37
REMARK H PARENT
ROOT
ATOM      1  N   UNL     1      43.154 134.561  15.981  1.00  0.00    -0.197 N 
ATOM      2  C   UNL     1      42.134 134.565  17.023  1.00  0.00     0.362 C 
ATOM      3  C   UNL     1      42.358 135.852  17.834  1.00  0.00     0.105 C 
ATOM      4  C   UNL     1      42.270 135.708  19.368  1.00  0.00     0.183 C 
ATOM      5  C   UNL     1      43.711 135.620  19.877  1.00  0.00     0.046 C 
ATOM      6  C   UNL     1      44.622 135.671  18.656  1.00  0.00     0.014 C 
ATOM      7  C   UNL     1      43.784 136.263  17.522  1.00  0.00     0.068 C 
ATOM      8  C   UNL     1      44.104 135.652  16.157  1.00  0.00     0.358 C 
ENDROOT
BRANCH   1   9
ATOM      9  C   UNL     1      43.322 133.589  15.112  1.00  0.00     0.372 C 
BRANCH   9  10
ATOM     10  C   UNL     1      42.206 133.067  14.287  1.00  0.00     0.054 C 
ATOM     11  C   UNL     1      41.119 133.821  14.108  1.00  0.00     0.023 C 
ATOM     12  C   UNL     1      42.269 131.696  13.676  1.00  0.00     0.055 C 
ENDBRANCH   9  10
BRANCH   9  13
ATOM     13  O   UNL     1      44.556 132.940  14.996  1.00  0.00    -0.371 OA
BRANCH  13  14
ATOM     14  C   UNL     1      44.964 131.901  15.842  1.00  0.00     0.318 C 
ATOM     15  O   UNL     1      45.110 132.103  17.080  1.00  0.00    -0.251 OA
BRANCH  14  16
ATOM     16  C   UNL     1      45.238 130.536  15.270  1.00  0.00     0.100 C 
ATOM     17  C   UNL     1      45.276 130.589  13.743  1.00  0.00     0.019 C 
ATOM     18  C   UNL     1      46.618 130.031  15.694  1.00  0.00     0.019 C 
ATOM     19  C   UNL     1      46.740 130.762  13.354  1.00  0.00    -0.007 C 
ATOM     20  C   UNL     1      47.579 130.410  14.572  1.00  0.00    -0.007 C 
ATOM     21  C   UNL     1      47.600 129.507  13.347  1.00  0.00     0.007 C 
ENDBRANCH  14  16
ENDBRANCH  13  14
ENDBRANCH   9  13
ENDBRANCH   1   9
BRANCH   4  22
ATOM     22  O   UNL     1      41.526 134.556  19.776  1.00  0.00    -0.489 OA
BRANCH  22  23
ATOM     23  C   UNL     1      42.077 133.435  20.416  1.00  0.00     0.128 A 
ATOM     24  C   UNL     1      42.886 132.504  19.704  1.00  0.00     0.047 A 
ATOM     25  C   UNL     1      41.864 133.246  21.807  1.00  0.00     0.034 A 
ATOM     26  C   UNL     1      43.495 131.420  20.365  1.00  0.00     0.008 A 
ATOM     27  C   UNL     1      41.108 134.102  22.652  1.00  0.00     0.049 A 
ATOM     28  C   UNL     1      42.502 132.159  22.405  1.00  0.00    -0.008 A 
ATOM     29  C   UNL     1      43.287 131.275  21.735  1.00  0.00    -0.039 A 
ATOM     30  C   UNL     1      41.049 133.820  24.048  1.00  0.00     0.011 A 
ATOM     31  C   UNL     1      42.453 131.889  23.736  1.00  0.00    -0.039 A 
ATOM     32  C   UNL     1      43.859 130.263  22.678  1.00  0.00     0.041 C 
ATOM     33  C   UNL     1      41.729 132.714  24.593  1.00  0.00     0.005 A 
ATOM     34  C   UNL     1      43.286 130.688  24.059  1.00  0.00     0.041 C 
BRANCH  27  35
ATOM     35  N   UNL     1      40.415 135.233  22.104  1.00  0.00    -0.060 NA
BRANCH  35  36
ATOM     36  N   UNL     1      40.613 136.384  22.495  1.00  0.00     0.005 N 
ATOM     37  N   UNL     1      40.810 137.534  22.883  1.00  0.00    -0.003 NA
ENDBRANCH  35  36
ENDBRANCH  27  35
ENDBRANCH  22  23
ENDBRANCH   4  22
TORSDOF 9
ENDMDL
MODEL 9
REMARK VINA RESULT:      -6.5      3.753      6.509
REMARK SMILES C=C(C)C(OC(=O)[C@H]1C[C@@H]2C[C@@H]2C1)=[N+]1C[C@@H]2CC[C@H](Oc3ccc4c5c(ccc(N=[N+]=[N-])c35)CC4)[C@@H]2C1
REMARK SMILES IDX 14 1 37 2 36 3 19 4 18 5 17 6 16 7 15 8 4 9 2 10 1 11 3 12
REMARK SMILES IDX 5 13 6 14 7 15 8 16 9 17 13 18 10 19 12 20 11 21 20 22 21 23
REMARK SMILES IDX 22 24 33 25 23 26 29 27 25 28 24 29 28 30 26 31 35 32 27 33
REMARK SMILES IDX 34 34 30 35 31 36 32 37
REMARK H PARENT
ROOT
ATOM      1  N   UNL     1      43.600 132.123  16.486  1.00  0.00    -0.197 N 
ATOM      2  C   UNL     1      42.404 132.634  17.144  1.00  0.00     0.362 C 
ATOM      3  C   UNL     1      41.547 133.273  16.038  1.00  0.00     0.105 C 
ATOM      4  C   UNL     1      40.906 134.635  16.381  1.00  0.00     0.183 C 
ATOM      5  C   UNL     1      41.799 135.704  15.744  1.00  0.00     0.046 C 
ATOM      6  C   UNL     1      42.962 134.979  15.077  1.00  0.00     0.014 C 
ATOM      7  C   UNL     1      42.514 133.527  14.898  1.00  0.00     0.068 C 
ATOM      8  C   UNL     1      43.651 132.522  15.084  1.00  0.00     0.358 C 
ENDROOT
BRANCH   1   9
ATOM      9  C   UNL     1      44.604 131.551  17.112  1.00  0.00     0.372 C 
BRANCH   9  10
ATOM     10  C   UNL     1      44.795 131.680  18.577  1.00  0.00     0.054 C 
ATOM     11  C   UNL     1      45.644 130.858  19.198  1.00  0.00     0.023 C 
ATOM     12  C   UNL     1      44.027 132.697  19.372  1.00  0.00     0.055 C 
ENDBRANCH   9  10
BRANCH   9  13
ATOM     13  O   UNL     1      45.593 130.866  16.399  1.00  0.00    -0.371 OA
BRANCH  13  14
ATOM     14  C   UNL     1      45.401 129.594  15.845  1.00  0.00     0.318 C 
ATOM     15  O   UNL     1      44.639 128.758  16.406  1.00  0.00    -0.251 OA
BRANCH  14  16
ATOM     16  C   UNL     1      46.116 129.217  14.574  1.00  0.00     0.100 C 
ATOM     17  C   UNL     1      45.561 130.008  13.389  1.00  0.00     0.019 C 
ATOM     18  C   UNL     1      47.598 129.585  14.650  1.00  0.00     0.019 C 
ATOM     19  C   UNL     1      46.459 131.229  13.227  1.00  0.00    -0.007 C 
ATOM     20  C   UNL     1      47.735 130.963  14.012  1.00  0.00    -0.007 C 
ATOM     21  C   UNL     1      47.775 131.019  12.492  1.00  0.00     0.007 C 
ENDBRANCH  14  16
ENDBRANCH  13  14
ENDBRANCH   9  13
ENDBRANCH   1   9
BRANCH   4  22
ATOM     22  O   UNL     1      40.791 134.856  17.789  1.00  0.00    -0.489 OA
BRANCH  22  23
ATOM     23  C   UNL     1      39.640 134.592  18.548  1.00  0.00     0.128 A 
ATOM     24  C   UNL     1      38.472 134.042  17.948  1.00  0.00     0.047 A 
ATOM     25  C   UNL     1      39.652 134.835  19.947  1.00  0.00     0.034 A 
ATOM     26  C   UNL     1      37.345 133.713  18.726  1.00  0.00     0.008 A 
ATOM     27  C   UNL     1      40.749 135.351  20.688  1.00  0.00     0.049 A 
ATOM     28  C   UNL     1      38.509 134.479  20.663  1.00  0.00    -0.008 A 
ATOM     29  C   UNL     1      37.395 133.940  20.100  1.00  0.00    -0.039 A 
ATOM     30  C   UNL     1      40.633 135.467  22.104  1.00  0.00     0.011 A 
ATOM     31  C   UNL     1      38.395 134.583  22.013  1.00  0.00    -0.039 A 
ATOM     32  C   UNL     1      36.376 133.627  21.149  1.00  0.00     0.041 C 
ATOM     33  C   UNL     1      39.456 135.076  22.769  1.00  0.00     0.005 A 
ATOM     34  C   UNL     1      37.066 134.068  22.470  1.00  0.00     0.041 C 
BRANCH  27  35
ATOM     35  N   UNL     1      41.953 135.750  20.017  1.00  0.00    -0.060 NA
BRANCH  35  36
ATOM     36  N   UNL     1      42.939 136.171  20.622  1.00  0.00     0.005 N 
ATOM     37  N   UNL     1      43.923 136.594  21.226  1.00  0.00    -0.003 NA
ENDBRANCH  35  36
ENDBRANCH  27  35
ENDBRANCH  22  23
ENDBRANCH   4  22
TORSDOF 9
ENDMDL


