MODEL 1
REMARK VINA RESULT:      -5.3      0.000      0.000
REMARK SMILES C#Cc1ccc(-n2cc(CCCCN(C)[C@@H](C)C#N)n[nH+]2)cc(N=[N+]=[N-])ccc2ccccc12
REMARK SMILES IDX 11 1 10 2 9 3 7 4 8 5 21 6 20 7 6 9 3 10 4 11 34 12 5 13
REMARK SMILES IDX 33 14 29 15 32 16 28 17 30 18 22 19 31 20 27 21 23 22 2 23
REMARK SMILES IDX 1 24 24 25 25 26 26 27 12 28 13 29 14 30 15 31 16 32 17 33
REMARK SMILES IDX 18 34 19 35
REMARK H PARENT 21 8
ROOT
ATOM      1  C   UNL     1      43.609 131.792  17.095  1.00  0.00     0.008 C 
ENDROOT
BRANCH   1   2
ATOM      2  C   UNL     1      43.348 132.070  18.583  1.00  0.00     0.065 C 
BRANCH   2   3
ATOM      3  C   UNL     1      42.187 132.993  18.793  1.00  0.00     0.132 A 
ATOM      4  N   UNL     1      40.467 134.292  18.451  1.00  0.00    -0.104 N 
ATOM      5  C   UNL     1      41.304 133.440  17.830  1.00  0.00     0.190 A 
ATOM      6  N   UNL     1      40.834 134.361  19.722  1.00  0.00    -0.012 N 
ATOM      7  N   UNL     1      41.878 133.583  19.966  1.00  0.00     0.020 NA
ATOM      8  H   UNL     1      40.358 134.935  20.454  1.00  0.00     0.527 HD
BRANCH   4   9
ATOM      9  C   UNL     1      39.356 134.997  17.863  1.00  0.00     0.107 A 
ATOM     10  C   UNL     1      41.000 137.475  18.511  1.00  0.00     0.032 A 
ATOM     11  C   UNL     1      39.685 137.200  18.952  1.00  0.00     0.020 A 
ATOM     12  C   UNL     1      41.541 137.022  17.273  1.00  0.00    -0.003 A 
ATOM     13  C   UNL     1      38.865 136.165  18.474  1.00  0.00     0.034 A 
ATOM     14  C   UNL     1      42.903 136.653  17.220  1.00  0.00     0.010 A 
ATOM     15  C   UNL     1      40.740 136.802  16.109  1.00  0.00    -0.017 A 
ATOM     16  C   UNL     1      43.420 135.970  16.119  1.00  0.00     0.001 A 
ATOM     17  C   UNL     1      39.466 137.381  15.966  1.00  0.00     0.009 A 
ATOM     18  C   UNL     1      41.266 136.056  15.037  1.00  0.00     0.009 A 
ATOM     19  C   UNL     1      38.771 134.504  16.682  1.00  0.00     0.042 A 
ATOM     20  C   UNL     1      42.597 135.645  15.045  1.00  0.00     0.001 A 
ATOM     21  C   UNL     1      38.328 136.678  15.537  1.00  0.00     0.011 A 
ATOM     22  C   UNL     1      38.109 135.294  15.705  1.00  0.00     0.040 A 
BRANCH  10  23
ATOM     23  C   UNL     1      41.821 138.269  19.397  1.00  0.00    -0.070 C 
ATOM     24  C   UNL     1      42.504 138.934  20.135  1.00  0.00     0.010 C 
ENDBRANCH  10  23
BRANCH  22  25
ATOM     25  N   UNL     1      37.154 134.685  14.823  1.00  0.00    -0.061 NA
BRANCH  25  26
ATOM     26  N   UNL     1      37.444 134.323  13.681  1.00  0.00     0.005 N 
ATOM     27  N   UNL     1      37.735 133.963  12.541  1.00  0.00    -0.003 NA
ENDBRANCH  25  26
ENDBRANCH  22  25
ENDBRANCH   4   9
ENDBRANCH   2   3
ENDBRANCH   1   2
BRANCH   1  28
ATOM     28  C   UNL     1      44.852 132.528  16.575  1.00  0.00     0.016 C 
BRANCH  28  29
ATOM     29  C   UNL     1      45.878 131.527  16.004  1.00  0.00     0.085 C 
BRANCH  29  30
ATOM     30  N   UNL     1      45.875 131.435  14.526  1.00  0.00    -0.291 NA
ATOM     31  C   UNL     1      47.229 131.447  13.939  1.00  0.00     0.106 C 
BRANCH  30  32
ATOM     32  C   UNL     1      44.944 130.416  13.975  1.00  0.00     0.157 C 
ATOM     33  C   UNL     1      44.869 129.205  14.908  1.00  0.00     0.041 C 
BRANCH  32  34
ATOM     34  C   UNL     1      43.589 130.947  13.726  1.00  0.00     0.081 C 
ATOM     35  N   UNL     1      42.527 131.363  13.530  1.00  0.00    -0.197 NA
ENDBRANCH  32  34
ENDBRANCH  30  32
ENDBRANCH  29  30
ENDBRANCH  28  29
ENDBRANCH   1  28
TORSDOF 11
ENDMDL
MODEL 2
REMARK VINA RESULT:      -5.2      2.278      3.231
REMARK SMILES C#Cc1ccc(-n2cc(CCCCN(C)[C@@H](C)C#N)n[nH+]2)cc(N=[N+]=[N-])ccc2ccccc12
REMARK SMILES IDX 11 1 10 2 9 3 7 4 8 5 21 6 20 7 6 9 3 10 4 11 34 12 5 13
REMARK SMILES IDX 33 14 29 15 32 16 28 17 30 18 22 19 31 20 27 21 23 22 2 23
REMARK SMILES IDX 1 24 24 25 25 26 26 27 12 28 13 29 14 30 15 31 16 32 17 33
REMARK SMILES IDX 18 34 19 35
REMARK H PARENT 21 8
ROOT
ATOM      1  C   UNL     1      43.935 132.091  15.220  1.00  0.00     0.008 C 
ENDROOT
BRANCH   1   2
ATOM      2  C   UNL     1      43.604 133.537  15.620  1.00  0.00     0.065 C 
BRANCH   2   3
ATOM      3  C   UNL     1      42.135 133.823  15.549  1.00  0.00     0.132 A 
ATOM      4  N   UNL     1      40.201 134.680  15.014  1.00  0.00    -0.104 N 
ATOM      5  C   UNL     1      41.505 134.692  14.681  1.00  0.00     0.190 A 
ATOM      6  N   UNL     1      40.055 133.850  16.037  1.00  0.00    -0.012 N 
ATOM      7  N   UNL     1      41.212 133.311  16.389  1.00  0.00     0.020 NA
ATOM      8  H   UNL     1      39.147 133.626  16.502  1.00  0.00     0.527 HD
BRANCH   4   9
ATOM      9  C   UNL     1      39.137 135.412  14.375  1.00  0.00     0.107 A 
ATOM     10  C   UNL     1      38.986 136.886  17.033  1.00  0.00     0.032 A 
ATOM     11  C   UNL     1      37.935 136.183  16.401  1.00  0.00     0.020 A 
ATOM     12  C   UNL     1      40.040 137.546  16.338  1.00  0.00    -0.003 A 
ATOM     13  C   UNL     1      37.956 135.695  15.084  1.00  0.00     0.034 A 
ATOM     14  C   UNL     1      41.336 137.539  16.900  1.00  0.00     0.010 A 
ATOM     15  C   UNL     1      39.877 138.108  15.033  1.00  0.00    -0.017 A 
ATOM     16  C   UNL     1      42.444 137.941  16.155  1.00  0.00     0.001 A 
ATOM     17  C   UNL     1      38.608 138.412  14.510  1.00  0.00     0.009 A 
ATOM     18  C   UNL     1      41.016 138.448  14.278  1.00  0.00     0.009 A 
ATOM     19  C   UNL     1      39.292 135.834  13.040  1.00  0.00     0.042 A 
ATOM     20  C   UNL     1      42.290 138.364  14.838  1.00  0.00     0.001 A 
ATOM     21  C   UNL     1      38.190 138.068  13.213  1.00  0.00     0.011 A 
ATOM     22  C   UNL     1      38.667 136.971  12.464  1.00  0.00     0.040 A 
BRANCH  10  23
ATOM     23  C   UNL     1      38.959 136.917  18.478  1.00  0.00    -0.070 C 
ATOM     24  C   UNL     1      38.939 136.946  19.683  1.00  0.00     0.010 C 
ENDBRANCH  10  23
BRANCH  22  25
ATOM     25  N   UNL     1      38.490 137.043  11.041  1.00  0.00    -0.061 NA
BRANCH  25  26
ATOM     26  N   UNL     1      38.211 138.094  10.461  1.00  0.00     0.005 N 
ATOM     27  N   UNL     1      37.935 139.144   9.883  1.00  0.00    -0.003 NA
ENDBRANCH  25  26
ENDBRANCH  22  25
ENDBRANCH   4   9
ENDBRANCH   2   3
ENDBRANCH   1   2
BRANCH   1  28
ATOM     28  C   UNL     1      44.235 131.205  16.437  1.00  0.00     0.016 C 
BRANCH  28  29
ATOM     29  C   UNL     1      45.754 130.976  16.581  1.00  0.00     0.085 C 
BRANCH  29  30
ATOM     30  N   UNL     1      46.290 129.906  15.708  1.00  0.00    -0.291 NA
ATOM     31  C   UNL     1      45.281 128.892  15.345  1.00  0.00     0.106 C 
BRANCH  30  32
ATOM     32  C   UNL     1      47.144 130.391  14.595  1.00  0.00     0.157 C 
ATOM     33  C   UNL     1      48.345 129.462  14.402  1.00  0.00     0.041 C 
BRANCH  32  34
ATOM     34  C   UNL     1      46.408 130.535  13.322  1.00  0.00     0.081 C 
ATOM     35  N   UNL     1      45.832 130.648  12.325  1.00  0.00    -0.197 NA
ENDBRANCH  32  34
ENDBRANCH  30  32
ENDBRANCH  29  30
ENDBRANCH  28  29
ENDBRANCH   1  28
TORSDOF 11
ENDMDL
MODEL 3
REMARK VINA RESULT:      -5.2      2.413      4.171
REMARK SMILES C#Cc1ccc(-n2cc(CCCCN(C)[C@@H](C)C#N)n[nH+]2)cc(N=[N+]=[N-])ccc2ccccc12
REMARK SMILES IDX 11 1 10 2 9 3 7 4 8 5 21 6 20 7 6 9 3 10 4 11 34 12 5 13
REMARK SMILES IDX 33 14 29 15 32 16 28 17 30 18 22 19 31 20 27 21 23 22 2 23
REMARK SMILES IDX 1 24 24 25 25 26 26 27 12 28 13 29 14 30 15 31 16 32 17 33
REMARK SMILES IDX 18 34 19 35
REMARK H PARENT 21 8
ROOT
ATOM      1  C   UNL     1      44.008 134.013  15.896  1.00  0.00     0.008 C 
ENDROOT
BRANCH   1   2
ATOM      2  C   UNL     1      43.045 135.208  15.838  1.00  0.00     0.065 C 
BRANCH   2   3
ATOM      3  C   UNL     1      41.697 134.826  15.309  1.00  0.00     0.132 A 
ATOM      4  N   UNL     1      39.842 134.784  14.160  1.00  0.00    -0.104 N 
ATOM      5  C   UNL     1      41.041 135.391  14.234  1.00  0.00     0.190 A 
ATOM      6  N   UNL     1      39.776 133.903  15.147  1.00  0.00    -0.012 N 
ATOM      7  N   UNL     1      40.888 133.901  15.867  1.00  0.00     0.020 NA
ATOM      8  H   UNL     1      38.966 133.269  15.333  1.00  0.00     0.527 HD
BRANCH   4   9
ATOM      9  C   UNL     1      38.811 135.020  13.181  1.00  0.00     0.107 A 
ATOM     10  C   UNL     1      37.233 136.063  15.565  1.00  0.00     0.032 A 
ATOM     11  C   UNL     1      36.846 135.021  14.693  1.00  0.00     0.020 A 
ATOM     12  C   UNL     1      38.040 137.173  15.181  1.00  0.00    -0.003 A 
ATOM     13  C   UNL     1      37.475 134.697  13.480  1.00  0.00     0.034 A 
ATOM     14  C   UNL     1      38.969 137.693  16.108  1.00  0.00     0.010 A 
ATOM     15  C   UNL     1      38.045 137.705  13.854  1.00  0.00    -0.017 A 
ATOM     16  C   UNL     1      39.952 138.599  15.709  1.00  0.00     0.001 A 
ATOM     17  C   UNL     1      36.995 137.459  12.951  1.00  0.00     0.009 A 
ATOM     18  C   UNL     1      39.084 138.570  13.459  1.00  0.00     0.009 A 
ATOM     19  C   UNL     1      39.156 135.570  11.932  1.00  0.00     0.042 A 
ATOM     20  C   UNL     1      40.029 139.012  14.383  1.00  0.00     0.001 A 
ATOM     21  C   UNL     1      37.183 137.068  11.615  1.00  0.00     0.011 A 
ATOM     22  C   UNL     1      38.297 136.357  11.120  1.00  0.00     0.040 A 
BRANCH  10  23
ATOM     23  C   UNL     1      36.764 135.966  16.929  1.00  0.00    -0.070 C 
ATOM     24  C   UNL     1      36.375 135.883  18.067  1.00  0.00     0.010 C 
ENDBRANCH  10  23
BRANCH  22  25
ATOM     25  N   UNL     1      38.543 136.454   9.709  1.00  0.00    -0.061 NA
BRANCH  25  26
ATOM     26  N   UNL     1      38.254 135.550   8.922  1.00  0.00     0.005 N 
ATOM     27  N   UNL     1      37.965 134.650   8.135  1.00  0.00    -0.003 NA
ENDBRANCH  25  26
ENDBRANCH  22  25
ENDBRANCH   4   9
ENDBRANCH   2   3
ENDBRANCH   1   2
BRANCH   1  28
ATOM     28  C   UNL     1      43.731 133.100  17.099  1.00  0.00     0.016 C 
BRANCH  28  29
ATOM     29  C   UNL     1      43.794 131.617  16.681  1.00  0.00     0.085 C 
BRANCH  29  30
ATOM     30  N   UNL     1      45.148 131.153  16.300  1.00  0.00    -0.291 NA
ATOM     31  C   UNL     1      45.917 130.607  17.435  1.00  0.00     0.106 C 
BRANCH  30  32
ATOM     32  C   UNL     1      45.195 130.355  15.048  1.00  0.00     0.157 C 
ATOM     33  C   UNL     1      45.089 128.861  15.365  1.00  0.00     0.041 C 
BRANCH  32  34
ATOM     34  C   UNL     1      44.151 130.741  14.078  1.00  0.00     0.081 C 
ATOM     35  N   UNL     1      43.332 131.043  13.317  1.00  0.00    -0.197 NA
ENDBRANCH  32  34
ENDBRANCH  30  32
ENDBRANCH  29  30
ENDBRANCH  28  29
ENDBRANCH   1  28
TORSDOF 11
ENDMDL
MODEL 4
REMARK VINA RESULT:      -5.2      3.671      6.696
REMARK SMILES C#Cc1ccc(-n2cc(CCCCN(C)[C@@H](C)C#N)n[nH+]2)cc(N=[N+]=[N-])ccc2ccccc12
REMARK SMILES IDX 11 1 10 2 9 3 7 4 8 5 21 6 20 7 6 9 3 10 4 11 34 12 5 13
REMARK SMILES IDX 33 14 29 15 32 16 28 17 30 18 22 19 31 20 27 21 23 22 2 23
REMARK SMILES IDX 1 24 24 25 25 26 26 27 12 28 13 29 14 30 15 31 16 32 17 33
REMARK SMILES IDX 18 34 19 35
REMARK H PARENT 21 8
ROOT
ATOM      1  C   UNL     1      44.996 134.431  23.226  1.00  0.00     0.008 C 
ENDROOT
BRANCH   1   2
ATOM      2  C   UNL     1      45.710 133.485  22.249  1.00  0.00     0.065 C 
BRANCH   2   3
ATOM      3  C   UNL     1      44.768 132.878  21.255  1.00  0.00     0.132 A 
ATOM      4  N   UNL     1      43.793 132.297  19.392  1.00  0.00    -0.104 N 
ATOM      5  C   UNL     1      44.889 132.906  19.880  1.00  0.00     0.190 A 
ATOM      6  N   UNL     1      43.045 131.928  20.422  1.00  0.00    -0.012 N 
ATOM      7  N   UNL     1      43.608 132.266  21.572  1.00  0.00     0.020 NA
ATOM      8  H   UNL     1      42.136 131.418  20.351  1.00  0.00     0.527 HD
BRANCH   4   9
ATOM      9  C   UNL     1      43.478 132.060  18.005  1.00  0.00     0.107 A 
ATOM     10  C   UNL     1      41.098 133.871  18.567  1.00  0.00     0.032 A 
ATOM     11  C   UNL     1      41.049 132.546  18.078  1.00  0.00     0.020 A 
ATOM     12  C   UNL     1      42.164 134.781  18.311  1.00  0.00    -0.003 A 
ATOM     13  C   UNL     1      42.150 131.804  17.622  1.00  0.00     0.034 A 
ATOM     14  C   UNL     1      42.548 135.684  19.326  1.00  0.00     0.010 A 
ATOM     15  C   UNL     1      42.949 134.740  17.116  1.00  0.00    -0.017 A 
ATOM     16  C   UNL     1      43.733 136.413  19.229  1.00  0.00     0.001 A 
ATOM     17  C   UNL     1      42.496 134.091  15.953  1.00  0.00     0.009 A 
ATOM     18  C   UNL     1      44.172 135.436  17.067  1.00  0.00     0.009 A 
ATOM     19  C   UNL     1      44.511 132.086  17.048  1.00  0.00     0.042 A 
ATOM     20  C   UNL     1      44.558 136.266  18.118  1.00  0.00     0.001 A 
ATOM     21  C   UNL     1      43.282 133.212  15.189  1.00  0.00     0.011 A 
ATOM     22  C   UNL     1      44.350 132.430  15.680  1.00  0.00     0.040 A 
BRANCH  10  23
ATOM     23  C   UNL     1      39.979 134.297  19.378  1.00  0.00    -0.070 C 
ATOM     24  C   UNL     1      39.048 134.651  20.056  1.00  0.00     0.010 C 
ENDBRANCH  10  23
BRANCH  22  25
ATOM     25  N   UNL     1      45.305 131.972  14.712  1.00  0.00    -0.061 NA
BRANCH  25  26
ATOM     26  N   UNL     1      45.648 130.791  14.627  1.00  0.00     0.005 N 
ATOM     27  N   UNL     1      45.987 129.611  14.544  1.00  0.00    -0.003 NA
ENDBRANCH  25  26
ENDBRANCH  22  25
ENDBRANCH   4   9
ENDBRANCH   2   3
ENDBRANCH   1   2
BRANCH   1  28
ATOM     28  C   UNL     1      45.973 135.375  23.941  1.00  0.00     0.016 C 
BRANCH  28  29
ATOM     29  C   UNL     1      46.046 136.733  23.213  1.00  0.00     0.085 C 
BRANCH  29  30
ATOM     30  N   UNL     1      47.358 137.013  22.585  1.00  0.00    -0.291 NA
ATOM     31  C   UNL     1      48.473 136.277  23.212  1.00  0.00     0.106 C 
BRANCH  30  32
ATOM     32  C   UNL     1      47.342 137.011  21.099  1.00  0.00     0.157 C 
ATOM     33  C   UNL     1      46.573 138.225  20.574  1.00  0.00     0.041 C 
BRANCH  32  34
ATOM     34  C   UNL     1      48.695 136.975  20.508  1.00  0.00     0.081 C 
ATOM     35  N   UNL     1      49.754 136.947  20.043  1.00  0.00    -0.197 NA
ENDBRANCH  32  34
ENDBRANCH  30  32
ENDBRANCH  29  30
ENDBRANCH  28  29
ENDBRANCH   1  28
TORSDOF 11
ENDMDL
MODEL 5
REMARK VINA RESULT:      -5.2      1.502      1.797
REMARK SMILES C#Cc1ccc(-n2cc(CCCCN(C)[C@@H](C)C#N)n[nH+]2)cc(N=[N+]=[N-])ccc2ccccc12
REMARK SMILES IDX 11 1 10 2 9 3 7 4 8 5 21 6 20 7 6 9 3 10 4 11 34 12 5 13
REMARK SMILES IDX 33 14 29 15 32 16 28 17 30 18 22 19 31 20 27 21 23 22 2 23
REMARK SMILES IDX 1 24 24 25 25 26 26 27 12 28 13 29 14 30 15 31 16 32 17 33
REMARK SMILES IDX 18 34 19 35
REMARK H PARENT 21 8
ROOT
ATOM      1  C   UNL     1      44.027 132.346  17.367  1.00  0.00     0.008 C 
ENDROOT
BRANCH   1   2
ATOM      2  C   UNL     1      42.742 131.831  16.703  1.00  0.00     0.065 C 
BRANCH   2   3
ATOM      3  C   UNL     1      41.561 132.705  16.997  1.00  0.00     0.132 A 
ATOM      4  N   UNL     1      40.107 134.331  16.949  1.00  0.00    -0.104 N 
ATOM      5  C   UNL     1      41.177 133.834  16.302  1.00  0.00     0.190 A 
ATOM      6  N   UNL     1      39.865 133.545  17.988  1.00  0.00    -0.012 N 
ATOM      7  N   UNL     1      40.731 132.545  18.048  1.00  0.00     0.020 NA
ATOM      8  H   UNL     1      39.082 133.674  18.668  1.00  0.00     0.527 HD
BRANCH   4   9
ATOM      9  C   UNL     1      39.338 135.495  16.586  1.00  0.00     0.107 A 
ATOM     10  C   UNL     1      40.831 136.807  18.890  1.00  0.00     0.032 A 
ATOM     11  C   UNL     1      39.429 136.702  18.749  1.00  0.00     0.020 A 
ATOM     12  C   UNL     1      41.742 136.901  17.798  1.00  0.00    -0.003 A 
ATOM     13  C   UNL     1      38.755 136.291  17.588  1.00  0.00     0.034 A 
ATOM     14  C   UNL     1      43.000 136.267  17.903  1.00  0.00     0.010 A 
ATOM     15  C   UNL     1      41.395 137.500  16.546  1.00  0.00    -0.017 A 
ATOM     16  C   UNL     1      43.820 136.108  16.786  1.00  0.00     0.001 A 
ATOM     17  C   UNL     1      40.306 138.382  16.424  1.00  0.00     0.009 A 
ATOM     18  C   UNL     1      42.209 137.273  15.420  1.00  0.00     0.009 A 
ATOM     19  C   UNL     1      39.177 135.820  15.225  1.00  0.00     0.042 A 
ATOM     20  C   UNL     1      43.412 136.581  15.543  1.00  0.00     0.001 A 
ATOM     21  C   UNL     1      39.345 138.305  15.402  1.00  0.00     0.011 A 
ATOM     22  C   UNL     1      38.972 137.129  14.715  1.00  0.00     0.040 A 
BRANCH  10  23
ATOM     23  C   UNL     1      41.341 136.817  20.242  1.00  0.00    -0.070 C 
ATOM     24  C   UNL     1      41.765 136.821  21.371  1.00  0.00     0.010 C 
ENDBRANCH  10  23
BRANCH  22  25
ATOM     25  N   UNL     1      38.350 137.306  13.434  1.00  0.00    -0.061 NA
BRANCH  25  26
ATOM     26  N   UNL     1      38.608 136.585  12.468  1.00  0.00     0.005 N 
ATOM     27  N   UNL     1      38.867 135.867  11.503  1.00  0.00    -0.003 NA
ENDBRANCH  25  26
ENDBRANCH  22  25
ENDBRANCH   4   9
ENDBRANCH   2   3
ENDBRANCH   1   2
BRANCH   1  28
ATOM     28  C   UNL     1      45.244 132.245  16.437  1.00  0.00     0.016 C 
BRANCH  28  29
ATOM     29  C   UNL     1      45.904 130.856  16.555  1.00  0.00     0.085 C 
BRANCH  29  30
ATOM     30  N   UNL     1      45.938 130.093  15.286  1.00  0.00    -0.291 NA
ATOM     31  C   UNL     1      45.211 128.810  15.358  1.00  0.00     0.106 C 
BRANCH  30  32
ATOM     32  C   UNL     1      45.685 130.908  14.070  1.00  0.00     0.157 C 
ATOM     33  C   UNL     1      46.591 130.451  12.925  1.00  0.00     0.041 C 
BRANCH  32  34
ATOM     34  C   UNL     1      44.272 130.878  13.639  1.00  0.00     0.081 C 
ATOM     35  N   UNL     1      43.166 130.854  13.300  1.00  0.00    -0.197 NA
ENDBRANCH  32  34
ENDBRANCH  30  32
ENDBRANCH  29  30
ENDBRANCH  28  29
ENDBRANCH   1  28
TORSDOF 11
ENDMDL
MODEL 6
REMARK VINA RESULT:      -5.1      2.613      6.793
REMARK SMILES C#Cc1ccc(-n2cc(CCCCN(C)[C@@H](C)C#N)n[nH+]2)cc(N=[N+]=[N-])ccc2ccccc12
REMARK SMILES IDX 11 1 10 2 9 3 7 4 8 5 21 6 20 7 6 9 3 10 4 11 34 12 5 13
REMARK SMILES IDX 33 14 29 15 32 16 28 17 30 18 22 19 31 20 27 21 23 22 2 23
REMARK SMILES IDX 1 24 24 25 25 26 26 27 12 28 13 29 14 30 15 31 16 32 17 33
REMARK SMILES IDX 18 34 19 35
REMARK H PARENT 21 8
ROOT
ATOM      1  C   UNL     1      40.737 138.118  14.187  1.00  0.00     0.008 C 
ENDROOT
BRANCH   1   2
ATOM      2  C   UNL     1      41.066 138.821  15.512  1.00  0.00     0.065 C 
BRANCH   2   3
ATOM      3  C   UNL     1      41.846 137.944  16.443  1.00  0.00     0.132 A 
ATOM      4  N   UNL     1      42.964 136.269  17.283  1.00  0.00    -0.104 N 
ATOM      5  C   UNL     1      42.425 136.728  16.139  1.00  0.00     0.190 A 
ATOM      6  N   UNL     1      42.714 137.161  18.231  1.00  0.00    -0.012 N 
ATOM      7  N   UNL     1      42.035 138.193  17.755  1.00  0.00     0.020 NA
ATOM      8  H   UNL     1      43.025 137.082  19.225  1.00  0.00     0.527 HD
BRANCH   4   9
ATOM      9  C   UNL     1      43.700 135.043  17.464  1.00  0.00     0.107 A 
ATOM     10  C   UNL     1      41.233 134.164  19.013  1.00  0.00     0.032 A 
ATOM     11  C   UNL     1      42.559 134.210  19.500  1.00  0.00     0.020 A 
ATOM     12  C   UNL     1      40.887 133.915  17.653  1.00  0.00    -0.003 A 
ATOM     13  C   UNL     1      43.708 134.409  18.719  1.00  0.00     0.034 A 
ATOM     14  C   UNL     1      39.777 134.588  17.098  1.00  0.00     0.010 A 
ATOM     15  C   UNL     1      41.688 133.110  16.783  1.00  0.00    -0.017 A 
ATOM     16  C   UNL     1      39.546 134.581  15.722  1.00  0.00     0.001 A 
ATOM     17  C   UNL     1      42.632 132.193  17.281  1.00  0.00     0.009 A 
ATOM     18  C   UNL     1      41.474 133.169  15.393  1.00  0.00     0.009 A 
ATOM     19  C   UNL     1      44.408 134.496  16.377  1.00  0.00     0.042 A 
ATOM     20  C   UNL     1      40.410 133.900  14.869  1.00  0.00     0.001 A 
ATOM     21  C   UNL     1      43.945 132.078  16.797  1.00  0.00     0.011 A 
ATOM     22  C   UNL     1      44.690 133.116  16.196  1.00  0.00     0.040 A 
BRANCH  10  23
ATOM     23  C   UNL     1      40.184 134.389  19.982  1.00  0.00    -0.070 C 
ATOM     24  C   UNL     1      39.309 134.573  20.790  1.00  0.00     0.010 C 
ENDBRANCH  10  23
BRANCH  22  25
ATOM     25  N   UNL     1      45.790 132.716  15.365  1.00  0.00    -0.061 NA
BRANCH  25  26
ATOM     26  N   UNL     1      45.737 131.731  14.626  1.00  0.00     0.005 N 
ATOM     27  N   UNL     1      45.687 130.747  13.889  1.00  0.00    -0.003 NA
ENDBRANCH  25  26
ENDBRANCH  22  25
ENDBRANCH   4   9
ENDBRANCH   2   3
ENDBRANCH   1   2
BRANCH   1  28
ATOM     28  C   UNL     1      39.250 137.750  14.077  1.00  0.00     0.016 C 
BRANCH  28  29
ATOM     29  C   UNL     1      38.770 137.862  12.615  1.00  0.00     0.085 C 
BRANCH  29  30
ATOM     30  N   UNL     1      38.115 136.638  12.099  1.00  0.00    -0.291 NA
ATOM     31  C   UNL     1      37.307 135.937  13.115  1.00  0.00     0.106 C 
BRANCH  30  32
ATOM     32  C   UNL     1      37.476 136.798  10.767  1.00  0.00     0.157 C 
ATOM     33  C   UNL     1      38.325 137.706   9.875  1.00  0.00     0.041 C 
BRANCH  32  34
ATOM     34  C   UNL     1      37.229 135.510  10.088  1.00  0.00     0.081 C 
ATOM     35  N   UNL     1      37.035 134.501   9.554  1.00  0.00    -0.197 NA
ENDBRANCH  32  34
ENDBRANCH  30  32
ENDBRANCH  29  30
ENDBRANCH  28  29
ENDBRANCH   1  28
TORSDOF 11
ENDMDL
MODEL 7
REMARK VINA RESULT:      -5.1      3.698      6.168
REMARK SMILES C#Cc1ccc(-n2cc(CCCCN(C)[C@@H](C)C#N)n[nH+]2)cc(N=[N+]=[N-])ccc2ccccc12
REMARK SMILES IDX 11 1 10 2 9 3 7 4 8 5 21 6 20 7 6 9 3 10 4 11 34 12 5 13
REMARK SMILES IDX 33 14 29 15 32 16 28 17 30 18 22 19 31 20 27 21 23 22 2 23
REMARK SMILES IDX 1 24 24 25 25 26 26 27 12 28 13 29 14 30 15 31 16 32 17 33
REMARK SMILES IDX 18 34 19 35
REMARK H PARENT 21 8
ROOT
ATOM      1  C   UNL     1      43.093 132.042  16.257  1.00  0.00     0.008 C 
ENDROOT
BRANCH   1   2
ATOM      2  C   UNL     1      43.157 132.232  17.780  1.00  0.00     0.065 C 
BRANCH   2   3
ATOM      3  C   UNL     1      42.890 133.649  18.187  1.00  0.00     0.132 A 
ATOM      4  N   UNL     1      43.142 135.702  18.882  1.00  0.00    -0.104 N 
ATOM      5  C   UNL     1      43.830 134.601  18.527  1.00  0.00     0.190 A 
ATOM      6  N   UNL     1      41.851 135.423  18.769  1.00  0.00    -0.012 N 
ATOM      7  N   UNL     1      41.661 134.182  18.349  1.00  0.00     0.020 NA
ATOM      8  H   UNL     1      41.074 136.093  18.964  1.00  0.00     0.527 HD
BRANCH   4   9
ATOM      9  C   UNL     1      43.689 136.970  19.294  1.00  0.00     0.107 A 
ATOM     10  C   UNL     1      42.465 136.260  21.988  1.00  0.00     0.032 A 
ATOM     11  C   UNL     1      42.198 137.418  21.223  1.00  0.00     0.020 A 
ATOM     12  C   UNL     1      43.712 135.569  21.989  1.00  0.00    -0.003 A 
ATOM     13  C   UNL     1      42.924 137.836  20.096  1.00  0.00     0.034 A 
ATOM     14  C   UNL     1      43.710 134.161  22.095  1.00  0.00     0.010 A 
ATOM     15  C   UNL     1      44.962 136.223  21.758  1.00  0.00    -0.017 A 
ATOM     16  C   UNL     1      44.865 133.420  21.847  1.00  0.00     0.001 A 
ATOM     17  C   UNL     1      45.111 137.614  21.913  1.00  0.00     0.009 A 
ATOM     18  C   UNL     1      46.100 135.454  21.450  1.00  0.00     0.009 A 
ATOM     19  C   UNL     1      44.987 137.329  18.884  1.00  0.00     0.042 A 
ATOM     20  C   UNL     1      46.048 134.062  21.495  1.00  0.00     0.001 A 
ATOM     21  C   UNL     1      45.758 138.442  20.981  1.00  0.00     0.011 A 
ATOM     22  C   UNL     1      45.861 138.192  19.596  1.00  0.00     0.040 A 
BRANCH  10  23
ATOM     23  C   UNL     1      41.382 135.772  22.812  1.00  0.00    -0.070 C 
ATOM     24  C   UNL     1      40.478 135.362  23.496  1.00  0.00     0.010 C 
ENDBRANCH  10  23
BRANCH  22  25
ATOM     25  N   UNL     1      46.918 138.869  18.900  1.00  0.00    -0.061 NA
BRANCH  25  26
ATOM     26  N   UNL     1      48.104 138.564  19.040  1.00  0.00     0.005 N 
ATOM     27  N   UNL     1      49.289 138.263  19.180  1.00  0.00    -0.003 NA
ENDBRANCH  25  26
ENDBRANCH  22  25
ENDBRANCH   4   9
ENDBRANCH   2   3
ENDBRANCH   1   2
BRANCH   1  28
ATOM     28  C   UNL     1      44.445 132.313  15.580  1.00  0.00     0.016 C 
BRANCH  28  29
ATOM     29  C   UNL     1      44.792 131.181  14.591  1.00  0.00     0.085 C 
BRANCH  29  30
ATOM     30  N   UNL     1      46.145 130.607  14.781  1.00  0.00    -0.291 NA
ATOM     31  C   UNL     1      46.335 129.993  16.109  1.00  0.00     0.106 C 
BRANCH  30  32
ATOM     32  C   UNL     1      46.643 129.813  13.629  1.00  0.00     0.157 C 
ATOM     33  C   UNL     1      46.385 130.559  12.318  1.00  0.00     0.041 C 
BRANCH  32  34
ATOM     34  C   UNL     1      48.075 129.470  13.741  1.00  0.00     0.081 C 
ATOM     35  N   UNL     1      49.198 129.201  13.828  1.00  0.00    -0.197 NA
ENDBRANCH  32  34
ENDBRANCH  30  32
ENDBRANCH  29  30
ENDBRANCH  28  29
ENDBRANCH   1  28
TORSDOF 11
ENDMDL
MODEL 8
REMARK VINA RESULT:      -5.1      2.478      5.116
REMARK SMILES C#Cc1ccc(-n2cc(CCCCN(C)[C@@H](C)C#N)n[nH+]2)cc(N=[N+]=[N-])ccc2ccccc12
REMARK SMILES IDX 11 1 10 2 9 3 7 4 8 5 21 6 20 7 6 9 3 10 4 11 34 12 5 13
REMARK SMILES IDX 33 14 29 15 32 16 28 17 30 18 22 19 31 20 27 21 23 22 2 23
REMARK SMILES IDX 1 24 24 25 25 26 26 27 12 28 13 29 14 30 15 31 16 32 17 33
REMARK SMILES IDX 18 34 19 35
REMARK H PARENT 21 8
ROOT
ATOM      1  C   UNL     1      44.336 132.160  15.936  1.00  0.00     0.008 C 
ENDROOT
BRANCH   1   2
ATOM      2  C   UNL     1      45.048 133.520  15.995  1.00  0.00     0.065 C 
BRANCH   2   3
ATOM      3  C   UNL     1      44.085 134.667  15.983  1.00  0.00     0.132 A 
ATOM      4  N   UNL     1      42.663 136.203  16.602  1.00  0.00    -0.104 N 
ATOM      5  C   UNL     1      43.499 135.263  17.082  1.00  0.00     0.190 A 
ATOM      6  N   UNL     1      42.736 136.167  15.279  1.00  0.00    -0.012 N 
ATOM      7  N   UNL     1      43.592 135.244  14.868  1.00  0.00     0.020 NA
ATOM      8  H   UNL     1      42.208 136.795  14.633  1.00  0.00     0.527 HD
BRANCH   4   9
ATOM      9  C   UNL     1      41.843 137.106  17.369  1.00  0.00     0.107 A 
ATOM     10  C   UNL     1      39.555 135.360  16.382  1.00  0.00     0.032 A 
ATOM     11  C   UNL     1      39.689 136.754  16.195  1.00  0.00     0.020 A 
ATOM     12  C   UNL     1      40.063 134.650  17.508  1.00  0.00    -0.003 A 
ATOM     13  C   UNL     1      40.630 137.576  16.835  1.00  0.00     0.034 A 
ATOM     14  C   UNL     1      40.575 133.348  17.318  1.00  0.00     0.010 A 
ATOM     15  C   UNL     1      40.195 135.241  18.803  1.00  0.00    -0.017 A 
ATOM     16  C   UNL     1      41.309 132.711  18.319  1.00  0.00     0.001 A 
ATOM     17  C   UNL     1      39.484 136.399  19.166  1.00  0.00     0.009 A 
ATOM     18  C   UNL     1      40.993 134.608  19.775  1.00  0.00     0.009 A 
ATOM     19  C   UNL     1      42.271 137.512  18.647  1.00  0.00     0.042 A 
ATOM     20  C   UNL     1      41.544 133.351  19.531  1.00  0.00     0.001 A 
ATOM     21  C   UNL     1      40.061 137.505  19.810  1.00  0.00     0.011 A 
ATOM     22  C   UNL     1      41.414 137.895  19.713  1.00  0.00     0.040 A 
BRANCH  10  23
ATOM     23  C   UNL     1      38.853 134.638  15.344  1.00  0.00    -0.070 C 
ATOM     24  C   UNL     1      38.271 134.037  14.477  1.00  0.00     0.010 C 
ENDBRANCH  10  23
BRANCH  22  25
ATOM     25  N   UNL     1      41.917 138.730  20.767  1.00  0.00    -0.061 NA
BRANCH  25  26
ATOM     26  N   UNL     1      42.131 138.305  21.904  1.00  0.00     0.005 N 
ATOM     27  N   UNL     1      42.342 137.882  23.040  1.00  0.00    -0.003 NA
ENDBRANCH  25  26
ENDBRANCH  22  25
ENDBRANCH   4   9
ENDBRANCH   2   3
ENDBRANCH   1   2
BRANCH   1  28
ATOM     28  C   UNL     1      43.803 131.843  14.532  1.00  0.00     0.016 C 
BRANCH  28  29
ATOM     29  C   UNL     1      44.223 130.422  14.100  1.00  0.00     0.085 C 
BRANCH  29  30
ATOM     30  N   UNL     1      45.550 130.004  14.609  1.00  0.00    -0.291 NA
ATOM     31  C   UNL     1      45.469 129.054  15.736  1.00  0.00     0.106 C 
BRANCH  30  32
ATOM     32  C   UNL     1      46.535 129.662  13.550  1.00  0.00     0.157 C 
ATOM     33  C   UNL     1      46.515 130.720  12.445  1.00  0.00     0.041 C 
BRANCH  32  34
ATOM     34  C   UNL     1      47.908 129.501  14.070  1.00  0.00     0.081 C 
ATOM     35  N   UNL     1      48.983 129.374  14.479  1.00  0.00    -0.197 NA
ENDBRANCH  32  34
ENDBRANCH  30  32
ENDBRANCH  29  30
ENDBRANCH  28  29
ENDBRANCH   1  28
TORSDOF 11
ENDMDL
MODEL 9
REMARK VINA RESULT:      -5.0      1.588      2.472
REMARK SMILES C#Cc1ccc(-n2cc(CCCCN(C)[C@@H](C)C#N)n[nH+]2)cc(N=[N+]=[N-])ccc2ccccc12
REMARK SMILES IDX 11 1 10 2 9 3 7 4 8 5 21 6 20 7 6 9 3 10 4 11 34 12 5 13
REMARK SMILES IDX 33 14 29 15 32 16 28 17 30 18 22 19 31 20 27 21 23 22 2 23
REMARK SMILES IDX 1 24 24 25 25 26 26 27 12 28 13 29 14 30 15 31 16 32 17 33
REMARK SMILES IDX 18 34 19 35
REMARK H PARENT 21 8
ROOT
ATOM      1  C   UNL     1      44.186 133.079  17.799  1.00  0.00     0.008 C 
ENDROOT
BRANCH   1   2
ATOM      2  C   UNL     1      43.377 134.324  17.405  1.00  0.00     0.065 C 
BRANCH   2   3
ATOM      3  C   UNL     1      41.900 134.083  17.460  1.00  0.00     0.132 A 
ATOM      4  N   UNL     1      39.773 134.046  16.972  1.00  0.00    -0.104 N 
ATOM      5  C   UNL     1      40.980 134.368  16.471  1.00  0.00     0.190 A 
ATOM      6  N   UNL     1      39.957 133.596  18.205  1.00  0.00    -0.012 N 
ATOM      7  N   UNL     1      41.240 133.605  18.535  1.00  0.00     0.020 NA
ATOM      8  H   UNL     1      39.199 133.256  18.839  1.00  0.00     0.527 HD
BRANCH   4   9
ATOM      9  C   UNL     1      38.501 134.146  16.301  1.00  0.00     0.107 A 
ATOM     10  C   UNL     1      37.936 136.298  18.377  1.00  0.00     0.032 A 
ATOM     11  C   UNL     1      37.173 135.131  18.148  1.00  0.00     0.020 A 
ATOM     12  C   UNL     1      38.674 136.984  17.369  1.00  0.00    -0.003 A 
ATOM     13  C   UNL     1      37.319 134.263  17.054  1.00  0.00     0.034 A 
ATOM     14  C   UNL     1      39.909 137.575  17.713  1.00  0.00     0.010 A 
ATOM     15  C   UNL     1      38.285 136.993  15.993  1.00  0.00    -0.017 A 
ATOM     16  C   UNL     1      40.786 138.032  16.729  1.00  0.00     0.001 A 
ATOM     17  C   UNL     1      36.972 136.687  15.591  1.00  0.00     0.009 A 
ATOM     18  C   UNL     1      39.211 137.401  15.014  1.00  0.00     0.009 A 
ATOM     19  C   UNL     1      38.458 134.121  14.894  1.00  0.00     0.042 A 
ATOM     20  C   UNL     1      40.453 137.916  15.383  1.00  0.00     0.001 A 
ATOM     21  C   UNL     1      36.658 135.814  14.536  1.00  0.00     0.011 A 
ATOM     22  C   UNL     1      37.461 134.740  14.095  1.00  0.00     0.040 A 
BRANCH  10  23
ATOM     23  C   UNL     1      37.947 136.802  19.731  1.00  0.00    -0.070 C 
ATOM     24  C   UNL     1      37.960 137.223  20.861  1.00  0.00     0.010 C 
ENDBRANCH  10  23
BRANCH  22  25
ATOM     25  N   UNL     1      37.224 134.270  12.760  1.00  0.00    -0.061 NA
BRANCH  25  26
ATOM     26  N   UNL     1      37.544 134.920  11.763  1.00  0.00     0.005 N 
ATOM     27  N   UNL     1      37.861 135.569  10.767  1.00  0.00    -0.003 NA
ENDBRANCH  25  26
ENDBRANCH  22  25
ENDBRANCH   4   9
ENDBRANCH   2   3
ENDBRANCH   1   2
BRANCH   1  28
ATOM     28  C   UNL     1      44.943 132.476  16.608  1.00  0.00     0.016 C 
BRANCH  28  29
ATOM     29  C   UNL     1      44.782 130.942  16.583  1.00  0.00     0.085 C 
BRANCH  29  30
ATOM     30  N   UNL     1      45.427 130.285  15.423  1.00  0.00    -0.291 NA
ATOM     31  C   UNL     1      45.193 128.828  15.374  1.00  0.00     0.106 C 
BRANCH  30  32
ATOM     32  C   UNL     1      45.260 131.007  14.135  1.00  0.00     0.157 C 
ATOM     33  C   UNL     1      46.160 130.393  13.061  1.00  0.00     0.041 C 
BRANCH  32  34
ATOM     34  C   UNL     1      43.860 131.033  13.666  1.00  0.00     0.081 C 
ATOM     35  N   UNL     1      42.762 131.053  13.298  1.00  0.00    -0.197 NA
ENDBRANCH  32  34
ENDBRANCH  30  32
ENDBRANCH  29  30
ENDBRANCH  28  29
ENDBRANCH   1  28
TORSDOF 11
ENDMDL


