MODEL 1
REMARK VINA RESULT:      -5.3      0.000      0.000
REMARK SMILES C#C[C@@](O)(c1cc(N=[N+]=[N-])cc(SC(C)(C)CNC[C@](C)(O)C=C)ccc2cc1CC2)C(C)(C)C
REMARK SMILES IDX 14 1 15 2 16 3 13 4 12 5 5 6 6 7 29 8 7 9 28 10 30 11 11 12
REMARK SMILES IDX 27 13 31 14 26 15 25 16 3 17 2 18 1 19 4 20 32 22 33 23
REMARK SMILES IDX 34 24 35 25 8 26 9 27 10 28 17 29 18 30 19 32 20 33 21 34
REMARK SMILES IDX 22 35 23 37 24 38
REMARK H PARENT 4 21 18 31 22 36
ROOT
ATOM      1  C   UNL     1      42.678 133.131  16.840  1.00  0.00     0.027 C 
ATOM      2  C   UNL     1      41.417 132.956  17.709  1.00  0.00     0.024 C 
ATOM      3  C   UNL     1      43.789 133.668  17.765  1.00  0.00     0.024 C 
ENDROOT
BRANCH   1   4
ATOM      4  S   UNL     1      42.382 134.441  15.557  1.00  0.00    -0.119 SA
BRANCH   4   5
ATOM      5  C   UNL     1      40.612 134.821  15.660  1.00  0.00     0.008 A 
ATOM      6  C   UNL     1      38.386 136.331  18.814  1.00  0.00    -0.000 A 
ATOM      7  C   UNL     1      39.757 136.697  18.591  1.00  0.00     0.018 A 
ATOM      8  C   UNL     1      37.608 135.638  17.861  1.00  0.00    -0.040 A 
ATOM      9  C   UNL     1      40.601 136.534  17.457  1.00  0.00     0.039 A 
ATOM     10  C   UNL     1      38.054 134.509  17.231  1.00  0.00     0.007 A 
ATOM     11  C   UNL     1      36.531 136.294  17.037  1.00  0.00     0.041 C 
ATOM     12  C   UNL     1      40.151 136.037  16.234  1.00  0.00     0.025 A 
ATOM     13  C   UNL     1      37.577 134.480  15.941  1.00  0.00    -0.047 A 
ATOM     14  C   UNL     1      36.402 135.389  15.808  1.00  0.00     0.040 C 
ATOM     15  C   UNL     1      38.349 134.064  14.849  1.00  0.00     0.005 A 
ATOM     16  C   UNL     1      39.762 134.052  14.828  1.00  0.00     0.015 A 
BRANCH   6  17
ATOM     17  C   UNL     1      37.767 136.554  20.218  1.00  0.00     0.155 C 
BRANCH  17  18
ATOM     18  C   UNL     1      38.340 137.780  20.834  1.00  0.00    -0.066 C 
ATOM     19  C   UNL     1      38.805 138.782  21.319  1.00  0.00     0.007 C 
ENDBRANCH  17  18
BRANCH  17  20
ATOM     20  O   UNL     1      36.377 136.750  20.096  1.00  0.00    -0.373 OA
ATOM     21  H   UNL     1      35.944 135.873  19.915  1.00  0.00     0.213 HD
ENDBRANCH  17  20
BRANCH  17  22
ATOM     22  C   UNL     1      37.990 135.305  21.176  1.00  0.00     0.006 C 
ATOM     23  C   UNL     1      36.972 134.180  20.869  1.00  0.00     0.015 C 
ATOM     24  C   UNL     1      37.782 135.729  22.659  1.00  0.00     0.015 C 
ATOM     25  C   UNL     1      39.414 134.703  21.058  1.00  0.00     0.015 C 
ENDBRANCH  17  22
ENDBRANCH   6  17
BRANCH   9  26
ATOM     26  N   UNL     1      41.972 136.911  17.621  1.00  0.00    -0.061 NA
BRANCH  26  27
ATOM     27  N   UNL     1      42.438 137.921  17.098  1.00  0.00     0.005 N 
ATOM     28  N   UNL     1      42.904 138.923  16.562  1.00  0.00    -0.003 NA
ENDBRANCH  26  27
ENDBRANCH   9  26
ENDBRANCH   4   5
ENDBRANCH   1   4
BRANCH   1  29
ATOM     29  C   UNL     1      43.081 131.742  16.277  1.00  0.00     0.098 C 
BRANCH  29  30
ATOM     30  N   UNL     1      43.960 131.777  15.090  1.00  0.00    -0.312 NA
ATOM     31  H   UNL     1      44.741 132.456  15.234  1.00  0.00     0.122 HD
BRANCH  30  32
ATOM     32  C   UNL     1      44.587 130.469  14.812  1.00  0.00     0.120 C 
BRANCH  32  33
ATOM     33  C   UNL     1      45.948 130.580  14.066  1.00  0.00     0.092 C 
ATOM     34  C   UNL     1      46.689 131.850  14.520  1.00  0.00     0.048 C 
BRANCH  33  35
ATOM     35  O   UNL     1      45.733 130.638  12.675  1.00  0.00    -0.385 OA
ATOM     36  H   UNL     1      45.318 129.780  12.391  1.00  0.00     0.211 HD
ENDBRANCH  33  35
BRANCH  33  37
ATOM     37  C   UNL     1      46.792 129.361  14.394  1.00  0.00     0.001 C 
ATOM     38  C   UNL     1      47.887 129.048  13.688  1.00  0.00     0.007 C 
ENDBRANCH  33  37
ENDBRANCH  32  33
ENDBRANCH  30  32
ENDBRANCH  29  30
ENDBRANCH   1  29
TORSDOF 14
ENDMDL
MODEL 2
REMARK VINA RESULT:      -5.2      2.651      4.804
REMARK SMILES C#C[C@@](O)(c1cc(N=[N+]=[N-])cc(SC(C)(C)CNC[C@](C)(O)C=C)ccc2cc1CC2)C(C)(C)C
REMARK SMILES IDX 14 1 15 2 16 3 13 4 12 5 5 6 6 7 29 8 7 9 28 10 30 11 11 12
REMARK SMILES IDX 27 13 31 14 26 15 25 16 3 17 2 18 1 19 4 20 32 22 33 23
REMARK SMILES IDX 34 24 35 25 8 26 9 27 10 28 17 29 18 30 19 32 20 33 21 34
REMARK SMILES IDX 22 35 23 37 24 38
REMARK H PARENT 4 21 18 31 22 36
ROOT
ATOM      1  C   UNL     1      39.664 134.419  14.718  1.00  0.00     0.027 C 
ATOM      2  C   UNL     1      38.452 134.034  13.849  1.00  0.00     0.024 C 
ATOM      3  C   UNL     1      39.525 133.651  16.047  1.00  0.00     0.024 C 
ENDROOT
BRANCH   1   4
ATOM      4  S   UNL     1      39.587 136.225  15.143  1.00  0.00    -0.119 SA
BRANCH   4   5
ATOM      5  C   UNL     1      39.690 136.296  16.951  1.00  0.00     0.008 A 
ATOM      6  C   UNL     1      42.682 134.993  19.507  1.00  0.00    -0.000 A 
ATOM      7  C   UNL     1      42.957 135.508  18.195  1.00  0.00     0.018 A 
ATOM      8  C   UNL     1      41.424 135.116  20.136  1.00  0.00    -0.040 A 
ATOM      9  C   UNL     1      42.149 136.248  17.287  1.00  0.00     0.039 A 
ATOM     10  C   UNL     1      40.254 134.789  19.505  1.00  0.00     0.007 A 
ATOM     11  C   UNL     1      41.148 136.082  21.259  1.00  0.00     0.041 C 
ATOM     12  C   UNL     1      40.877 136.722  17.606  1.00  0.00     0.025 A 
ATOM     13  C   UNL     1      39.254 135.640  19.916  1.00  0.00    -0.047 A 
ATOM     14  C   UNL     1      39.632 136.294  21.202  1.00  0.00     0.040 C 
ATOM     15  C   UNL     1      38.292 136.168  19.045  1.00  0.00     0.005 A 
ATOM     16  C   UNL     1      38.455 136.274  17.645  1.00  0.00     0.015 A 
BRANCH   6  17
ATOM     17  C   UNL     1      43.753 134.122  20.213  1.00  0.00     0.155 C 
BRANCH  17  18
ATOM     18  C   UNL     1      43.098 132.986  20.915  1.00  0.00    -0.066 C 
ATOM     19  C   UNL     1      42.581 132.056  21.483  1.00  0.00     0.007 C 
ENDBRANCH  17  18
BRANCH  17  20
ATOM     20  O   UNL     1      44.630 133.580  19.251  1.00  0.00    -0.373 OA
ATOM     21  H   UNL     1      44.865 132.652  19.518  1.00  0.00     0.213 HD
ENDBRANCH  17  20
BRANCH  17  22
ATOM     22  C   UNL     1      44.631 134.965  21.237  1.00  0.00     0.006 C 
ATOM     23  C   UNL     1      44.768 136.436  20.773  1.00  0.00     0.015 C 
ATOM     24  C   UNL     1      46.066 134.368  21.321  1.00  0.00     0.015 C 
ATOM     25  C   UNL     1      44.042 134.971  22.671  1.00  0.00     0.015 C 
ENDBRANCH  17  22
ENDBRANCH   6  17
BRANCH   9  26
ATOM     26  N   UNL     1      42.707 136.498  15.992  1.00  0.00    -0.061 NA
BRANCH  26  27
ATOM     27  N   UNL     1      42.684 137.613  15.476  1.00  0.00     0.005 N 
ATOM     28  N   UNL     1      42.649 138.731  14.969  1.00  0.00    -0.003 NA
ENDBRANCH  26  27
ENDBRANCH   9  26
ENDBRANCH   4   5
ENDBRANCH   1   4
BRANCH   1  29
ATOM     29  C   UNL     1      40.956 133.973  13.980  1.00  0.00     0.098 C 
BRANCH  29  30
ATOM     30  N   UNL     1      41.757 132.950  14.682  1.00  0.00    -0.312 NA
ATOM     31  H   UNL     1      41.800 132.070  14.121  1.00  0.00     0.122 HD
BRANCH  30  32
ATOM     32  C   UNL     1      43.154 133.377  14.899  1.00  0.00     0.120 C 
BRANCH  32  33
ATOM     33  C   UNL     1      44.101 132.214  15.313  1.00  0.00     0.092 C 
ATOM     34  C   UNL     1      43.624 131.603  16.643  1.00  0.00     0.048 C 
BRANCH  33  35
ATOM     35  O   UNL     1      45.417 132.692  15.465  1.00  0.00    -0.385 OA
ATOM     36  H   UNL     1      45.371 133.602  15.864  1.00  0.00     0.211 HD
ENDBRANCH  33  35
BRANCH  33  37
ATOM     37  C   UNL     1      44.075 131.148  14.233  1.00  0.00     0.001 C 
ATOM     38  C   UNL     1      45.201 130.609  13.744  1.00  0.00     0.007 C 
ENDBRANCH  33  37
ENDBRANCH  32  33
ENDBRANCH  30  32
ENDBRANCH  29  30
ENDBRANCH   1  29
TORSDOF 14
ENDMDL
MODEL 3
REMARK VINA RESULT:      -5.1      4.407      6.482
REMARK SMILES C#C[C@@](O)(c1cc(N=[N+]=[N-])cc(SC(C)(C)CNC[C@](C)(O)C=C)ccc2cc1CC2)C(C)(C)C
REMARK SMILES IDX 14 1 15 2 16 3 13 4 12 5 5 6 6 7 29 8 7 9 28 10 30 11 11 12
REMARK SMILES IDX 27 13 31 14 26 15 25 16 3 17 2 18 1 19 4 20 32 22 33 23
REMARK SMILES IDX 34 24 35 25 8 26 9 27 10 28 17 29 18 30 19 32 20 33 21 34
REMARK SMILES IDX 22 35 23 37 24 38
REMARK H PARENT 4 21 18 31 22 36
ROOT
ATOM      1  C   UNL     1      44.340 132.217  17.605  1.00  0.00     0.027 C 
ATOM      2  C   UNL     1      44.106 130.761  17.159  1.00  0.00     0.024 C 
ATOM      3  C   UNL     1      44.911 132.163  19.036  1.00  0.00     0.024 C 
ENDROOT
BRANCH   1   4
ATOM      4  S   UNL     1      42.716 133.110  17.720  1.00  0.00    -0.119 SA
BRANCH   4   5
ATOM      5  C   UNL     1      42.694 133.853  19.373  1.00  0.00     0.008 A 
ATOM      6  C   UNL     1      45.441 136.356  21.210  1.00  0.00    -0.000 A 
ATOM      7  C   UNL     1      45.192 136.388  19.796  1.00  0.00     0.018 A 
ATOM      8  C   UNL     1      44.614 135.667  22.124  1.00  0.00    -0.040 A 
ATOM      9  C   UNL     1      44.134 135.843  19.015  1.00  0.00     0.039 A 
ATOM     10  C   UNL     1      44.222 134.371  21.924  1.00  0.00     0.007 A 
ATOM     11  C   UNL     1      43.650 136.358  23.053  1.00  0.00     0.041 C 
ATOM     12  C   UNL     1      43.015 135.224  19.570  1.00  0.00     0.025 A 
ATOM     13  C   UNL     1      42.947 134.194  22.411  1.00  0.00    -0.047 A 
ATOM     14  C   UNL     1      42.611 135.279  23.377  1.00  0.00     0.040 C 
ATOM     15  C   UNL     1      41.975 133.430  21.751  1.00  0.00     0.005 A 
ATOM     16  C   UNL     1      41.998 133.128  20.371  1.00  0.00     0.015 A 
BRANCH   6  17
ATOM     17  C   UNL     1      46.759 136.964  21.755  1.00  0.00     0.155 C 
BRANCH  17  18
ATOM     18  C   UNL     1      47.519 137.600  20.647  1.00  0.00    -0.066 C 
ATOM     19  C   UNL     1      48.133 138.103  19.739  1.00  0.00     0.007 C 
ENDBRANCH  17  18
BRANCH  17  20
ATOM     20  O   UNL     1      46.462 137.967  22.700  1.00  0.00    -0.373 OA
ATOM     21  H   UNL     1      45.780 137.619  23.334  1.00  0.00     0.213 HD
ENDBRANCH  17  20
BRANCH  17  22
ATOM     22  C   UNL     1      47.663 135.877  22.485  1.00  0.00     0.006 C 
ATOM     23  C   UNL     1      47.047 135.463  23.844  1.00  0.00     0.015 C 
ATOM     24  C   UNL     1      49.074 136.466  22.773  1.00  0.00     0.015 C 
ATOM     25  C   UNL     1      47.856 134.591  21.640  1.00  0.00     0.015 C 
ENDBRANCH  17  22
ENDBRANCH   6  17
BRANCH   9  26
ATOM     26  N   UNL     1      44.263 135.959  17.594  1.00  0.00    -0.061 NA
BRANCH  26  27
ATOM     27  N   UNL     1      43.509 136.661  16.925  1.00  0.00     0.005 N 
ATOM     28  N   UNL     1      42.743 137.359  16.266  1.00  0.00    -0.003 NA
ENDBRANCH  26  27
ENDBRANCH   9  26
ENDBRANCH   4   5
ENDBRANCH   1   4
BRANCH   1  29
ATOM     29  C   UNL     1      45.376 132.862  16.645  1.00  0.00     0.098 C 
BRANCH  29  30
ATOM     30  N   UNL     1      45.337 132.366  15.254  1.00  0.00    -0.312 NA
ATOM     31  H   UNL     1      45.494 133.149  14.581  1.00  0.00     0.122 HD
BRANCH  30  32
ATOM     32  C   UNL     1      46.385 131.362  14.982  1.00  0.00     0.120 C 
BRANCH  32  33
ATOM     33  C   UNL     1      45.936 130.246  13.996  1.00  0.00     0.092 C 
ATOM     34  C   UNL     1      44.450 130.434  13.640  1.00  0.00     0.048 C 
BRANCH  33  35
ATOM     35  O   UNL     1      46.118 128.980  14.583  1.00  0.00    -0.385 OA
ATOM     36  H   UNL     1      45.712 128.998  15.491  1.00  0.00     0.211 HD
ENDBRANCH  33  35
BRANCH  33  37
ATOM     37  C   UNL     1      46.771 130.339  12.731  1.00  0.00     0.001 C 
ATOM     38  C   UNL     1      47.883 131.086  12.671  1.00  0.00     0.007 C 
ENDBRANCH  33  37
ENDBRANCH  32  33
ENDBRANCH  30  32
ENDBRANCH  29  30
ENDBRANCH   1  29
TORSDOF 14
ENDMDL
MODEL 4
REMARK VINA RESULT:      -5.0      2.655      3.809
REMARK SMILES C#C[C@@](O)(c1cc(N=[N+]=[N-])cc(SC(C)(C)CNC[C@](C)(O)C=C)ccc2cc1CC2)C(C)(C)C
REMARK SMILES IDX 14 1 15 2 16 3 13 4 12 5 5 6 6 7 29 8 7 9 28 10 30 11 11 12
REMARK SMILES IDX 27 13 31 14 26 15 25 16 3 17 2 18 1 19 4 20 32 22 33 23
REMARK SMILES IDX 34 24 35 25 8 26 9 27 10 28 17 29 18 30 19 32 20 33 21 34
REMARK SMILES IDX 22 35 23 37 24 38
REMARK H PARENT 4 21 18 31 22 36
ROOT
ATOM      1  C   UNL     1      42.975 132.796  16.061  1.00  0.00     0.027 C 
ATOM      2  C   UNL     1      41.654 133.587  16.093  1.00  0.00     0.024 C 
ATOM      3  C   UNL     1      42.986 131.890  17.309  1.00  0.00     0.024 C 
ENDROOT
BRANCH   1   4
ATOM      4  S   UNL     1      44.411 133.961  16.244  1.00  0.00    -0.119 SA
BRANCH   4   5
ATOM      5  C   UNL     1      43.671 135.596  16.499  1.00  0.00     0.008 A 
ATOM      6  C   UNL     1      41.256 136.982  19.571  1.00  0.00    -0.000 A 
ATOM      7  C   UNL     1      42.286 136.004  19.779  1.00  0.00     0.018 A 
ATOM      8  C   UNL     1      41.138 137.736  18.383  1.00  0.00    -0.040 A 
ATOM      9  C   UNL     1      43.383 135.604  18.965  1.00  0.00     0.039 A 
ATOM     10  C   UNL     1      41.170 137.159  17.142  1.00  0.00     0.007 A 
ATOM     11  C   UNL     1      41.519 139.190  18.282  1.00  0.00     0.041 C 
ATOM     12  C   UNL     1      43.716 136.236  17.768  1.00  0.00     0.025 A 
ATOM     13  C   UNL     1      41.791 138.007  16.254  1.00  0.00    -0.047 A 
ATOM     14  C   UNL     1      41.794 139.399  16.789  1.00  0.00     0.040 C 
ATOM     15  C   UNL     1      42.686 137.564  15.272  1.00  0.00     0.005 A 
ATOM     16  C   UNL     1      43.394 136.342  15.328  1.00  0.00     0.015 A 
BRANCH   6  17
ATOM     17  C   UNL     1      40.121 137.115  20.619  1.00  0.00     0.155 C 
BRANCH  17  18
ATOM     18  C   UNL     1      38.832 137.396  19.934  1.00  0.00    -0.066 C 
ATOM     19  C   UNL     1      37.790 137.614  19.367  1.00  0.00     0.007 C 
ENDBRANCH  17  18
BRANCH  17  20
ATOM     20  O   UNL     1      39.977 135.898  21.315  1.00  0.00    -0.373 OA
ATOM     21  H   UNL     1      40.857 135.436  21.340  1.00  0.00     0.213 HD
ENDBRANCH  17  20
BRANCH  17  22
ATOM     22  C   UNL     1      40.428 138.246  21.694  1.00  0.00     0.006 C 
ATOM     23  C   UNL     1      41.954 138.424  21.894  1.00  0.00     0.015 C 
ATOM     24  C   UNL     1      39.822 137.848  23.070  1.00  0.00     0.015 C 
ATOM     25  C   UNL     1      39.836 139.624  21.303  1.00  0.00     0.015 C 
ENDBRANCH  17  22
ENDBRANCH   6  17
BRANCH   9  26
ATOM     26  N   UNL     1      44.157 134.495  19.434  1.00  0.00    -0.061 NA
BRANCH  26  27
ATOM     27  N   UNL     1      44.752 134.523  20.509  1.00  0.00     0.005 N 
ATOM     28  N   UNL     1      45.347 134.566  21.583  1.00  0.00    -0.003 NA
ENDBRANCH  26  27
ENDBRANCH   9  26
ENDBRANCH   4   5
ENDBRANCH   1   4
BRANCH   1  29
ATOM     29  C   UNL     1      42.996 131.928  14.775  1.00  0.00     0.098 C 
BRANCH  29  30
ATOM     30  N   UNL     1      44.314 131.813  14.116  1.00  0.00    -0.312 NA
ATOM     31  H   UNL     1      45.010 132.438  14.581  1.00  0.00     0.122 HD
BRANCH  30  32
ATOM     32  C   UNL     1      44.865 130.445  14.189  1.00  0.00     0.120 C 
BRANCH  32  33
ATOM     33  C   UNL     1      46.388 130.406  14.505  1.00  0.00     0.092 C 
ATOM     34  C   UNL     1      46.859 128.945  14.614  1.00  0.00     0.048 C 
BRANCH  33  35
ATOM     35  O   UNL     1      46.648 131.072  15.718  1.00  0.00    -0.385 OA
ATOM     36  H   UNL     1      45.794 131.139  16.223  1.00  0.00     0.211 HD
ENDBRANCH  33  35
BRANCH  33  37
ATOM     37  C   UNL     1      47.142 131.094  13.381  1.00  0.00     0.001 C 
ATOM     38  C   UNL     1      47.113 130.633  12.123  1.00  0.00     0.007 C 
ENDBRANCH  33  37
ENDBRANCH  32  33
ENDBRANCH  30  32
ENDBRANCH  29  30
ENDBRANCH   1  29
TORSDOF 14
ENDMDL
MODEL 5
REMARK VINA RESULT:      -4.9      3.713      6.487
REMARK SMILES C#C[C@@](O)(c1cc(N=[N+]=[N-])cc(SC(C)(C)CNC[C@](C)(O)C=C)ccc2cc1CC2)C(C)(C)C
REMARK SMILES IDX 14 1 15 2 16 3 13 4 12 5 5 6 6 7 29 8 7 9 28 10 30 11 11 12
REMARK SMILES IDX 27 13 31 14 26 15 25 16 3 17 2 18 1 19 4 20 32 22 33 23
REMARK SMILES IDX 34 24 35 25 8 26 9 27 10 28 17 29 18 30 19 32 20 33 21 34
REMARK SMILES IDX 22 35 23 37 24 38
REMARK H PARENT 4 21 18 31 22 36
ROOT
ATOM      1  C   UNL     1      44.809 130.984  14.862  1.00  0.00     0.027 C 
ATOM      2  C   UNL     1      44.935 129.659  15.637  1.00  0.00     0.024 C 
ATOM      3  C   UNL     1      45.606 130.816  13.553  1.00  0.00     0.024 C 
ENDROOT
BRANCH   1   4
ATOM      4  S   UNL     1      45.638 132.350  15.810  1.00  0.00    -0.119 SA
BRANCH   4   5
ATOM      5  C   UNL     1      44.955 132.250  17.487  1.00  0.00     0.008 A 
ATOM      6  C   UNL     1      43.986 135.270  20.157  1.00  0.00    -0.000 A 
ATOM      7  C   UNL     1      43.856 135.425  18.735  1.00  0.00     0.018 A 
ATOM      8  C   UNL     1      44.208 134.022  20.780  1.00  0.00    -0.040 A 
ATOM      9  C   UNL     1      43.857 134.469  17.681  1.00  0.00     0.039 A 
ATOM     10  C   UNL     1      45.177 133.154  20.358  1.00  0.00     0.007 A 
ATOM     11  C   UNL     1      43.142 133.272  21.536  1.00  0.00     0.041 C 
ATOM     12  C   UNL     1      43.885 133.092  17.898  1.00  0.00     0.025 A 
ATOM     13  C   UNL     1      44.742 131.859  20.522  1.00  0.00    -0.047 A 
ATOM     14  C   UNL     1      43.615 131.816  21.497  1.00  0.00     0.040 C 
ATOM     15  C   UNL     1      44.977 130.848  19.581  1.00  0.00     0.005 A 
ATOM     16  C   UNL     1      45.267 131.078  18.217  1.00  0.00     0.015 A 
BRANCH   6  17
ATOM     17  C   UNL     1      44.051 136.537  21.049  1.00  0.00     0.155 C 
BRANCH  17  18
ATOM     18  C   UNL     1      43.436 137.688  20.337  1.00  0.00    -0.066 C 
ATOM     19  C   UNL     1      42.951 138.626  19.753  1.00  0.00     0.007 C 
ENDBRANCH  17  18
BRANCH  17  20
ATOM     20  O   UNL     1      43.312 136.321  22.230  1.00  0.00    -0.373 OA
ATOM     21  H   UNL     1      42.867 137.171  22.489  1.00  0.00     0.213 HD
ENDBRANCH  17  20
BRANCH  17  22
ATOM     22  C   UNL     1      45.541 136.891  21.477  1.00  0.00     0.006 C 
ATOM     23  C   UNL     1      46.512 136.756  20.278  1.00  0.00     0.015 C 
ATOM     24  C   UNL     1      46.024 135.907  22.581  1.00  0.00     0.015 C 
ATOM     25  C   UNL     1      45.679 138.329  22.040  1.00  0.00     0.015 C 
ENDBRANCH  17  22
ENDBRANCH   6  17
BRANCH   9  26
ATOM     26  N   UNL     1      43.827 134.988  16.347  1.00  0.00    -0.061 NA
BRANCH  26  27
ATOM     27  N   UNL     1      43.402 136.113  16.094  1.00  0.00     0.005 N 
ATOM     28  N   UNL     1      42.968 137.232  15.833  1.00  0.00    -0.003 NA
ENDBRANCH  26  27
ENDBRANCH   9  26
ENDBRANCH   4   5
ENDBRANCH   1   4
BRANCH   1  29
ATOM     29  C   UNL     1      43.309 131.225  14.543  1.00  0.00     0.098 C 
BRANCH  29  30
ATOM     30  N   UNL     1      42.824 132.596  14.802  1.00  0.00    -0.312 NA
ATOM     31  H   UNL     1      43.621 133.272  14.797  1.00  0.00     0.122 HD
BRANCH  30  32
ATOM     32  C   UNL     1      41.872 133.063  13.775  1.00  0.00     0.120 C 
BRANCH  32  33
ATOM     33  C   UNL     1      40.625 133.782  14.366  1.00  0.00     0.092 C 
ATOM     34  C   UNL     1      40.699 133.771  15.904  1.00  0.00     0.048 C 
BRANCH  33  35
ATOM     35  O   UNL     1      39.448 133.129  13.951  1.00  0.00    -0.385 OA
ATOM     36  H   UNL     1      39.329 133.295  12.978  1.00  0.00     0.211 HD
ENDBRANCH  33  35
BRANCH  33  37
ATOM     37  C   UNL     1      40.604 135.218  13.874  1.00  0.00     0.001 C 
ATOM     38  C   UNL     1      39.473 135.807  13.462  1.00  0.00     0.007 C 
ENDBRANCH  33  37
ENDBRANCH  32  33
ENDBRANCH  30  32
ENDBRANCH  29  30
ENDBRANCH   1  29
TORSDOF 14
ENDMDL
MODEL 6
REMARK VINA RESULT:      -4.9      1.923      2.703
REMARK SMILES C#C[C@@](O)(c1cc(N=[N+]=[N-])cc(SC(C)(C)CNC[C@](C)(O)C=C)ccc2cc1CC2)C(C)(C)C
REMARK SMILES IDX 14 1 15 2 16 3 13 4 12 5 5 6 6 7 29 8 7 9 28 10 30 11 11 12
REMARK SMILES IDX 27 13 31 14 26 15 25 16 3 17 2 18 1 19 4 20 32 22 33 23
REMARK SMILES IDX 34 24 35 25 8 26 9 27 10 28 17 29 18 30 19 32 20 33 21 34
REMARK SMILES IDX 22 35 23 37 24 38
REMARK H PARENT 4 21 18 31 22 36
ROOT
ATOM      1  C   UNL     1      44.106 131.935  17.100  1.00  0.00     0.027 C 
ATOM      2  C   UNL     1      42.624 131.559  17.286  1.00  0.00     0.024 C 
ATOM      3  C   UNL     1      44.708 132.100  18.509  1.00  0.00     0.024 C 
ENDROOT
BRANCH   1   4
ATOM      4  S   UNL     1      44.235 133.595  16.275  1.00  0.00    -0.119 SA
BRANCH   4   5
ATOM      5  C   UNL     1      42.525 134.152  16.052  1.00  0.00     0.008 A 
ATOM      6  C   UNL     1      39.621 135.051  18.871  1.00  0.00    -0.000 A 
ATOM      7  C   UNL     1      41.019 135.289  19.099  1.00  0.00     0.018 A 
ATOM      8  C   UNL     1      39.090 134.735  17.602  1.00  0.00    -0.040 A 
ATOM      9  C   UNL     1      42.125 135.323  18.204  1.00  0.00     0.039 A 
ATOM     10  C   UNL     1      39.627 133.763  16.804  1.00  0.00     0.007 A 
ATOM     11  C   UNL     1      38.307 135.712  16.764  1.00  0.00     0.041 C 
ATOM     12  C   UNL     1      41.992 135.224  16.820  1.00  0.00     0.025 A 
ATOM     13  C   UNL     1      39.510 134.132  15.484  1.00  0.00    -0.047 A 
ATOM     14  C   UNL     1      38.463 135.183  15.335  1.00  0.00     0.040 C 
ATOM     15  C   UNL     1      40.523 133.923  14.538  1.00  0.00     0.005 A 
ATOM     16  C   UNL     1      41.888 133.740  14.856  1.00  0.00     0.015 A 
BRANCH   6  17
ATOM     17  C   UNL     1      38.663 134.975  20.088  1.00  0.00     0.155 C 
BRANCH  17  18
ATOM     18  C   UNL     1      37.406 134.284  19.699  1.00  0.00    -0.066 C 
ATOM     19  C   UNL     1      36.378 133.737  19.382  1.00  0.00     0.007 C 
ENDBRANCH  17  18
BRANCH  17  20
ATOM     20  O   UNL     1      39.264 134.220  21.116  1.00  0.00    -0.373 OA
ATOM     21  H   UNL     1      39.424 134.812  21.898  1.00  0.00     0.213 HD
ENDBRANCH  17  20
BRANCH  17  22
ATOM     22  C   UNL     1      38.336 136.413  20.683  1.00  0.00     0.006 C 
ATOM     23  C   UNL     1      37.237 136.328  21.771  1.00  0.00     0.015 C 
ATOM     24  C   UNL     1      37.804 137.345  19.557  1.00  0.00     0.015 C 
ATOM     25  C   UNL     1      39.575 137.100  21.312  1.00  0.00     0.015 C 
ENDBRANCH  17  22
ENDBRANCH   6  17
BRANCH   9  26
ATOM     26  N   UNL     1      43.421 135.470  18.795  1.00  0.00    -0.061 NA
BRANCH  26  27
ATOM     27  N   UNL     1      43.656 135.119  19.949  1.00  0.00     0.005 N 
ATOM     28  N   UNL     1      43.896 134.754  21.097  1.00  0.00    -0.003 NA
ENDBRANCH  26  27
ENDBRANCH   9  26
ENDBRANCH   4   5
ENDBRANCH   1   4
BRANCH   1  29
ATOM     29  C   UNL     1      44.816 130.775  16.351  1.00  0.00     0.098 C 
BRANCH  29  30
ATOM     30  N   UNL     1      44.258 130.452  15.022  1.00  0.00    -0.312 NA
ATOM     31  H   UNL     1      43.371 130.980  14.860  1.00  0.00     0.122 HD
BRANCH  30  32
ATOM     32  C   UNL     1      45.171 130.820  13.921  1.00  0.00     0.120 C 
BRANCH  32  33
ATOM     33  C   UNL     1      46.667 130.520  14.229  1.00  0.00     0.092 C 
ATOM     34  C   UNL     1      46.866 129.006  14.416  1.00  0.00     0.048 C 
BRANCH  33  35
ATOM     35  O   UNL     1      47.062 131.191  15.403  1.00  0.00    -0.385 OA
ATOM     36  H   UNL     1      47.937 130.817  15.693  1.00  0.00     0.211 HD
ENDBRANCH  33  35
BRANCH  33  37
ATOM     37  C   UNL     1      47.516 130.999  13.066  1.00  0.00     0.001 C 
ATOM     38  C   UNL     1      47.273 130.611  11.806  1.00  0.00     0.007 C 
ENDBRANCH  33  37
ENDBRANCH  32  33
ENDBRANCH  30  32
ENDBRANCH  29  30
ENDBRANCH   1  29
TORSDOF 14
ENDMDL
MODEL 7
REMARK VINA RESULT:      -4.9      3.692      5.676
REMARK SMILES C#C[C@@](O)(c1cc(N=[N+]=[N-])cc(SC(C)(C)CNC[C@](C)(O)C=C)ccc2cc1CC2)C(C)(C)C
REMARK SMILES IDX 14 1 15 2 16 3 13 4 12 5 5 6 6 7 29 8 7 9 28 10 30 11 11 12
REMARK SMILES IDX 27 13 31 14 26 15 25 16 3 17 2 18 1 19 4 20 32 22 33 23
REMARK SMILES IDX 34 24 35 25 8 26 9 27 10 28 17 29 18 30 19 32 20 33 21 34
REMARK SMILES IDX 22 35 23 37 24 38
REMARK H PARENT 4 21 18 31 22 36
ROOT
ATOM      1  C   UNL     1      43.592 133.848  16.286  1.00  0.00     0.027 C 
ATOM      2  C   UNL     1      43.558 134.823  17.478  1.00  0.00     0.024 C 
ATOM      3  C   UNL     1      42.583 134.374  15.246  1.00  0.00     0.024 C 
ENDROOT
BRANCH   1   4
ATOM      4  S   UNL     1      42.976 132.178  16.819  1.00  0.00    -0.119 SA
BRANCH   4   5
ATOM      5  C   UNL     1      43.544 131.983  18.530  1.00  0.00     0.008 A 
ATOM      6  C   UNL     1      42.709 134.257  21.894  1.00  0.00    -0.000 A 
ATOM      7  C   UNL     1      41.756 134.061  20.838  1.00  0.00     0.018 A 
ATOM      8  C   UNL     1      43.899 133.506  22.008  1.00  0.00    -0.040 A 
ATOM      9  C   UNL     1      41.719 133.126  19.765  1.00  0.00     0.039 A 
ATOM     10  C   UNL     1      44.750 133.317  20.954  1.00  0.00     0.007 A 
ATOM     11  C   UNL     1      44.096 132.415  23.028  1.00  0.00     0.041 C 
ATOM     12  C   UNL     1      42.641 132.090  19.623  1.00  0.00     0.025 A 
ATOM     13  C   UNL     1      45.315 132.065  21.033  1.00  0.00    -0.047 A 
ATOM     14  C   UNL     1      45.194 131.535  22.421  1.00  0.00     0.040 C 
ATOM     15  C   UNL     1      45.514 131.243  19.916  1.00  0.00     0.005 A 
ATOM     16  C   UNL     1      44.806 131.364  18.699  1.00  0.00     0.015 A 
BRANCH   6  17
ATOM     17  C   UNL     1      42.518 135.449  22.868  1.00  0.00     0.155 C 
BRANCH  17  18
ATOM     18  C   UNL     1      41.107 135.915  22.827  1.00  0.00    -0.066 C 
ATOM     19  C   UNL     1      39.959 136.285  22.808  1.00  0.00     0.007 C 
ENDBRANCH  17  18
BRANCH  17  20
ATOM     20  O   UNL     1      42.791 135.030  24.186  1.00  0.00    -0.373 OA
ATOM     21  H   UNL     1      42.011 135.252  24.761  1.00  0.00     0.213 HD
ENDBRANCH  17  20
BRANCH  17  22
ATOM     22  C   UNL     1      43.502 136.654  22.538  1.00  0.00     0.006 C 
ATOM     23  C   UNL     1      43.016 137.966  23.200  1.00  0.00     0.015 C 
ATOM     24  C   UNL     1      43.548 136.896  21.002  1.00  0.00     0.015 C 
ATOM     25  C   UNL     1      44.955 136.391  23.013  1.00  0.00     0.015 C 
ENDBRANCH  17  22
ENDBRANCH   6  17
BRANCH   9  26
ATOM     26  N   UNL     1      40.667 133.292  18.808  1.00  0.00    -0.061 NA
BRANCH  26  27
ATOM     27  N   UNL     1      39.809 134.164  18.926  1.00  0.00     0.005 N 
ATOM     28  N   UNL     1      38.950 135.035  19.029  1.00  0.00    -0.003 NA
ENDBRANCH  26  27
ENDBRANCH   9  26
ENDBRANCH   4   5
ENDBRANCH   1   4
BRANCH   1  29
ATOM     29  C   UNL     1      45.024 133.857  15.687  1.00  0.00     0.098 C 
BRANCH  29  30
ATOM     30  N   UNL     1      45.660 132.529  15.560  1.00  0.00    -0.312 NA
ATOM     31  H   UNL     1      45.621 132.017  16.470  1.00  0.00     0.122 HD
BRANCH  30  32
ATOM     32  C   UNL     1      44.984 131.671  14.567  1.00  0.00     0.120 C 
BRANCH  32  33
ATOM     33  C   UNL     1      45.896 130.548  13.994  1.00  0.00     0.092 C 
ATOM     34  C   UNL     1      47.355 130.799  14.413  1.00  0.00     0.048 C 
BRANCH  33  35
ATOM     35  O   UNL     1      45.811 130.528  12.588  1.00  0.00    -0.385 OA
ATOM     36  H   UNL     1      46.645 130.929  12.222  1.00  0.00     0.211 HD
ENDBRANCH  33  35
BRANCH  33  37
ATOM     37  C   UNL     1      45.438 129.210  14.545  1.00  0.00     0.001 C 
ATOM     38  C   UNL     1      45.290 129.000  15.860  1.00  0.00     0.007 C 
ENDBRANCH  33  37
ENDBRANCH  32  33
ENDBRANCH  30  32
ENDBRANCH  29  30
ENDBRANCH   1  29
TORSDOF 14
ENDMDL
MODEL 8
REMARK VINA RESULT:      -4.8      3.428      7.319
REMARK SMILES C#C[C@@](O)(c1cc(N=[N+]=[N-])cc(SC(C)(C)CNC[C@](C)(O)C=C)ccc2cc1CC2)C(C)(C)C
REMARK SMILES IDX 14 1 15 2 16 3 13 4 12 5 5 6 6 7 29 8 7 9 28 10 30 11 11 12
REMARK SMILES IDX 27 13 31 14 26 15 25 16 3 17 2 18 1 19 4 20 32 22 33 23
REMARK SMILES IDX 34 24 35 25 8 26 9 27 10 28 17 29 18 30 19 32 20 33 21 34
REMARK SMILES IDX 22 35 23 37 24 38
REMARK H PARENT 4 21 18 31 22 36
ROOT
ATOM      1  C   UNL     1      41.287 134.312  14.736  1.00  0.00     0.027 C 
ATOM      2  C   UNL     1      41.754 132.973  14.133  1.00  0.00     0.024 C 
ATOM      3  C   UNL     1      40.182 134.859  13.810  1.00  0.00     0.024 C 
ENDROOT
BRANCH   1   4
ATOM      4  S   UNL     1      42.675 135.545  14.685  1.00  0.00    -0.119 SA
BRANCH   4   5
ATOM      5  C   UNL     1      42.989 135.983  16.415  1.00  0.00     0.008 A 
ATOM      6  C   UNL     1      43.790 133.555  19.679  1.00  0.00    -0.000 A 
ATOM      7  C   UNL     1      44.222 133.229  18.349  1.00  0.00     0.018 A 
ATOM      8  C   UNL     1      43.287 134.825  20.037  1.00  0.00    -0.040 A 
ATOM      9  C   UNL     1      44.307 134.017  17.167  1.00  0.00     0.039 A 
ATOM     10  C   UNL     1      42.316 135.460  19.311  1.00  0.00     0.007 A 
ATOM     11  C   UNL     1      44.072 135.833  20.835  1.00  0.00     0.041 C 
ATOM     12  C   UNL     1      44.056 135.389  17.144  1.00  0.00     0.025 A 
ATOM     13  C   UNL     1      42.536 136.818  19.332  1.00  0.00    -0.047 A 
ATOM     14  C   UNL     1      43.429 137.175  20.472  1.00  0.00     0.040 C 
ATOM     15  C   UNL     1      42.364 137.638  18.210  1.00  0.00     0.005 A 
ATOM     16  C   UNL     1      42.385 137.179  16.873  1.00  0.00     0.015 A 
BRANCH   6  17
ATOM     17  C   UNL     1      43.715 132.430  20.743  1.00  0.00     0.155 C 
BRANCH  17  18
ATOM     18  C   UNL     1      43.056 132.941  21.974  1.00  0.00    -0.066 C 
ATOM     19  C   UNL     1      42.527 133.371  22.969  1.00  0.00     0.007 C 
ENDBRANCH  17  18
BRANCH  17  20
ATOM     20  O   UNL     1      42.931 131.366  20.250  1.00  0.00    -0.373 OA
ATOM     21  H   UNL     1      43.253 131.124  19.342  1.00  0.00     0.213 HD
ENDBRANCH  17  20
BRANCH  17  22
ATOM     22  C   UNL     1      45.149 131.841  21.094  1.00  0.00     0.006 C 
ATOM     23  C   UNL     1      46.174 132.977  21.332  1.00  0.00     0.015 C 
ATOM     24  C   UNL     1      45.675 130.981  19.909  1.00  0.00     0.015 C 
ATOM     25  C   UNL     1      45.137 130.940  22.356  1.00  0.00     0.015 C 
ENDBRANCH  17  22
ENDBRANCH   6  17
BRANCH   9  26
ATOM     26  N   UNL     1      44.672 133.331  15.965  1.00  0.00    -0.061 NA
BRANCH  26  27
ATOM     27  N   UNL     1      45.339 132.299  15.980  1.00  0.00     0.005 N 
ATOM     28  N   UNL     1      46.008 131.269  15.979  1.00  0.00    -0.003 NA
ENDBRANCH  26  27
ENDBRANCH   9  26
ENDBRANCH   4   5
ENDBRANCH   1   4
BRANCH   1  29
ATOM     29  C   UNL     1      40.706 134.036  16.149  1.00  0.00     0.098 C 
BRANCH  29  30
ATOM     30  N   UNL     1      39.278 134.374  16.317  1.00  0.00    -0.312 NA
ATOM     31  H   UNL     1      38.787 133.627  16.860  1.00  0.00     0.122 HD
BRANCH  30  32
ATOM     32  C   UNL     1      39.078 135.633  17.063  1.00  0.00     0.120 C 
BRANCH  32  33
ATOM     33  C   UNL     1      37.982 135.536  18.162  1.00  0.00     0.092 C 
ATOM     34  C   UNL     1      36.904 136.608  17.918  1.00  0.00     0.048 C 
BRANCH  33  35
ATOM     35  O   UNL     1      38.554 135.731  19.434  1.00  0.00    -0.385 OA
ATOM     36  H   UNL     1      38.414 136.681  19.694  1.00  0.00     0.211 HD
ENDBRANCH  33  35
BRANCH  33  37
ATOM     37  C   UNL     1      37.344 134.160  18.103  1.00  0.00     0.001 C 
ATOM     38  C   UNL     1      36.915 133.531  19.206  1.00  0.00     0.007 C 
ENDBRANCH  33  37
ENDBRANCH  32  33
ENDBRANCH  30  32
ENDBRANCH  29  30
ENDBRANCH   1  29
TORSDOF 14
ENDMDL
MODEL 9
REMARK VINA RESULT:      -4.8      3.197      6.199
REMARK SMILES C#C[C@@](O)(c1cc(N=[N+]=[N-])cc(SC(C)(C)CNC[C@](C)(O)C=C)ccc2cc1CC2)C(C)(C)C
REMARK SMILES IDX 14 1 15 2 16 3 13 4 12 5 5 6 6 7 29 8 7 9 28 10 30 11 11 12
REMARK SMILES IDX 27 13 31 14 26 15 25 16 3 17 2 18 1 19 4 20 32 22 33 23
REMARK SMILES IDX 34 24 35 25 8 26 9 27 10 28 17 29 18 30 19 32 20 33 21 34
REMARK SMILES IDX 22 35 23 37 24 38
REMARK H PARENT 4 21 18 31 22 36
ROOT
ATOM      1  C   UNL     1      44.355 132.534  15.951  1.00  0.00     0.027 C 
ATOM      2  C   UNL     1      45.766 132.402  15.348  1.00  0.00     0.024 C 
ATOM      3  C   UNL     1      44.389 133.737  16.914  1.00  0.00     0.024 C 
ENDROOT
BRANCH   1   4
ATOM      4  S   UNL     1      43.970 131.041  16.988  1.00  0.00    -0.119 SA
BRANCH   4   5
ATOM      5  C   UNL     1      44.097 131.607  18.705  1.00  0.00     0.008 A 
ATOM      6  C   UNL     1      42.181 134.737  20.633  1.00  0.00    -0.000 A 
ATOM      7  C   UNL     1      41.559 133.979  19.584  1.00  0.00     0.018 A 
ATOM      8  C   UNL     1      43.377 134.338  21.268  1.00  0.00    -0.040 A 
ATOM      9  C   UNL     1      41.902 132.729  18.996  1.00  0.00     0.039 A 
ATOM     10  C   UNL     1      44.486 133.951  20.566  1.00  0.00     0.007 A 
ATOM     11  C   UNL     1      43.424 133.761  22.659  1.00  0.00     0.041 C 
ATOM     12  C   UNL     1      42.938 131.922  19.465  1.00  0.00     0.025 A 
ATOM     13  C   UNL     1      45.145 132.957  21.253  1.00  0.00    -0.047 A 
ATOM     14  C   UNL     1      44.730 132.961  22.685  1.00  0.00     0.040 C 
ATOM     15  C   UNL     1      45.713 131.841  20.625  1.00  0.00     0.005 A 
ATOM     16  C   UNL     1      45.334 131.361  19.351  1.00  0.00     0.015 A 
BRANCH   6  17
ATOM     17  C   UNL     1      41.617 136.139  20.984  1.00  0.00     0.155 C 
BRANCH  17  18
ATOM     18  C   UNL     1      42.617 136.901  21.777  1.00  0.00    -0.066 C 
ATOM     19  C   UNL     1      43.440 137.518  22.408  1.00  0.00     0.007 C 
ENDBRANCH  17  18
BRANCH  17  20
ATOM     20  O   UNL     1      41.374 136.861  19.798  1.00  0.00    -0.373 OA
ATOM     21  H   UNL     1      40.393 136.973  19.686  1.00  0.00     0.213 HD
ENDBRANCH  17  20
BRANCH  17  22
ATOM     22  C   UNL     1      40.242 136.049  21.778  1.00  0.00     0.006 C 
ATOM     23  C   UNL     1      39.044 135.941  20.803  1.00  0.00     0.015 C 
ATOM     24  C   UNL     1      40.036 137.335  22.628  1.00  0.00     0.015 C 
ATOM     25  C   UNL     1      40.183 134.836  22.742  1.00  0.00     0.015 C 
ENDBRANCH  17  22
ENDBRANCH   6  17
BRANCH   9  26
ATOM     26  N   UNL     1      41.120 132.316  17.870  1.00  0.00    -0.061 NA
BRANCH  26  27
ATOM     27  N   UNL     1      39.922 132.571  17.779  1.00  0.00     0.005 N 
ATOM     28  N   UNL     1      38.723 132.819  17.675  1.00  0.00    -0.003 NA
ENDBRANCH  26  27
ENDBRANCH   9  26
ENDBRANCH   4   5
ENDBRANCH   1   4
BRANCH   1  29
ATOM     29  C   UNL     1      43.352 132.806  14.797  1.00  0.00     0.098 C 
BRANCH  29  30
ATOM     30  N   UNL     1      42.617 134.084  14.894  1.00  0.00    -0.312 NA
ATOM     31  H   UNL     1      43.057 134.806  14.281  1.00  0.00     0.122 HD
BRANCH  30  32
ATOM     32  C   UNL     1      41.212 133.962  14.455  1.00  0.00     0.120 C 
BRANCH  32  33
ATOM     33  C   UNL     1      40.279 135.056  15.049  1.00  0.00     0.092 C 
ATOM     34  C   UNL     1      40.533 136.398  14.339  1.00  0.00     0.048 C 
BRANCH  33  35
ATOM     35  O   UNL     1      40.525 135.205  16.428  1.00  0.00    -0.385 OA
ATOM     36  H   UNL     1      40.061 134.466  16.906  1.00  0.00     0.211 HD
ENDBRANCH  33  35
BRANCH  33  37
ATOM     37  C   UNL     1      38.834 134.641  14.838  1.00  0.00     0.001 C 
ATOM     38  C   UNL     1      38.448 133.951  13.755  1.00  0.00     0.007 C 
ENDBRANCH  33  37
ENDBRANCH  32  33
ENDBRANCH  30  32
ENDBRANCH  29  30
ENDBRANCH   1  29
TORSDOF 14
ENDMDL


