MODEL 1
REMARK VINA RESULT:      -7.6      0.000      0.000
REMARK SMILES C=CC[C@](C)(CC)Oc1cc2nc(Cn3n[nH+]c(C)c3-c3nnc([C@@H]4C[C@@H]4C)o3)[n-]c2cc1C#N
REMARK SMILES IDX 9 1 10 2 11 3 12 4 13 5 30 6 31 7 32 8 33 9 8 10 4 11 5 12
REMARK SMILES IDX 3 13 2 14 1 15 6 16 7 17 34 18 35 19 14 20 15 21 16 22 20 23
REMARK SMILES IDX 17 24 18 25 19 27 21 28 22 29 29 30 23 31 24 32 25 33 26 34
REMARK SMILES IDX 27 35 28 36
REMARK H PARENT 17 26
ROOT
ATOM      1  C   UNL     1      44.858 132.484  16.759  1.00  0.00     0.138 A 
ATOM      2  C   UNL     1      44.285 133.453  15.891  1.00  0.00     0.051 A 
ATOM      3  C   UNL     1      43.370 134.357  16.426  1.00  0.00    -0.035 A 
ATOM      4  N   UNL     1      42.698 135.320  15.780  1.00  0.00    -0.436 NA
ATOM      5  C   UNL     1      41.947 135.870  16.771  1.00  0.00    -0.037 A 
ATOM      6  N   UNL     1      42.104 135.286  17.986  1.00  0.00    -0.436 NA
ATOM      7  C   UNL     1      43.016 134.335  17.735  1.00  0.00    -0.037 A 
ATOM      8  C   UNL     1      43.538 133.406  18.624  1.00  0.00     0.027 A 
ATOM      9  C   UNL     1      44.468 132.471  18.129  1.00  0.00     0.094 A 
ENDROOT
BRANCH   1  10
ATOM     10  O   UNL     1      45.788 131.505  16.348  1.00  0.00    -0.486 OA
BRANCH  10  11
ATOM     11  C   UNL     1      45.804 130.627  15.207  1.00  0.00     0.109 C 
ATOM     12  C   UNL     1      45.179 129.259  15.574  1.00  0.00     0.057 C 
BRANCH  11  13
ATOM     13  C   UNL     1      47.251 130.451  14.654  1.00  0.00     0.075 C 
BRANCH  13  14
ATOM     14  C   UNL     1      47.451 131.121  13.317  1.00  0.00    -0.031 C 
ATOM     15  C   UNL     1      47.373 130.443  12.164  1.00  0.00     0.004 C 
ENDBRANCH  13  14
ENDBRANCH  11  13
BRANCH  11  16
ATOM     16  C   UNL     1      44.888 131.326  14.152  1.00  0.00     0.045 C 
ATOM     17  C   UNL     1      43.615 130.570  13.743  1.00  0.00     0.008 C 
ENDBRANCH  11  16
ENDBRANCH  10  11
ENDBRANCH   1  10
BRANCH   9  18
ATOM     18  C   UNL     1      45.020 131.494  19.033  1.00  0.00     0.103 C 
ATOM     19  N   UNL     1      45.463 130.708  19.758  1.00  0.00    -0.192 NA
ENDBRANCH   9  18
BRANCH   5  20
ATOM     20  C   UNL     1      40.939 136.946  16.519  1.00  0.00     0.297 C 
BRANCH  20  21
ATOM     21  N   UNL     1      40.112 136.591  15.368  1.00  0.00    -0.120 N 
ATOM     22  N   UNL     1      40.240 137.166  14.180  1.00  0.00     0.089 NA
ATOM     23  C   UNL     1      39.249 135.555  15.242  1.00  0.00     0.257 A 
ATOM     24  N   UNL     1      39.473 136.552  13.293  1.00  0.00    -0.147 N 
ATOM     25  C   UNL     1      38.845 135.538  13.916  1.00  0.00     0.175 A 
ATOM     26  H   UNL     1      39.400 136.816  12.286  1.00  0.00     0.342 HD
ATOM     27  C   UNL     1      37.908 134.581  13.251  1.00  0.00     0.100 C 
BRANCH  23  28
ATOM     28  C   UNL     1      38.845 134.619  16.309  1.00  0.00     0.294 A 
ATOM     29  N   UNL     1      39.359 133.384  16.477  1.00  0.00    -0.103 NA
ATOM     30  O   UNL     1      37.934 134.874  17.215  1.00  0.00    -0.417 OA
ATOM     31  N   UNL     1      38.746 132.860  17.527  1.00  0.00    -0.112 NA
ATOM     32  C   UNL     1      37.881 133.796  17.959  1.00  0.00     0.220 A 
BRANCH  32  33
ATOM     33  C   UNL     1      36.957 133.610  19.126  1.00  0.00     0.081 C 
ATOM     34  C   UNL     1      36.376 134.913  19.679  1.00  0.00     0.017 C 
ATOM     35  C   UNL     1      37.411 134.138  20.490  1.00  0.00    -0.001 C 
ATOM     36  C   UNL     1      38.786 134.815  20.602  1.00  0.00     0.008 C 
ENDBRANCH  32  33
ENDBRANCH  23  28
ENDBRANCH  20  21
ENDBRANCH   5  20
TORSDOF 10
ENDMDL
MODEL 2
REMARK VINA RESULT:      -6.9      3.622      6.405
REMARK SMILES C=CC[C@](C)(CC)Oc1cc2nc(Cn3n[nH+]c(C)c3-c3nnc([C@@H]4C[C@@H]4C)o3)[n-]c2cc1C#N
REMARK SMILES IDX 9 1 10 2 11 3 12 4 13 5 30 6 31 7 32 8 33 9 8 10 4 11 5 12
REMARK SMILES IDX 3 13 2 14 1 15 6 16 7 17 34 18 35 19 14 20 15 21 16 22 20 23
REMARK SMILES IDX 17 24 18 25 19 27 21 28 22 29 29 30 23 31 24 32 25 33 26 34
REMARK SMILES IDX 27 35 28 36
REMARK H PARENT 17 26
ROOT
ATOM      1  C   UNL     1      43.760 133.742  16.150  1.00  0.00     0.138 A 
ATOM      2  C   UNL     1      44.371 134.371  17.268  1.00  0.00     0.051 A 
ATOM      3  C   UNL     1      43.558 135.082  18.148  1.00  0.00    -0.035 A 
ATOM      4  N   UNL     1      43.934 135.768  19.237  1.00  0.00    -0.436 NA
ATOM      5  C   UNL     1      42.754 136.268  19.692  1.00  0.00    -0.037 A 
ATOM      6  N   UNL     1      41.677 135.944  18.932  1.00  0.00    -0.436 NA
ATOM      7  C   UNL     1      42.219 135.189  17.967  1.00  0.00    -0.037 A 
ATOM      8  C   UNL     1      41.573 134.601  16.887  1.00  0.00     0.027 A 
ATOM      9  C   UNL     1      42.354 133.872  15.970  1.00  0.00     0.094 A 
ENDROOT
BRANCH   1  10
ATOM     10  O   UNL     1      44.465 133.000  15.177  1.00  0.00    -0.486 OA
BRANCH  10  11
ATOM     11  C   UNL     1      44.936 131.639  15.174  1.00  0.00     0.109 C 
ATOM     12  C   UNL     1      44.370 130.879  13.950  1.00  0.00     0.057 C 
BRANCH  11  13
ATOM     13  C   UNL     1      44.566 130.914  16.503  1.00  0.00     0.075 C 
BRANCH  13  14
ATOM     14  C   UNL     1      45.716 130.857  17.477  1.00  0.00    -0.031 C 
ATOM     15  C   UNL     1      45.536 130.570  18.774  1.00  0.00     0.004 C 
ENDBRANCH  13  14
ENDBRANCH  11  13
BRANCH  11  16
ATOM     16  C   UNL     1      46.486 131.752  15.016  1.00  0.00     0.045 C 
ATOM     17  C   UNL     1      47.087 131.175  13.726  1.00  0.00     0.008 C 
ENDBRANCH  11  16
ENDBRANCH  10  11
ENDBRANCH   1  10
BRANCH   9  18
ATOM     18  C   UNL     1      41.705 133.258  14.839  1.00  0.00     0.103 C 
ATOM     19  N   UNL     1      41.184 132.764  13.931  1.00  0.00    -0.192 NA
ENDBRANCH   9  18
BRANCH   5  20
ATOM     20  C   UNL     1      42.667 137.199  20.860  1.00  0.00     0.297 C 
BRANCH  20  21
ATOM     21  N   UNL     1      43.859 137.060  21.693  1.00  0.00    -0.120 N 
ATOM     22  N   UNL     1      44.709 138.054  21.912  1.00  0.00     0.089 NA
ATOM     23  C   UNL     1      44.205 136.027  22.498  1.00  0.00     0.257 A 
ATOM     24  N   UNL     1      45.607 137.693  22.814  1.00  0.00    -0.147 N 
ATOM     25  C   UNL     1      45.322 136.438  23.208  1.00  0.00     0.175 A 
ATOM     26  H   UNL     1      46.383 138.302  23.157  1.00  0.00     0.342 HD
ATOM     27  C   UNL     1      46.086 135.677  24.243  1.00  0.00     0.100 C 
BRANCH  23  28
ATOM     28  C   UNL     1      43.507 134.731  22.607  1.00  0.00     0.294 A 
ATOM     29  N   UNL     1      42.530 134.463  23.496  1.00  0.00    -0.103 NA
ATOM     30  O   UNL     1      43.758 133.687  21.857  1.00  0.00    -0.417 OA
ATOM     31  N   UNL     1      42.162 133.209  23.284  1.00  0.00    -0.112 NA
ATOM     32  C   UNL     1      42.930 132.760  22.274  1.00  0.00     0.220 A 
BRANCH  32  33
ATOM     33  C   UNL     1      42.861 131.368  21.722  1.00  0.00     0.081 C 
ATOM     34  C   UNL     1      42.483 130.302  22.753  1.00  0.00     0.017 C 
ATOM     35  C   UNL     1      43.906 130.354  22.201  1.00  0.00    -0.001 C 
ATOM     36  C   UNL     1      44.974 130.811  23.207  1.00  0.00     0.008 C 
ENDBRANCH  32  33
ENDBRANCH  23  28
ENDBRANCH  20  21
ENDBRANCH   5  20
TORSDOF 10
ENDMDL
MODEL 3
REMARK VINA RESULT:      -6.9      3.688      7.082
REMARK SMILES C=CC[C@](C)(CC)Oc1cc2nc(Cn3n[nH+]c(C)c3-c3nnc([C@@H]4C[C@@H]4C)o3)[n-]c2cc1C#N
REMARK SMILES IDX 9 1 10 2 11 3 12 4 13 5 30 6 31 7 32 8 33 9 8 10 4 11 5 12
REMARK SMILES IDX 3 13 2 14 1 15 6 16 7 17 34 18 35 19 14 20 15 21 16 22 20 23
REMARK SMILES IDX 17 24 18 25 19 27 21 28 22 29 29 30 23 31 24 32 25 33 26 34
REMARK SMILES IDX 27 35 28 36
REMARK H PARENT 17 26
ROOT
ATOM      1  C   UNL     1      43.184 131.867  16.580  1.00  0.00     0.138 A 
ATOM      2  C   UNL     1      43.656 131.666  17.905  1.00  0.00     0.051 A 
ATOM      3  C   UNL     1      43.002 132.325  18.943  1.00  0.00    -0.035 A 
ATOM      4  N   UNL     1      43.304 132.297  20.249  1.00  0.00    -0.436 NA
ATOM      5  C   UNL     1      42.366 133.122  20.786  1.00  0.00    -0.037 A 
ATOM      6  N   UNL     1      41.517 133.672  19.881  1.00  0.00    -0.436 NA
ATOM      7  C   UNL     1      41.943 133.143  18.725  1.00  0.00    -0.037 A 
ATOM      8  C   UNL     1      41.447 133.381  17.450  1.00  0.00     0.027 A 
ATOM      9  C   UNL     1      42.076 132.736  16.368  1.00  0.00     0.094 A 
ENDROOT
BRANCH   1  10
ATOM     10  O   UNL     1      43.759 131.270  15.436  1.00  0.00    -0.486 OA
BRANCH  10  11
ATOM     11  C   UNL     1      45.132 131.099  15.040  1.00  0.00     0.109 C 
ATOM     12  C   UNL     1      45.940 132.386  15.336  1.00  0.00     0.057 C 
BRANCH  11  13
ATOM     13  C   UNL     1      45.238 130.705  13.535  1.00  0.00     0.075 C 
BRANCH  13  14
ATOM     14  C   UNL     1      46.606 130.192  13.161  1.00  0.00    -0.031 C 
ATOM     15  C   UNL     1      47.546 130.992  12.639  1.00  0.00     0.004 C 
ENDBRANCH  13  14
ENDBRANCH  11  13
BRANCH  11  16
ATOM     16  C   UNL     1      45.672 129.952  15.953  1.00  0.00     0.045 C 
ATOM     17  C   UNL     1      45.218 128.528  15.602  1.00  0.00     0.008 C 
ENDBRANCH  11  16
ENDBRANCH  10  11
ENDBRANCH   1  10
BRANCH   9  18
ATOM     18  C   UNL     1      41.581 132.972  15.035  1.00  0.00     0.103 C 
ATOM     19  N   UNL     1      41.183 133.161  13.965  1.00  0.00    -0.192 NA
ENDBRANCH   9  18
BRANCH   5  20
ATOM     20  C   UNL     1      42.348 133.491  22.236  1.00  0.00     0.297 C 
BRANCH  20  21
ATOM     21  N   UNL     1      43.712 133.497  22.762  1.00  0.00    -0.120 N 
ATOM     22  N   UNL     1      44.295 132.420  23.271  1.00  0.00     0.089 NA
ATOM     23  C   UNL     1      44.643 134.475  22.669  1.00  0.00     0.257 A 
ATOM     24  N   UNL     1      45.567 132.673  23.532  1.00  0.00    -0.147 N 
ATOM     25  C   UNL     1      45.823 133.942  23.164  1.00  0.00     0.175 A 
ATOM     26  H   UNL     1      46.240 131.985  23.936  1.00  0.00     0.342 HD
ATOM     27  C   UNL     1      47.160 134.605  23.268  1.00  0.00     0.100 C 
BRANCH  23  28
ATOM     28  C   UNL     1      44.437 135.831  22.124  1.00  0.00     0.294 A 
ATOM     29  N   UNL     1      43.592 136.742  22.646  1.00  0.00    -0.103 NA
ATOM     30  O   UNL     1      45.045 136.307  21.066  1.00  0.00    -0.417 OA
ATOM     31  N   UNL     1      43.685 137.821  21.884  1.00  0.00    -0.112 NA
ATOM     32  C   UNL     1      44.583 137.526  20.927  1.00  0.00     0.220 A 
BRANCH  32  33
ATOM     33  C   UNL     1      44.977 138.466  19.827  1.00  0.00     0.081 C 
ATOM     34  C   UNL     1      45.903 137.849  18.776  1.00  0.00     0.017 C 
ATOM     35  C   UNL     1      46.445 138.897  19.746  1.00  0.00    -0.001 C 
ATOM     36  C   UNL     1      47.434 138.361  20.793  1.00  0.00     0.008 C 
ENDBRANCH  32  33
ENDBRANCH  23  28
ENDBRANCH  20  21
ENDBRANCH   5  20
TORSDOF 10
ENDMDL
MODEL 4
REMARK VINA RESULT:      -6.8      4.084      6.882
REMARK SMILES C=CC[C@](C)(CC)Oc1cc2nc(Cn3n[nH+]c(C)c3-c3nnc([C@@H]4C[C@@H]4C)o3)[n-]c2cc1C#N
REMARK SMILES IDX 9 1 10 2 11 3 12 4 13 5 30 6 31 7 32 8 33 9 8 10 4 11 5 12
REMARK SMILES IDX 3 13 2 14 1 15 6 16 7 17 34 18 35 19 14 20 15 21 16 22 20 23
REMARK SMILES IDX 17 24 18 25 19 27 21 28 22 29 29 30 23 31 24 32 25 33 26 34
REMARK SMILES IDX 27 35 28 36
REMARK H PARENT 17 26
ROOT
ATOM      1  C   UNL     1      44.305 133.173  15.636  1.00  0.00     0.138 A 
ATOM      2  C   UNL     1      44.831 134.080  16.595  1.00  0.00     0.051 A 
ATOM      3  C   UNL     1      43.968 135.019  17.155  1.00  0.00    -0.035 A 
ATOM      4  N   UNL     1      44.265 135.976  18.046  1.00  0.00    -0.436 NA
ATOM      5  C   UNL     1      43.070 136.599  18.219  1.00  0.00    -0.037 A 
ATOM      6  N   UNL     1      42.058 136.092  17.469  1.00  0.00    -0.436 NA
ATOM      7  C   UNL     1      42.658 135.090  16.811  1.00  0.00    -0.037 A 
ATOM      8  C   UNL     1      42.095 134.235  15.874  1.00  0.00     0.027 A 
ATOM      9  C   UNL     1      42.929 133.268  15.281  1.00  0.00     0.094 A 
ENDROOT
BRANCH   1  10
ATOM     10  O   UNL     1      45.068 132.180  14.984  1.00  0.00    -0.486 OA
BRANCH  10  11
ATOM     11  C   UNL     1      45.667 130.965  15.474  1.00  0.00     0.109 C 
ATOM     12  C   UNL     1      45.695 130.967  17.022  1.00  0.00     0.057 C 
BRANCH  11  13
ATOM     13  C   UNL     1      47.098 130.768  14.888  1.00  0.00     0.075 C 
BRANCH  13  14
ATOM     14  C   UNL     1      47.241 131.331  13.495  1.00  0.00    -0.031 C 
ATOM     15  C   UNL     1      47.145 130.559  12.404  1.00  0.00     0.004 C 
ENDBRANCH  13  14
ENDBRANCH  11  13
BRANCH  11  16
ATOM     16  C   UNL     1      44.710 129.827  14.996  1.00  0.00     0.045 C 
ATOM     17  C   UNL     1      44.999 128.418  15.534  1.00  0.00     0.008 C 
ENDBRANCH  11  16
ENDBRANCH  10  11
ENDBRANCH   1  10
BRANCH   9  18
ATOM     18  C   UNL     1      42.368 132.372  14.301  1.00  0.00     0.103 C 
ATOM     19  N   UNL     1      41.917 131.653  13.514  1.00  0.00    -0.192 NA
ENDBRANCH   9  18
BRANCH   5  20
ATOM     20  C   UNL     1      42.909 137.820  19.069  1.00  0.00     0.297 C 
BRANCH  20  21
ATOM     21  N   UNL     1      42.618 137.428  20.446  1.00  0.00    -0.120 N 
ATOM     22  N   UNL     1      41.443 136.947  20.828  1.00  0.00     0.089 NA
ATOM     23  C   UNL     1      43.478 137.310  21.485  1.00  0.00     0.257 A 
ATOM     24  N   UNL     1      41.506 136.541  22.086  1.00  0.00    -0.147 N 
ATOM     25  C   UNL     1      42.761 136.746  22.528  1.00  0.00     0.175 A 
ATOM     26  H   UNL     1      40.710 136.121  22.616  1.00  0.00     0.342 HD
ATOM     27  C   UNL     1      43.249 136.390  23.896  1.00  0.00     0.100 C 
BRANCH  23  28
ATOM     28  C   UNL     1      44.904 137.691  21.488  1.00  0.00     0.294 A 
ATOM     29  N   UNL     1      45.428 138.682  22.236  1.00  0.00    -0.103 NA
ATOM     30  O   UNL     1      45.828 137.115  20.759  1.00  0.00    -0.417 OA
ATOM     31  N   UNL     1      46.722 138.717  21.962  1.00  0.00    -0.112 NA
ATOM     32  C   UNL     1      46.939 137.745  21.056  1.00  0.00     0.220 A 
BRANCH  32  33
ATOM     33  C   UNL     1      48.276 137.447  20.448  1.00  0.00     0.081 C 
ATOM     34  C   UNL     1      49.250 138.627  20.465  1.00  0.00     0.017 C 
ATOM     35  C   UNL     1      48.645 138.160  19.143  1.00  0.00    -0.001 C 
ATOM     36  C   UNL     1      47.631 139.130  18.517  1.00  0.00     0.008 C 
ENDBRANCH  32  33
ENDBRANCH  23  28
ENDBRANCH  20  21
ENDBRANCH   5  20
TORSDOF 10
ENDMDL
MODEL 5
REMARK VINA RESULT:      -6.4      4.033      7.405
REMARK SMILES C=CC[C@](C)(CC)Oc1cc2nc(Cn3n[nH+]c(C)c3-c3nnc([C@@H]4C[C@@H]4C)o3)[n-]c2cc1C#N
REMARK SMILES IDX 9 1 10 2 11 3 12 4 13 5 30 6 31 7 32 8 33 9 8 10 4 11 5 12
REMARK SMILES IDX 3 13 2 14 1 15 6 16 7 17 34 18 35 19 14 20 15 21 16 22 20 23
REMARK SMILES IDX 17 24 18 25 19 27 21 28 22 29 29 30 23 31 24 32 25 33 26 34
REMARK SMILES IDX 27 35 28 36
REMARK H PARENT 17 26
ROOT
ATOM      1  C   UNL     1      44.227 131.761  18.518  1.00  0.00     0.138 A 
ATOM      2  C   UNL     1      45.378 131.901  19.340  1.00  0.00     0.051 A 
ATOM      3  C   UNL     1      45.272 132.676  20.493  1.00  0.00    -0.035 A 
ATOM      4  N   UNL     1      46.236 132.959  21.381  1.00  0.00    -0.436 NA
ATOM      5  C   UNL     1      45.590 133.754  22.273  1.00  0.00    -0.037 A 
ATOM      6  N   UNL     1      44.288 133.993  21.975  1.00  0.00    -0.436 NA
ATOM      7  C   UNL     1      44.116 133.291  20.845  1.00  0.00    -0.037 A 
ATOM      8  C   UNL     1      42.966 133.194  20.074  1.00  0.00     0.027 A 
ATOM      9  C   UNL     1      43.025 132.421  18.899  1.00  0.00     0.094 A 
ENDROOT
BRANCH   1  10
ATOM     10  O   UNL     1      44.198 131.014  17.320  1.00  0.00    -0.486 OA
BRANCH  10  11
ATOM     11  C   UNL     1      44.927 131.165  16.087  1.00  0.00     0.109 C 
ATOM     12  C   UNL     1      44.046 130.738  14.887  1.00  0.00     0.057 C 
BRANCH  11  13
ATOM     13  C   UNL     1      46.258 130.354  16.120  1.00  0.00     0.075 C 
BRANCH  13  14
ATOM     14  C   UNL     1      46.502 129.579  14.848  1.00  0.00    -0.031 C 
ATOM     15  C   UNL     1      47.603 129.760  14.106  1.00  0.00     0.004 C 
ENDBRANCH  13  14
ENDBRANCH  11  13
BRANCH  11  16
ATOM     16  C   UNL     1      45.212 132.696  15.975  1.00  0.00     0.045 C 
ATOM     17  C   UNL     1      44.052 133.574  15.482  1.00  0.00     0.008 C 
ENDBRANCH  11  16
ENDBRANCH  10  11
ENDBRANCH   1  10
BRANCH   9  18
ATOM     18  C   UNL     1      41.844 132.310  18.080  1.00  0.00     0.103 C 
ATOM     19  N   UNL     1      40.895 132.220  17.423  1.00  0.00    -0.192 NA
ENDBRANCH   9  18
BRANCH   5  20
ATOM     20  C   UNL     1      46.286 134.413  23.422  1.00  0.00     0.297 C 
BRANCH  20  21
ATOM     21  N   UNL     1      47.550 134.991  22.969  1.00  0.00    -0.120 N 
ATOM     22  N   UNL     1      48.732 134.475  23.274  1.00  0.00     0.089 NA
ATOM     23  C   UNL     1      47.744 135.979  22.063  1.00  0.00     0.257 A 
ATOM     24  N   UNL     1      49.688 135.109  22.614  1.00  0.00    -0.147 N 
ATOM     25  C   UNL     1      49.110 136.049  21.844  1.00  0.00     0.175 A 
ATOM     26  H   UNL     1      50.706 134.886  22.683  1.00  0.00     0.342 HD
ATOM     27  C   UNL     1      49.849 136.963  20.919  1.00  0.00     0.100 C 
BRANCH  23  28
ATOM     28  C   UNL     1      46.695 136.798  21.424  1.00  0.00     0.294 A 
ATOM     29  N   UNL     1      46.285 138.000  21.876  1.00  0.00    -0.103 NA
ATOM     30  O   UNL     1      46.035 136.452  20.347  1.00  0.00    -0.417 OA
ATOM     31  N   UNL     1      45.340 138.412  21.045  1.00  0.00    -0.112 NA
ATOM     32  C   UNL     1      45.210 137.445  20.119  1.00  0.00     0.220 A 
BRANCH  32  33
ATOM     33  C   UNL     1      44.225 137.491  18.989  1.00  0.00     0.081 C 
ATOM     34  C   UNL     1      43.172 138.595  19.119  1.00  0.00     0.017 C 
ATOM     35  C   UNL     1      42.767 137.133  19.295  1.00  0.00    -0.001 C 
ATOM     36  C   UNL     1      42.388 136.733  20.729  1.00  0.00     0.008 C 
ENDBRANCH  32  33
ENDBRANCH  23  28
ENDBRANCH  20  21
ENDBRANCH   5  20
TORSDOF 10
ENDMDL
MODEL 6
REMARK VINA RESULT:      -6.4      3.159      6.074
REMARK SMILES C=CC[C@](C)(CC)Oc1cc2nc(Cn3n[nH+]c(C)c3-c3nnc([C@@H]4C[C@@H]4C)o3)[n-]c2cc1C#N
REMARK SMILES IDX 9 1 10 2 11 3 12 4 13 5 30 6 31 7 32 8 33 9 8 10 4 11 5 12
REMARK SMILES IDX 3 13 2 14 1 15 6 16 7 17 34 18 35 19 14 20 15 21 16 22 20 23
REMARK SMILES IDX 17 24 18 25 19 27 21 28 22 29 29 30 23 31 24 32 25 33 26 34
REMARK SMILES IDX 27 35 28 36
REMARK H PARENT 17 26
ROOT
ATOM      1  C   UNL     1      44.314 132.012  16.688  1.00  0.00     0.138 A 
ATOM      2  C   UNL     1      44.876 131.753  17.967  1.00  0.00     0.051 A 
ATOM      3  C   UNL     1      44.024 131.740  19.069  1.00  0.00    -0.035 A 
ATOM      4  N   UNL     1      44.352 131.548  20.355  1.00  0.00    -0.436 NA
ATOM      5  C   UNL     1      43.152 131.657  20.984  1.00  0.00    -0.037 A 
ATOM      6  N   UNL     1      42.108 131.926  20.160  1.00  0.00    -0.436 NA
ATOM      7  C   UNL     1      42.692 131.966  18.954  1.00  0.00    -0.037 A 
ATOM      8  C   UNL     1      42.094 132.233  17.730  1.00  0.00     0.027 A 
ATOM      9  C   UNL     1      42.915 132.257  16.587  1.00  0.00     0.094 A 
ENDROOT
BRANCH   1  10
ATOM     10  O   UNL     1      45.062 132.065  15.491  1.00  0.00    -0.486 OA
BRANCH  10  11
ATOM     11  C   UNL     1      45.717 131.031  14.732  1.00  0.00     0.109 C 
ATOM     12  C   UNL     1      44.877 130.670  13.483  1.00  0.00     0.057 C 
BRANCH  11  13
ATOM     13  C   UNL     1      45.983 129.772  15.611  1.00  0.00     0.075 C 
BRANCH  13  14
ATOM     14  C   UNL     1      45.124 128.595  15.222  1.00  0.00    -0.031 C 
ATOM     15  C   UNL     1      44.874 127.587  16.068  1.00  0.00     0.004 C 
ENDBRANCH  13  14
ENDBRANCH  11  13
BRANCH  11  16
ATOM     16  C   UNL     1      47.061 131.672  14.260  1.00  0.00     0.045 C 
ATOM     17  C   UNL     1      47.699 131.074  12.997  1.00  0.00     0.008 C 
ENDBRANCH  11  16
ENDBRANCH  10  11
ENDBRANCH   1  10
BRANCH   9  18
ATOM     18  C   UNL     1      42.316 132.536  15.306  1.00  0.00     0.103 C 
ATOM     19  N   UNL     1      41.835 132.760  14.277  1.00  0.00    -0.192 NA
ENDBRANCH   9  18
BRANCH   5  20
ATOM     20  C   UNL     1      43.012 131.610  22.473  1.00  0.00     0.297 C 
BRANCH  20  21
ATOM     21  N   UNL     1      43.649 132.783  23.067  1.00  0.00    -0.120 N 
ATOM     22  N   UNL     1      44.917 132.801  23.454  1.00  0.00     0.089 NA
ATOM     23  C   UNL     1      43.164 134.044  23.161  1.00  0.00     0.257 A 
ATOM     24  N   UNL     1      45.265 134.025  23.815  1.00  0.00    -0.147 N 
ATOM     25  C   UNL     1      44.200 134.830  23.640  1.00  0.00     0.175 A 
ATOM     26  H   UNL     1      46.213 134.298  24.156  1.00  0.00     0.342 HD
ATOM     27  C   UNL     1      44.193 136.301  23.907  1.00  0.00     0.100 C 
BRANCH  23  28
ATOM     28  C   UNL     1      41.804 134.488  22.798  1.00  0.00     0.294 A 
ATOM     29  N   UNL     1      40.675 134.047  23.388  1.00  0.00    -0.103 NA
ATOM     30  O   UNL     1      41.532 135.357  21.856  1.00  0.00    -0.417 OA
ATOM     31  N   UNL     1      39.670 134.669  22.790  1.00  0.00    -0.112 NA
ATOM     32  C   UNL     1      40.226 135.466  21.859  1.00  0.00     0.220 A 
BRANCH  32  33
ATOM     33  C   UNL     1      39.442 136.341  20.927  1.00  0.00     0.081 C 
ATOM     34  C   UNL     1      38.003 135.877  20.691  1.00  0.00     0.017 C 
ATOM     35  C   UNL     1      39.033 135.758  19.570  1.00  0.00    -0.001 C 
ATOM     36  C   UNL     1      39.452 134.322  19.225  1.00  0.00     0.008 C 
ENDBRANCH  32  33
ENDBRANCH  23  28
ENDBRANCH  20  21
ENDBRANCH   5  20
TORSDOF 10
ENDMDL
MODEL 7
REMARK VINA RESULT:      -6.0      4.536      8.069
REMARK SMILES C=CC[C@](C)(CC)Oc1cc2nc(Cn3n[nH+]c(C)c3-c3nnc([C@@H]4C[C@@H]4C)o3)[n-]c2cc1C#N
REMARK SMILES IDX 9 1 10 2 11 3 12 4 13 5 30 6 31 7 32 8 33 9 8 10 4 11 5 12
REMARK SMILES IDX 3 13 2 14 1 15 6 16 7 17 34 18 35 19 14 20 15 21 16 22 20 23
REMARK SMILES IDX 17 24 18 25 19 27 21 28 22 29 29 30 23 31 24 32 25 33 26 34
REMARK SMILES IDX 27 35 28 36
REMARK H PARENT 17 26
ROOT
ATOM      1  C   UNL     1      43.818 131.790  17.260  1.00  0.00     0.138 A 
ATOM      2  C   UNL     1      44.610 131.413  18.379  1.00  0.00     0.051 A 
ATOM      3  C   UNL     1      44.330 132.000  19.611  1.00  0.00    -0.035 A 
ATOM      4  N   UNL     1      44.970 131.809  20.773  1.00  0.00    -0.436 NA
ATOM      5  C   UNL     1      44.298 132.635  21.618  1.00  0.00    -0.037 A 
ATOM      6  N   UNL     1      43.293 133.338  21.037  1.00  0.00    -0.436 NA
ATOM      7  C   UNL     1      43.336 132.909  19.767  1.00  0.00    -0.037 A 
ATOM      8  C   UNL     1      42.538 133.318  18.707  1.00  0.00     0.027 A 
ATOM      9  C   UNL     1      42.785 132.752  17.442  1.00  0.00     0.094 A 
ENDROOT
BRANCH   1  10
ATOM     10  O   UNL     1      44.000 131.282  15.956  1.00  0.00    -0.486 OA
BRANCH  10  11
ATOM     11  C   UNL     1      45.190 131.087  15.167  1.00  0.00     0.109 C 
ATOM     12  C   UNL     1      46.177 132.260  15.387  1.00  0.00     0.057 C 
BRANCH  11  13
ATOM     13  C   UNL     1      44.841 130.924  13.656  1.00  0.00     0.075 C 
BRANCH  13  14
ATOM     14  C   UNL     1      45.941 130.254  12.872  1.00  0.00    -0.031 C 
ATOM     15  C   UNL     1      47.074 130.893  12.550  1.00  0.00     0.004 C 
ENDBRANCH  13  14
ENDBRANCH  11  13
BRANCH  11  16
ATOM     16  C   UNL     1      45.835 129.781  15.731  1.00  0.00     0.045 C 
ATOM     17  C   UNL     1      47.367 129.761  15.829  1.00  0.00     0.008 C 
ENDBRANCH  11  16
ENDBRANCH  10  11
ENDBRANCH   1  10
BRANCH   9  18
ATOM     18  C   UNL     1      41.972 133.165  16.325  1.00  0.00     0.103 C 
ATOM     19  N   UNL     1      41.319 133.498  15.428  1.00  0.00    -0.192 NA
ENDBRANCH   9  18
BRANCH   5  20
ATOM     20  C   UNL     1      44.710 132.845  23.041  1.00  0.00     0.297 C 
BRANCH  20  21
ATOM     21  N   UNL     1      44.315 134.182  23.478  1.00  0.00    -0.120 N 
ATOM     22  N   UNL     1      43.133 134.448  24.019  1.00  0.00     0.089 NA
ATOM     23  C   UNL     1      45.084 135.292  23.585  1.00  0.00     0.257 A 
ATOM     24  N   UNL     1      43.103 135.697  24.452  1.00  0.00    -0.147 N 
ATOM     25  C   UNL     1      44.303 136.254  24.205  1.00  0.00     0.175 A 
ATOM     26  H   UNL     1      42.283 136.145  24.918  1.00  0.00     0.342 HD
ATOM     27  C   UNL     1      44.684 137.653  24.572  1.00  0.00     0.100 C 
BRANCH  23  28
ATOM     28  C   UNL     1      46.485 135.430  23.144  1.00  0.00     0.294 A 
ATOM     29  N   UNL     1      47.558 135.159  23.915  1.00  0.00    -0.103 NA
ATOM     30  O   UNL     1      46.854 135.837  21.955  1.00  0.00    -0.417 OA
ATOM     31  N   UNL     1      48.626 135.406  23.173  1.00  0.00    -0.112 NA
ATOM     32  C   UNL     1      48.164 135.817  21.978  1.00  0.00     0.220 A 
BRANCH  32  33
ATOM     33  C   UNL     1      49.043 136.226  20.833  1.00  0.00     0.081 C 
ATOM     34  C   UNL     1      50.125 137.243  21.205  1.00  0.00     0.017 C 
ATOM     35  C   UNL     1      48.945 137.672  20.336  1.00  0.00    -0.001 C 
ATOM     36  C   UNL     1      47.951 138.624  21.018  1.00  0.00     0.008 C 
ENDBRANCH  32  33
ENDBRANCH  23  28
ENDBRANCH  20  21
ENDBRANCH   5  20
TORSDOF 10
ENDMDL
MODEL 8
REMARK VINA RESULT:      -5.6      2.368      3.415
REMARK SMILES C=CC[C@](C)(CC)Oc1cc2nc(Cn3n[nH+]c(C)c3-c3nnc([C@@H]4C[C@@H]4C)o3)[n-]c2cc1C#N
REMARK SMILES IDX 9 1 10 2 11 3 12 4 13 5 30 6 31 7 32 8 33 9 8 10 4 11 5 12
REMARK SMILES IDX 3 13 2 14 1 15 6 16 7 17 34 18 35 19 14 20 15 21 16 22 20 23
REMARK SMILES IDX 17 24 18 25 19 27 21 28 22 29 29 30 23 31 24 32 25 33 26 34
REMARK SMILES IDX 27 35 28 36
REMARK H PARENT 17 26
ROOT
ATOM      1  C   UNL     1      43.930 131.550  15.529  1.00  0.00     0.138 A 
ATOM      2  C   UNL     1      43.012 131.947  14.520  1.00  0.00     0.051 A 
ATOM      3  C   UNL     1      41.951 132.773  14.885  1.00  0.00    -0.035 A 
ATOM      4  N   UNL     1      40.965 133.233  14.101  1.00  0.00    -0.436 NA
ATOM      5  C   UNL     1      40.213 133.959  14.971  1.00  0.00    -0.037 A 
ATOM      6  N   UNL     1      40.669 133.954  16.249  1.00  0.00    -0.436 NA
ATOM      7  C   UNL     1      41.774 133.200  16.159  1.00  0.00    -0.037 A 
ATOM      8  C   UNL     1      42.636 132.835  17.185  1.00  0.00     0.027 A 
ATOM      9  C   UNL     1      43.724 132.001  16.864  1.00  0.00     0.094 A 
ENDROOT
BRANCH   1  10
ATOM     10  O   UNL     1      45.042 130.710  15.300  1.00  0.00    -0.486 OA
BRANCH  10  11
ATOM     11  C   UNL     1      46.207 130.877  14.471  1.00  0.00     0.109 C 
ATOM     12  C   UNL     1      46.773 132.310  14.624  1.00  0.00     0.057 C 
BRANCH  11  13
ATOM     13  C   UNL     1      45.885 130.559  12.979  1.00  0.00     0.075 C 
BRANCH  13  14
ATOM     14  C   UNL     1      47.095 130.664  12.085  1.00  0.00    -0.031 C 
ATOM     15  C   UNL     1      47.940 129.639  11.908  1.00  0.00     0.004 C 
ENDBRANCH  13  14
ENDBRANCH  11  13
BRANCH  11  16
ATOM     16  C   UNL     1      47.252 129.866  15.041  1.00  0.00     0.045 C 
ATOM     17  C   UNL     1      47.151 129.550  16.541  1.00  0.00     0.008 C 
ENDBRANCH  11  16
ENDBRANCH  10  11
ENDBRANCH   1  10
BRANCH   9  18
ATOM     18  C   UNL     1      44.630 131.605  17.913  1.00  0.00     0.103 C 
ATOM     19  N   UNL     1      45.358 131.288  18.755  1.00  0.00    -0.192 NA
ENDBRANCH   9  18
BRANCH   5  20
ATOM     20  C   UNL     1      38.921 134.605  14.579  1.00  0.00     0.297 C 
BRANCH  20  21
ATOM     21  N   UNL     1      39.187 135.887  13.929  1.00  0.00    -0.120 N 
ATOM     22  N   UNL     1      39.086 136.068  12.619  1.00  0.00     0.089 NA
ATOM     23  C   UNL     1      39.389 137.095  14.506  1.00  0.00     0.257 A 
ATOM     24  N   UNL     1      39.238 137.350  12.325  1.00  0.00    -0.147 N 
ATOM     25  C   UNL     1      39.422 138.022  13.476  1.00  0.00     0.175 A 
ATOM     26  H   UNL     1      39.198 137.748  11.361  1.00  0.00     0.342 HD
ATOM     27  C   UNL     1      39.602 139.503  13.577  1.00  0.00     0.100 C 
BRANCH  23  28
ATOM     28  C   UNL     1      39.524 137.362  15.951  1.00  0.00     0.294 A 
ATOM     29  N   UNL     1      38.578 137.952  16.709  1.00  0.00    -0.103 NA
ATOM     30  O   UNL     1      40.579 137.064  16.667  1.00  0.00    -0.417 OA
ATOM     31  N   UNL     1      39.066 138.017  17.938  1.00  0.00    -0.112 NA
ATOM     32  C   UNL     1      40.292 137.464  17.882  1.00  0.00     0.220 A 
BRANCH  32  33
ATOM     33  C   UNL     1      41.216 137.350  19.058  1.00  0.00     0.081 C 
ATOM     34  C   UNL     1      40.993 138.413  20.136  1.00  0.00     0.017 C 
ATOM     35  C   UNL     1      42.248 138.462  19.268  1.00  0.00    -0.001 C 
ATOM     36  C   UNL     1      42.298 139.625  18.266  1.00  0.00     0.008 C 
ENDBRANCH  32  33
ENDBRANCH  23  28
ENDBRANCH  20  21
ENDBRANCH   5  20
TORSDOF 10
ENDMDL
MODEL 9
REMARK VINA RESULT:      -5.6      5.710      8.534
REMARK SMILES C=CC[C@](C)(CC)Oc1cc2nc(Cn3n[nH+]c(C)c3-c3nnc([C@@H]4C[C@@H]4C)o3)[n-]c2cc1C#N
REMARK SMILES IDX 9 1 10 2 11 3 12 4 13 5 30 6 31 7 32 8 33 9 8 10 4 11 5 12
REMARK SMILES IDX 3 13 2 14 1 15 6 16 7 17 34 18 35 19 14 20 15 21 16 22 20 23
REMARK SMILES IDX 17 24 18 25 19 27 21 28 22 29 29 30 23 31 24 32 25 33 26 34
REMARK SMILES IDX 27 35 28 36
REMARK H PARENT 17 26
ROOT
ATOM      1  C   UNL     1      48.292 136.119  22.886  1.00  0.00     0.138 A 
ATOM      2  C   UNL     1      48.049 134.738  22.655  1.00  0.00     0.051 A 
ATOM      3  C   UNL     1      46.926 134.383  21.911  1.00  0.00    -0.035 A 
ATOM      4  N   UNL     1      46.502 133.148  21.607  1.00  0.00    -0.436 NA
ATOM      5  C   UNL     1      45.370 133.392  20.895  1.00  0.00    -0.037 A 
ATOM      6  N   UNL     1      45.063 134.707  20.761  1.00  0.00    -0.436 NA
ATOM      7  C   UNL     1      46.071 135.308  21.410  1.00  0.00    -0.037 A 
ATOM      8  C   UNL     1      46.256 136.669  21.614  1.00  0.00     0.027 A 
ATOM      9  C   UNL     1      47.378 137.076  22.360  1.00  0.00     0.094 A 
ENDROOT
BRANCH   1  10
ATOM     10  O   UNL     1      49.384 136.617  23.630  1.00  0.00    -0.486 OA
BRANCH  10  11
ATOM     11  C   UNL     1      50.761 136.836  23.269  1.00  0.00     0.109 C 
ATOM     12  C   UNL     1      50.957 136.624  21.748  1.00  0.00     0.057 C 
BRANCH  11  13
ATOM     13  C   UNL     1      51.710 135.911  24.090  1.00  0.00     0.075 C 
BRANCH  13  14
ATOM     14  C   UNL     1      51.535 134.450  23.756  1.00  0.00    -0.031 C 
ATOM     15  C   UNL     1      52.526 133.562  23.913  1.00  0.00     0.004 C 
ENDBRANCH  13  14
ENDBRANCH  11  13
BRANCH  11  16
ATOM     16  C   UNL     1      51.027 138.339  23.600  1.00  0.00     0.045 C 
ATOM     17  C   UNL     1      52.484 138.729  23.890  1.00  0.00     0.008 C 
ENDBRANCH  11  16
ENDBRANCH  10  11
ENDBRANCH   1  10
BRANCH   9  18
ATOM     18  C   UNL     1      47.588 138.484  22.588  1.00  0.00     0.103 C 
ATOM     19  N   UNL     1      47.757 139.614  22.770  1.00  0.00    -0.192 NA
ENDBRANCH   9  18
BRANCH   5  20
ATOM     20  C   UNL     1      44.471 132.300  20.407  1.00  0.00     0.297 C 
BRANCH  20  21
ATOM     21  N   UNL     1      44.950 131.803  19.120  1.00  0.00    -0.120 N 
ATOM     22  N   UNL     1      45.664 130.693  18.994  1.00  0.00     0.089 NA
ATOM     23  C   UNL     1      44.627 132.238  17.879  1.00  0.00     0.257 A 
ATOM     24  N   UNL     1      45.834 130.405  17.713  1.00  0.00    -0.147 N 
ATOM     25  C   UNL     1      45.197 131.342  16.988  1.00  0.00     0.175 A 
ATOM     26  H   UNL     1      46.361 129.578  17.354  1.00  0.00     0.342 HD
ATOM     27  C   UNL     1      45.124 131.357  15.494  1.00  0.00     0.100 C 
BRANCH  23  28
ATOM     28  C   UNL     1      43.809 133.422  17.552  1.00  0.00     0.294 A 
ATOM     29  N   UNL     1      42.538 133.372  17.107  1.00  0.00    -0.103 NA
ATOM     30  O   UNL     1      44.223 134.661  17.650  1.00  0.00    -0.417 OA
ATOM     31  N   UNL     1      42.152 134.625  16.927  1.00  0.00    -0.112 NA
ATOM     32  C   UNL     1      43.204 135.392  17.270  1.00  0.00     0.220 A 
BRANCH  32  33
ATOM     33  C   UNL     1      43.210 136.890  17.195  1.00  0.00     0.081 C 
ATOM     34  C   UNL     1      44.268 137.557  18.077  1.00  0.00     0.017 C 
ATOM     35  C   UNL     1      42.791 137.671  18.444  1.00  0.00    -0.001 C 
ATOM     36  C   UNL     1      42.374 136.891  19.700  1.00  0.00     0.008 C 
ENDBRANCH  32  33
ENDBRANCH  23  28
ENDBRANCH  20  21
ENDBRANCH   5  20
TORSDOF 10
ENDMDL


