MODEL 1
REMARK VINA RESULT:      -6.1      0.000      0.000
REMARK SMILES C#C/C(N=[N+]=[N-])=N/[C@H](c1c(C)n[nH+]n1-c1c2ccccc2c(C(=O)N=[N+]=[N-])c2ccccc12)C(C)C
REMARK SMILES IDX 9 1 10 2 11 3 12 4 13 5 14 7 8 8 7 9 3 10 2 11 1 12 4 13
REMARK SMILES IDX 5 14 6 15 34 16 35 17 36 18 15 19 16 20 33 21 17 22 21 23
REMARK SMILES IDX 32 24 28 25 18 26 20 27 22 28 31 29 29 30 19 31 30 32 23 33
REMARK SMILES IDX 24 34 25 35 26 36 27 37
REMARK H PARENT 13 6
ROOT
ATOM      1  C   UNL     1      42.120 135.172  19.801  1.00  0.00     0.137 A 
ATOM      2  C   UNL     1      41.022 135.484  20.596  1.00  0.00     0.135 A 
ATOM      3  C   UNL     1      40.796 136.713  21.416  1.00  0.00     0.076 C 
ATOM      4  N   UNL     1      40.167 134.441  20.566  1.00  0.00     0.020 NA
ATOM      5  N   UNL     1      40.708 133.537  19.765  1.00  0.00    -0.012 N 
ATOM      6  H   UNL     1      40.264 132.618  19.536  1.00  0.00     0.527 HD
ATOM      7  N   UNL     1      41.871 133.949  19.290  1.00  0.00    -0.097 N 
ENDROOT
BRANCH   1   8
ATOM      8  C   UNL     1      43.339 136.019  19.496  1.00  0.00     0.164 C 
BRANCH   8   9
ATOM      9  N   UNL     1      42.875 137.229  18.809  1.00  0.00    -0.264 NA
BRANCH   9  10
ATOM     10  C   UNL     1      42.335 137.368  17.630  1.00  0.00     0.172 C 
BRANCH  10  11
ATOM     11  C   UNL     1      40.919 137.588  17.559  1.00  0.00    -0.049 C 
ATOM     12  C   UNL     1      39.729 137.774  17.501  1.00  0.00     0.011 C 
ENDBRANCH  10  11
BRANCH  10  13
ATOM     13  N   UNL     1      43.085 137.419  16.408  1.00  0.00    -0.032 NA
BRANCH  13  14
ATOM     14  N   UNL     1      42.709 138.041  15.414  1.00  0.00     0.008 N 
ATOM     15  N   UNL     1      42.339 138.675  14.427  1.00  0.00    -0.003 NA
ENDBRANCH  13  14
ENDBRANCH  10  13
ENDBRANCH   9  10
ENDBRANCH   8   9
BRANCH   8  16
ATOM     16  C   UNL     1      44.138 136.368  20.786  1.00  0.00     0.014 C 
ATOM     17  C   UNL     1      45.546 135.746  20.758  1.00  0.00     0.010 C 
ATOM     18  C   UNL     1      44.265 137.885  20.987  1.00  0.00     0.010 C 
ENDBRANCH   8  16
ENDBRANCH   1   8
BRANCH   7  19
ATOM     19  C   UNL     1      42.676 133.200  18.363  1.00  0.00     0.123 A 
ATOM     20  C   UNL     1      43.751 132.418  18.837  1.00  0.00     0.013 A 
ATOM     21  C   UNL     1      42.379 133.235  16.986  1.00  0.00     0.013 A 
ATOM     22  C   UNL     1      44.063 132.385  20.214  1.00  0.00     0.011 A 
ATOM     23  C   UNL     1      44.526 131.647  17.930  1.00  0.00    -0.004 A 
ATOM     24  C   UNL     1      41.309 134.018  16.502  1.00  0.00     0.011 A 
ATOM     25  C   UNL     1      43.156 132.475  16.070  1.00  0.00    -0.004 A 
ATOM     26  C   UNL     1      45.102 131.587  20.690  1.00  0.00     0.001 A 
ATOM     27  C   UNL     1      45.569 130.839  18.443  1.00  0.00     0.009 A 
ATOM     28  C   UNL     1      44.227 131.676  16.543  1.00  0.00     0.040 A 
ATOM     29  C   UNL     1      41.015 134.060  15.141  1.00  0.00     0.001 A 
ATOM     30  C   UNL     1      42.845 132.552  14.691  1.00  0.00     0.009 A 
ATOM     31  C   UNL     1      45.848 130.813  19.809  1.00  0.00     0.001 A 
ATOM     32  C   UNL     1      41.783 133.334  14.238  1.00  0.00     0.001 A 
BRANCH  28  33
ATOM     33  C   UNL     1      45.028 130.870  15.595  1.00  0.00     0.250 C 
ATOM     34  O   UNL     1      44.694 129.678  15.346  1.00  0.00    -0.287 OA
BRANCH  33  35
ATOM     35  N   UNL     1      46.174 131.447  14.964  1.00  0.00    -0.017 NA
BRANCH  35  36
ATOM     36  N   UNL     1      46.530 131.094  13.839  1.00  0.00     0.009 N 
ATOM     37  N   UNL     1      46.883 130.741  12.715  1.00  0.00    -0.003 NA
ENDBRANCH  35  36
ENDBRANCH  33  35
ENDBRANCH  28  33
ENDBRANCH   7  19
TORSDOF 11
ENDMDL
MODEL 2
REMARK VINA RESULT:      -5.2      1.013      1.013
REMARK SMILES C#C/C(N=[N+]=[N-])=N/[C@H](c1c(C)n[nH+]n1-c1c2ccccc2c(C(=O)N=[N+]=[N-])c2ccccc12)C(C)C
REMARK SMILES IDX 9 1 10 2 11 3 12 4 13 5 14 7 8 8 7 9 3 10 2 11 1 12 4 13
REMARK SMILES IDX 5 14 6 15 34 16 35 17 36 18 15 19 16 20 33 21 17 22 21 23
REMARK SMILES IDX 32 24 28 25 18 26 20 27 22 28 31 29 29 30 19 31 30 32 23 33
REMARK SMILES IDX 24 34 25 35 26 36 27 37
REMARK H PARENT 13 6
ROOT
ATOM      1  C   UNL     1      41.700 135.422  19.813  1.00  0.00     0.137 A 
ATOM      2  C   UNL     1      40.585 135.564  20.633  1.00  0.00     0.135 A 
ATOM      3  C   UNL     1      40.205 136.737  21.479  1.00  0.00     0.076 C 
ATOM      4  N   UNL     1      39.885 134.412  20.600  1.00  0.00     0.020 NA
ATOM      5  N   UNL     1      40.531 133.605  19.773  1.00  0.00    -0.012 N 
ATOM      6  H   UNL     1      40.216 132.637  19.536  1.00  0.00     0.527 HD
ATOM      7  N   UNL     1      41.614 134.184  19.285  1.00  0.00    -0.097 N 
ENDROOT
BRANCH   1   8
ATOM      8  C   UNL     1      42.781 136.437  19.501  1.00  0.00     0.164 C 
BRANCH   8   9
ATOM      9  N   UNL     1      42.116 137.682  19.105  1.00  0.00    -0.264 NA
BRANCH   9  10
ATOM     10  C   UNL     1      41.919 138.185  17.917  1.00  0.00     0.172 C 
BRANCH  10  11
ATOM     11  C   UNL     1      40.618 138.039  17.330  1.00  0.00    -0.049 C 
ATOM     12  C   UNL     1      39.526 137.916  16.835  1.00  0.00     0.011 C 
ENDBRANCH  10  11
BRANCH  10  13
ATOM     13  N   UNL     1      42.892 138.967  17.209  1.00  0.00    -0.032 NA
BRANCH  13  14
ATOM     14  N   UNL     1      42.759 139.298  16.031  1.00  0.00     0.008 N 
ATOM     15  N   UNL     1      42.638 139.621  14.849  1.00  0.00    -0.003 NA
ENDBRANCH  13  14
ENDBRANCH  10  13
ENDBRANCH   9  10
ENDBRANCH   8   9
BRANCH   8  16
ATOM     16  C   UNL     1      43.731 136.661  20.714  1.00  0.00     0.014 C 
ATOM     17  C   UNL     1      45.179 136.264  20.374  1.00  0.00     0.010 C 
ATOM     18  C   UNL     1      43.711 138.120  21.194  1.00  0.00     0.010 C 
ENDBRANCH   8  16
ENDBRANCH   1   8
BRANCH   7  19
ATOM     19  C   UNL     1      42.498 133.570  18.330  1.00  0.00     0.123 A 
ATOM     20  C   UNL     1      43.598 132.808  18.779  1.00  0.00     0.013 A 
ATOM     21  C   UNL     1      42.253 133.717  16.951  1.00  0.00     0.013 A 
ATOM     22  C   UNL     1      43.858 132.664  20.160  1.00  0.00     0.011 A 
ATOM     23  C   UNL     1      44.452 132.169  17.840  1.00  0.00    -0.004 A 
ATOM     24  C   UNL     1      41.159 134.481  16.493  1.00  0.00     0.011 A 
ATOM     25  C   UNL     1      43.109 133.090  16.004  1.00  0.00    -0.004 A 
ATOM     26  C   UNL     1      44.922 131.884  20.607  1.00  0.00     0.001 A 
ATOM     27  C   UNL     1      45.520 131.376  18.324  1.00  0.00     0.009 A 
ATOM     28  C   UNL     1      44.206 132.311  16.450  1.00  0.00     0.040 A 
ATOM     29  C   UNL     1      40.916 134.634  15.129  1.00  0.00     0.001 A 
ATOM     30  C   UNL     1      42.848 133.278  14.626  1.00  0.00     0.009 A 
ATOM     31  C   UNL     1      45.747 131.238  19.693  1.00  0.00     0.001 A 
ATOM     32  C   UNL     1      41.760 134.038  14.199  1.00  0.00     0.001 A 
BRANCH  28  33
ATOM     33  C   UNL     1      45.089 131.642  15.469  1.00  0.00     0.250 C 
ATOM     34  O   UNL     1      46.054 132.275  14.958  1.00  0.00    -0.287 OA
BRANCH  33  35
ATOM     35  N   UNL     1      44.845 130.279  15.107  1.00  0.00    -0.017 NA
BRANCH  35  36
ATOM     36  N   UNL     1      45.723 129.589  14.589  1.00  0.00     0.009 N 
ATOM     37  N   UNL     1      46.600 128.899  14.071  1.00  0.00    -0.003 NA
ENDBRANCH  35  36
ENDBRANCH  33  35
ENDBRANCH  28  33
ENDBRANCH   7  19
TORSDOF 11
ENDMDL
MODEL 3
REMARK VINA RESULT:      -5.2      3.243      7.503
REMARK SMILES C#C/C(N=[N+]=[N-])=N/[C@H](c1c(C)n[nH+]n1-c1c2ccccc2c(C(=O)N=[N+]=[N-])c2ccccc12)C(C)C
REMARK SMILES IDX 9 1 10 2 11 3 12 4 13 5 14 7 8 8 7 9 3 10 2 11 1 12 4 13
REMARK SMILES IDX 5 14 6 15 34 16 35 17 36 18 15 19 16 20 33 21 17 22 21 23
REMARK SMILES IDX 32 24 28 25 18 26 20 27 22 28 31 29 29 30 19 31 30 32 23 33
REMARK SMILES IDX 24 34 25 35 26 36 27 37
REMARK H PARENT 13 6
ROOT
ATOM      1  C   UNL     1      42.370 133.337  15.833  1.00  0.00     0.137 A 
ATOM      2  C   UNL     1      42.588 132.437  14.796  1.00  0.00     0.135 A 
ATOM      3  C   UNL     1      43.643 131.383  14.695  1.00  0.00     0.076 C 
ATOM      4  N   UNL     1      41.701 132.697  13.814  1.00  0.00     0.020 NA
ATOM      5  N   UNL     1      40.952 133.701  14.243  1.00  0.00    -0.012 N 
ATOM      6  H   UNL     1      40.163 134.118  13.698  1.00  0.00     0.527 HD
ATOM      7  N   UNL     1      41.325 134.099  15.447  1.00  0.00    -0.097 N 
ENDROOT
BRANCH   1   8
ATOM      8  C   UNL     1      43.090 133.443  17.162  1.00  0.00     0.164 C 
BRANCH   8   9
ATOM      9  N   UNL     1      43.504 132.090  17.548  1.00  0.00    -0.264 NA
BRANCH   9  10
ATOM     10  C   UNL     1      44.459 131.702  18.347  1.00  0.00     0.172 C 
BRANCH  10  11
ATOM     11  C   UNL     1      44.572 132.346  19.625  1.00  0.00    -0.049 C 
ATOM     12  C   UNL     1      44.666 132.885  20.699  1.00  0.00     0.011 C 
ENDBRANCH  10  11
BRANCH  10  13
ATOM     13  N   UNL     1      45.336 130.601  18.070  1.00  0.00    -0.032 NA
BRANCH  13  14
ATOM     14  N   UNL     1      46.049 130.545  17.068  1.00  0.00     0.008 N 
ATOM     15  N   UNL     1      46.761 130.475  16.067  1.00  0.00    -0.003 NA
ENDBRANCH  13  14
ENDBRANCH  10  13
ENDBRANCH   9  10
ENDBRANCH   8   9
BRANCH   8  16
ATOM     16  C   UNL     1      44.308 134.410  17.083  1.00  0.00     0.014 C 
ATOM     17  C   UNL     1      44.591 134.839  15.633  1.00  0.00     0.010 C 
ATOM     18  C   UNL     1      44.099 135.664  17.945  1.00  0.00     0.010 C 
ENDBRANCH   8  16
ENDBRANCH   1   8
BRANCH   7  19
ATOM     19  C   UNL     1      40.675 135.145  16.190  1.00  0.00     0.123 A 
ATOM     20  C   UNL     1      41.077 136.487  16.015  1.00  0.00     0.013 A 
ATOM     21  C   UNL     1      39.629 134.829  17.079  1.00  0.00     0.013 A 
ATOM     22  C   UNL     1      42.132 136.811  15.134  1.00  0.00     0.011 A 
ATOM     23  C   UNL     1      40.413 137.527  16.719  1.00  0.00    -0.004 A 
ATOM     24  C   UNL     1      39.224 133.490  17.265  1.00  0.00     0.011 A 
ATOM     25  C   UNL     1      38.966 135.862  17.796  1.00  0.00    -0.004 A 
ATOM     26  C   UNL     1      42.508 138.138  14.931  1.00  0.00     0.001 A 
ATOM     27  C   UNL     1      40.810 138.865  16.486  1.00  0.00     0.009 A 
ATOM     28  C   UNL     1      39.355 137.214  17.611  1.00  0.00     0.040 A 
ATOM     29  C   UNL     1      38.193 133.173  18.147  1.00  0.00     0.001 A 
ATOM     30  C   UNL     1      37.935 135.508  18.698  1.00  0.00     0.009 A 
ATOM     31  C   UNL     1      41.846 139.161  15.601  1.00  0.00     0.001 A 
ATOM     32  C   UNL     1      37.554 134.177  18.864  1.00  0.00     0.001 A 
BRANCH  28  33
ATOM     33  C   UNL     1      38.657 138.294  18.341  1.00  0.00     0.250 C 
ATOM     34  O   UNL     1      37.558 138.738  17.906  1.00  0.00    -0.287 OA
BRANCH  33  35
ATOM     35  N   UNL     1      39.230 138.828  19.538  1.00  0.00    -0.017 NA
BRANCH  35  36
ATOM     36  N   UNL     1      39.284 138.161  20.573  1.00  0.00     0.009 N 
ATOM     37  N   UNL     1      39.339 137.496  21.605  1.00  0.00    -0.003 NA
ENDBRANCH  35  36
ENDBRANCH  33  35
ENDBRANCH  28  33
ENDBRANCH   7  19
TORSDOF 11
ENDMDL
MODEL 4
REMARK VINA RESULT:      -5.2      1.808      3.763
REMARK SMILES C#C/C(N=[N+]=[N-])=N/[C@H](c1c(C)n[nH+]n1-c1c2ccccc2c(C(=O)N=[N+]=[N-])c2ccccc12)C(C)C
REMARK SMILES IDX 9 1 10 2 11 3 12 4 13 5 14 7 8 8 7 9 3 10 2 11 1 12 4 13
REMARK SMILES IDX 5 14 6 15 34 16 35 17 36 18 15 19 16 20 33 21 17 22 21 23
REMARK SMILES IDX 32 24 28 25 18 26 20 27 22 28 31 29 29 30 19 31 30 32 23 33
REMARK SMILES IDX 24 34 25 35 26 36 27 37
REMARK H PARENT 13 6
ROOT
ATOM      1  C   UNL     1      41.060 135.375  19.536  1.00  0.00     0.137 A 
ATOM      2  C   UNL     1      39.896 135.509  20.286  1.00  0.00     0.135 A 
ATOM      3  C   UNL     1      39.496 136.644  21.173  1.00  0.00     0.076 C 
ATOM      4  N   UNL     1      39.164 134.387  20.137  1.00  0.00     0.020 NA
ATOM      5  N   UNL     1      39.839 133.606  19.308  1.00  0.00    -0.012 N 
ATOM      6  H   UNL     1      39.512 132.665  18.992  1.00  0.00     0.527 HD
ATOM      7  N   UNL     1      40.972 134.173  18.929  1.00  0.00    -0.097 N 
ENDROOT
BRANCH   1   8
ATOM      8  C   UNL     1      42.192 136.367  19.360  1.00  0.00     0.164 C 
BRANCH   8   9
ATOM      9  N   UNL     1      41.598 137.650  18.972  1.00  0.00    -0.264 NA
BRANCH   9  10
ATOM     10  C   UNL     1      41.159 138.053  17.811  1.00  0.00     0.172 C 
BRANCH  10  11
ATOM     11  C   UNL     1      42.013 137.883  16.671  1.00  0.00    -0.049 C 
ATOM     12  C   UNL     1      42.729 137.740  15.712  1.00  0.00     0.011 C 
ENDBRANCH  10  11
BRANCH  10  13
ATOM     13  N   UNL     1      39.834 138.557  17.589  1.00  0.00    -0.032 NA
BRANCH  13  14
ATOM     14  N   UNL     1      39.161 139.091  18.471  1.00  0.00     0.008 N 
ATOM     15  N   UNL     1      38.484 139.612  19.356  1.00  0.00    -0.003 NA
ENDBRANCH  13  14
ENDBRANCH  10  13
ENDBRANCH   9  10
ENDBRANCH   8   9
BRANCH   8  16
ATOM     16  C   UNL     1      43.047 136.504  20.654  1.00  0.00     0.014 C 
ATOM     17  C   UNL     1      42.735 137.816  21.396  1.00  0.00     0.010 C 
ATOM     18  C   UNL     1      42.828 135.323  21.612  1.00  0.00     0.010 C 
ENDBRANCH   8  16
ENDBRANCH   1   8
BRANCH   7  19
ATOM     19  C   UNL     1      41.900 133.584  18.002  1.00  0.00     0.123 A 
ATOM     20  C   UNL     1      41.740 133.796  16.615  1.00  0.00     0.013 A 
ATOM     21  C   UNL     1      42.977 132.812  18.481  1.00  0.00     0.013 A 
ATOM     22  C   UNL     1      40.658 134.560  16.126  1.00  0.00     0.011 A 
ATOM     23  C   UNL     1      42.676 133.247  15.698  1.00  0.00    -0.004 A 
ATOM     24  C   UNL     1      43.142 132.590  19.865  1.00  0.00     0.011 A 
ATOM     25  C   UNL     1      43.912 132.249  17.570  1.00  0.00    -0.004 A 
ATOM     26  C   UNL     1      40.516 134.801  14.760  1.00  0.00     0.001 A 
ATOM     27  C   UNL     1      42.511 133.515  14.318  1.00  0.00     0.009 A 
ATOM     28  C   UNL     1      43.763 132.472  16.177  1.00  0.00     0.040 A 
ATOM     29  C   UNL     1      44.202 131.822  20.342  1.00  0.00     0.001 A 
ATOM     30  C   UNL     1      44.967 131.458  18.082  1.00  0.00     0.009 A 
ATOM     31  C   UNL     1      41.442 134.284  13.861  1.00  0.00     0.001 A 
ATOM     32  C   UNL     1      45.109 131.254  19.455  1.00  0.00     0.001 A 
BRANCH  28  33
ATOM     33  C   UNL     1      44.744 131.903  15.225  1.00  0.00     0.250 C 
ATOM     34  O   UNL     1      45.848 132.485  15.039  1.00  0.00    -0.287 OA
BRANCH  33  35
ATOM     35  N   UNL     1      44.434 130.695  14.525  1.00  0.00    -0.017 NA
BRANCH  35  36
ATOM     36  N   UNL     1      44.807 129.599  14.946  1.00  0.00     0.009 N 
ATOM     37  N   UNL     1      45.181 128.505  15.365  1.00  0.00    -0.003 NA
ENDBRANCH  35  36
ENDBRANCH  33  35
ENDBRANCH  28  33
ENDBRANCH   7  19
TORSDOF 11
ENDMDL
MODEL 5
REMARK VINA RESULT:      -5.1      2.835      4.889
REMARK SMILES C#C/C(N=[N+]=[N-])=N/[C@H](c1c(C)n[nH+]n1-c1c2ccccc2c(C(=O)N=[N+]=[N-])c2ccccc12)C(C)C
REMARK SMILES IDX 9 1 10 2 11 3 12 4 13 5 14 7 8 8 7 9 3 10 2 11 1 12 4 13
REMARK SMILES IDX 5 14 6 15 34 16 35 17 36 18 15 19 16 20 33 21 17 22 21 23
REMARK SMILES IDX 32 24 28 25 18 26 20 27 22 28 31 29 29 30 19 31 30 32 23 33
REMARK SMILES IDX 24 34 25 35 26 36 27 37
REMARK H PARENT 13 6
ROOT
ATOM      1  C   UNL     1      43.544 132.720  22.082  1.00  0.00     0.137 A 
ATOM      2  C   UNL     1      43.161 131.955  23.178  1.00  0.00     0.135 A 
ATOM      3  C   UNL     1      43.520 132.155  24.615  1.00  0.00     0.076 C 
ATOM      4  N   UNL     1      42.423 130.917  22.734  1.00  0.00     0.020 NA
ATOM      5  N   UNL     1      42.337 131.055  21.420  1.00  0.00    -0.012 N 
ATOM      6  H   UNL     1      41.812 130.401  20.796  1.00  0.00     0.527 HD
ATOM      7  N   UNL     1      42.992 132.126  21.005  1.00  0.00    -0.097 N 
ENDROOT
BRANCH   1   8
ATOM      8  C   UNL     1      44.363 133.995  22.058  1.00  0.00     0.164 C 
BRANCH   8   9
ATOM      9  N   UNL     1      43.706 134.958  22.948  1.00  0.00    -0.264 NA
BRANCH   9  10
ATOM     10  C   UNL     1      42.869 135.919  22.671  1.00  0.00     0.172 C 
BRANCH  10  11
ATOM     11  C   UNL     1      41.510 135.778  23.109  1.00  0.00    -0.049 C 
ATOM     12  C   UNL     1      40.368 135.661  23.477  1.00  0.00     0.011 C 
ENDBRANCH  10  11
BRANCH  10  13
ATOM     13  N   UNL     1      43.248 137.154  22.047  1.00  0.00    -0.032 NA
BRANCH  13  14
ATOM     14  N   UNL     1      44.419 137.461  21.821  1.00  0.00     0.008 N 
ATOM     15  N   UNL     1      45.586 137.782  21.598  1.00  0.00    -0.003 NA
ENDBRANCH  13  14
ENDBRANCH  10  13
ENDBRANCH   9  10
ENDBRANCH   8   9
BRANCH   8  16
ATOM     16  C   UNL     1      45.839 133.743  22.484  1.00  0.00     0.014 C 
ATOM     17  C   UNL     1      46.816 134.065  21.339  1.00  0.00     0.010 C 
ATOM     18  C   UNL     1      46.227 134.568  23.720  1.00  0.00     0.010 C 
ENDBRANCH   8  16
ENDBRANCH   1   8
BRANCH   7  19
ATOM     19  C   UNL     1      43.048 132.558  19.634  1.00  0.00     0.123 A 
ATOM     20  C   UNL     1      42.148 133.542  19.170  1.00  0.00     0.013 A 
ATOM     21  C   UNL     1      44.011 132.011  18.763  1.00  0.00     0.013 A 
ATOM     22  C   UNL     1      41.172 134.088  20.033  1.00  0.00     0.011 A 
ATOM     23  C   UNL     1      42.223 133.999  17.827  1.00  0.00    -0.004 A 
ATOM     24  C   UNL     1      44.911 131.024  19.217  1.00  0.00     0.011 A 
ATOM     25  C   UNL     1      44.086 132.455  17.415  1.00  0.00    -0.004 A 
ATOM     26  C   UNL     1      40.305 135.084  19.588  1.00  0.00     0.001 A 
ATOM     27  C   UNL     1      41.335 135.018  17.406  1.00  0.00     0.009 A 
ATOM     28  C   UNL     1      43.195 133.454  16.948  1.00  0.00     0.040 A 
ATOM     29  C   UNL     1      45.861 130.476  18.358  1.00  0.00     0.001 A 
ATOM     30  C   UNL     1      45.050 131.868  16.561  1.00  0.00     0.009 A 
ATOM     31  C   UNL     1      40.390 135.551  18.281  1.00  0.00     0.001 A 
ATOM     32  C   UNL     1      45.928 130.893  17.034  1.00  0.00     0.001 A 
BRANCH  28  33
ATOM     33  C   UNL     1      43.281 133.932  15.550  1.00  0.00     0.250 C 
ATOM     34  O   UNL     1      43.926 134.983  15.285  1.00  0.00    -0.287 OA
BRANCH  33  35
ATOM     35  N   UNL     1      42.634 133.196  14.508  1.00  0.00    -0.017 NA
BRANCH  35  36
ATOM     36  N   UNL     1      41.421 133.295  14.315  1.00  0.00     0.009 N 
ATOM     37  N   UNL     1      40.210 133.394  14.122  1.00  0.00    -0.003 NA
ENDBRANCH  35  36
ENDBRANCH  33  35
ENDBRANCH  28  33
ENDBRANCH   7  19
TORSDOF 11
ENDMDL
MODEL 6
REMARK VINA RESULT:      -5.0      3.219      6.464
REMARK SMILES C#C/C(N=[N+]=[N-])=N/[C@H](c1c(C)n[nH+]n1-c1c2ccccc2c(C(=O)N=[N+]=[N-])c2ccccc12)C(C)C
REMARK SMILES IDX 9 1 10 2 11 3 12 4 13 5 14 7 8 8 7 9 3 10 2 11 1 12 4 13
REMARK SMILES IDX 5 14 6 15 34 16 35 17 36 18 15 19 16 20 33 21 17 22 21 23
REMARK SMILES IDX 32 24 28 25 18 26 20 27 22 28 31 29 29 30 19 31 30 32 23 33
REMARK SMILES IDX 24 34 25 35 26 36 27 37
REMARK H PARENT 13 6
ROOT
ATOM      1  C   UNL     1      42.524 134.471  17.978  1.00  0.00     0.137 A 
ATOM      2  C   UNL     1      41.154 134.379  17.759  1.00  0.00     0.135 A 
ATOM      3  C   UNL     1      40.437 134.217  16.457  1.00  0.00     0.076 C 
ATOM      4  N   UNL     1      40.524 134.520  18.943  1.00  0.00     0.020 NA
ATOM      5  N   UNL     1      41.472 134.667  19.856  1.00  0.00    -0.012 N 
ATOM      6  H   UNL     1      41.287 134.785  20.878  1.00  0.00     0.527 HD
ATOM      7  N   UNL     1      42.675 134.636  19.309  1.00  0.00    -0.097 N 
ENDROOT
BRANCH   1   8
ATOM      8  C   UNL     1      43.654 134.359  16.974  1.00  0.00     0.164 C 
BRANCH   8   9
ATOM      9  N   UNL     1      43.375 133.195  16.126  1.00  0.00    -0.264 NA
BRANCH   9  10
ATOM     10  C   UNL     1      44.196 132.415  15.479  1.00  0.00     0.172 C 
BRANCH  10  11
ATOM     11  C   UNL     1      43.664 131.608  14.418  1.00  0.00    -0.049 C 
ATOM     12  C   UNL     1      43.216 130.932  13.526  1.00  0.00     0.011 C 
ENDBRANCH  10  11
BRANCH  10  13
ATOM     13  N   UNL     1      45.614 132.393  15.694  1.00  0.00    -0.032 NA
BRANCH  13  14
ATOM     14  N   UNL     1      46.416 131.994  14.849  1.00  0.00     0.008 N 
ATOM     15  N   UNL     1      47.214 131.581  14.008  1.00  0.00    -0.003 NA
ENDBRANCH  13  14
ENDBRANCH  10  13
ENDBRANCH   9  10
ENDBRANCH   8   9
BRANCH   8  16
ATOM     16  C   UNL     1      43.806 135.657  16.128  1.00  0.00     0.014 C 
ATOM     17  C   UNL     1      43.084 135.532  14.775  1.00  0.00     0.010 C 
ATOM     18  C   UNL     1      43.269 136.890  16.871  1.00  0.00     0.010 C 
ENDBRANCH   8  16
ENDBRANCH   1   8
BRANCH   7  19
ATOM     19  C   UNL     1      43.903 134.731  20.052  1.00  0.00     0.123 A 
ATOM     20  C   UNL     1      44.370 135.992  20.481  1.00  0.00     0.013 A 
ATOM     21  C   UNL     1      44.627 133.563  20.364  1.00  0.00     0.013 A 
ATOM     22  C   UNL     1      43.657 137.168  20.164  1.00  0.00     0.011 A 
ATOM     23  C   UNL     1      45.563 136.086  21.247  1.00  0.00    -0.004 A 
ATOM     24  C   UNL     1      44.171 132.299  19.934  1.00  0.00     0.011 A 
ATOM     25  C   UNL     1      45.828 133.650  21.120  1.00  0.00    -0.004 A 
ATOM     26  C   UNL     1      44.096 138.411  20.616  1.00  0.00     0.001 A 
ATOM     27  C   UNL     1      45.980 137.361  21.699  1.00  0.00     0.009 A 
ATOM     28  C   UNL     1      46.293 134.913  21.567  1.00  0.00     0.040 A 
ATOM     29  C   UNL     1      44.887 131.142  20.236  1.00  0.00     0.001 A 
ATOM     30  C   UNL     1      46.543 132.460  21.395  1.00  0.00     0.009 A 
ATOM     31  C   UNL     1      45.250 138.507  21.384  1.00  0.00     0.001 A 
ATOM     32  C   UNL     1      46.071 131.222  20.959  1.00  0.00     0.001 A 
BRANCH  28  33
ATOM     33  C   UNL     1      47.533 135.006  22.370  1.00  0.00     0.250 C 
ATOM     34  O   UNL     1      47.477 134.890  23.625  1.00  0.00    -0.287 OA
BRANCH  33  35
ATOM     35  N   UNL     1      48.786 135.225  21.717  1.00  0.00    -0.017 NA
BRANCH  35  36
ATOM     36  N   UNL     1      49.768 135.631  22.340  1.00  0.00     0.009 N 
ATOM     37  N   UNL     1      50.749 136.037  22.961  1.00  0.00    -0.003 NA
ENDBRANCH  35  36
ENDBRANCH  33  35
ENDBRANCH  28  33
ENDBRANCH   7  19
TORSDOF 11
ENDMDL
MODEL 7
REMARK VINA RESULT:      -4.9      2.527      4.497
REMARK SMILES C#C/C(N=[N+]=[N-])=N/[C@H](c1c(C)n[nH+]n1-c1c2ccccc2c(C(=O)N=[N+]=[N-])c2ccccc12)C(C)C
REMARK SMILES IDX 9 1 10 2 11 3 12 4 13 5 14 7 8 8 7 9 3 10 2 11 1 12 4 13
REMARK SMILES IDX 5 14 6 15 34 16 35 17 36 18 15 19 16 20 33 21 17 22 21 23
REMARK SMILES IDX 32 24 28 25 18 26 20 27 22 28 31 29 29 30 19 31 30 32 23 33
REMARK SMILES IDX 24 34 25 35 26 36 27 37
REMARK H PARENT 13 6
ROOT
ATOM      1  C   UNL     1      43.388 133.085  21.386  1.00  0.00     0.137 A 
ATOM      2  C   UNL     1      43.253 132.474  22.628  1.00  0.00     0.135 A 
ATOM      3  C   UNL     1      43.728 132.970  23.957  1.00  0.00     0.076 C 
ATOM      4  N   UNL     1      42.650 131.281  22.452  1.00  0.00     0.020 NA
ATOM      5  N   UNL     1      42.402 131.176  21.155  1.00  0.00    -0.012 N 
ATOM      6  H   UNL     1      41.925 130.356  20.716  1.00  0.00     0.527 HD
ATOM      7  N   UNL     1      42.827 132.241  20.496  1.00  0.00    -0.097 N 
ENDROOT
BRANCH   1   8
ATOM      8  C   UNL     1      43.983 134.439  21.057  1.00  0.00     0.164 C 
BRANCH   8   9
ATOM      9  N   UNL     1      43.570 135.370  22.112  1.00  0.00    -0.264 NA
BRANCH   9  10
ATOM     10  C   UNL     1      42.696 136.338  22.080  1.00  0.00     0.172 C 
BRANCH  10  11
ATOM     11  C   UNL     1      42.615 137.212  23.215  1.00  0.00    -0.049 C 
ATOM     12  C   UNL     1      42.549 137.946  24.169  1.00  0.00     0.011 C 
ENDBRANCH  10  11
BRANCH  10  13
ATOM     13  N   UNL     1      41.887 136.647  20.936  1.00  0.00    -0.032 NA
BRANCH  13  14
ATOM     14  N   UNL     1      42.127 137.584  20.176  1.00  0.00     0.008 N 
ATOM     15  N   UNL     1      42.360 138.531  19.424  1.00  0.00    -0.003 NA
ENDBRANCH  13  14
ENDBRANCH  10  13
ENDBRANCH   9  10
ENDBRANCH   8   9
BRANCH   8  16
ATOM     16  C   UNL     1      45.533 134.374  20.929  1.00  0.00     0.014 C 
ATOM     17  C   UNL     1      46.211 135.474  21.766  1.00  0.00     0.010 C 
ATOM     18  C   UNL     1      46.085 133.006  21.357  1.00  0.00     0.010 C 
ENDBRANCH   8  16
ENDBRANCH   1   8
BRANCH   7  19
ATOM     19  C   UNL     1      42.664 132.433  19.081  1.00  0.00     0.123 A 
ATOM     20  C   UNL     1      41.540 133.131  18.590  1.00  0.00     0.013 A 
ATOM     21  C   UNL     1      43.635 131.938  18.188  1.00  0.00     0.013 A 
ATOM     22  C   UNL     1      40.556 133.622  19.476  1.00  0.00     0.011 A 
ATOM     23  C   UNL     1      41.394 133.356  17.194  1.00  0.00    -0.004 A 
ATOM     24  C   UNL     1      44.760 131.233  18.669  1.00  0.00     0.011 A 
ATOM     25  C   UNL     1      43.492 132.148  16.790  1.00  0.00    -0.004 A 
ATOM     26  C   UNL     1      39.463 134.343  18.998  1.00  0.00     0.001 A 
ATOM     27  C   UNL     1      40.278 134.098  16.739  1.00  0.00     0.009 A 
ATOM     28  C   UNL     1      42.372 132.862  16.293  1.00  0.00     0.040 A 
ATOM     29  C   UNL     1      45.720 130.736  17.790  1.00  0.00     0.001 A 
ATOM     30  C   UNL     1      44.473 131.616  15.920  1.00  0.00     0.009 A 
ATOM     31  C   UNL     1      39.327 134.584  17.636  1.00  0.00     0.001 A 
ATOM     32  C   UNL     1      45.575 130.923  16.420  1.00  0.00     0.001 A 
BRANCH  28  33
ATOM     33  C   UNL     1      42.227 133.099  14.839  1.00  0.00     0.250 C 
ATOM     34  O   UNL     1      41.683 132.223  14.112  1.00  0.00    -0.287 OA
BRANCH  33  35
ATOM     35  N   UNL     1      42.704 134.321  14.268  1.00  0.00    -0.017 NA
BRANCH  35  36
ATOM     36  N   UNL     1      43.457 135.068  14.895  1.00  0.00     0.009 N 
ATOM     37  N   UNL     1      44.207 135.813  15.522  1.00  0.00    -0.003 NA
ENDBRANCH  35  36
ENDBRANCH  33  35
ENDBRANCH  28  33
ENDBRANCH   7  19
TORSDOF 11
ENDMDL
MODEL 8
REMARK VINA RESULT:      -4.9      2.971      6.011
REMARK SMILES C#C/C(N=[N+]=[N-])=N/[C@H](c1c(C)n[nH+]n1-c1c2ccccc2c(C(=O)N=[N+]=[N-])c2ccccc12)C(C)C
REMARK SMILES IDX 9 1 10 2 11 3 12 4 13 5 14 7 8 8 7 9 3 10 2 11 1 12 4 13
REMARK SMILES IDX 5 14 6 15 34 16 35 17 36 18 15 19 16 20 33 21 17 22 21 23
REMARK SMILES IDX 32 24 28 25 18 26 20 27 22 28 31 29 29 30 19 31 30 32 23 33
REMARK SMILES IDX 24 34 25 35 26 36 27 37
REMARK H PARENT 13 6
ROOT
ATOM      1  C   UNL     1      41.761 134.126  17.981  1.00  0.00     0.137 A 
ATOM      2  C   UNL     1      40.393 134.070  17.736  1.00  0.00     0.135 A 
ATOM      3  C   UNL     1      39.697 133.863  16.430  1.00  0.00     0.076 C 
ATOM      4  N   UNL     1      39.745 134.295  18.898  1.00  0.00     0.020 NA
ATOM      5  N   UNL     1      40.679 134.457  19.822  1.00  0.00    -0.012 N 
ATOM      6  H   UNL     1      40.478 134.636  20.832  1.00  0.00     0.527 HD
ATOM      7  N   UNL     1      41.891 134.356  19.304  1.00  0.00    -0.097 N 
ENDROOT
BRANCH   1   8
ATOM      8  C   UNL     1      42.906 133.921  17.009  1.00  0.00     0.164 C 
BRANCH   8   9
ATOM      9  N   UNL     1      42.759 132.582  16.430  1.00  0.00    -0.264 NA
BRANCH   9  10
ATOM     10  C   UNL     1      43.670 131.723  16.063  1.00  0.00     0.172 C 
BRANCH  10  11
ATOM     11  C   UNL     1      44.625 131.294  17.044  1.00  0.00    -0.049 C 
ATOM     12  C   UNL     1      45.429 130.933  17.867  1.00  0.00     0.011 C 
ENDBRANCH  10  11
BRANCH  10  13
ATOM     13  N   UNL     1      43.709 131.103  14.770  1.00  0.00    -0.032 NA
BRANCH  13  14
ATOM     14  N   UNL     1      44.756 130.891  14.158  1.00  0.00     0.008 N 
ATOM     15  N   UNL     1      45.797 130.665  13.542  1.00  0.00    -0.003 NA
ENDBRANCH  13  14
ENDBRANCH  10  13
ENDBRANCH   9  10
ENDBRANCH   8   9
BRANCH   8  16
ATOM     16  C   UNL     1      42.930 135.019  15.905  1.00  0.00     0.014 C 
ATOM     17  C   UNL     1      42.287 136.327  16.401  1.00  0.00     0.010 C 
ATOM     18  C   UNL     1      44.359 135.314  15.424  1.00  0.00     0.010 C 
ENDBRANCH   8  16
ENDBRANCH   1   8
BRANCH   7  19
ATOM     19  C   UNL     1      43.106 134.448  20.067  1.00  0.00     0.123 A 
ATOM     20  C   UNL     1      43.652 133.291  20.665  1.00  0.00     0.013 A 
ATOM     21  C   UNL     1      43.758 135.690  20.203  1.00  0.00     0.013 A 
ATOM     22  C   UNL     1      43.000 132.044  20.543  1.00  0.00     0.011 A 
ATOM     23  C   UNL     1      44.872 133.371  21.389  1.00  0.00    -0.004 A 
ATOM     24  C   UNL     1      43.218 136.853  19.614  1.00  0.00     0.011 A 
ATOM     25  C   UNL     1      44.973 135.781  20.935  1.00  0.00    -0.004 A 
ATOM     26  C   UNL     1      43.554 130.894  21.101  1.00  0.00     0.001 A 
ATOM     27  C   UNL     1      45.414 132.184  21.937  1.00  0.00     0.009 A 
ATOM     28  C   UNL     1      45.534 134.619  21.524  1.00  0.00     0.040 A 
ATOM     29  C   UNL     1      43.856 138.084  19.751  1.00  0.00     0.001 A 
ATOM     30  C   UNL     1      45.589 137.048  21.072  1.00  0.00     0.009 A 
ATOM     31  C   UNL     1      44.758 130.963  21.791  1.00  0.00     0.001 A 
ATOM     32  C   UNL     1      45.035 138.182  20.480  1.00  0.00     0.001 A 
BRANCH  28  33
ATOM     33  C   UNL     1      46.807 134.705  22.272  1.00  0.00     0.250 C 
ATOM     34  O   UNL     1      46.791 134.873  23.523  1.00  0.00    -0.287 OA
BRANCH  33  35
ATOM     35  N   UNL     1      48.050 134.596  21.572  1.00  0.00    -0.017 NA
BRANCH  35  36
ATOM     36  N   UNL     1      48.872 135.513  21.583  1.00  0.00     0.009 N 
ATOM     37  N   UNL     1      49.692 136.429  21.595  1.00  0.00    -0.003 NA
ENDBRANCH  35  36
ENDBRANCH  33  35
ENDBRANCH  28  33
ENDBRANCH   7  19
TORSDOF 11
ENDMDL
MODEL 9
REMARK VINA RESULT:      -4.9      2.576      5.511
REMARK SMILES C#C/C(N=[N+]=[N-])=N/[C@H](c1c(C)n[nH+]n1-c1c2ccccc2c(C(=O)N=[N+]=[N-])c2ccccc12)C(C)C
REMARK SMILES IDX 9 1 10 2 11 3 12 4 13 5 14 7 8 8 7 9 3 10 2 11 1 12 4 13
REMARK SMILES IDX 5 14 6 15 34 16 35 17 36 18 15 19 16 20 33 21 17 22 21 23
REMARK SMILES IDX 32 24 28 25 18 26 20 27 22 28 31 29 29 30 19 31 30 32 23 33
REMARK SMILES IDX 24 34 25 35 26 36 27 37
REMARK H PARENT 13 6
ROOT
ATOM      1  C   UNL     1      41.584 135.671  16.128  1.00  0.00     0.137 A 
ATOM      2  C   UNL     1      41.547 136.721  15.217  1.00  0.00     0.135 A 
ATOM      3  C   UNL     1      40.373 137.232  14.445  1.00  0.00     0.076 C 
ATOM      4  N   UNL     1      42.797 137.207  15.077  1.00  0.00     0.020 NA
ATOM      5  N   UNL     1      43.567 136.499  15.889  1.00  0.00    -0.012 N 
ATOM      6  H   UNL     1      44.593 136.655  16.007  1.00  0.00     0.527 HD
ATOM      7  N   UNL     1      42.868 135.579  16.533  1.00  0.00    -0.097 N 
ENDROOT
BRANCH   1   8
ATOM      8  C   UNL     1      40.440 134.817  16.635  1.00  0.00     0.164 C 
BRANCH   8   9
ATOM      9  N   UNL     1      39.375 135.723  17.076  1.00  0.00    -0.264 NA
BRANCH   9  10
ATOM     10  C   UNL     1      39.196 136.308  18.228  1.00  0.00     0.172 C 
BRANCH  10  11
ATOM     11  C   UNL     1      39.543 137.696  18.340  1.00  0.00    -0.049 C 
ATOM     12  C   UNL     1      39.834 138.862  18.435  1.00  0.00     0.011 C 
ENDBRANCH  10  11
BRANCH  10  13
ATOM     13  N   UNL     1      38.576 135.678  19.358  1.00  0.00    -0.032 NA
BRANCH  13  14
ATOM     14  N   UNL     1      39.211 135.076  20.224  1.00  0.00     0.008 N 
ATOM     15  N   UNL     1      39.852 134.486  21.093  1.00  0.00    -0.003 NA
ENDBRANCH  13  14
ENDBRANCH  10  13
ENDBRANCH   9  10
ENDBRANCH   8   9
BRANCH   8  16
ATOM     16  C   UNL     1      39.932 133.827  15.547  1.00  0.00     0.014 C 
ATOM     17  C   UNL     1      38.525 134.210  15.054  1.00  0.00     0.010 C 
ATOM     18  C   UNL     1      40.884 133.763  14.343  1.00  0.00     0.010 C 
ENDBRANCH   8  16
ENDBRANCH   1   8
BRANCH   7  19
ATOM     19  C   UNL     1      43.421 134.683  17.513  1.00  0.00     0.123 A 
ATOM     20  C   UNL     1      43.383 135.026  18.882  1.00  0.00     0.013 A 
ATOM     21  C   UNL     1      43.984 133.458  17.105  1.00  0.00     0.013 A 
ATOM     22  C   UNL     1      42.830 136.256  19.299  1.00  0.00     0.011 A 
ATOM     23  C   UNL     1      43.895 134.127  19.856  1.00  0.00    -0.004 A 
ATOM     24  C   UNL     1      44.032 133.109  15.738  1.00  0.00     0.011 A 
ATOM     25  C   UNL     1      44.508 132.557  18.071  1.00  0.00    -0.004 A 
ATOM     26  C   UNL     1      42.758 136.583  20.652  1.00  0.00     0.001 A 
ATOM     27  C   UNL     1      43.800 134.482  21.222  1.00  0.00     0.009 A 
ATOM     28  C   UNL     1      44.458 132.890  19.449  1.00  0.00     0.040 A 
ATOM     29  C   UNL     1      44.593 131.901  15.329  1.00  0.00     0.001 A 
ATOM     30  C   UNL     1      45.088 131.346  17.625  1.00  0.00     0.009 A 
ATOM     31  C   UNL     1      43.237 135.697  21.610  1.00  0.00     0.001 A 
ATOM     32  C   UNL     1      45.123 131.024  16.268  1.00  0.00     0.001 A 
BRANCH  28  33
ATOM     33  C   UNL     1      44.987 131.948  20.460  1.00  0.00     0.250 C 
ATOM     34  O   UNL     1      46.171 132.076  20.879  1.00  0.00    -0.287 OA
BRANCH  33  35
ATOM     35  N   UNL     1      44.151 130.899  20.959  1.00  0.00    -0.017 NA
BRANCH  35  36
ATOM     36  N   UNL     1      43.412 131.078  21.927  1.00  0.00     0.009 N 
ATOM     37  N   UNL     1      42.673 131.256  22.894  1.00  0.00    -0.003 NA
ENDBRANCH  35  36
ENDBRANCH  33  35
ENDBRANCH  28  33
ENDBRANCH   7  19
TORSDOF 11
ENDMDL


