REMARK SMILES [N-]=[N+]=Nc1cc(Cl)cc2c(CNO)c(OCCc3cn(C[C@H](N=[N+]=[N-])C(=O)[O-])[nH+]n3)ccc12
REMARK SMILES IDX 16 1 15 2 14 3 10 4 9 5 31 6 8 7 33 8 32 9 6 10 4 11 5 12
REMARK SMILES IDX 7 13 11 14 12 15 13 17 3 19 2 20 1 21 17 22 18 23 30 24
REMARK SMILES IDX 19 25 29 26 20 27 21 29 22 30 23 31 24 32 25 33 26 34 27 35
REMARK SMILES IDX 28 36
REMARK H PARENT 12 16 13 18 29 28
ROOT
ATOM      1  C   UNL     1      -0.348  -2.161   1.015  1.00  0.00     0.236 C 
ENDROOT
BRANCH   1   2
ATOM      2  O   UNL     1       0.010  -0.784   0.927  1.00  0.00    -0.493 OA
BRANCH   2   3
ATOM      3  C   UNL     1       1.325  -0.292   0.874  1.00  0.00     0.124 A 
ATOM      4  C   UNL     1       1.531   1.099   0.741  1.00  0.00     0.018 A 
ATOM      5  C   UNL     1       2.861   1.615   0.733  1.00  0.00    -0.008 A 
ATOM      6  C   UNL     1       2.427  -1.154   0.962  1.00  0.00     0.047 A 
ATOM      7  C   UNL     1       3.119   3.004   0.713  1.00  0.00     0.029 A 
ATOM      8  C   UNL     1       3.969   0.717   0.767  1.00  0.00    -0.008 A 
ATOM      9  C   UNL     1       3.724  -0.659   0.911  1.00  0.00     0.013 A 
ATOM     10  C   UNL     1       4.424   3.492   0.725  1.00  0.00     0.042 A 
ATOM     11  C   UNL     1       5.295   1.230   0.708  1.00  0.00     0.047 A 
ATOM     12  C   UNL     1       5.501   2.611   0.724  1.00  0.00     0.031 A 
ATOM     13  Cl  UNL     1       4.713   5.223   0.725  1.00  0.00    -0.084 Cl
BRANCH   4  14
ATOM     14  C   UNL     1       0.310   2.007   0.643  1.00  0.00     0.151 C 
BRANCH  14  15
ATOM     15  N   UNL     1      -0.067   2.559   1.947  1.00  0.00    -0.201 NA
ATOM     16  H   UNL     1       0.778   2.957   2.417  1.00  0.00     0.155 HD
BRANCH  15  17
ATOM     17  O   UNL     1      -0.520   1.546   2.726  1.00  0.00    -0.316 OA
ATOM     18  H   UNL     1      -1.455   1.794   2.941  1.00  0.00     0.238 HD
ENDBRANCH  15  17
ENDBRANCH  14  15
ENDBRANCH   4  14
BRANCH  11  19
ATOM     19  N   UNL     1       6.457   0.393   0.628  1.00  0.00    -0.060 NA
BRANCH  19  20
ATOM     20  N   UNL     1       6.526  -0.557  -0.153  1.00  0.00     0.005 N 
ATOM     21  N   UNL     1       6.597  -1.504  -0.935  1.00  0.00    -0.003 NA
ENDBRANCH  19  20
ENDBRANCH  11  19
ENDBRANCH   2   3
ENDBRANCH   1   2
BRANCH   1  22
ATOM     22  C   UNL     1      -1.868  -2.299   1.034  1.00  0.00     0.106 C 
BRANCH  22  23
ATOM     23  C   UNL     1      -2.474  -1.727  -0.210  1.00  0.00     0.135 A 
ATOM     24  N   UNL     1      -2.918  -0.458  -0.330  1.00  0.00     0.020 NA
ATOM     25  C   UNL     1      -2.583  -2.352  -1.436  1.00  0.00     0.183 A 
ATOM     26  N   UNL     1      -3.305  -0.324  -1.590  1.00  0.00    -0.017 N 
ATOM     27  N   UNL     1      -3.112  -1.442  -2.272  1.00  0.00    -0.136 N 
ATOM     28  H   UNL     1      -3.700   0.556  -1.988  1.00  0.00     0.526 HD
BRANCH  27  29
ATOM     29  C   UNL     1      -3.445  -1.635  -3.683  1.00  0.00     0.207 C 
BRANCH  29  30
ATOM     30  C   UNL     1      -4.911  -2.067  -3.868  1.00  0.00     0.145 C 
BRANCH  30  31
ATOM     31  N   UNL     1      -5.829  -1.075  -3.314  1.00  0.00    -0.083 NA
BRANCH  31  32
ATOM     32  N   UNL     1      -5.918   0.052  -3.802  1.00  0.00     0.002 N 
ATOM     33  N   UNL     1      -6.007   1.178  -4.288  1.00  0.00    -0.003 NA
ENDBRANCH  31  32
ENDBRANCH  30  31
BRANCH  30  34
ATOM     34  C   UNL     1      -5.162  -3.407  -3.239  1.00  0.00     0.052 C 
ATOM     35  O   UNL     1      -5.535  -3.494  -2.038  1.00  0.00    -0.550 OA
ATOM     36  O   UNL     1      -4.931  -4.566  -3.968  1.00  0.00    -0.550 OA
ENDBRANCH  30  34
ENDBRANCH  29  30
ENDBRANCH  27  29
ENDBRANCH  22  23
ENDBRANCH   1  22
TORSDOF 14


