REMARK SMILES C#CCO/C([O-])=C\[C@H]1CC[C@@H]2C(O/C([O-])=C/CC)=NC(=O)c3c(N=[N+]=[N-])cc(Cl)c1c32
REMARK SMILES IDX 8 1 30 2 28 3 29 4 27 5 23 6 22 7 31 8 11 9 12 10 19 11
REMARK SMILES IDX 20 12 21 13 10 14 9 15 7 16 5 17 6 18 4 19 3 20 2 21 1 22
REMARK SMILES IDX 24 23 25 24 26 25 13 26 14 27 15 28 16 29 17 30 18 31
REMARK H PARENT
ROOT
ATOM      1  C   UNL     1      -0.443  -0.905  -3.706  1.00  0.00     0.045 C 
ATOM      2  C   UNL     1       0.111   0.406  -3.133  1.00  0.00    -0.018 A 
ATOM      3  C   UNL     1       0.551   1.425  -4.008  1.00  0.00     0.045 A 
ATOM      4  Cl  UNL     1       0.417   1.284  -5.761  1.00  0.00    -0.084 Cl
ATOM      5  C   UNL     1       1.097   2.603  -3.502  1.00  0.00     0.032 A 
ATOM      6  C   UNL     1       1.185   2.825  -2.120  1.00  0.00     0.052 A 
ATOM      7  C   UNL     1       0.697   1.842  -1.230  1.00  0.00     0.056 A 
ATOM      8  C   UNL     1       0.158   0.637  -1.733  1.00  0.00    -0.020 A 
ATOM      9  C   UNL     1      -0.306  -0.445  -0.770  1.00  0.00     0.077 C 
ATOM     10  C   UNL     1      -0.649   0.079   0.612  1.00  0.00     0.091 C 
ATOM     11  N   UNL     1      -0.145   1.196   1.046  1.00  0.00    -0.205 NA
ATOM     12  C   UNL     1       0.650   2.058   0.234  1.00  0.00     0.278 C 
ATOM     13  O   UNL     1       1.268   3.009   0.781  1.00  0.00    -0.267 OA
ATOM     14  C   UNL     1      -1.488  -1.202  -1.385  1.00  0.00     0.016 C 
ATOM     15  C   UNL     1      -1.026  -1.893  -2.664  1.00  0.00     0.014 C 
ENDROOT
BRANCH   1  16
ATOM     16  C   UNL     1       0.589  -1.620  -4.555  1.00  0.00     0.005 C 
BRANCH  16  17
ATOM     17  C   UNL     1       1.812  -1.936  -4.114  1.00  0.00     0.049 C 
ATOM     18  O   UNL     1       2.698  -2.592  -4.963  1.00  0.00    -0.547 OA
BRANCH  17  19
ATOM     19  O   UNL     1       2.201  -1.601  -2.814  1.00  0.00    -0.601 OA
BRANCH  19  20
ATOM     20  C   UNL     1       3.500  -1.863  -2.305  1.00  0.00     0.160 C 
BRANCH  20  21
ATOM     21  C   UNL     1       3.595  -1.316  -0.951  1.00  0.00    -0.095 C 
ATOM     22  C   UNL     1       3.663  -0.860   0.162  1.00  0.00     0.005 C 
ENDBRANCH  20  21
ENDBRANCH  19  20
ENDBRANCH  17  19
ENDBRANCH  16  17
ENDBRANCH   1  16
BRANCH   6  23
ATOM     23  N   UNL     1       1.729   4.055  -1.613  1.00  0.00    -0.060 NA
BRANCH  23  24
ATOM     24  N   UNL     1       2.163   4.944  -2.347  1.00  0.00     0.005 N 
ATOM     25  N   UNL     1       2.597   5.832  -3.079  1.00  0.00    -0.003 NA
ENDBRANCH  23  24
ENDBRANCH   6  23
BRANCH  10  26
ATOM     26  O   UNL     1      -1.438  -0.718   1.456  1.00  0.00    -0.567 OA
BRANCH  26  27
ATOM     27  C   UNL     1      -1.873  -0.366   2.741  1.00  0.00     0.053 C 
ATOM     28  O   UNL     1      -1.574   0.881   3.284  1.00  0.00    -0.547 OA
BRANCH  27  29
ATOM     29  C   UNL     1      -2.584  -1.252   3.443  1.00  0.00    -0.003 C 
BRANCH  29  30
ATOM     30  C   UNL     1      -3.093  -0.975   4.830  1.00  0.00     0.026 C 
ATOM     31  C   UNL     1      -4.295  -0.034   4.803  1.00  0.00     0.008 C 
ENDBRANCH  29  30
ENDBRANCH  27  29
ENDBRANCH  26  27
ENDBRANCH  10  26
TORSDOF 11


