MODEL 1
REMARK VINA RESULT:      -5.5      0.000      0.000
REMARK SMILES [N-]=[N+]=Nc1cc(Cl)cc2c(CNO)c(OCCc3cn(C[C@H](N)C(=O)[O-])[nH+]n3)ccc12
REMARK SMILES IDX 16 1 15 2 14 3 10 4 9 5 29 6 8 7 31 8 30 9 6 10 4 11 5 12
REMARK SMILES IDX 7 13 11 14 12 15 13 17 3 19 2 20 1 21 17 22 18 23 28 24
REMARK SMILES IDX 19 25 27 26 20 27 21 29 22 30 24 31 25 32 26 33 23 34
REMARK H PARENT 12 16 13 18 27 28 23 35 23 36
ROOT
ATOM      1  C   UNL     1      42.601 131.773  21.885  1.00  0.00     0.236 C 
ENDROOT
BRANCH   1   2
ATOM      2  O   UNL     1      43.788 132.135  21.179  1.00  0.00    -0.493 OA
BRANCH   2   3
ATOM      3  C   UNL     1      43.921 132.243  19.781  1.00  0.00     0.124 A 
ATOM      4  C   UNL     1      44.923 131.485  19.132  1.00  0.00     0.018 A 
ATOM      5  C   UNL     1      45.040 131.545  17.709  1.00  0.00    -0.008 A 
ATOM      6  C   UNL     1      43.090 133.088  19.029  1.00  0.00     0.047 A 
ATOM      7  C   UNL     1      45.977 130.763  16.998  1.00  0.00     0.029 A 
ATOM      8  C   UNL     1      44.184 132.412  16.970  1.00  0.00    -0.008 A 
ATOM      9  C   UNL     1      43.224 133.176  17.650  1.00  0.00     0.013 A 
ATOM     10  C   UNL     1      46.079 130.849  15.610  1.00  0.00     0.042 A 
ATOM     11  C   UNL     1      44.297 132.498  15.562  1.00  0.00     0.047 A 
ATOM     12  C   UNL     1      45.252 131.711  14.896  1.00  0.00     0.031 A 
ATOM     13  Cl  UNL     1      47.253 129.862  14.756  1.00  0.00    -0.084 Cl
BRANCH   4  14
ATOM     14  C   UNL     1      45.813 130.598  19.995  1.00  0.00     0.151 C 
BRANCH  14  15
ATOM     15  N   UNL     1      46.480 131.360  21.057  1.00  0.00    -0.201 NA
ATOM     16  H   UNL     1      46.248 132.380  20.973  1.00  0.00     0.155 HD
BRANCH  15  17
ATOM     17  O   UNL     1      46.088 130.881  22.271  1.00  0.00    -0.316 OA
ATOM     18  H   UNL     1      46.784 131.147  22.930  1.00  0.00     0.238 HD
ENDBRANCH  15  17
ENDBRANCH  14  15
ENDBRANCH   4  14
BRANCH  11  19
ATOM     19  N   UNL     1      43.436 133.381  14.822  1.00  0.00    -0.060 NA
BRANCH  19  20
ATOM     20  N   UNL     1      42.324 133.041  14.416  1.00  0.00     0.005 N 
ATOM     21  N   UNL     1      41.215 132.700  14.009  1.00  0.00    -0.003 NA
ENDBRANCH  19  20
ENDBRANCH  11  19
ENDBRANCH   2   3
ENDBRANCH   1   2
BRANCH   1  22
ATOM     22  C   UNL     1      42.570 132.440  23.261  1.00  0.00     0.106 C 
BRANCH  22  23
ATOM     23  C   UNL     1      43.508 133.604  23.300  1.00  0.00     0.135 A 
ATOM     24  N   UNL     1      43.227 134.831  22.813  1.00  0.00     0.020 NA
ATOM     25  C   UNL     1      44.753 133.638  23.897  1.00  0.00     0.183 A 
ATOM     26  N   UNL     1      44.280 135.585  23.092  1.00  0.00    -0.017 N 
ATOM     27  N   UNL     1      45.203 134.895  23.745  1.00  0.00    -0.135 N 
ATOM     28  H   UNL     1      44.365 136.592  22.830  1.00  0.00     0.526 HD
BRANCH  27  29
ATOM     29  C   UNL     1      46.498 135.422  24.171  1.00  0.00     0.216 C 
BRANCH  29  30
ATOM     30  C   UNL     1      47.466 135.527  22.977  1.00  0.00     0.123 C 
BRANCH  30  31
ATOM     31  C   UNL     1      48.411 136.676  23.179  1.00  0.00     0.060 C 
ATOM     32  O   UNL     1      49.175 136.698  24.179  1.00  0.00    -0.548 OA
ATOM     33  O   UNL     1      48.466 137.709  22.251  1.00  0.00    -0.548 OA
ENDBRANCH  30  31
BRANCH  30  34
ATOM     34  N   UNL     1      48.233 134.293  22.790  1.00  0.00    -0.321 NA
ATOM     35  H   UNL     1      47.578 133.523  22.517  1.00  0.00     0.119 HD
ATOM     36  H   UNL     1      48.684 134.016  23.693  1.00  0.00     0.119 HD
ENDBRANCH  30  34
ENDBRANCH  29  30
ENDBRANCH  27  29
ENDBRANCH  22  23
ENDBRANCH   1  22
TORSDOF 13
ENDMDL
MODEL 2
REMARK VINA RESULT:      -5.5      2.809      3.707
REMARK SMILES [N-]=[N+]=Nc1cc(Cl)cc2c(CNO)c(OCCc3cn(C[C@H](N)C(=O)[O-])[nH+]n3)ccc12
REMARK SMILES IDX 16 1 15 2 14 3 10 4 9 5 29 6 8 7 31 8 30 9 6 10 4 11 5 12
REMARK SMILES IDX 7 13 11 14 12 15 13 17 3 19 2 20 1 21 17 22 18 23 28 24
REMARK SMILES IDX 19 25 27 26 20 27 21 29 22 30 24 31 25 32 26 33 23 34
REMARK H PARENT 12 16 13 18 27 28 23 35 23 36
ROOT
ATOM      1  C   UNL     1      45.074 131.325  21.911  1.00  0.00     0.236 C 
ENDROOT
BRANCH   1   2
ATOM      2  O   UNL     1      44.176 131.908  20.967  1.00  0.00    -0.493 OA
BRANCH   2   3
ATOM      3  C   UNL     1      44.224 131.747  19.568  1.00  0.00     0.124 A 
ATOM      4  C   UNL     1      43.211 132.339  18.779  1.00  0.00     0.018 A 
ATOM      5  C   UNL     1      43.271 132.227  17.356  1.00  0.00    -0.008 A 
ATOM      6  C   UNL     1      45.245 131.007  18.951  1.00  0.00     0.047 A 
ATOM      7  C   UNL     1      42.326 132.852  16.511  1.00  0.00     0.029 A 
ATOM      8  C   UNL     1      44.317 131.471  16.755  1.00  0.00    -0.008 A 
ATOM      9  C   UNL     1      45.287 130.866  17.570  1.00  0.00     0.013 A 
ATOM     10  C   UNL     1      42.400 132.717  15.126  1.00  0.00     0.042 A 
ATOM     11  C   UNL     1      44.383 131.333  15.347  1.00  0.00     0.047 A 
ATOM     12  C   UNL     1      43.415 131.960  14.546  1.00  0.00     0.031 A 
ATOM     13  Cl  UNL     1      41.211 133.506  14.105  1.00  0.00    -0.084 Cl
BRANCH   4  14
ATOM     14  C   UNL     1      42.113 133.115  19.499  1.00  0.00     0.151 C 
BRANCH  14  15
ATOM     15  N   UNL     1      42.518 134.496  19.787  1.00  0.00    -0.201 NA
ATOM     16  H   UNL     1      41.763 135.165  19.497  1.00  0.00     0.155 HD
BRANCH  15  17
ATOM     17  O   UNL     1      42.778 134.622  21.119  1.00  0.00    -0.316 OA
ATOM     18  H   UNL     1      41.902 134.663  21.588  1.00  0.00     0.238 HD
ENDBRANCH  15  17
ENDBRANCH  14  15
ENDBRANCH   4  14
BRANCH  11  19
ATOM     19  N   UNL     1      45.438 130.560  14.748  1.00  0.00    -0.060 NA
BRANCH  19  20
ATOM     20  N   UNL     1      46.437 131.076  14.244  1.00  0.00     0.005 N 
ATOM     21  N   UNL     1      47.434 131.591  13.742  1.00  0.00    -0.003 NA
ENDBRANCH  19  20
ENDBRANCH  11  19
ENDBRANCH   2   3
ENDBRANCH   1   2
BRANCH   1  22
ATOM     22  C   UNL     1      45.039 132.096  23.232  1.00  0.00     0.106 C 
BRANCH  22  23
ATOM     23  C   UNL     1      45.749 133.406  23.093  1.00  0.00     0.135 A 
ATOM     24  N   UNL     1      46.162 134.166  24.128  1.00  0.00     0.020 NA
ATOM     25  C   UNL     1      46.159 133.998  21.915  1.00  0.00     0.183 A 
ATOM     26  N   UNL     1      46.791 135.202  23.592  1.00  0.00    -0.017 N 
ATOM     27  N   UNL     1      46.807 135.121  22.271  1.00  0.00    -0.135 N 
ATOM     28  H   UNL     1      47.219 135.977  24.146  1.00  0.00     0.526 HD
BRANCH  27  29
ATOM     29  C   UNL     1      47.393 136.117  21.377  1.00  0.00     0.216 C 
BRANCH  29  30
ATOM     30  C   UNL     1      46.418 137.287  21.148  1.00  0.00     0.123 C 
BRANCH  30  31
ATOM     31  C   UNL     1      45.722 137.126  19.827  1.00  0.00     0.060 C 
ATOM     32  O   UNL     1      45.995 137.897  18.869  1.00  0.00    -0.548 OA
ATOM     33  O   UNL     1      44.793 136.110  19.644  1.00  0.00    -0.548 OA
ENDBRANCH  30  31
BRANCH  30  34
ATOM     34  N   UNL     1      45.418 137.379  22.215  1.00  0.00    -0.321 NA
ATOM     35  H   UNL     1      44.906 138.287  22.123  1.00  0.00     0.119 HD
ATOM     36  H   UNL     1      45.895 137.380  23.147  1.00  0.00     0.119 HD
ENDBRANCH  30  34
ENDBRANCH  29  30
ENDBRANCH  27  29
ENDBRANCH  22  23
ENDBRANCH   1  22
TORSDOF 13
ENDMDL
MODEL 3
REMARK VINA RESULT:      -5.3      4.323      8.100
REMARK SMILES [N-]=[N+]=Nc1cc(Cl)cc2c(CNO)c(OCCc3cn(C[C@H](N)C(=O)[O-])[nH+]n3)ccc12
REMARK SMILES IDX 16 1 15 2 14 3 10 4 9 5 29 6 8 7 31 8 30 9 6 10 4 11 5 12
REMARK SMILES IDX 7 13 11 14 12 15 13 17 3 19 2 20 1 21 17 22 18 23 28 24
REMARK SMILES IDX 19 25 27 26 20 27 21 29 22 30 24 31 25 32 26 33 23 34
REMARK H PARENT 12 16 13 18 27 28 23 35 23 36
ROOT
ATOM      1  C   UNL     1      41.284 135.845  16.190  1.00  0.00     0.236 C 
ENDROOT
BRANCH   1   2
ATOM      2  O   UNL     1      42.047 135.186  17.201  1.00  0.00    -0.493 OA
BRANCH   2   3
ATOM      3  C   UNL     1      43.046 135.775  18.001  1.00  0.00     0.124 A 
ATOM      4  C   UNL     1      43.594 135.026  19.068  1.00  0.00     0.018 A 
ATOM      5  C   UNL     1      44.641 135.589  19.859  1.00  0.00    -0.008 A 
ATOM      6  C   UNL     1      43.495 137.084  17.767  1.00  0.00     0.047 A 
ATOM      7  C   UNL     1      45.273 134.865  20.896  1.00  0.00     0.029 A 
ATOM      8  C   UNL     1      45.079 136.919  19.601  1.00  0.00    -0.008 A 
ATOM      9  C   UNL     1      44.488 137.648  18.556  1.00  0.00     0.013 A 
ATOM     10  C   UNL     1      46.285 135.443  21.662  1.00  0.00     0.042 A 
ATOM     11  C   UNL     1      46.103 137.501  20.386  1.00  0.00     0.047 A 
ATOM     12  C   UNL     1      46.694 136.750  21.415  1.00  0.00     0.031 A 
ATOM     13  Cl  UNL     1      47.051 134.517  22.941  1.00  0.00    -0.084 Cl
BRANCH   4  14
ATOM     14  C   UNL     1      43.057 133.616  19.294  1.00  0.00     0.151 C 
BRANCH  14  15
ATOM     15  N   UNL     1      43.457 132.700  18.220  1.00  0.00    -0.201 NA
ATOM     16  H   UNL     1      44.141 131.991  18.582  1.00  0.00     0.155 HD
BRANCH  15  17
ATOM     17  O   UNL     1      42.351 132.081  17.719  1.00  0.00    -0.316 OA
ATOM     18  H   UNL     1      42.278 131.197  18.169  1.00  0.00     0.238 HD
ENDBRANCH  15  17
ENDBRANCH  14  15
ENDBRANCH   4  14
BRANCH  11  19
ATOM     19  N   UNL     1      46.534 138.848  20.125  1.00  0.00    -0.060 NA
BRANCH  19  20
ATOM     20  N   UNL     1      47.674 139.121  19.747  1.00  0.00     0.005 N 
ATOM     21  N   UNL     1      48.813 139.393  19.370  1.00  0.00    -0.003 NA
ENDBRANCH  19  20
ENDBRANCH  11  19
ENDBRANCH   2   3
ENDBRANCH   1   2
BRANCH   1  22
ATOM     22  C   UNL     1      41.793 135.463  14.799  1.00  0.00     0.106 C 
BRANCH  22  23
ATOM     23  C   UNL     1      42.784 134.347  14.892  1.00  0.00     0.135 A 
ATOM     24  N   UNL     1      44.001 134.449  15.468  1.00  0.00     0.020 NA
ATOM     25  C   UNL     1      42.593 133.041  14.486  1.00  0.00     0.183 A 
ATOM     26  N   UNL     1      44.540 133.241  15.398  1.00  0.00    -0.017 N 
ATOM     27  N   UNL     1      43.715 132.381  14.821  1.00  0.00    -0.135 N 
ATOM     28  H   UNL     1      45.492 133.003  15.757  1.00  0.00     0.526 HD
BRANCH  27  29
ATOM     29  C   UNL     1      44.018 130.975  14.562  1.00  0.00     0.216 C 
BRANCH  29  30
ATOM     30  C   UNL     1      45.530 130.770  14.354  1.00  0.00     0.123 C 
BRANCH  30  31
ATOM     31  C   UNL     1      46.029 129.672  15.249  1.00  0.00     0.060 C 
ATOM     32  O   UNL     1      45.577 128.503  15.128  1.00  0.00    -0.548 OA
ATOM     33  O   UNL     1      47.009 129.933  16.198  1.00  0.00    -0.548 OA
ENDBRANCH  30  31
BRANCH  30  34
ATOM     34  N   UNL     1      45.849 130.445  12.961  1.00  0.00    -0.321 NA
ATOM     35  H   UNL     1      46.565 131.122  12.610  1.00  0.00     0.119 HD
ATOM     36  H   UNL     1      44.994 130.555  12.368  1.00  0.00     0.119 HD
ENDBRANCH  30  34
ENDBRANCH  29  30
ENDBRANCH  27  29
ENDBRANCH  22  23
ENDBRANCH   1  22
TORSDOF 13
ENDMDL
MODEL 4
REMARK VINA RESULT:      -5.1      5.477      9.619
REMARK SMILES [N-]=[N+]=Nc1cc(Cl)cc2c(CNO)c(OCCc3cn(C[C@H](N)C(=O)[O-])[nH+]n3)ccc12
REMARK SMILES IDX 16 1 15 2 14 3 10 4 9 5 29 6 8 7 31 8 30 9 6 10 4 11 5 12
REMARK SMILES IDX 7 13 11 14 12 15 13 17 3 19 2 20 1 21 17 22 18 23 28 24
REMARK SMILES IDX 19 25 27 26 20 27 21 29 22 30 24 31 25 32 26 33 23 34
REMARK H PARENT 12 16 13 18 27 28 23 35 23 36
ROOT
ATOM      1  C   UNL     1      42.661 134.058  14.268  1.00  0.00     0.236 C 
ENDROOT
BRANCH   1   2
ATOM      2  O   UNL     1      43.842 134.204  15.058  1.00  0.00    -0.493 OA
BRANCH   2   3
ATOM      3  C   UNL     1      43.890 134.337  16.460  1.00  0.00     0.124 A 
ATOM      4  C   UNL     1      44.209 133.203  17.241  1.00  0.00     0.018 A 
ATOM      5  C   UNL     1      44.310 133.330  18.660  1.00  0.00    -0.008 A 
ATOM      6  C   UNL     1      43.619 135.562  17.089  1.00  0.00     0.047 A 
ATOM      7  C   UNL     1      44.690 132.249  19.488  1.00  0.00     0.029 A 
ATOM      8  C   UNL     1      44.030 134.585  19.274  1.00  0.00    -0.008 A 
ATOM      9  C   UNL     1      43.682 135.682  18.471  1.00  0.00     0.013 A 
ATOM     10  C   UNL     1      44.769 132.398  20.872  1.00  0.00     0.042 A 
ATOM     11  C   UNL     1      44.108 134.726  20.680  1.00  0.00     0.047 A 
ATOM     12  C   UNL     1      44.476 133.622  21.466  1.00  0.00     0.031 A 
ATOM     13  Cl  UNL     1      45.244 131.036  21.872  1.00  0.00    -0.084 Cl
BRANCH   4  14
ATOM     14  C   UNL     1      44.475 131.890  16.511  1.00  0.00     0.151 C 
BRANCH  14  15
ATOM     15  N   UNL     1      45.752 131.914  15.789  1.00  0.00    -0.201 NA
ATOM     16  H   UNL     1      46.377 131.143  16.130  1.00  0.00     0.155 HD
BRANCH  15  17
ATOM     17  O   UNL     1      45.519 131.782  14.453  1.00  0.00    -0.316 OA
ATOM     18  H   UNL     1      46.399 131.840  13.994  1.00  0.00     0.238 HD
ENDBRANCH  15  17
ENDBRANCH  14  15
ENDBRANCH   4  14
BRANCH  11  19
ATOM     19  N   UNL     1      43.815 135.994  21.294  1.00  0.00    -0.060 NA
BRANCH  19  20
ATOM     20  N   UNL     1      44.371 136.379  22.323  1.00  0.00     0.005 N 
ATOM     21  N   UNL     1      44.927 136.763  23.351  1.00  0.00    -0.003 NA
ENDBRANCH  19  20
ENDBRANCH  11  19
ENDBRANCH   2   3
ENDBRANCH   1   2
BRANCH   1  22
ATOM     22  C   UNL     1      41.419 134.025  15.160  1.00  0.00     0.106 C 
BRANCH  22  23
ATOM     23  C   UNL     1      40.179 134.180  14.338  1.00  0.00     0.135 A 
ATOM     24  N   UNL     1      39.176 133.279  14.288  1.00  0.00     0.020 NA
ATOM     25  C   UNL     1      39.829 135.277  13.577  1.00  0.00     0.183 A 
ATOM     26  N   UNL     1      38.249 133.807  13.504  1.00  0.00    -0.017 N 
ATOM     27  N   UNL     1      38.613 135.004  13.071  1.00  0.00    -0.135 N 
ATOM     28  H   UNL     1      37.348 133.337  13.263  1.00  0.00     0.526 HD
BRANCH  27  29
ATOM     29  C   UNL     1      37.832 135.840  12.163  1.00  0.00     0.216 C 
BRANCH  29  30
ATOM     30  C   UNL     1      38.666 137.036  11.666  1.00  0.00     0.123 C 
BRANCH  30  31
ATOM     31  C   UNL     1      38.699 137.053  10.165  1.00  0.00     0.060 C 
ATOM     32  O   UNL     1      39.306 136.147   9.535  1.00  0.00    -0.548 OA
ATOM     33  O   UNL     1      38.041 138.054   9.461  1.00  0.00    -0.548 OA
ENDBRANCH  30  31
BRANCH  30  34
ATOM     34  N   UNL     1      38.134 138.311  12.155  1.00  0.00    -0.321 NA
ATOM     35  H   UNL     1      37.692 138.157  13.091  1.00  0.00     0.119 HD
ATOM     36  H   UNL     1      37.388 138.654  11.508  1.00  0.00     0.119 HD
ENDBRANCH  30  34
ENDBRANCH  29  30
ENDBRANCH  27  29
ENDBRANCH  22  23
ENDBRANCH   1  22
TORSDOF 13
ENDMDL
MODEL 5
REMARK VINA RESULT:      -5.1      4.154      7.984
REMARK SMILES [N-]=[N+]=Nc1cc(Cl)cc2c(CNO)c(OCCc3cn(C[C@H](N)C(=O)[O-])[nH+]n3)ccc12
REMARK SMILES IDX 16 1 15 2 14 3 10 4 9 5 29 6 8 7 31 8 30 9 6 10 4 11 5 12
REMARK SMILES IDX 7 13 11 14 12 15 13 17 3 19 2 20 1 21 17 22 18 23 28 24
REMARK SMILES IDX 19 25 27 26 20 27 21 29 22 30 24 31 25 32 26 33 23 34
REMARK H PARENT 12 16 13 18 27 28 23 35 23 36
ROOT
ATOM      1  C   UNL     1      44.165 132.472  14.843  1.00  0.00     0.236 C 
ENDROOT
BRANCH   1   2
ATOM      2  O   UNL     1      45.028 132.272  15.963  1.00  0.00    -0.493 OA
BRANCH   2   3
ATOM      3  C   UNL     1      44.741 132.609  17.300  1.00  0.00     0.124 A 
ATOM      4  C   UNL     1      44.932 131.632  18.305  1.00  0.00     0.018 A 
ATOM      5  C   UNL     1      44.693 131.971  19.672  1.00  0.00    -0.008 A 
ATOM      6  C   UNL     1      44.264 133.882  17.649  1.00  0.00     0.047 A 
ATOM      7  C   UNL     1      44.928 131.060  20.726  1.00  0.00     0.029 A 
ATOM      8  C   UNL     1      44.209 133.271  19.998  1.00  0.00    -0.008 A 
ATOM      9  C   UNL     1      43.996 134.205  18.972  1.00  0.00     0.013 A 
ATOM     10  C   UNL     1      44.675 131.413  22.051  1.00  0.00     0.042 A 
ATOM     11  C   UNL     1      43.949 133.620  21.345  1.00  0.00     0.047 A 
ATOM     12  C   UNL     1      44.184 132.678  22.360  1.00  0.00     0.031 A 
ATOM     13  Cl  UNL     1      44.979 130.258  23.337  1.00  0.00    -0.084 Cl
BRANCH   4  14
ATOM     14  C   UNL     1      45.432 130.258  17.873  1.00  0.00     0.151 C 
BRANCH  14  15
ATOM     15  N   UNL     1      46.693 130.344  17.127  1.00  0.00    -0.201 NA
ATOM     16  H   UNL     1      47.493 130.022  17.726  1.00  0.00     0.155 HD
BRANCH  15  17
ATOM     17  O   UNL     1      46.605 129.583  16.000  1.00  0.00    -0.316 OA
ATOM     18  H   UNL     1      47.470 129.102  15.902  1.00  0.00     0.238 HD
ENDBRANCH  15  17
ENDBRANCH  14  15
ENDBRANCH   4  14
BRANCH  11  19
ATOM     19  N   UNL     1      43.452 134.931  21.667  1.00  0.00    -0.060 NA
BRANCH  19  20
ATOM     20  N   UNL     1      42.528 135.116  22.460  1.00  0.00     0.005 N 
ATOM     21  N   UNL     1      41.605 135.300  23.252  1.00  0.00    -0.003 NA
ENDBRANCH  19  20
ENDBRANCH  11  19
ENDBRANCH   2   3
ENDBRANCH   1   2
BRANCH   1  22
ATOM     22  C   UNL     1      42.770 131.917  15.133  1.00  0.00     0.106 C 
BRANCH  22  23
ATOM     23  C   UNL     1      41.751 133.011  15.085  1.00  0.00     0.135 A 
ATOM     24  N   UNL     1      40.987 133.393  16.129  1.00  0.00     0.020 NA
ATOM     25  C   UNL     1      41.487 133.842  14.014  1.00  0.00     0.183 A 
ATOM     26  N   UNL     1      40.266 134.418  15.699  1.00  0.00    -0.017 N 
ATOM     27  N   UNL     1      40.551 134.708  14.439  1.00  0.00    -0.135 N 
ATOM     28  H   UNL     1      39.566 134.928  16.283  1.00  0.00     0.526 HD
BRANCH  27  29
ATOM     29  C   UNL     1      39.910 135.763  13.657  1.00  0.00     0.216 C 
BRANCH  29  30
ATOM     30  C   UNL     1      40.090 137.134  14.335  1.00  0.00     0.123 C 
BRANCH  30  31
ATOM     31  C   UNL     1      38.965 137.385  15.296  1.00  0.00     0.060 C 
ATOM     32  O   UNL     1      37.945 136.646  15.285  1.00  0.00    -0.548 OA
ATOM     33  O   UNL     1      39.051 138.417  16.222  1.00  0.00    -0.548 OA
ENDBRANCH  30  31
BRANCH  30  34
ATOM     34  N   UNL     1      41.368 137.224  15.047  1.00  0.00    -0.321 NA
ATOM     35  H   UNL     1      42.104 137.560  14.383  1.00  0.00     0.119 HD
ATOM     36  H   UNL     1      41.654 136.275  15.381  1.00  0.00     0.119 HD
ENDBRANCH  30  34
ENDBRANCH  29  30
ENDBRANCH  27  29
ENDBRANCH  22  23
ENDBRANCH   1  22
TORSDOF 13
ENDMDL
MODEL 6
REMARK VINA RESULT:      -5.1      4.038      6.231
REMARK SMILES [N-]=[N+]=Nc1cc(Cl)cc2c(CNO)c(OCCc3cn(C[C@H](N)C(=O)[O-])[nH+]n3)ccc12
REMARK SMILES IDX 16 1 15 2 14 3 10 4 9 5 29 6 8 7 31 8 30 9 6 10 4 11 5 12
REMARK SMILES IDX 7 13 11 14 12 15 13 17 3 19 2 20 1 21 17 22 18 23 28 24
REMARK SMILES IDX 19 25 27 26 20 27 21 29 22 30 24 31 25 32 26 33 23 34
REMARK H PARENT 12 16 13 18 27 28 23 35 23 36
ROOT
ATOM      1  C   UNL     1      44.986 132.746  15.792  1.00  0.00     0.236 C 
ENDROOT
BRANCH   1   2
ATOM      2  O   UNL     1      44.039 133.721  16.229  1.00  0.00    -0.493 OA
BRANCH   2   3
ATOM      3  C   UNL     1      42.692 133.807  15.826  1.00  0.00     0.124 A 
ATOM      4  C   UNL     1      41.731 134.265  16.757  1.00  0.00     0.018 A 
ATOM      5  C   UNL     1      40.369 134.405  16.351  1.00  0.00    -0.008 A 
ATOM      6  C   UNL     1      42.290 133.441  14.533  1.00  0.00     0.047 A 
ATOM      7  C   UNL     1      39.375 134.919  17.215  1.00  0.00     0.029 A 
ATOM      8  C   UNL     1      39.986 134.026  15.032  1.00  0.00    -0.008 A 
ATOM      9  C   UNL     1      40.960 133.543  14.145  1.00  0.00     0.013 A 
ATOM     10  C   UNL     1      38.049 135.034  16.798  1.00  0.00     0.042 A 
ATOM     11  C   UNL     1      38.638 134.141  14.617  1.00  0.00     0.047 A 
ATOM     12  C   UNL     1      37.680 134.644  15.513  1.00  0.00     0.031 A 
ATOM     13  Cl  UNL     1      36.840 135.677  17.894  1.00  0.00    -0.084 Cl
BRANCH   4  14
ATOM     14  C   UNL     1      42.215 134.631  18.156  1.00  0.00     0.151 C 
BRANCH  14  15
ATOM     15  N   UNL     1      43.171 135.744  18.130  1.00  0.00    -0.201 NA
ATOM     16  H   UNL     1      42.793 136.561  18.669  1.00  0.00     0.155 HD
BRANCH  15  17
ATOM     17  O   UNL     1      44.358 135.334  18.660  1.00  0.00    -0.316 OA
ATOM     18  H   UNL     1      44.532 134.417  18.317  1.00  0.00     0.238 HD
ENDBRANCH  15  17
ENDBRANCH  14  15
ENDBRANCH   4  14
BRANCH  11  19
ATOM     19  N   UNL     1      38.258 133.748  13.287  1.00  0.00    -0.060 NA
BRANCH  19  20
ATOM     20  N   UNL     1      37.317 134.266  12.683  1.00  0.00     0.005 N 
ATOM     21  N   UNL     1      36.378 134.784  12.081  1.00  0.00    -0.003 NA
ENDBRANCH  19  20
ENDBRANCH  11  19
ENDBRANCH   2   3
ENDBRANCH   1   2
BRANCH   1  22
ATOM     22  C   UNL     1      44.583 131.352  16.273  1.00  0.00     0.106 C 
BRANCH  22  23
ATOM     23  C   UNL     1      44.927 131.176  17.718  1.00  0.00     0.135 A 
ATOM     24  N   UNL     1      45.935 130.405  18.177  1.00  0.00     0.020 NA
ATOM     25  C   UNL     1      44.338 131.820  18.788  1.00  0.00     0.183 A 
ATOM     26  N   UNL     1      45.946 130.563  19.492  1.00  0.00    -0.017 N 
ATOM     27  N   UNL     1      45.005 131.408  19.881  1.00  0.00    -0.135 N 
ATOM     28  H   UNL     1      46.615 130.082  20.134  1.00  0.00     0.526 HD
BRANCH  27  29
ATOM     29  C   UNL     1      44.729 131.775  21.268  1.00  0.00     0.216 C 
BRANCH  29  30
ATOM     30  C   UNL     1      44.556 133.300  21.406  1.00  0.00     0.123 C 
BRANCH  30  31
ATOM     31  C   UNL     1      44.062 133.639  22.783  1.00  0.00     0.060 C 
ATOM     32  O   UNL     1      43.114 134.456  22.932  1.00  0.00    -0.548 OA
ATOM     33  O   UNL     1      44.629 133.037  23.899  1.00  0.00    -0.548 OA
ENDBRANCH  30  31
BRANCH  30  34
ATOM     34  N   UNL     1      45.808 134.015  21.149  1.00  0.00    -0.321 NA
ATOM     35  H   UNL     1      46.483 133.362  20.687  1.00  0.00     0.119 HD
ATOM     36  H   UNL     1      46.235 134.318  22.055  1.00  0.00     0.119 HD
ENDBRANCH  30  34
ENDBRANCH  29  30
ENDBRANCH  27  29
ENDBRANCH  22  23
ENDBRANCH   1  22
TORSDOF 13
ENDMDL
MODEL 7
REMARK VINA RESULT:      -5.0      4.352      8.449
REMARK SMILES [N-]=[N+]=Nc1cc(Cl)cc2c(CNO)c(OCCc3cn(C[C@H](N)C(=O)[O-])[nH+]n3)ccc12
REMARK SMILES IDX 16 1 15 2 14 3 10 4 9 5 29 6 8 7 31 8 30 9 6 10 4 11 5 12
REMARK SMILES IDX 7 13 11 14 12 15 13 17 3 19 2 20 1 21 17 22 18 23 28 24
REMARK SMILES IDX 19 25 27 26 20 27 21 29 22 30 24 31 25 32 26 33 23 34
REMARK H PARENT 12 16 13 18 27 28 23 35 23 36
ROOT
ATOM      1  C   UNL     1      44.049 134.725  16.330  1.00  0.00     0.236 C 
ENDROOT
BRANCH   1   2
ATOM      2  O   UNL     1      44.201 135.354  17.604  1.00  0.00    -0.493 OA
BRANCH   2   3
ATOM      3  C   UNL     1      43.786 134.828  18.843  1.00  0.00     0.124 A 
ATOM      4  C   UNL     1      42.617 135.347  19.445  1.00  0.00     0.018 A 
ATOM      5  C   UNL     1      42.154 134.792  20.678  1.00  0.00    -0.008 A 
ATOM      6  C   UNL     1      44.510 133.814  19.488  1.00  0.00     0.047 A 
ATOM      7  C   UNL     1      40.958 135.223  21.295  1.00  0.00     0.029 A 
ATOM      8  C   UNL     1      42.908 133.764  21.312  1.00  0.00    -0.008 A 
ATOM      9  C   UNL     1      44.083 133.296  20.703  1.00  0.00     0.013 A 
ATOM     10  C   UNL     1      40.535 134.673  22.505  1.00  0.00     0.042 A 
ATOM     11  C   UNL     1      42.475 133.213  22.542  1.00  0.00     0.047 A 
ATOM     12  C   UNL     1      41.287 133.681  23.127  1.00  0.00     0.031 A 
ATOM     13  Cl  UNL     1      39.044 135.229  23.245  1.00  0.00    -0.084 Cl
BRANCH   4  14
ATOM     14  C   UNL     1      41.876 136.462  18.715  1.00  0.00     0.151 C 
BRANCH  14  15
ATOM     15  N   UNL     1      42.730 137.636  18.500  1.00  0.00    -0.201 NA
ATOM     16  H   UNL     1      43.729 137.405  18.726  1.00  0.00     0.155 HD
BRANCH  15  17
ATOM     17  O   UNL     1      42.618 138.045  17.204  1.00  0.00    -0.316 OA
ATOM     18  H   UNL     1      42.220 137.293  16.691  1.00  0.00     0.238 HD
ENDBRANCH  15  17
ENDBRANCH  14  15
ENDBRANCH   4  14
BRANCH  11  19
ATOM     19  N   UNL     1      43.247 132.181  23.181  1.00  0.00    -0.060 NA
BRANCH  19  20
ATOM     20  N   UNL     1      42.964 130.986  23.090  1.00  0.00     0.005 N 
ATOM     21  N   UNL     1      42.681 129.793  22.999  1.00  0.00    -0.003 NA
ENDBRANCH  19  20
ENDBRANCH  11  19
ENDBRANCH   2   3
ENDBRANCH   1   2
BRANCH   1  22
ATOM     22  C   UNL     1      42.948 133.665  16.384  1.00  0.00     0.106 C 
BRANCH  22  23
ATOM     23  C   UNL     1      43.368 132.436  15.641  1.00  0.00     0.135 A 
ATOM     24  N   UNL     1      43.073 132.184  14.349  1.00  0.00     0.020 NA
ATOM     25  C   UNL     1      44.173 131.421  16.119  1.00  0.00     0.183 A 
ATOM     26  N   UNL     1      43.669 131.038  14.055  1.00  0.00    -0.017 N 
ATOM     27  N   UNL     1      44.337 130.565  15.095  1.00  0.00    -0.135 N 
ATOM     28  H   UNL     1      43.616 130.574  13.121  1.00  0.00     0.526 HD
BRANCH  27  29
ATOM     29  C   UNL     1      45.077 129.305  15.114  1.00  0.00     0.216 C 
BRANCH  29  30
ATOM     30  C   UNL     1      46.559 129.536  14.764  1.00  0.00     0.123 C 
BRANCH  30  31
ATOM     31  C   UNL     1      46.689 130.686  13.808  1.00  0.00     0.060 C 
ATOM     32  O   UNL     1      47.111 131.801  14.213  1.00  0.00    -0.548 OA
ATOM     33  O   UNL     1      46.370 130.521  12.466  1.00  0.00    -0.548 OA
ENDBRANCH  30  31
BRANCH  30  34
ATOM     34  N   UNL     1      47.365 129.803  15.958  1.00  0.00    -0.321 NA
ATOM     35  H   UNL     1      47.044 130.700  16.391  1.00  0.00     0.119 HD
ATOM     36  H   UNL     1      48.368 129.925  15.688  1.00  0.00     0.119 HD
ENDBRANCH  30  34
ENDBRANCH  29  30
ENDBRANCH  27  29
ENDBRANCH  22  23
ENDBRANCH   1  22
TORSDOF 13
ENDMDL
MODEL 8
REMARK VINA RESULT:      -4.9      4.294      8.322
REMARK SMILES [N-]=[N+]=Nc1cc(Cl)cc2c(CNO)c(OCCc3cn(C[C@H](N)C(=O)[O-])[nH+]n3)ccc12
REMARK SMILES IDX 16 1 15 2 14 3 10 4 9 5 29 6 8 7 31 8 30 9 6 10 4 11 5 12
REMARK SMILES IDX 7 13 11 14 12 15 13 17 3 19 2 20 1 21 17 22 18 23 28 24
REMARK SMILES IDX 19 25 27 26 20 27 21 29 22 30 24 31 25 32 26 33 23 34
REMARK H PARENT 12 16 13 18 27 28 23 35 23 36
ROOT
ATOM      1  C   UNL     1      44.618 132.307  15.121  1.00  0.00     0.236 C 
ENDROOT
BRANCH   1   2
ATOM      2  O   UNL     1      45.095 132.974  16.291  1.00  0.00    -0.493 OA
BRANCH   2   3
ATOM      3  C   UNL     1      44.749 132.664  17.621  1.00  0.00     0.124 A 
ATOM      4  C   UNL     1      44.146 133.664  18.418  1.00  0.00     0.018 A 
ATOM      5  C   UNL     1      43.744 133.353  19.753  1.00  0.00    -0.008 A 
ATOM      6  C   UNL     1      44.997 131.395  18.166  1.00  0.00     0.047 A 
ATOM      7  C   UNL     1      43.079 134.289  20.577  1.00  0.00     0.029 A 
ATOM      8  C   UNL     1      44.009 132.057  20.282  1.00  0.00    -0.008 A 
ATOM      9  C   UNL     1      44.640 131.099  19.474  1.00  0.00     0.013 A 
ATOM     10  C   UNL     1      42.708 133.964  21.881  1.00  0.00     0.042 A 
ATOM     11  C   UNL     1      43.634 131.735  21.609  1.00  0.00     0.047 A 
ATOM     12  C   UNL     1      42.986 132.701  22.397  1.00  0.00     0.031 A 
ATOM     13  Cl  UNL     1      41.881 135.149  22.877  1.00  0.00    -0.084 Cl
BRANCH   4  14
ATOM     14  C   UNL     1      43.915 135.033  17.787  1.00  0.00     0.151 C 
BRANCH  14  15
ATOM     15  N   UNL     1      42.488 135.313  17.594  1.00  0.00    -0.201 NA
ATOM     16  H   UNL     1      41.908 134.685  18.204  1.00  0.00     0.155 HD
BRANCH  15  17
ATOM     17  O   UNL     1      42.240 136.621  17.885  1.00  0.00    -0.316 OA
ATOM     18  H   UNL     1      41.764 136.643  18.757  1.00  0.00     0.238 HD
ENDBRANCH  15  17
ENDBRANCH  14  15
ENDBRANCH   4  14
BRANCH  11  19
ATOM     19  N   UNL     1      43.912 130.428  22.139  1.00  0.00    -0.060 NA
BRANCH  19  20
ATOM     20  N   UNL     1      44.591 130.251  23.151  1.00  0.00     0.005 N 
ATOM     21  N   UNL     1      45.269 130.074  24.162  1.00  0.00    -0.003 NA
ENDBRANCH  19  20
ENDBRANCH  11  19
ENDBRANCH   2   3
ENDBRANCH   1   2
BRANCH   1  22
ATOM     22  C   UNL     1      43.257 131.663  15.388  1.00  0.00     0.106 C 
BRANCH  22  23
ATOM     23  C   UNL     1      42.165 132.679  15.277  1.00  0.00     0.135 A 
ATOM     24  N   UNL     1      41.290 132.975  16.261  1.00  0.00     0.020 NA
ATOM     25  C   UNL     1      41.927 133.516  14.205  1.00  0.00     0.183 A 
ATOM     26  N   UNL     1      40.531 133.954  15.793  1.00  0.00    -0.017 N 
ATOM     27  N   UNL     1      40.896 134.299  14.568  1.00  0.00    -0.135 N 
ATOM     28  H   UNL     1      39.749 134.395  16.327  1.00  0.00     0.526 HD
BRANCH  27  29
ATOM     29  C   UNL     1      40.243 135.324  13.757  1.00  0.00     0.216 C 
BRANCH  29  30
ATOM     30  C   UNL     1      40.461 136.723  14.363  1.00  0.00     0.123 C 
BRANCH  30  31
ATOM     31  C   UNL     1      39.393 137.017  15.376  1.00  0.00     0.060 C 
ATOM     32  O   UNL     1      39.707 137.380  16.541  1.00  0.00    -0.548 OA
ATOM     33  O   UNL     1      38.051 136.915  15.030  1.00  0.00    -0.548 OA
ENDBRANCH  30  31
BRANCH  30  34
ATOM     34  N   UNL     1      41.777 136.843  14.996  1.00  0.00    -0.321 NA
ATOM     35  H   UNL     1      41.713 136.495  15.981  1.00  0.00     0.119 HD
ATOM     36  H   UNL     1      42.060 137.849  15.036  1.00  0.00     0.119 HD
ENDBRANCH  30  34
ENDBRANCH  29  30
ENDBRANCH  27  29
ENDBRANCH  22  23
ENDBRANCH   1  22
TORSDOF 13
ENDMDL
MODEL 9
REMARK VINA RESULT:      -4.8      4.685      8.970
REMARK SMILES [N-]=[N+]=Nc1cc(Cl)cc2c(CNO)c(OCCc3cn(C[C@H](N)C(=O)[O-])[nH+]n3)ccc12
REMARK SMILES IDX 16 1 15 2 14 3 10 4 9 5 29 6 8 7 31 8 30 9 6 10 4 11 5 12
REMARK SMILES IDX 7 13 11 14 12 15 13 17 3 19 2 20 1 21 17 22 18 23 28 24
REMARK SMILES IDX 19 25 27 26 20 27 21 29 22 30 24 31 25 32 26 33 23 34
REMARK H PARENT 12 16 13 18 27 28 23 35 23 36
ROOT
ATOM      1  C   UNL     1      44.349 132.430  16.362  1.00  0.00     0.236 C 
ENDROOT
BRANCH   1   2
ATOM      2  O   UNL     1      43.510 131.809  17.337  1.00  0.00    -0.493 OA
BRANCH   2   3
ATOM      3  C   UNL     1      43.660 131.895  18.735  1.00  0.00     0.124 A 
ATOM      4  C   UNL     1      42.659 132.552  19.488  1.00  0.00     0.018 A 
ATOM      5  C   UNL     1      42.770 132.607  20.910  1.00  0.00    -0.008 A 
ATOM      6  C   UNL     1      44.780 131.355  19.387  1.00  0.00     0.047 A 
ATOM      7  C   UNL     1      41.771 133.190  21.722  1.00  0.00     0.029 A 
ATOM      8  C   UNL     1      43.917 132.051  21.547  1.00  0.00    -0.008 A 
ATOM      9  C   UNL     1      44.909 131.438  20.766  1.00  0.00     0.013 A 
ATOM     10  C   UNL     1      41.909 133.242  23.108  1.00  0.00     0.042 A 
ATOM     11  C   UNL     1      44.053 132.111  22.955  1.00  0.00     0.047 A 
ATOM     12  C   UNL     1      43.042 132.713  23.721  1.00  0.00     0.031 A 
ATOM     13  Cl  UNL     1      40.649 133.972  24.087  1.00  0.00    -0.084 Cl
BRANCH   4  14
ATOM     14  C   UNL     1      41.473 133.140  18.731  1.00  0.00     0.151 C 
BRANCH  14  15
ATOM     15  N   UNL     1      41.780 134.463  18.176  1.00  0.00    -0.201 NA
ATOM     16  H   UNL     1      42.229 134.366  17.232  1.00  0.00     0.155 HD
BRANCH  15  17
ATOM     17  O   UNL     1      40.632 135.192  18.083  1.00  0.00    -0.316 OA
ATOM     18  H   UNL     1      39.916 134.674  18.539  1.00  0.00     0.238 HD
ENDBRANCH  15  17
ENDBRANCH  14  15
ENDBRANCH   4  14
BRANCH  11  19
ATOM     19  N   UNL     1      45.218 131.556  23.590  1.00  0.00    -0.060 NA
BRANCH  19  20
ATOM     20  N   UNL     1      45.224 130.438  24.108  1.00  0.00     0.005 N 
ATOM     21  N   UNL     1      45.231 129.322  24.625  1.00  0.00    -0.003 NA
ENDBRANCH  19  20
ENDBRANCH  11  19
ENDBRANCH   2   3
ENDBRANCH   1   2
BRANCH   1  22
ATOM     22  C   UNL     1      43.688 132.393  14.983  1.00  0.00     0.106 C 
BRANCH  22  23
ATOM     23  C   UNL     1      42.538 133.348  14.928  1.00  0.00     0.135 A 
ATOM     24  N   UNL     1      41.257 133.020  15.197  1.00  0.00     0.020 NA
ATOM     25  C   UNL     1      42.606 134.704  14.679  1.00  0.00     0.183 A 
ATOM     26  N   UNL     1      40.563 134.145  15.096  1.00  0.00    -0.017 N 
ATOM     27  N   UNL     1      41.349 135.166  14.793  1.00  0.00    -0.135 N 
ATOM     28  H   UNL     1      39.531 134.211  15.241  1.00  0.00     0.526 HD
BRANCH  27  29
ATOM     29  C   UNL     1      40.894 136.538  14.578  1.00  0.00     0.216 C 
BRANCH  29  30
ATOM     30  C   UNL     1      39.579 136.559  13.776  1.00  0.00     0.123 C 
BRANCH  30  31
ATOM     31  C   UNL     1      39.194 137.975  13.456  1.00  0.00     0.060 C 
ATOM     32  O   UNL     1      39.234 138.859  14.352  1.00  0.00    -0.548 OA
ATOM     33  O   UNL     1      38.815 138.324  12.166  1.00  0.00    -0.548 OA
ENDBRANCH  30  31
BRANCH  30  34
ATOM     34  N   UNL     1      39.689 135.793  12.532  1.00  0.00    -0.321 NA
ATOM     35  H   UNL     1      39.798 136.458  11.731  1.00  0.00     0.119 HD
ATOM     36  H   UNL     1      38.809 135.250  12.372  1.00  0.00     0.119 HD
ENDBRANCH  30  34
ENDBRANCH  29  30
ENDBRANCH  27  29
ENDBRANCH  22  23
ENDBRANCH   1  22
TORSDOF 13
ENDMDL


