REMARK SMILES C#Cc1ccc(-n2cc(CCCCN(C)[C@@H](C)C#N)n[nH+]2)cc(N=[N+]=[N-])ccc2ccccc12
REMARK SMILES IDX 11 1 10 2 9 3 7 4 8 5 21 6 20 7 6 9 3 10 4 11 34 12 5 13
REMARK SMILES IDX 33 14 29 15 32 16 28 17 30 18 22 19 31 20 27 21 23 22 2 23
REMARK SMILES IDX 1 24 24 25 25 26 26 27 12 28 13 29 14 30 15 31 16 32 17 33
REMARK SMILES IDX 18 34 19 35
REMARK H PARENT 21 8
ROOT
ATOM      1  C   UNL     1       0.584  -3.624  -0.898  1.00  0.00     0.008 C 
ENDROOT
BRANCH   1   2
ATOM      2  C   UNL     1      -0.818  -3.142  -1.299  1.00  0.00     0.065 C 
BRANCH   2   3
ATOM      3  C   UNL     1      -1.188  -1.853  -0.631  1.00  0.00     0.132 A 
ATOM      4  N   UNL     1      -1.720  -0.358   0.867  1.00  0.00    -0.104 N 
ATOM      5  C   UNL     1      -1.315  -1.634   0.726  1.00  0.00     0.190 A 
ATOM      6  N   UNL     1      -1.839   0.162  -0.346  1.00  0.00    -0.012 N 
ATOM      7  N   UNL     1      -1.523  -0.720  -1.282  1.00  0.00     0.020 NA
ATOM      8  H   UNL     1      -2.124   1.146  -0.551  1.00  0.00     0.527 HD
BRANCH   4   9
ATOM      9  C   UNL     1      -1.967   0.341   2.103  1.00  0.00     0.107 A 
ATOM     10  C   UNL     1       1.051   0.150   2.443  1.00  0.00     0.032 A 
ATOM     11  C   UNL     1       0.072  -0.338   3.338  1.00  0.00     0.020 A 
ATOM     12  C   UNL     1       0.875   1.290   1.606  1.00  0.00    -0.003 A 
ATOM     13  C   UNL     1      -1.302  -0.055   3.277  1.00  0.00     0.034 A 
ATOM     14  C   UNL     1       1.447   1.282   0.315  1.00  0.00     0.010 A 
ATOM     15  C   UNL     1       0.038   2.393   1.963  1.00  0.00    -0.017 A 
ATOM     16  C   UNL     1       1.099   2.246  -0.631  1.00  0.00     0.001 A 
ATOM     17  C   UNL     1      -0.346   2.632   3.295  1.00  0.00     0.009 A 
ATOM     18  C   UNL     1      -0.348   3.318   0.974  1.00  0.00     0.009 A 
ATOM     19  C   UNL     1      -2.878   1.414   2.120  1.00  0.00     0.042 A 
ATOM     20  C   UNL     1       0.181   3.242  -0.313  1.00  0.00     0.001 A 
ATOM     21  C   UNL     1      -1.661   2.925   3.692  1.00  0.00     0.011 A 
ATOM     22  C   UNL     1      -2.831   2.513   3.018  1.00  0.00     0.040 A 
BRANCH  10  23
ATOM     23  C   UNL     1       2.299  -0.578   2.398  1.00  0.00    -0.070 C 
ATOM     24  C   UNL     1       3.338  -1.188   2.359  1.00  0.00     0.010 C 
ENDBRANCH  10  23
BRANCH  22  25
ATOM     25  N   UNL     1      -4.022   3.269   3.283  1.00  0.00    -0.061 NA
BRANCH  25  26
ATOM     26  N   UNL     1      -5.116   2.973   2.798  1.00  0.00     0.005 N 
ATOM     27  N   UNL     1      -6.209   2.679   2.316  1.00  0.00    -0.003 NA
ENDBRANCH  25  26
ENDBRANCH  22  25
ENDBRANCH   4   9
ENDBRANCH   2   3
ENDBRANCH   1   2
BRANCH   1  28
ATOM     28  C   UNL     1       1.694  -2.755  -1.506  1.00  0.00     0.016 C 
BRANCH  28  29
ATOM     29  C   UNL     1       3.084  -3.292  -1.107  1.00  0.00     0.085 C 
BRANCH  29  30
ATOM     30  N   UNL     1       4.211  -2.627  -1.801  1.00  0.00    -0.291 NA
ATOM     31  C   UNL     1       4.338  -3.023  -3.217  1.00  0.00     0.106 C 
BRANCH  30  32
ATOM     32  C   UNL     1       4.330  -1.172  -1.527  1.00  0.00     0.157 C 
ATOM     33  C   UNL     1       5.801  -0.750  -1.524  1.00  0.00     0.041 C 
BRANCH  32  34
ATOM     34  C   UNL     1       3.568  -0.341  -2.481  1.00  0.00     0.081 C 
ATOM     35  N   UNL     1       2.970   0.309  -3.229  1.00  0.00    -0.197 NA
ENDBRANCH  32  34
ENDBRANCH  30  32
ENDBRANCH  29  30
ENDBRANCH  28  29
ENDBRANCH   1  28
TORSDOF 11


