REMARK SMILES [N-]=[N+]=Nc1cc(Cl)cc2c(CNO)c(OCCc3cn(C[C@H](N=[N+]=[N-])C(=O)[O-])n[nH+]3)ccc12
REMARK SMILES IDX 16 1 15 2 14 3 10 4 9 5 31 6 8 7 33 8 32 9 6 10 4 11 5 12
REMARK SMILES IDX 7 13 11 14 12 15 13 17 3 19 2 20 1 21 17 22 18 23 19 24
REMARK SMILES IDX 30 25 20 26 29 27 21 29 22 30 23 31 24 32 25 33 26 34 27 35
REMARK SMILES IDX 28 36
REMARK H PARENT 12 16 13 18 30 28
ROOT
ATOM      1  C   UNL     1       0.122   2.318   2.507  1.00  0.00     0.238 C 
ENDROOT
BRANCH   1   2
ATOM      2  O   UNL     1       0.418   1.831   1.200  1.00  0.00    -0.493 OA
BRANCH   2   3
ATOM      3  C   UNL     1      -0.325   2.118   0.042  1.00  0.00     0.124 A 
ATOM      4  C   UNL     1       0.028   1.484  -1.170  1.00  0.00     0.018 A 
ATOM      5  C   UNL     1      -0.767   1.706  -2.336  1.00  0.00    -0.008 A 
ATOM      6  C   UNL     1      -1.397   3.018   0.073  1.00  0.00     0.047 A 
ATOM      7  C   UNL     1      -0.480   1.077  -3.569  1.00  0.00     0.029 A 
ATOM      8  C   UNL     1      -1.886   2.591  -2.270  1.00  0.00    -0.008 A 
ATOM      9  C   UNL     1      -2.151   3.266  -1.067  1.00  0.00     0.013 A 
ATOM     10  C   UNL     1      -1.240   1.344  -4.706  1.00  0.00     0.042 A 
ATOM     11  C   UNL     1      -2.687   2.804  -3.426  1.00  0.00     0.047 A 
ATOM     12  C   UNL     1      -2.327   2.209  -4.636  1.00  0.00     0.031 A 
ATOM     13  Cl  UNL     1      -0.842   0.568  -6.229  1.00  0.00    -0.084 Cl
BRANCH   4  14
ATOM     14  C   UNL     1       1.228   0.548  -1.153  1.00  0.00     0.151 C 
BRANCH  14  15
ATOM     15  N   UNL     1       0.832  -0.781  -0.687  1.00  0.00    -0.201 NA
ATOM     16  H   UNL     1       1.706  -1.335  -0.533  1.00  0.00     0.155 HD
BRANCH  15  17
ATOM     17  O   UNL     1       0.155  -1.398  -1.685  1.00  0.00    -0.316 OA
ATOM     18  H   UNL     1      -0.727  -1.619  -1.290  1.00  0.00     0.238 HD
ENDBRANCH  15  17
ENDBRANCH  14  15
ENDBRANCH   4  14
BRANCH  11  19
ATOM     19  N   UNL     1      -3.876   3.607  -3.418  1.00  0.00    -0.060 NA
BRANCH  19  20
ATOM     20  N   UNL     1      -4.749   3.471  -2.560  1.00  0.00     0.005 N 
ATOM     21  N   UNL     1      -5.622   3.335  -1.704  1.00  0.00    -0.003 NA
ENDBRANCH  19  20
ENDBRANCH  11  19
ENDBRANCH   2   3
ENDBRANCH   1   2
BRANCH   1  22
ATOM     22  C   UNL     1       1.093   1.708   3.514  1.00  0.00     0.128 C 
BRANCH  22  23
ATOM     23  C   UNL     1       0.964   0.216   3.542  1.00  0.00     0.168 A 
ATOM     24  C   UNL     1       1.635  -0.690   2.748  1.00  0.00     0.274 A 
ATOM     25  N   UNL     1       0.069  -0.470   4.279  1.00  0.00    -0.148 N 
ATOM     26  N   UNL     1       1.124  -1.900   3.045  1.00  0.00    -0.137 N 
ATOM     27  N   UNL     1       0.188  -1.752   3.970  1.00  0.00     0.088 NA
ATOM     28  H   UNL     1      -0.615  -0.082   4.965  1.00  0.00     0.342 HD
BRANCH  26  29
ATOM     29  C   UNL     1       1.540  -3.184   2.487  1.00  0.00     0.285 C 
BRANCH  29  30
ATOM     30  C   UNL     1       2.840  -3.668   3.142  1.00  0.00     0.163 C 
BRANCH  30  31
ATOM     31  N   UNL     1       3.277  -4.899   2.491  1.00  0.00    -0.080 NA
BRANCH  31  32
ATOM     32  N   UNL     1       4.368  -5.406   2.756  1.00  0.00     0.002 N 
ATOM     33  N   UNL     1       5.458  -5.912   3.022  1.00  0.00    -0.003 NA
ENDBRANCH  31  32
ENDBRANCH  30  31
BRANCH  30  34
ATOM     34  C   UNL     1       2.641  -3.901   4.614  1.00  0.00     0.054 C 
ATOM     35  O   UNL     1       1.952  -4.875   5.020  1.00  0.00    -0.550 OA
ATOM     36  O   UNL     1       3.192  -3.020   5.536  1.00  0.00    -0.550 OA
ENDBRANCH  30  34
ENDBRANCH  29  30
ENDBRANCH  26  29
ENDBRANCH  22  23
ENDBRANCH   1  22
TORSDOF 14


