MODEL 1
REMARK VINA RESULT:      -6.7      0.000      0.000
REMARK SMILES C#C/C(C#N)=N\[C@H](c1c(C)n[nH+]n1-c1c2ccccc2c(C(=O)N=[N+]=[N-])c2ccccc12)C(C)C
REMARK SMILES IDX 8 1 9 2 10 3 11 4 12 5 13 7 7 8 6 9 3 10 2 11 1 12 4 13 5 14
REMARK SMILES IDX 33 15 34 16 35 17 14 18 15 19 32 20 16 21 20 22 31 23 27 24
REMARK SMILES IDX 17 25 19 26 21 27 30 28 28 29 18 30 29 31 22 32 23 33 24 34
REMARK SMILES IDX 25 35 26 36
REMARK H PARENT 12 6
ROOT
ATOM      1  C   UNL     1      41.934 135.289  18.512  1.00  0.00     0.137 A 
ATOM      2  C   UNL     1      40.810 135.676  19.235  1.00  0.00     0.135 A 
ATOM      3  C   UNL     1      40.374 137.063  19.582  1.00  0.00     0.076 C 
ATOM      4  N   UNL     1      40.104 134.573  19.555  1.00  0.00     0.020 NA
ATOM      5  N   UNL     1      40.778 133.544  19.068  1.00  0.00    -0.012 N 
ATOM      6  H   UNL     1      40.481 132.549  19.178  1.00  0.00     0.527 HD
ATOM      7  N   UNL     1      41.876 133.935  18.440  1.00  0.00    -0.097 N 
ENDROOT
BRANCH   1   8
ATOM      8  C   UNL     1      43.001 136.215  17.938  1.00  0.00     0.165 C 
BRANCH   8   9
ATOM      9  N   UNL     1      44.314 135.944  18.535  1.00  0.00    -0.256 NA
BRANCH   9  10
ATOM     10  C   UNL     1      44.992 136.724  19.327  1.00  0.00     0.186 C 
BRANCH  10  11
ATOM     11  C   UNL     1      45.649 136.238  20.515  1.00  0.00    -0.039 C 
ATOM     12  C   UNL     1      46.199 135.831  21.508  1.00  0.00     0.012 C 
ENDBRANCH  10  11
BRANCH  10  13
ATOM     13  C   UNL     1      45.105 138.117  19.001  1.00  0.00     0.129 C 
ATOM     14  N   UNL     1      45.194 139.240  18.737  1.00  0.00    -0.190 NA
ENDBRANCH  10  13
ENDBRANCH   9  10
ENDBRANCH   8   9
BRANCH   8  15
ATOM     15  C   UNL     1      43.077 136.110  16.389  1.00  0.00     0.014 C 
ATOM     16  C   UNL     1      42.519 137.369  15.711  1.00  0.00     0.010 C 
ATOM     17  C   UNL     1      44.501 135.824  15.887  1.00  0.00     0.010 C 
ENDBRANCH   8  15
ENDBRANCH   1   8
BRANCH   7  18
ATOM     18  C   UNL     1      42.833 133.015  17.884  1.00  0.00     0.123 A 
ATOM     19  C   UNL     1      42.786 132.694  16.510  1.00  0.00     0.013 A 
ATOM     20  C   UNL     1      43.819 132.438  18.711  1.00  0.00     0.013 A 
ATOM     21  C   UNL     1      41.840 133.308  15.660  1.00  0.00     0.011 A 
ATOM     22  C   UNL     1      43.686 131.737  15.971  1.00  0.00    -0.004 A 
ATOM     23  C   UNL     1      43.927 132.809  20.068  1.00  0.00     0.011 A 
ATOM     24  C   UNL     1      44.713 131.468  18.184  1.00  0.00    -0.004 A 
ATOM     25  C   UNL     1      41.779 132.979  14.308  1.00  0.00     0.001 A 
ATOM     26  C   UNL     1      43.609 131.430  14.592  1.00  0.00     0.009 A 
ATOM     27  C   UNL     1      44.642 131.114  16.812  1.00  0.00     0.040 A 
ATOM     28  C   UNL     1      44.872 132.209  20.898  1.00  0.00     0.001 A 
ATOM     29  C   UNL     1      45.654 130.867  19.051  1.00  0.00     0.009 A 
ATOM     30  C   UNL     1      42.660 132.044  13.776  1.00  0.00     0.001 A 
ATOM     31  C   UNL     1      45.728 131.237  20.393  1.00  0.00     0.001 A 
BRANCH  27  32
ATOM     32  C   UNL     1      45.576 130.104  16.254  1.00  0.00     0.250 C 
ATOM     33  O   UNL     1      45.207 128.903  16.168  1.00  0.00    -0.287 OA
BRANCH  32  34
ATOM     34  N   UNL     1      46.884 130.468  15.803  1.00  0.00    -0.017 NA
BRANCH  34  35
ATOM     35  N   UNL     1      47.066 130.976  14.697  1.00  0.00     0.009 N 
ATOM     36  N   UNL     1      47.247 131.484  13.591  1.00  0.00    -0.003 NA
ENDBRANCH  34  35
ENDBRANCH  32  34
ENDBRANCH  27  32
ENDBRANCH   7  18
TORSDOF 10
ENDMDL
MODEL 2
REMARK VINA RESULT:      -5.4      3.169      6.774
REMARK SMILES C#C/C(C#N)=N\[C@H](c1c(C)n[nH+]n1-c1c2ccccc2c(C(=O)N=[N+]=[N-])c2ccccc12)C(C)C
REMARK SMILES IDX 8 1 9 2 10 3 11 4 12 5 13 7 7 8 6 9 3 10 2 11 1 12 4 13 5 14
REMARK SMILES IDX 33 15 34 16 35 17 14 18 15 19 32 20 16 21 20 22 31 23 27 24
REMARK SMILES IDX 17 25 19 26 21 27 30 28 28 29 18 30 29 31 22 32 23 33 24 34
REMARK SMILES IDX 25 35 26 36
REMARK H PARENT 12 6
ROOT
ATOM      1  C   UNL     1      44.128 132.589  18.172  1.00  0.00     0.137 A 
ATOM      2  C   UNL     1      44.832 131.783  19.060  1.00  0.00     0.135 A 
ATOM      3  C   UNL     1      45.662 130.580  18.747  1.00  0.00     0.076 C 
ATOM      4  N   UNL     1      44.697 132.289  20.302  1.00  0.00     0.020 NA
ATOM      5  N   UNL     1      43.921 133.354  20.188  1.00  0.00    -0.012 N 
ATOM      6  H   UNL     1      43.622 133.946  20.995  1.00  0.00     0.527 HD
ATOM      7  N   UNL     1      43.562 133.562  18.931  1.00  0.00    -0.097 N 
ENDROOT
BRANCH   1   8
ATOM      8  C   UNL     1      44.022 132.394  16.665  1.00  0.00     0.165 C 
BRANCH   8   9
ATOM      9  N   UNL     1      44.106 133.677  15.957  1.00  0.00    -0.256 NA
BRANCH   9  10
ATOM     10  C   UNL     1      43.196 134.215  15.196  1.00  0.00     0.186 C 
BRANCH  10  11
ATOM     11  C   UNL     1      43.141 135.633  14.942  1.00  0.00    -0.039 C 
ATOM     12  C   UNL     1      43.094 136.819  14.728  1.00  0.00     0.012 C 
ENDBRANCH  10  11
BRANCH  10  13
ATOM     13  C   UNL     1      42.220 133.367  14.574  1.00  0.00     0.129 C 
ATOM     14  N   UNL     1      41.434 132.681  14.073  1.00  0.00    -0.190 NA
ENDBRANCH  10  13
ENDBRANCH   9  10
ENDBRANCH   8   9
BRANCH   8  15
ATOM     15  C   UNL     1      45.105 131.412  16.137  1.00  0.00     0.014 C 
ATOM     16  C   UNL     1      44.479 130.256  15.344  1.00  0.00     0.010 C 
ATOM     17  C   UNL     1      46.176 132.116  15.290  1.00  0.00     0.010 C 
ENDBRANCH   8  15
ENDBRANCH   1   8
BRANCH   7  18
ATOM     18  C   UNL     1      42.654 134.607  18.536  1.00  0.00     0.123 A 
ATOM     19  C   UNL     1      43.105 135.943  18.468  1.00  0.00     0.013 A 
ATOM     20  C   UNL     1      41.317 134.296  18.214  1.00  0.00     0.013 A 
ATOM     21  C   UNL     1      44.455 136.261  18.733  1.00  0.00     0.011 A 
ATOM     22  C   UNL     1      42.198 136.985  18.142  1.00  0.00    -0.004 A 
ATOM     23  C   UNL     1      40.873 132.957  18.202  1.00  0.00     0.011 A 
ATOM     24  C   UNL     1      40.399 135.333  17.903  1.00  0.00    -0.004 A 
ATOM     25  C   UNL     1      44.899 137.581  18.685  1.00  0.00     0.001 A 
ATOM     26  C   UNL     1      42.678 138.315  18.090  1.00  0.00     0.009 A 
ATOM     27  C   UNL     1      40.840 136.681  17.872  1.00  0.00     0.040 A 
ATOM     28  C   UNL     1      39.543 132.649  17.926  1.00  0.00     0.001 A 
ATOM     29  C   UNL     1      39.052 134.995  17.638  1.00  0.00     0.009 A 
ATOM     30  C   UNL     1      44.014 138.604  18.365  1.00  0.00     0.001 A 
ATOM     31  C   UNL     1      38.633 133.664  17.652  1.00  0.00     0.001 A 
BRANCH  27  32
ATOM     32  C   UNL     1      39.886 137.770  17.544  1.00  0.00     0.250 C 
ATOM     33  O   UNL     1      39.380 138.449  18.476  1.00  0.00    -0.287 OA
BRANCH  32  34
ATOM     34  N   UNL     1      39.536 138.071  16.189  1.00  0.00    -0.017 NA
BRANCH  34  35
ATOM     35  N   UNL     1      40.206 138.848  15.508  1.00  0.00     0.009 N 
ATOM     36  N   UNL     1      40.874 139.625  14.828  1.00  0.00    -0.003 NA
ENDBRANCH  34  35
ENDBRANCH  32  34
ENDBRANCH  27  32
ENDBRANCH   7  18
TORSDOF 10
ENDMDL
MODEL 3
REMARK VINA RESULT:      -5.4      3.138      6.379
REMARK SMILES C#C/C(C#N)=N\[C@H](c1c(C)n[nH+]n1-c1c2ccccc2c(C(=O)N=[N+]=[N-])c2ccccc12)C(C)C
REMARK SMILES IDX 8 1 9 2 10 3 11 4 12 5 13 7 7 8 6 9 3 10 2 11 1 12 4 13 5 14
REMARK SMILES IDX 33 15 34 16 35 17 14 18 15 19 32 20 16 21 20 22 31 23 27 24
REMARK SMILES IDX 17 25 19 26 21 27 30 28 28 29 18 30 29 31 22 32 23 33 24 34
REMARK SMILES IDX 25 35 26 36
REMARK H PARENT 12 6
ROOT
ATOM      1  C   UNL     1      44.063 132.642  17.739  1.00  0.00     0.137 A 
ATOM      2  C   UNL     1      44.781 131.717  18.489  1.00  0.00     0.135 A 
ATOM      3  C   UNL     1      45.530 130.520  17.999  1.00  0.00     0.076 C 
ATOM      4  N   UNL     1      44.747 132.093  19.784  1.00  0.00     0.020 NA
ATOM      5  N   UNL     1      44.018 133.196  19.832  1.00  0.00    -0.012 N 
ATOM      6  H   UNL     1      43.799 133.711  20.714  1.00  0.00     0.527 HD
ATOM      7  N   UNL     1      43.593 133.551  18.630  1.00  0.00    -0.097 N 
ENDROOT
BRANCH   1   8
ATOM      8  C   UNL     1      43.855 132.613  16.229  1.00  0.00     0.165 C 
BRANCH   8   9
ATOM      9  N   UNL     1      43.990 133.954  15.650  1.00  0.00    -0.256 NA
BRANCH   9  10
ATOM     10  C   UNL     1      43.065 134.649  15.051  1.00  0.00     0.186 C 
BRANCH  10  11
ATOM     11  C   UNL     1      41.843 134.055  14.568  1.00  0.00    -0.039 C 
ATOM     12  C   UNL     1      40.822 133.558  14.163  1.00  0.00     0.012 C 
ENDBRANCH  10  11
BRANCH  10  13
ATOM     13  C   UNL     1      43.259 136.060  14.877  1.00  0.00     0.129 C 
ATOM     14  N   UNL     1      43.415 137.198  14.738  1.00  0.00    -0.190 NA
ENDBRANCH  10  13
ENDBRANCH   9  10
ENDBRANCH   8   9
BRANCH   8  15
ATOM     15  C   UNL     1      44.831 131.622  15.535  1.00  0.00     0.014 C 
ATOM     16  C   UNL     1      44.179 130.945  14.321  1.00  0.00     0.010 C 
ATOM     17  C   UNL     1      46.153 132.287  15.124  1.00  0.00     0.010 C 
ENDBRANCH   8  15
ENDBRANCH   1   8
BRANCH   7  18
ATOM     18  C   UNL     1      42.714 134.670  18.407  1.00  0.00     0.123 A 
ATOM     19  C   UNL     1      41.345 134.449  18.143  1.00  0.00     0.013 A 
ATOM     20  C   UNL     1      43.221 135.985  18.456  1.00  0.00     0.013 A 
ATOM     21  C   UNL     1      40.814 133.141  18.147  1.00  0.00     0.011 A 
ATOM     22  C   UNL     1      40.489 135.546  17.859  1.00  0.00    -0.004 A 
ATOM     23  C   UNL     1      44.569 136.224  18.796  1.00  0.00     0.011 A 
ATOM     24  C   UNL     1      42.376 137.086  18.157  1.00  0.00    -0.004 A 
ATOM     25  C   UNL     1      39.467 132.918  17.868  1.00  0.00     0.001 A 
ATOM     26  C   UNL     1      39.124 135.291  17.589  1.00  0.00     0.009 A 
ATOM     27  C   UNL     1      41.008 136.864  17.853  1.00  0.00     0.040 A 
ATOM     28  C   UNL     1      45.084 137.519  18.804  1.00  0.00     0.001 A 
ATOM     29  C   UNL     1      42.926 138.388  18.160  1.00  0.00     0.009 A 
ATOM     30  C   UNL     1      38.625 133.989  17.591  1.00  0.00     0.001 A 
ATOM     31  C   UNL     1      44.267 138.597  18.481  1.00  0.00     0.001 A 
BRANCH  27  32
ATOM     32  C   UNL     1      40.119 138.011  17.542  1.00  0.00     0.250 C 
ATOM     33  O   UNL     1      39.424 138.521  18.461  1.00  0.00    -0.287 OA
BRANCH  32  34
ATOM     34  N   UNL     1      40.041 138.557  16.222  1.00  0.00    -0.017 NA
BRANCH  34  35
ATOM     35  N   UNL     1      39.939 137.834  15.230  1.00  0.00     0.009 N 
ATOM     36  N   UNL     1      39.838 137.112  14.240  1.00  0.00    -0.003 NA
ENDBRANCH  34  35
ENDBRANCH  32  34
ENDBRANCH  27  32
ENDBRANCH   7  18
TORSDOF 10
ENDMDL
MODEL 4
REMARK VINA RESULT:      -5.3      2.098      3.331
REMARK SMILES C#C/C(C#N)=N\[C@H](c1c(C)n[nH+]n1-c1c2ccccc2c(C(=O)N=[N+]=[N-])c2ccccc12)C(C)C
REMARK SMILES IDX 8 1 9 2 10 3 11 4 12 5 13 7 7 8 6 9 3 10 2 11 1 12 4 13 5 14
REMARK SMILES IDX 33 15 34 16 35 17 14 18 15 19 32 20 16 21 20 22 31 23 27 24
REMARK SMILES IDX 17 25 19 26 21 27 30 28 28 29 18 30 29 31 22 32 23 33 24 34
REMARK SMILES IDX 25 35 26 36
REMARK H PARENT 12 6
ROOT
ATOM      1  C   UNL     1      40.430 135.385  19.600  1.00  0.00     0.137 A 
ATOM      2  C   UNL     1      39.219 135.329  20.281  1.00  0.00     0.135 A 
ATOM      3  C   UNL     1      38.675 136.309  21.270  1.00  0.00     0.076 C 
ATOM      4  N   UNL     1      38.543 134.237  19.870  1.00  0.00     0.020 NA
ATOM      5  N   UNL     1      39.318 133.631  18.986  1.00  0.00    -0.012 N 
ATOM      6  H   UNL     1      39.065 132.739  18.505  1.00  0.00     0.527 HD
ATOM      7  N   UNL     1      40.452 134.288  18.801  1.00  0.00    -0.097 N 
ENDROOT
BRANCH   1   8
ATOM      8  C   UNL     1      41.499 136.462  19.746  1.00  0.00     0.165 C 
BRANCH   8   9
ATOM      9  N   UNL     1      41.050 137.735  19.171  1.00  0.00    -0.256 NA
BRANCH   9  10
ATOM     10  C   UNL     1      41.139 138.109  17.926  1.00  0.00     0.186 C 
BRANCH  10  11
ATOM     11  C   UNL     1      42.243 137.729  17.081  1.00  0.00    -0.039 C 
ATOM     12  C   UNL     1      43.167 137.410  16.375  1.00  0.00     0.012 C 
ENDBRANCH  10  11
BRANCH  10  13
ATOM     13  C   UNL     1      40.093 138.918  17.368  1.00  0.00     0.129 C 
ATOM     14  N   UNL     1      39.248 139.569  16.919  1.00  0.00    -0.190 NA
ENDBRANCH  10  13
ENDBRANCH   9  10
ENDBRANCH   8   9
BRANCH   8  15
ATOM     15  C   UNL     1      41.918 136.656  21.231  1.00  0.00     0.014 C 
ATOM     16  C   UNL     1      43.262 135.978  21.530  1.00  0.00     0.010 C 
ATOM     17  C   UNL     1      41.968 138.135  21.640  1.00  0.00     0.010 C 
ENDBRANCH   8  15
ENDBRANCH   1   8
BRANCH   7  18
ATOM     18  C   UNL     1      41.510 133.807  17.951  1.00  0.00     0.123 A 
ATOM     19  C   UNL     1      41.479 134.079  16.565  1.00  0.00     0.013 A 
ATOM     20  C   UNL     1      42.578 133.068  18.502  1.00  0.00     0.013 A 
ATOM     21  C   UNL     1      40.445 134.864  16.010  1.00  0.00     0.011 A 
ATOM     22  C   UNL     1      42.485 133.551  15.714  1.00  0.00    -0.004 A 
ATOM     23  C   UNL     1      42.662 132.857  19.894  1.00  0.00     0.011 A 
ATOM     24  C   UNL     1      43.578 132.524  17.655  1.00  0.00    -0.004 A 
ATOM     25  C   UNL     1      40.401 135.118  14.641  1.00  0.00     0.001 A 
ATOM     26  C   UNL     1      42.421 133.833  14.329  1.00  0.00     0.009 A 
ATOM     27  C   UNL     1      43.529 132.762  16.258  1.00  0.00     0.040 A 
ATOM     28  C   UNL     1      43.692 132.092  20.438  1.00  0.00     0.001 A 
ATOM     29  C   UNL     1      44.606 131.741  18.231  1.00  0.00     0.009 A 
ATOM     30  C   UNL     1      41.386 134.605  13.803  1.00  0.00     0.001 A 
ATOM     31  C   UNL     1      44.657 131.530  19.609  1.00  0.00     0.001 A 
BRANCH  27  32
ATOM     32  C   UNL     1      44.574 132.198  15.368  1.00  0.00     0.250 C 
ATOM     33  O   UNL     1      45.662 132.816  15.223  1.00  0.00    -0.287 OA
BRANCH  32  34
ATOM     34  N   UNL     1      44.377 130.959  14.679  1.00  0.00    -0.017 NA
BRANCH  34  35
ATOM     35  N   UNL     1      45.313 130.361  14.147  1.00  0.00     0.009 N 
ATOM     36  N   UNL     1      46.248 129.765  13.616  1.00  0.00    -0.003 NA
ENDBRANCH  34  35
ENDBRANCH  32  34
ENDBRANCH  27  32
ENDBRANCH   7  18
TORSDOF 10
ENDMDL
MODEL 5
REMARK VINA RESULT:      -5.1      3.103      6.295
REMARK SMILES C#C/C(C#N)=N\[C@H](c1c(C)n[nH+]n1-c1c2ccccc2c(C(=O)N=[N+]=[N-])c2ccccc12)C(C)C
REMARK SMILES IDX 8 1 9 2 10 3 11 4 12 5 13 7 7 8 6 9 3 10 2 11 1 12 4 13 5 14
REMARK SMILES IDX 33 15 34 16 35 17 14 18 15 19 32 20 16 21 20 22 31 23 27 24
REMARK SMILES IDX 17 25 19 26 21 27 30 28 28 29 18 30 29 31 22 32 23 33 24 34
REMARK SMILES IDX 25 35 26 36
REMARK H PARENT 12 6
ROOT
ATOM      1  C   UNL     1      42.776 133.464  16.340  1.00  0.00     0.137 A 
ATOM      2  C   UNL     1      43.097 132.778  15.173  1.00  0.00     0.135 A 
ATOM      3  C   UNL     1      42.169 132.298  14.105  1.00  0.00     0.076 C 
ATOM      4  N   UNL     1      44.437 132.640  15.110  1.00  0.00     0.020 NA
ATOM      5  N   UNL     1      44.922 133.199  16.206  1.00  0.00    -0.012 N 
ATOM      6  H   UNL     1      45.938 133.229  16.444  1.00  0.00     0.527 HD
ATOM      7  N   UNL     1      43.958 133.700  16.963  1.00  0.00    -0.097 N 
ENDROOT
BRANCH   1   8
ATOM      8  C   UNL     1      41.376 133.850  16.804  1.00  0.00     0.165 C 
BRANCH   8   9
ATOM      9  N   UNL     1      40.418 133.797  15.694  1.00  0.00    -0.256 NA
BRANCH   9  10
ATOM     10  C   UNL     1      39.748 134.793  15.187  1.00  0.00     0.186 C 
BRANCH  10  11
ATOM     11  C   UNL     1      38.338 134.709  14.896  1.00  0.00    -0.039 C 
ATOM     12  C   UNL     1      37.159 134.638  14.653  1.00  0.00     0.012 C 
ENDBRANCH  10  11
BRANCH  10  13
ATOM     13  C   UNL     1      40.433 136.025  14.919  1.00  0.00     0.129 C 
ATOM     14  N   UNL     1      40.985 137.019  14.704  1.00  0.00    -0.190 NA
ENDBRANCH  10  13
ENDBRANCH   9  10
ENDBRANCH   8   9
BRANCH   8  15
ATOM     15  C   UNL     1      40.895 132.953  17.979  1.00  0.00     0.014 C 
ATOM     16  C   UNL     1      41.617 131.598  17.986  1.00  0.00     0.010 C 
ATOM     17  C   UNL     1      41.045 133.641  19.345  1.00  0.00     0.010 C 
ENDBRANCH   8  15
ENDBRANCH   1   8
BRANCH   7  18
ATOM     18  C   UNL     1      44.201 134.296  18.251  1.00  0.00     0.123 A 
ATOM     19  C   UNL     1      44.072 135.692  18.418  1.00  0.00     0.013 A 
ATOM     20  C   UNL     1      44.563 133.484  19.347  1.00  0.00     0.013 A 
ATOM     21  C   UNL     1      43.655 136.509  17.344  1.00  0.00     0.011 A 
ATOM     22  C   UNL     1      44.373 136.290  19.669  1.00  0.00    -0.004 A 
ATOM     23  C   UNL     1      44.619 132.081  19.214  1.00  0.00     0.011 A 
ATOM     24  C   UNL     1      44.882 134.077  20.597  1.00  0.00    -0.004 A 
ATOM     25  C   UNL     1      43.546 137.889  17.500  1.00  0.00     0.001 A 
ATOM     26  C   UNL     1      44.243 137.693  19.802  1.00  0.00     0.009 A 
ATOM     27  C   UNL     1      44.791 135.483  20.757  1.00  0.00     0.040 A 
ATOM     28  C   UNL     1      45.018 131.279  20.282  1.00  0.00     0.001 A 
ATOM     29  C   UNL     1      45.295 133.241  21.661  1.00  0.00     0.009 A 
ATOM     30  C   UNL     1      43.838 138.479  18.724  1.00  0.00     0.001 A 
ATOM     31  C   UNL     1      45.361 131.858  21.499  1.00  0.00     0.001 A 
BRANCH  27  32
ATOM     32  C   UNL     1      45.120 136.107  22.062  1.00  0.00     0.250 C 
ATOM     33  O   UNL     1      44.232 136.185  22.952  1.00  0.00    -0.287 OA
BRANCH  32  34
ATOM     34  N   UNL     1      46.430 136.615  22.337  1.00  0.00    -0.017 NA
BRANCH  34  35
ATOM     35  N   UNL     1      47.358 135.868  22.650  1.00  0.00     0.009 N 
ATOM     36  N   UNL     1      48.284 135.122  22.963  1.00  0.00    -0.003 NA
ENDBRANCH  34  35
ENDBRANCH  32  34
ENDBRANCH  27  32
ENDBRANCH   7  18
TORSDOF 10
ENDMDL
MODEL 6
REMARK VINA RESULT:      -5.1      3.221      7.057
REMARK SMILES C#C/C(C#N)=N\[C@H](c1c(C)n[nH+]n1-c1c2ccccc2c(C(=O)N=[N+]=[N-])c2ccccc12)C(C)C
REMARK SMILES IDX 8 1 9 2 10 3 11 4 12 5 13 7 7 8 6 9 3 10 2 11 1 12 4 13 5 14
REMARK SMILES IDX 33 15 34 16 35 17 14 18 15 19 32 20 16 21 20 22 31 23 27 24
REMARK SMILES IDX 17 25 19 26 21 27 30 28 28 29 18 30 29 31 22 32 23 33 24 34
REMARK SMILES IDX 25 35 26 36
REMARK H PARENT 12 6
ROOT
ATOM      1  C   UNL     1      42.227 133.218  15.815  1.00  0.00     0.137 A 
ATOM      2  C   UNL     1      42.483 132.436  14.693  1.00  0.00     0.135 A 
ATOM      3  C   UNL     1      43.470 131.322  14.555  1.00  0.00     0.076 C 
ATOM      4  N   UNL     1      41.641 132.807  13.708  1.00  0.00     0.020 NA
ATOM      5  N   UNL     1      40.909 133.795  14.196  1.00  0.00    -0.012 N 
ATOM      6  H   UNL     1      40.176 134.301  13.651  1.00  0.00     0.527 HD
ATOM      7  N   UNL     1      41.233 134.067  15.451  1.00  0.00    -0.097 N 
ENDROOT
BRANCH   1   8
ATOM      8  C   UNL     1      42.937 133.126  17.160  1.00  0.00     0.165 C 
BRANCH   8   9
ATOM      9  N   UNL     1      44.330 132.693  16.995  1.00  0.00    -0.256 NA
BRANCH   9  10
ATOM     10  C   UNL     1      44.943 131.751  17.654  1.00  0.00     0.186 C 
BRANCH  10  11
ATOM     11  C   UNL     1      44.742 131.538  19.066  1.00  0.00    -0.039 C 
ATOM     12  C   UNL     1      44.575 131.359  20.247  1.00  0.00     0.012 C 
ENDBRANCH  10  11
BRANCH  10  13
ATOM     13  C   UNL     1      45.843 130.883  16.950  1.00  0.00     0.129 C 
ATOM     14  N   UNL     1      46.567 130.182  16.382  1.00  0.00    -0.190 NA
ENDBRANCH  10  13
ENDBRANCH   9  10
ENDBRANCH   8   9
BRANCH   8  15
ATOM     15  C   UNL     1      42.876 134.473  17.934  1.00  0.00     0.014 C 
ATOM     16  C   UNL     1      42.447 134.266  19.393  1.00  0.00     0.010 C 
ATOM     17  C   UNL     1      44.203 135.246  17.876  1.00  0.00     0.010 C 
ENDBRANCH   8  15
ENDBRANCH   1   8
BRANCH   7  18
ATOM     18  C   UNL     1      40.645 135.149  16.197  1.00  0.00     0.123 A 
ATOM     19  C   UNL     1      41.130 136.465  16.029  1.00  0.00     0.013 A 
ATOM     20  C   UNL     1      39.584 134.895  17.091  1.00  0.00     0.013 A 
ATOM     21  C   UNL     1      42.153 136.741  15.096  1.00  0.00     0.011 A 
ATOM     22  C   UNL     1      40.597 137.524  16.810  1.00  0.00    -0.004 A 
ATOM     23  C   UNL     1      39.039 133.600  17.210  1.00  0.00     0.011 A 
ATOM     24  C   UNL     1      39.058 135.946  17.887  1.00  0.00    -0.004 A 
ATOM     25  C   UNL     1      42.646 138.034  14.943  1.00  0.00     0.001 A 
ATOM     26  C   UNL     1      41.110 138.830  16.626  1.00  0.00     0.009 A 
ATOM     27  C   UNL     1      39.569 137.262  17.750  1.00  0.00     0.040 A 
ATOM     28  C   UNL     1      38.019 133.336  18.122  1.00  0.00     0.001 A 
ATOM     29  C   UNL     1      38.032 135.649  18.814  1.00  0.00     0.009 A 
ATOM     30  C   UNL     1      42.127 139.075  15.704  1.00  0.00     0.001 A 
ATOM     31  C   UNL     1      37.522 134.356  18.927  1.00  0.00     0.001 A 
BRANCH  27  32
ATOM     32  C   UNL     1      39.020 138.365  18.577  1.00  0.00     0.250 C 
ATOM     33  O   UNL     1      38.031 139.020  18.156  1.00  0.00    -0.287 OA
BRANCH  32  34
ATOM     34  N   UNL     1      39.585 138.693  19.850  1.00  0.00    -0.017 NA
BRANCH  34  35
ATOM     35  N   UNL     1      40.587 138.119  20.278  1.00  0.00     0.009 N 
ATOM     36  N   UNL     1      41.589 137.547  20.705  1.00  0.00    -0.003 NA
ENDBRANCH  34  35
ENDBRANCH  32  34
ENDBRANCH  27  32
ENDBRANCH   7  18
TORSDOF 10
ENDMDL
MODEL 7
REMARK VINA RESULT:      -5.0      3.003      6.828
REMARK SMILES C#C/C(C#N)=N\[C@H](c1c(C)n[nH+]n1-c1c2ccccc2c(C(=O)N=[N+]=[N-])c2ccccc12)C(C)C
REMARK SMILES IDX 8 1 9 2 10 3 11 4 12 5 13 7 7 8 6 9 3 10 2 11 1 12 4 13 5 14
REMARK SMILES IDX 33 15 34 16 35 17 14 18 15 19 32 20 16 21 20 22 31 23 27 24
REMARK SMILES IDX 17 25 19 26 21 27 30 28 28 29 18 30 29 31 22 32 23 33 24 34
REMARK SMILES IDX 25 35 26 36
REMARK H PARENT 12 6
ROOT
ATOM      1  C   UNL     1      44.127 132.841  18.350  1.00  0.00     0.137 A 
ATOM      2  C   UNL     1      44.566 131.930  19.305  1.00  0.00     0.135 A 
ATOM      3  C   UNL     1      45.490 130.770  19.112  1.00  0.00     0.076 C 
ATOM      4  N   UNL     1      44.057 132.282  20.503  1.00  0.00     0.020 NA
ATOM      5  N   UNL     1      43.315 133.356  20.291  1.00  0.00    -0.012 N 
ATOM      6  H   UNL     1      42.774 133.847  21.038  1.00  0.00     0.527 HD
ATOM      7  N   UNL     1      43.333 133.717  19.017  1.00  0.00    -0.097 N 
ENDROOT
BRANCH   1   8
ATOM      8  C   UNL     1      44.474 132.831  16.866  1.00  0.00     0.165 C 
BRANCH   8   9
ATOM      9  N   UNL     1      44.248 131.505  16.279  1.00  0.00    -0.256 NA
BRANCH   9  10
ATOM     10  C   UNL     1      45.113 130.774  15.634  1.00  0.00     0.186 C 
BRANCH  10  11
ATOM     11  C   UNL     1      45.065 129.333  15.640  1.00  0.00    -0.039 C 
ATOM     12  C   UNL     1      45.025 128.128  15.645  1.00  0.00     0.012 C 
ENDBRANCH  10  11
BRANCH  10  13
ATOM     13  C   UNL     1      46.144 131.424  14.877  1.00  0.00     0.129 C 
ATOM     14  N   UNL     1      46.977 131.947  14.268  1.00  0.00    -0.190 NA
ENDBRANCH  10  13
ENDBRANCH   9  10
ENDBRANCH   8   9
BRANCH   8  15
ATOM     15  C   UNL     1      43.677 133.913  16.084  1.00  0.00     0.014 C 
ATOM     16  C   UNL     1      44.611 134.957  15.457  1.00  0.00     0.010 C 
ATOM     17  C   UNL     1      42.761 133.308  15.009  1.00  0.00     0.010 C 
ENDBRANCH   8  15
ENDBRANCH   1   8
BRANCH   7  18
ATOM     18  C   UNL     1      42.548 134.806  18.498  1.00  0.00     0.123 A 
ATOM     19  C   UNL     1      41.221 134.578  18.073  1.00  0.00     0.013 A 
ATOM     20  C   UNL     1      43.103 136.100  18.419  1.00  0.00     0.013 A 
ATOM     21  C   UNL     1      40.634 133.299  18.199  1.00  0.00     0.011 A 
ATOM     22  C   UNL     1      40.465 135.635  17.501  1.00  0.00    -0.004 A 
ATOM     23  C   UNL     1      44.399 136.358  18.913  1.00  0.00     0.011 A 
ATOM     24  C   UNL     1      42.359 137.159  17.833  1.00  0.00    -0.004 A 
ATOM     25  C   UNL     1      39.332 133.067  17.763  1.00  0.00     0.001 A 
ATOM     26  C   UNL     1      39.141 135.373  17.076  1.00  0.00     0.009 A 
ATOM     27  C   UNL     1      41.040 136.924  17.369  1.00  0.00     0.040 A 
ATOM     28  C   UNL     1      44.966 137.626  18.798  1.00  0.00     0.001 A 
ATOM     29  C   UNL     1      42.963 138.432  17.718  1.00  0.00     0.009 A 
ATOM     30  C   UNL     1      38.588 134.100  17.204  1.00  0.00     0.001 A 
ATOM     31  C   UNL     1      44.254 138.658  18.196  1.00  0.00     0.001 A 
BRANCH  27  32
ATOM     32  C   UNL     1      40.257 138.027  16.759  1.00  0.00     0.250 C 
ATOM     33  O   UNL     1      40.357 138.246  15.522  1.00  0.00    -0.287 OA
BRANCH  32  34
ATOM     34  N   UNL     1      39.383 138.843  17.544  1.00  0.00    -0.017 NA
BRANCH  34  35
ATOM     35  N   UNL     1      38.290 139.215  17.116  1.00  0.00     0.009 N 
ATOM     36  N   UNL     1      37.198 139.586  16.688  1.00  0.00    -0.003 NA
ENDBRANCH  34  35
ENDBRANCH  32  34
ENDBRANCH  27  32
ENDBRANCH   7  18
TORSDOF 10
ENDMDL
MODEL 8
REMARK VINA RESULT:      -5.0      2.153      3.650
REMARK SMILES C#C/C(C#N)=N\[C@H](c1c(C)n[nH+]n1-c1c2ccccc2c(C(=O)N=[N+]=[N-])c2ccccc12)C(C)C
REMARK SMILES IDX 8 1 9 2 10 3 11 4 12 5 13 7 7 8 6 9 3 10 2 11 1 12 4 13 5 14
REMARK SMILES IDX 33 15 34 16 35 17 14 18 15 19 32 20 16 21 20 22 31 23 27 24
REMARK SMILES IDX 17 25 19 26 21 27 30 28 28 29 18 30 29 31 22 32 23 33 24 34
REMARK SMILES IDX 25 35 26 36
REMARK H PARENT 12 6
ROOT
ATOM      1  C   UNL     1      39.841 135.495  18.868  1.00  0.00     0.137 A 
ATOM      2  C   UNL     1      38.554 135.545  19.393  1.00  0.00     0.135 A 
ATOM      3  C   UNL     1      37.849 136.721  19.988  1.00  0.00     0.076 C 
ATOM      4  N   UNL     1      37.979 134.335  19.240  1.00  0.00     0.020 NA
ATOM      5  N   UNL     1      38.885 133.562  18.664  1.00  0.00    -0.012 N 
ATOM      6  H   UNL     1      38.731 132.555  18.435  1.00  0.00     0.527 HD
ATOM      7  N   UNL     1      40.008 134.222  18.428  1.00  0.00    -0.097 N 
ENDROOT
BRANCH   1   8
ATOM      8  C   UNL     1      40.840 136.645  18.818  1.00  0.00     0.165 C 
BRANCH   8   9
ATOM      9  N   UNL     1      40.339 137.746  17.988  1.00  0.00    -0.256 NA
BRANCH   9  10
ATOM     10  C   UNL     1      40.297 137.792  16.686  1.00  0.00     0.186 C 
BRANCH  10  11
ATOM     11  C   UNL     1      39.102 138.153  15.964  1.00  0.00    -0.039 C 
ATOM     12  C   UNL     1      38.103 138.455  15.360  1.00  0.00     0.012 C 
ENDBRANCH  10  11
BRANCH  10  13
ATOM     13  C   UNL     1      41.485 137.487  15.942  1.00  0.00     0.129 C 
ATOM     14  N   UNL     1      42.442 137.240  15.340  1.00  0.00    -0.190 NA
ENDBRANCH  10  13
ENDBRANCH   9  10
ENDBRANCH   8   9
BRANCH   8  15
ATOM     15  C   UNL     1      41.195 137.158  20.242  1.00  0.00     0.014 C 
ATOM     16  C   UNL     1      42.650 136.836  20.611  1.00  0.00     0.010 C 
ATOM     17  C   UNL     1      40.926 138.661  20.411  1.00  0.00     0.010 C 
ENDBRANCH   8  15
ENDBRANCH   1   8
BRANCH   7  18
ATOM     18  C   UNL     1      41.185 133.599  17.880  1.00  0.00     0.123 A 
ATOM     19  C   UNL     1      41.372 133.556  16.481  1.00  0.00     0.013 A 
ATOM     20  C   UNL     1      42.151 133.038  18.740  1.00  0.00     0.013 A 
ATOM     21  C   UNL     1      40.440 134.165  15.612  1.00  0.00     0.011 A 
ATOM     22  C   UNL     1      42.498 132.887  15.934  1.00  0.00    -0.004 A 
ATOM     23  C   UNL     1      42.016 133.143  20.140  1.00  0.00     0.011 A 
ATOM     24  C   UNL     1      43.271 132.352  18.200  1.00  0.00    -0.004 A 
ATOM     25  C   UNL     1      40.613 134.107  14.230  1.00  0.00     0.001 A 
ATOM     26  C   UNL     1      42.653 132.852  14.528  1.00  0.00     0.009 A 
ATOM     27  C   UNL     1      43.442 132.273  16.795  1.00  0.00     0.040 A 
ATOM     28  C   UNL     1      42.946 132.552  20.993  1.00  0.00     0.001 A 
ATOM     29  C   UNL     1      44.194 131.751  19.088  1.00  0.00     0.009 A 
ATOM     30  C   UNL     1      41.715 133.454  13.690  1.00  0.00     0.001 A 
ATOM     31  C   UNL     1      44.028 131.853  20.469  1.00  0.00     0.001 A 
BRANCH  27  32
ATOM     32  C   UNL     1      44.613 131.560  16.225  1.00  0.00     0.250 C 
ATOM     33  O   UNL     1      45.677 132.197  16.005  1.00  0.00    -0.287 OA
BRANCH  32  34
ATOM     34  N   UNL     1      44.563 130.161  15.931  1.00  0.00    -0.017 NA
BRANCH  34  35
ATOM     35  N   UNL     1      45.356 129.638  15.148  1.00  0.00     0.009 N 
ATOM     36  N   UNL     1      46.149 129.115  14.366  1.00  0.00    -0.003 NA
ENDBRANCH  34  35
ENDBRANCH  32  34
ENDBRANCH  27  32
ENDBRANCH   7  18
TORSDOF 10
ENDMDL
MODEL 9
REMARK VINA RESULT:      -5.0      1.768      3.138
REMARK SMILES C#C/C(C#N)=N\[C@H](c1c(C)n[nH+]n1-c1c2ccccc2c(C(=O)N=[N+]=[N-])c2ccccc12)C(C)C
REMARK SMILES IDX 8 1 9 2 10 3 11 4 12 5 13 7 7 8 6 9 3 10 2 11 1 12 4 13 5 14
REMARK SMILES IDX 33 15 34 16 35 17 14 18 15 19 32 20 16 21 20 22 31 23 27 24
REMARK SMILES IDX 17 25 19 26 21 27 30 28 28 29 18 30 29 31 22 32 23 33 24 34
REMARK SMILES IDX 25 35 26 36
REMARK H PARENT 12 6
ROOT
ATOM      1  C   UNL     1      41.397 135.010  18.436  1.00  0.00     0.137 A 
ATOM      2  C   UNL     1      41.092 136.368  18.429  1.00  0.00     0.135 A 
ATOM      3  C   UNL     1      39.897 137.043  19.022  1.00  0.00     0.076 C 
ATOM      4  N   UNL     1      42.097 137.032  17.826  1.00  0.00     0.020 NA
ATOM      5  N   UNL     1      42.978 136.118  17.455  1.00  0.00    -0.012 N 
ATOM      6  H   UNL     1      43.862 136.335  16.942  1.00  0.00     0.527 HD
ATOM      7  N   UNL     1      42.592 134.901  17.802  1.00  0.00    -0.097 N 
ENDROOT
BRANCH   1   8
ATOM      8  C   UNL     1      40.543 133.896  19.031  1.00  0.00     0.165 C 
BRANCH   8   9
ATOM      9  N   UNL     1      40.023 134.275  20.350  1.00  0.00    -0.256 NA
BRANCH   9  10
ATOM     10  C   UNL     1      40.681 134.313  21.473  1.00  0.00     0.186 C 
BRANCH  10  11
ATOM     11  C   UNL     1      41.607 133.279  21.862  1.00  0.00    -0.039 C 
ATOM     12  C   UNL     1      42.381 132.413  22.189  1.00  0.00     0.012 C 
ENDBRANCH  10  11
BRANCH  10  13
ATOM     13  C   UNL     1      40.491 135.431  22.352  1.00  0.00     0.129 C 
ATOM     14  N   UNL     1      40.339 136.334  23.059  1.00  0.00    -0.190 NA
ENDBRANCH  10  13
ENDBRANCH   9  10
ENDBRANCH   8   9
BRANCH   8  15
ATOM     15  C   UNL     1      39.378 133.498  18.082  1.00  0.00     0.014 C 
ATOM     16  C   UNL     1      38.012 133.693  18.755  1.00  0.00     0.010 C 
ATOM     17  C   UNL     1      39.423 134.253  16.745  1.00  0.00     0.010 C 
ENDBRANCH   8  15
ENDBRANCH   1   8
BRANCH   7  18
ATOM     18  C   UNL     1      43.326 133.713  17.451  1.00  0.00     0.123 A 
ATOM     19  C   UNL     1      43.165 133.137  16.172  1.00  0.00     0.013 A 
ATOM     20  C   UNL     1      44.211 133.130  18.383  1.00  0.00     0.013 A 
ATOM     21  C   UNL     1      42.326 133.743  15.211  1.00  0.00     0.011 A 
ATOM     22  C   UNL     1      43.837 131.930  15.845  1.00  0.00    -0.004 A 
ATOM     23  C   UNL     1      44.441 133.738  19.634  1.00  0.00     0.011 A 
ATOM     24  C   UNL     1      44.874 131.914  18.069  1.00  0.00    -0.004 A 
ATOM     25  C   UNL     1      42.150 133.166  13.956  1.00  0.00     0.001 A 
ATOM     26  C   UNL     1      43.648 131.372  14.559  1.00  0.00     0.009 A 
ATOM     27  C   UNL     1      44.683 131.311  16.799  1.00  0.00     0.040 A 
ATOM     28  C   UNL     1      45.281 133.142  20.573  1.00  0.00     0.001 A 
ATOM     29  C   UNL     1      45.711 131.324  19.044  1.00  0.00     0.009 A 
ATOM     30  C   UNL     1      42.808 131.986  13.630  1.00  0.00     0.001 A 
ATOM     31  C   UNL     1      45.908 131.936  20.282  1.00  0.00     0.001 A 
BRANCH  27  32
ATOM     32  C   UNL     1      45.377 130.043  16.465  1.00  0.00     0.250 C 
ATOM     33  O   UNL     1      44.753 128.953  16.561  1.00  0.00    -0.287 OA
BRANCH  32  34
ATOM     34  N   UNL     1      46.739 130.032  16.025  1.00  0.00    -0.017 NA
BRANCH  34  35
ATOM     35  N   UNL     1      47.078 130.559  14.965  1.00  0.00     0.009 N 
ATOM     36  N   UNL     1      47.416 131.085  13.906  1.00  0.00    -0.003 NA
ENDBRANCH  34  35
ENDBRANCH  32  34
ENDBRANCH  27  32
ENDBRANCH   7  18
TORSDOF 10
ENDMDL


