MODEL 1
REMARK VINA RESULT:      -7.7      0.000      0.000
REMARK SMILES [H]/N=C/N(C(=O)/C(C)=C\n1n[nH+]c(C)c1-c1c2ccccc2cc2c(N=[N+]=[N-])cccc12)C(O)=C1CC1
REMARK SMILES IDX 7 1 8 2 5 3 6 4 4 5 3 6 2 7 1 8 33 9 34 10 35 12 36 13 37 14
REMARK SMILES IDX 9 15 10 16 11 17 15 18 12 19 13 20 14 22 16 23 17 24 32 25
REMARK SMILES IDX 18 26 22 27 31 28 24 29 19 30 21 31 23 32 30 33 25 34 20 35
REMARK SMILES IDX 29 36 26 37 27 38 28 39
REMARK H PARENT 34 11 12 21
ROOT
ATOM      1  C   UNL     1      44.251 132.172  16.201  1.00  0.00     0.057 C 
ATOM      2  C   UNL     1      44.819 133.550  15.981  1.00  0.00     0.054 C 
ENDROOT
BRANCH   1   3
ATOM      3  C   UNL     1      44.494 131.133  15.164  1.00  0.00     0.265 C 
ATOM      4  O   UNL     1      43.871 131.228  14.070  1.00  0.00    -0.268 OA
BRANCH   3   5
ATOM      5  N   UNL     1      45.384 130.012  15.364  1.00  0.00    -0.238 N 
BRANCH   5   6
ATOM      6  C   UNL     1      44.838 128.845  16.007  1.00  0.00     0.201 C 
BRANCH   6   7
ATOM      7  N   UNL     1      45.106 127.651  15.580  1.00  0.00    -0.291 NA
ATOM      8  H   UNL     1      44.983 127.404  14.573  1.00  0.00     0.189 HD
ENDBRANCH   6   7
ENDBRANCH   5   6
BRANCH   5   9
ATOM      9  C   UNL     1      46.773 130.030  14.957  1.00  0.00     0.198 C 
BRANCH   9  10
ATOM     10  O   UNL     1      47.757 129.607  15.850  1.00  0.00    -0.494 OA
ATOM     11  H   UNL     1      48.007 128.630  15.940  1.00  0.00     0.295 HD
ENDBRANCH   9  10
BRANCH   9  12
ATOM     12  C   UNL     1      47.149 130.486  13.762  1.00  0.00    -0.009 C 
ATOM     13  C   UNL     1      46.974 130.532  12.247  1.00  0.00     0.041 C 
ATOM     14  C   UNL     1      48.033 131.296  12.818  1.00  0.00     0.041 C 
ENDBRANCH   9  12
ENDBRANCH   5   9
ENDBRANCH   3   5
ENDBRANCH   1   3
BRANCH   1  15
ATOM     15  C   UNL     1      43.594 131.945  17.356  1.00  0.00     0.242 C 
BRANCH  15  16
ATOM     16  N   UNL     1      42.398 132.632  17.759  1.00  0.00    -0.101 N 
ATOM     17  N   UNL     1      41.196 132.466  17.221  1.00  0.00     0.093 NA
ATOM     18  C   UNL     1      42.259 133.415  18.848  1.00  0.00     0.207 A 
ATOM     19  N   UNL     1      40.295 133.151  17.909  1.00  0.00    -0.147 N 
ATOM     20  C   UNL     1      40.925 133.750  18.938  1.00  0.00     0.170 A 
ATOM     21  H   UNL     1      39.277 133.183  17.684  1.00  0.00     0.342 HD
ATOM     22  C   UNL     1      40.268 134.593  19.981  1.00  0.00     0.100 C 
BRANCH  18  23
ATOM     23  C   UNL     1      43.338 133.780  19.799  1.00  0.00     0.044 A 
ATOM     24  C   UNL     1      43.685 132.894  20.850  1.00  0.00    -0.006 A 
ATOM     25  C   UNL     1      44.040 135.005  19.646  1.00  0.00    -0.006 A 
ATOM     26  C   UNL     1      43.008 131.669  21.047  1.00  0.00     0.009 A 
ATOM     27  C   UNL     1      44.736 133.236  21.736  1.00  0.00    -0.017 A 
ATOM     28  C   UNL     1      43.713 135.914  18.619  1.00  0.00     0.009 A 
ATOM     29  C   UNL     1      45.100 135.329  20.536  1.00  0.00    -0.007 A 
ATOM     30  C   UNL     1      43.367 130.815  22.091  1.00  0.00     0.001 A 
ATOM     31  C   UNL     1      45.087 132.365  22.781  1.00  0.00     0.009 A 
ATOM     32  C   UNL     1      45.430 134.438  21.570  1.00  0.00     0.018 A 
ATOM     33  C   UNL     1      44.423 137.099  18.462  1.00  0.00     0.001 A 
ATOM     34  C   UNL     1      45.817 136.540  20.371  1.00  0.00     0.045 A 
ATOM     35  C   UNL     1      44.406 131.161  22.954  1.00  0.00     0.001 A 
ATOM     36  C   UNL     1      45.468 137.412  19.324  1.00  0.00     0.011 A 
BRANCH  34  37
ATOM     37  N   UNL     1      46.889 136.871  21.271  1.00  0.00    -0.060 NA
BRANCH  37  38
ATOM     38  N   UNL     1      46.708 137.494  22.318  1.00  0.00     0.005 N 
ATOM     39  N   UNL     1      46.529 138.118  23.365  1.00  0.00    -0.003 NA
ENDBRANCH  37  38
ENDBRANCH  34  37
ENDBRANCH  18  23
ENDBRANCH  15  16
ENDBRANCH   1  15
TORSDOF 12
ENDMDL
MODEL 2
REMARK VINA RESULT:      -7.1      2.867      4.542
REMARK SMILES [H]/N=C/N(C(=O)/C(C)=C\n1n[nH+]c(C)c1-c1c2ccccc2cc2c(N=[N+]=[N-])cccc12)C(O)=C1CC1
REMARK SMILES IDX 7 1 8 2 5 3 6 4 4 5 3 6 2 7 1 8 33 9 34 10 35 12 36 13 37 14
REMARK SMILES IDX 9 15 10 16 11 17 15 18 12 19 13 20 14 22 16 23 17 24 32 25
REMARK SMILES IDX 18 26 22 27 31 28 24 29 19 30 21 31 23 32 30 33 25 34 20 35
REMARK SMILES IDX 29 36 26 37 27 38 28 39
REMARK H PARENT 34 11 12 21
ROOT
ATOM      1  C   UNL     1      44.371 131.954  17.646  1.00  0.00     0.057 C 
ATOM      2  C   UNL     1      45.299 131.702  18.806  1.00  0.00     0.054 C 
ENDROOT
BRANCH   1   3
ATOM      3  C   UNL     1      44.951 132.011  16.276  1.00  0.00     0.265 C 
ATOM      4  O   UNL     1      45.075 133.142  15.730  1.00  0.00    -0.268 OA
BRANCH   3   5
ATOM      5  N   UNL     1      45.351 130.834  15.539  1.00  0.00    -0.238 N 
BRANCH   5   6
ATOM      6  C   UNL     1      45.930 129.752  16.292  1.00  0.00     0.201 C 
BRANCH   6   7
ATOM      7  N   UNL     1      47.207 129.686  16.507  1.00  0.00    -0.291 NA
ATOM      8  H   UNL     1      47.813 130.527  16.380  1.00  0.00     0.189 HD
ENDBRANCH   6   7
ENDBRANCH   5   6
BRANCH   5   9
ATOM      9  C   UNL     1      45.200 130.718  14.104  1.00  0.00     0.198 C 
BRANCH   9  10
ATOM     10  O   UNL     1      43.934 130.844  13.533  1.00  0.00    -0.494 OA
ATOM     11  H   UNL     1      43.571 131.742  13.240  1.00  0.00     0.295 HD
ENDBRANCH   9  10
BRANCH   9  12
ATOM     12  C   UNL     1      46.235 130.447  13.309  1.00  0.00    -0.009 C 
ATOM     13  C   UNL     1      46.963 130.614  11.979  1.00  0.00     0.041 C 
ATOM     14  C   UNL     1      47.555 129.766  12.958  1.00  0.00     0.041 C 
ENDBRANCH   9  12
ENDBRANCH   5   9
ENDBRANCH   3   5
ENDBRANCH   1   3
BRANCH   1  15
ATOM     15  C   UNL     1      43.055 132.062  17.911  1.00  0.00     0.242 C 
BRANCH  15  16
ATOM     16  N   UNL     1      42.508 132.341  19.211  1.00  0.00    -0.101 N 
ATOM     17  N   UNL     1      42.679 131.594  20.295  1.00  0.00     0.093 NA
ATOM     18  C   UNL     1      41.888 133.479  19.585  1.00  0.00     0.207 A 
ATOM     19  N   UNL     1      42.153 132.202  21.348  1.00  0.00    -0.147 N 
ATOM     20  C   UNL     1      41.656 133.385  20.941  1.00  0.00     0.170 A 
ATOM     21  H   UNL     1      42.158 131.816  22.317  1.00  0.00     0.342 HD
ATOM     22  C   UNL     1      41.004 134.399  21.823  1.00  0.00     0.100 C 
BRANCH  18  23
ATOM     23  C   UNL     1      41.583 134.632  18.703  1.00  0.00     0.044 A 
ATOM     24  C   UNL     1      40.338 134.696  18.027  1.00  0.00    -0.006 A 
ATOM     25  C   UNL     1      42.524 135.683  18.551  1.00  0.00    -0.006 A 
ATOM     26  C   UNL     1      39.374 133.668  18.141  1.00  0.00     0.009 A 
ATOM     27  C   UNL     1      40.042 135.815  17.211  1.00  0.00    -0.017 A 
ATOM     28  C   UNL     1      43.776 135.646  19.199  1.00  0.00     0.009 A 
ATOM     29  C   UNL     1      42.209 136.805  17.736  1.00  0.00    -0.007 A 
ATOM     30  C   UNL     1      38.157 133.754  17.462  1.00  0.00     0.001 A 
ATOM     31  C   UNL     1      38.811 135.887  16.536  1.00  0.00     0.009 A 
ATOM     32  C   UNL     1      40.970 136.851  17.077  1.00  0.00     0.018 A 
ATOM     33  C   UNL     1      44.682 136.693  19.064  1.00  0.00     0.001 A 
ATOM     34  C   UNL     1      43.138 137.866  17.602  1.00  0.00     0.045 A 
ATOM     35  C   UNL     1      37.875 134.862  16.665  1.00  0.00     0.001 A 
ATOM     36  C   UNL     1      44.369 137.795  18.278  1.00  0.00     0.011 A 
BRANCH  34  37
ATOM     37  N   UNL     1      42.820 139.001  16.778  1.00  0.00    -0.060 NA
BRANCH  37  38
ATOM     38  N   UNL     1      42.714 138.923  15.553  1.00  0.00     0.005 N 
ATOM     39  N   UNL     1      42.609 138.843  14.328  1.00  0.00    -0.003 NA
ENDBRANCH  37  38
ENDBRANCH  34  37
ENDBRANCH  18  23
ENDBRANCH  15  16
ENDBRANCH   1  15
TORSDOF 12
ENDMDL
MODEL 3
REMARK VINA RESULT:      -7.0      1.832      3.742
REMARK SMILES [H]/N=C/N(C(=O)/C(C)=C\n1n[nH+]c(C)c1-c1c2ccccc2cc2c(N=[N+]=[N-])cccc12)C(O)=C1CC1
REMARK SMILES IDX 7 1 8 2 5 3 6 4 4 5 3 6 2 7 1 8 33 9 34 10 35 12 36 13 37 14
REMARK SMILES IDX 9 15 10 16 11 17 15 18 12 19 13 20 14 22 16 23 17 24 32 25
REMARK SMILES IDX 18 26 22 27 31 28 24 29 19 30 21 31 23 32 30 33 25 34 20 35
REMARK SMILES IDX 29 36 26 37 27 38 28 39
REMARK H PARENT 34 11 12 21
ROOT
ATOM      1  C   UNL     1      43.766 132.565  16.086  1.00  0.00     0.057 C 
ATOM      2  C   UNL     1      42.631 131.631  16.416  1.00  0.00     0.054 C 
ENDROOT
BRANCH   1   3
ATOM      3  C   UNL     1      45.109 131.981  15.825  1.00  0.00     0.265 C 
ATOM      4  O   UNL     1      45.982 132.716  15.286  1.00  0.00    -0.268 OA
BRANCH   3   5
ATOM      5  N   UNL     1      45.448 130.610  16.135  1.00  0.00    -0.238 N 
BRANCH   5   6
ATOM      6  C   UNL     1      45.537 130.255  17.528  1.00  0.00     0.201 C 
BRANCH   6   7
ATOM      7  N   UNL     1      46.361 130.857  18.327  1.00  0.00    -0.291 NA
ATOM      8  H   UNL     1      47.340 130.512  18.444  1.00  0.00     0.189 HD
ENDBRANCH   6   7
ENDBRANCH   5   6
BRANCH   5   9
ATOM      9  C   UNL     1      45.702 129.614  15.117  1.00  0.00     0.198 C 
BRANCH   9  10
ATOM     10  O   UNL     1      45.199 128.323  15.276  1.00  0.00    -0.494 OA
ATOM     11  H   UNL     1      44.222 128.156  15.479  1.00  0.00     0.295 HD
ENDBRANCH   9  10
BRANCH   9  12
ATOM     12  C   UNL     1      46.447 129.881  14.044  1.00  0.00    -0.009 C 
ATOM     13  C   UNL     1      46.642 130.600  12.713  1.00  0.00     0.041 C 
ATOM     14  C   UNL     1      47.684 129.740  13.163  1.00  0.00     0.041 C 
ENDBRANCH   9  12
ENDBRANCH   5   9
ENDBRANCH   3   5
ENDBRANCH   1   3
BRANCH   1  15
ATOM     15  C   UNL     1      43.485 133.880  15.994  1.00  0.00     0.242 C 
BRANCH  15  16
ATOM     16  N   UNL     1      42.321 134.504  16.562  1.00  0.00    -0.101 N 
ATOM     17  N   UNL     1      41.092 134.437  16.066  1.00  0.00     0.093 NA
ATOM     18  C   UNL     1      42.250 135.104  17.767  1.00  0.00     0.207 A 
ATOM     19  N   UNL     1      40.238 135.010  16.900  1.00  0.00    -0.147 N 
ATOM     20  C   UNL     1      40.927 135.433  17.977  1.00  0.00     0.170 A 
ATOM     21  H   UNL     1      39.210 135.087  16.735  1.00  0.00     0.342 HD
ATOM     22  C   UNL     1      40.337 136.105  19.173  1.00  0.00     0.100 C 
BRANCH  18  23
ATOM     23  C   UNL     1      43.380 135.304  18.707  1.00  0.00     0.044 A 
ATOM     24  C   UNL     1      44.053 136.551  18.749  1.00  0.00    -0.006 A 
ATOM     25  C   UNL     1      43.776 134.257  19.580  1.00  0.00    -0.006 A 
ATOM     26  C   UNL     1      43.701 137.618  17.892  1.00  0.00     0.009 A 
ATOM     27  C   UNL     1      45.113 136.744  19.670  1.00  0.00    -0.017 A 
ATOM     28  C   UNL     1      43.135 133.001  19.557  1.00  0.00     0.009 A 
ATOM     29  C   UNL     1      44.833 134.469  20.506  1.00  0.00    -0.007 A 
ATOM     30  C   UNL     1      44.382 138.835  17.951  1.00  0.00     0.001 A 
ATOM     31  C   UNL     1      45.786 137.976  19.719  1.00  0.00     0.009 A 
ATOM     32  C   UNL     1      45.487 135.712  20.535  1.00  0.00     0.018 A 
ATOM     33  C   UNL     1      43.513 131.990  20.434  1.00  0.00     0.001 A 
ATOM     34  C   UNL     1      45.214 133.433  21.395  1.00  0.00     0.045 A 
ATOM     35  C   UNL     1      45.420 139.015  18.864  1.00  0.00     0.001 A 
ATOM     36  C   UNL     1      44.538 132.200  21.349  1.00  0.00     0.011 A 
BRANCH  34  37
ATOM     37  N   UNL     1      46.284 133.646  22.333  1.00  0.00    -0.060 NA
BRANCH  37  38
ATOM     38  N   UNL     1      46.093 134.076  23.471  1.00  0.00     0.005 N 
ATOM     39  N   UNL     1      45.903 134.506  24.610  1.00  0.00    -0.003 NA
ENDBRANCH  37  38
ENDBRANCH  34  37
ENDBRANCH  18  23
ENDBRANCH  15  16
ENDBRANCH   1  15
TORSDOF 12
ENDMDL
MODEL 4
REMARK VINA RESULT:      -6.9      2.606      4.443
REMARK SMILES [H]/N=C/N(C(=O)/C(C)=C\n1n[nH+]c(C)c1-c1c2ccccc2cc2c(N=[N+]=[N-])cccc12)C(O)=C1CC1
REMARK SMILES IDX 7 1 8 2 5 3 6 4 4 5 3 6 2 7 1 8 33 9 34 10 35 12 36 13 37 14
REMARK SMILES IDX 9 15 10 16 11 17 15 18 12 19 13 20 14 22 16 23 17 24 32 25
REMARK SMILES IDX 18 26 22 27 31 28 24 29 19 30 21 31 23 32 30 33 25 34 20 35
REMARK SMILES IDX 29 36 26 37 27 38 28 39
REMARK H PARENT 34 11 12 21
ROOT
ATOM      1  C   UNL     1      42.916 132.107  15.246  1.00  0.00     0.057 C 
ATOM      2  C   UNL     1      42.570 131.813  13.809  1.00  0.00     0.054 C 
ENDROOT
BRANCH   1   3
ATOM      3  C   UNL     1      44.007 131.323  15.885  1.00  0.00     0.265 C 
ATOM      4  O   UNL     1      44.046 131.277  17.146  1.00  0.00    -0.268 OA
BRANCH   3   5
ATOM      5  N   UNL     1      45.032 130.638  15.131  1.00  0.00    -0.238 N 
BRANCH   5   6
ATOM      6  C   UNL     1      44.885 129.215  14.964  1.00  0.00     0.201 C 
BRANCH   6   7
ATOM      7  N   UNL     1      45.511 128.377  15.730  1.00  0.00    -0.291 NA
ATOM      8  H   UNL     1      45.646 128.580  16.745  1.00  0.00     0.189 HD
ENDBRANCH   6   7
ENDBRANCH   5   6
BRANCH   5   9
ATOM      9  C   UNL     1      46.177 131.318  14.564  1.00  0.00     0.198 C 
BRANCH   9  10
ATOM     10  O   UNL     1      46.518 132.590  15.024  1.00  0.00    -0.494 OA
ATOM     11  H   UNL     1      47.483 132.878  15.120  1.00  0.00     0.295 HD
ENDBRANCH   9  10
BRANCH   9  12
ATOM     12  C   UNL     1      46.893 130.783  13.576  1.00  0.00    -0.009 C 
ATOM     13  C   UNL     1      48.055 129.915  13.102  1.00  0.00     0.041 C 
ATOM     14  C   UNL     1      47.249 130.546  12.111  1.00  0.00     0.041 C 
ENDBRANCH   9  12
ENDBRANCH   5   9
ENDBRANCH   3   5
ENDBRANCH   1   3
BRANCH   1  15
ATOM     15  C   UNL     1      42.247 133.105  15.857  1.00  0.00     0.242 C 
BRANCH  15  16
ATOM     16  N   UNL     1      42.689 134.472  15.900  1.00  0.00    -0.101 N 
ATOM     17  N   UNL     1      43.211 135.145  14.882  1.00  0.00     0.093 NA
ATOM     18  C   UNL     1      42.490 135.341  16.912  1.00  0.00     0.207 A 
ATOM     19  N   UNL     1      43.388 136.413  15.223  1.00  0.00    -0.147 N 
ATOM     20  C   UNL     1      42.941 136.571  16.483  1.00  0.00     0.170 A 
ATOM     21  H   UNL     1      43.786 137.145  14.595  1.00  0.00     0.342 HD
ATOM     22  C   UNL     1      42.926 137.858  17.241  1.00  0.00     0.100 C 
BRANCH  18  23
ATOM     23  C   UNL     1      41.842 135.029  18.210  1.00  0.00     0.044 A 
ATOM     24  C   UNL     1      40.435 135.142  18.343  1.00  0.00    -0.006 A 
ATOM     25  C   UNL     1      42.624 134.596  19.312  1.00  0.00    -0.006 A 
ATOM     26  C   UNL     1      39.618 135.578  17.276  1.00  0.00     0.009 A 
ATOM     27  C   UNL     1      39.821 134.814  19.577  1.00  0.00    -0.017 A 
ATOM     28  C   UNL     1      44.027 134.483  19.217  1.00  0.00     0.009 A 
ATOM     29  C   UNL     1      41.993 134.260  20.541  1.00  0.00    -0.007 A 
ATOM     30  C   UNL     1      38.234 135.684  17.435  1.00  0.00     0.001 A 
ATOM     31  C   UNL     1      38.427 134.923  19.719  1.00  0.00     0.009 A 
ATOM     32  C   UNL     1      40.597 134.376  20.653  1.00  0.00     0.018 A 
ATOM     33  C   UNL     1      44.782 134.033  20.295  1.00  0.00     0.001 A 
ATOM     34  C   UNL     1      42.769 133.805  21.635  1.00  0.00     0.045 A 
ATOM     35  C   UNL     1      37.641 135.354  18.652  1.00  0.00     0.001 A 
ATOM     36  C   UNL     1      44.164 133.692  21.492  1.00  0.00     0.011 A 
BRANCH  34  37
ATOM     37  N   UNL     1      42.132 133.464  22.878  1.00  0.00    -0.060 NA
BRANCH  37  38
ATOM     38  N   UNL     1      42.173 132.330  23.356  1.00  0.00     0.005 N 
ATOM     39  N   UNL     1      42.214 131.196  23.835  1.00  0.00    -0.003 NA
ENDBRANCH  37  38
ENDBRANCH  34  37
ENDBRANCH  18  23
ENDBRANCH  15  16
ENDBRANCH   1  15
TORSDOF 12
ENDMDL
MODEL 5
REMARK VINA RESULT:      -6.8      3.022      5.583
REMARK SMILES [H]/N=C/N(C(=O)/C(C)=C\n1n[nH+]c(C)c1-c1c2ccccc2cc2c(N=[N+]=[N-])cccc12)C(O)=C1CC1
REMARK SMILES IDX 7 1 8 2 5 3 6 4 4 5 3 6 2 7 1 8 33 9 34 10 35 12 36 13 37 14
REMARK SMILES IDX 9 15 10 16 11 17 15 18 12 19 13 20 14 22 16 23 17 24 32 25
REMARK SMILES IDX 18 26 22 27 31 28 24 29 19 30 21 31 23 32 30 33 25 34 20 35
REMARK SMILES IDX 29 36 26 37 27 38 28 39
REMARK H PARENT 34 11 12 21
ROOT
ATOM      1  C   UNL     1      43.257 132.452  15.348  1.00  0.00     0.057 C 
ATOM      2  C   UNL     1      42.075 133.023  14.608  1.00  0.00     0.054 C 
ENDROOT
BRANCH   1   3
ATOM      3  C   UNL     1      43.984 131.304  14.740  1.00  0.00     0.265 C 
ATOM      4  O   UNL     1      43.603 130.891  13.609  1.00  0.00    -0.268 OA
BRANCH   3   5
ATOM      5  N   UNL     1      45.082 130.629  15.394  1.00  0.00    -0.238 N 
BRANCH   5   6
ATOM      6  C   UNL     1      45.477 131.121  16.689  1.00  0.00     0.201 C 
BRANCH   6   7
ATOM      7  N   UNL     1      46.113 130.368  17.532  1.00  0.00    -0.291 NA
ATOM      8  H   UNL     1      47.095 130.591  17.810  1.00  0.00     0.189 HD
ENDBRANCH   6   7
ENDBRANCH   5   6
BRANCH   5   9
ATOM      9  C   UNL     1      45.784 129.512  14.800  1.00  0.00     0.198 C 
BRANCH   9  10
ATOM     10  O   UNL     1      45.459 128.212  15.186  1.00  0.00    -0.494 OA
ATOM     11  H   UNL     1      45.910 127.763  15.973  1.00  0.00     0.295 HD
ENDBRANCH   9  10
BRANCH   9  12
ATOM     12  C   UNL     1      46.770 129.689  13.921  1.00  0.00    -0.009 C 
ATOM     13  C   UNL     1      48.215 129.463  13.488  1.00  0.00     0.041 C 
ATOM     14  C   UNL     1      47.381 130.245  12.638  1.00  0.00     0.041 C 
ENDBRANCH   9  12
ENDBRANCH   5   9
ENDBRANCH   3   5
ENDBRANCH   1   3
BRANCH   1  15
ATOM     15  C   UNL     1      43.621 133.050  16.499  1.00  0.00     0.242 C 
BRANCH  15  16
ATOM     16  N   UNL     1      42.921 132.908  17.746  1.00  0.00    -0.101 N 
ATOM     17  N   UNL     1      43.118 131.942  18.634  1.00  0.00     0.093 NA
ATOM     18  C   UNL     1      42.085 133.812  18.296  1.00  0.00     0.207 A 
ATOM     19  N   UNL     1      42.404 132.179  19.724  1.00  0.00    -0.147 N 
ATOM     20  C   UNL     1      41.752 133.344  19.549  1.00  0.00     0.170 A 
ATOM     21  H   UNL     1      42.387 131.564  20.566  1.00  0.00     0.342 HD
ATOM     22  C   UNL     1      40.861 133.996  20.555  1.00  0.00     0.100 C 
BRANCH  18  23
ATOM     23  C   UNL     1      41.669 135.097  17.681  1.00  0.00     0.044 A 
ATOM     24  C   UNL     1      42.510 136.234  17.780  1.00  0.00    -0.006 A 
ATOM     25  C   UNL     1      40.440 135.185  16.975  1.00  0.00    -0.006 A 
ATOM     26  C   UNL     1      43.736 136.195  18.481  1.00  0.00     0.009 A 
ATOM     27  C   UNL     1      42.119 137.448  17.165  1.00  0.00    -0.017 A 
ATOM     28  C   UNL     1      39.575 134.076  16.867  1.00  0.00     0.009 A 
ATOM     29  C   UNL     1      40.066 136.408  16.354  1.00  0.00    -0.007 A 
ATOM     30  C   UNL     1      44.544 137.331  18.566  1.00  0.00     0.001 A 
ATOM     31  C   UNL     1      42.945 138.581  17.258  1.00  0.00     0.009 A 
ATOM     32  C   UNL     1      40.914 137.523  16.461  1.00  0.00     0.018 A 
ATOM     33  C   UNL     1      38.386 134.165  16.151  1.00  0.00     0.001 A 
ATOM     34  C   UNL     1      38.852 136.491  15.629  1.00  0.00     0.045 A 
ATOM     35  C   UNL     1      44.151 138.519  17.954  1.00  0.00     0.001 A 
ATOM     36  C   UNL     1      38.026 135.357  15.533  1.00  0.00     0.011 A 
BRANCH  34  37
ATOM     37  N   UNL     1      38.472 137.728  15.000  1.00  0.00    -0.060 NA
BRANCH  37  38
ATOM     38  N   UNL     1      37.503 138.391  15.373  1.00  0.00     0.005 N 
ATOM     39  N   UNL     1      36.533 139.053  15.744  1.00  0.00    -0.003 NA
ENDBRANCH  37  38
ENDBRANCH  34  37
ENDBRANCH  18  23
ENDBRANCH  15  16
ENDBRANCH   1  15
TORSDOF 12
ENDMDL
MODEL 6
REMARK VINA RESULT:      -6.8      2.685      4.488
REMARK SMILES [H]/N=C/N(C(=O)/C(C)=C\n1n[nH+]c(C)c1-c1c2ccccc2cc2c(N=[N+]=[N-])cccc12)C(O)=C1CC1
REMARK SMILES IDX 7 1 8 2 5 3 6 4 4 5 3 6 2 7 1 8 33 9 34 10 35 12 36 13 37 14
REMARK SMILES IDX 9 15 10 16 11 17 15 18 12 19 13 20 14 22 16 23 17 24 32 25
REMARK SMILES IDX 18 26 22 27 31 28 24 29 19 30 21 31 23 32 30 33 25 34 20 35
REMARK SMILES IDX 29 36 26 37 27 38 28 39
REMARK H PARENT 34 11 12 21
ROOT
ATOM      1  C   UNL     1      44.174 131.818  17.259  1.00  0.00     0.057 C 
ATOM      2  C   UNL     1      43.050 131.781  16.255  1.00  0.00     0.054 C 
ENDROOT
BRANCH   1   3
ATOM      3  C   UNL     1      45.248 130.793  17.155  1.00  0.00     0.265 C 
ATOM      4  O   UNL     1      45.654 130.249  18.219  1.00  0.00    -0.268 OA
BRANCH   3   5
ATOM      5  N   UNL     1      45.861 130.416  15.902  1.00  0.00    -0.238 N 
BRANCH   5   6
ATOM      6  C   UNL     1      45.994 129.008  15.633  1.00  0.00     0.201 C 
BRANCH   6   7
ATOM      7  N   UNL     1      44.973 128.211  15.684  1.00  0.00    -0.291 NA
ATOM      8  H   UNL     1      44.582 127.903  16.602  1.00  0.00     0.189 HD
ENDBRANCH   6   7
ENDBRANCH   5   6
BRANCH   5   9
ATOM      9  C   UNL     1      46.342 131.385  14.940  1.00  0.00     0.198 C 
BRANCH   9  10
ATOM     10  O   UNL     1      46.097 132.742  15.150  1.00  0.00    -0.494 OA
ATOM     11  H   UNL     1      45.186 133.079  15.433  1.00  0.00     0.295 HD
ENDBRANCH   9  10
BRANCH   9  12
ATOM     12  C   UNL     1      46.976 131.016  13.828  1.00  0.00    -0.009 C 
ATOM     13  C   UNL     1      48.211 130.451  13.133  1.00  0.00     0.041 C 
ATOM     14  C   UNL     1      47.106 130.829  12.319  1.00  0.00     0.041 C 
ENDBRANCH   9  12
ENDBRANCH   5   9
ENDBRANCH   3   5
ENDBRANCH   1   3
BRANCH   1  15
ATOM     15  C   UNL     1      44.168 132.815  18.165  1.00  0.00     0.242 C 
BRANCH  15  16
ATOM     16  N   UNL     1      43.285 132.878  19.298  1.00  0.00    -0.101 N 
ATOM     17  N   UNL     1      43.039 131.882  20.139  1.00  0.00     0.093 NA
ATOM     18  C   UNL     1      42.704 133.991  19.792  1.00  0.00     0.207 A 
ATOM     19  N   UNL     1      42.285 132.312  21.139  1.00  0.00    -0.147 N 
ATOM     20  C   UNL     1      42.063 133.628  20.957  1.00  0.00     0.170 A 
ATOM     21  H   UNL     1      41.954 131.717  21.930  1.00  0.00     0.342 HD
ATOM     22  C   UNL     1      41.285 134.510  21.878  1.00  0.00     0.100 C 
BRANCH  18  23
ATOM     23  C   UNL     1      42.805 135.353  19.213  1.00  0.00     0.044 A 
ATOM     24  C   UNL     1      43.931 136.163  19.504  1.00  0.00    -0.006 A 
ATOM     25  C   UNL     1      41.786 135.840  18.352  1.00  0.00    -0.006 A 
ATOM     26  C   UNL     1      44.964 135.725  20.363  1.00  0.00     0.009 A 
ATOM     27  C   UNL     1      44.034 137.452  18.924  1.00  0.00    -0.017 A 
ATOM     28  C   UNL     1      40.648 135.065  18.052  1.00  0.00     0.009 A 
ATOM     29  C   UNL     1      41.909 137.131  17.770  1.00  0.00    -0.007 A 
ATOM     30  C   UNL     1      46.062 136.544  20.635  1.00  0.00     0.001 A 
ATOM     31  C   UNL     1      45.147 138.263  19.206  1.00  0.00     0.009 A 
ATOM     32  C   UNL     1      43.033 137.918  18.067  1.00  0.00     0.018 A 
ATOM     33  C   UNL     1      39.668 135.540  17.187  1.00  0.00     0.001 A 
ATOM     34  C   UNL     1      40.905 137.609  16.892  1.00  0.00     0.045 A 
ATOM     35  C   UNL     1      46.154 137.808  20.055  1.00  0.00     0.001 A 
ATOM     36  C   UNL     1      39.793 136.797  16.607  1.00  0.00     0.011 A 
BRANCH  34  37
ATOM     37  N   UNL     1      41.028 138.915  16.301  1.00  0.00    -0.060 NA
BRANCH  37  38
ATOM     38  N   UNL     1      41.642 139.114  15.252  1.00  0.00     0.005 N 
ATOM     39  N   UNL     1      42.255 139.314  14.203  1.00  0.00    -0.003 NA
ENDBRANCH  37  38
ENDBRANCH  34  37
ENDBRANCH  18  23
ENDBRANCH  15  16
ENDBRANCH   1  15
TORSDOF 12
ENDMDL
MODEL 7
REMARK VINA RESULT:      -6.6      1.407      1.633
REMARK SMILES [H]/N=C/N(C(=O)/C(C)=C\n1n[nH+]c(C)c1-c1c2ccccc2cc2c(N=[N+]=[N-])cccc12)C(O)=C1CC1
REMARK SMILES IDX 7 1 8 2 5 3 6 4 4 5 3 6 2 7 1 8 33 9 34 10 35 12 36 13 37 14
REMARK SMILES IDX 9 15 10 16 11 17 15 18 12 19 13 20 14 22 16 23 17 24 32 25
REMARK SMILES IDX 18 26 22 27 31 28 24 29 19 30 21 31 23 32 30 33 25 34 20 35
REMARK SMILES IDX 29 36 26 37 27 38 28 39
REMARK H PARENT 34 11 12 21
ROOT
ATOM      1  C   UNL     1      43.415 132.885  16.051  1.00  0.00     0.057 C 
ATOM      2  C   UNL     1      42.845 133.911  15.107  1.00  0.00     0.054 C 
ENDROOT
BRANCH   1   3
ATOM      3  C   UNL     1      44.883 132.643  16.031  1.00  0.00     0.265 C 
ATOM      4  O   UNL     1      45.628 133.549  15.565  1.00  0.00    -0.268 OA
BRANCH   3   5
ATOM      5  N   UNL     1      45.487 131.414  16.494  1.00  0.00    -0.238 N 
BRANCH   5   6
ATOM      6  C   UNL     1      45.772 131.311  17.902  1.00  0.00     0.201 C 
BRANCH   6   7
ATOM      7  N   UNL     1      45.533 130.220  18.561  1.00  0.00    -0.291 NA
ATOM      8  H   UNL     1      44.643 130.103  19.093  1.00  0.00     0.189 HD
ENDBRANCH   6   7
ENDBRANCH   5   6
BRANCH   5   9
ATOM      9  C   UNL     1      45.815 130.318  15.607  1.00  0.00     0.198 C 
BRANCH   9  10
ATOM     10  O   UNL     1      45.655 129.005  16.049  1.00  0.00    -0.494 OA
ATOM     11  H   UNL     1      46.286 128.268  15.762  1.00  0.00     0.295 HD
ENDBRANCH   9  10
BRANCH   9  12
ATOM     12  C   UNL     1      46.311 130.525  14.388  1.00  0.00    -0.009 C 
ATOM     13  C   UNL     1      47.408 131.071  13.479  1.00  0.00     0.041 C 
ATOM     14  C   UNL     1      46.279 130.459  12.863  1.00  0.00     0.041 C 
ENDBRANCH   9  12
ENDBRANCH   5   9
ENDBRANCH   3   5
ENDBRANCH   1   3
BRANCH   1  15
ATOM     15  C   UNL     1      42.563 132.278  16.901  1.00  0.00     0.242 C 
BRANCH  15  16
ATOM     16  N   UNL     1      41.450 132.927  17.537  1.00  0.00    -0.101 N 
ATOM     17  N   UNL     1      40.175 132.780  17.197  1.00  0.00     0.093 NA
ATOM     18  C   UNL     1      41.493 133.643  18.679  1.00  0.00     0.207 A 
ATOM     19  N   UNL     1      39.401 133.413  18.065  1.00  0.00    -0.147 N 
ATOM     20  C   UNL     1      40.192 133.958  19.008  1.00  0.00     0.170 A 
ATOM     21  H   UNL     1      38.359 133.447  18.014  1.00  0.00     0.342 HD
ATOM     22  C   UNL     1      39.717 134.732  20.194  1.00  0.00     0.100 C 
BRANCH  18  23
ATOM     23  C   UNL     1      42.715 133.964  19.457  1.00  0.00     0.044 A 
ATOM     24  C   UNL     1      43.214 133.035  20.404  1.00  0.00    -0.006 A 
ATOM     25  C   UNL     1      43.398 135.189  19.240  1.00  0.00    -0.006 A 
ATOM     26  C   UNL     1      42.562 131.808  20.661  1.00  0.00     0.009 A 
ATOM     27  C   UNL     1      44.398 133.336  21.122  1.00  0.00    -0.017 A 
ATOM     28  C   UNL     1      42.923 136.140  18.313  1.00  0.00     0.009 A 
ATOM     29  C   UNL     1      44.591 135.472  19.960  1.00  0.00    -0.007 A 
ATOM     30  C   UNL     1      43.074 130.911  21.601  1.00  0.00     0.001 A 
ATOM     31  C   UNL     1      44.901 132.422  22.064  1.00  0.00     0.009 A 
ATOM     32  C   UNL     1      45.072 134.539  20.893  1.00  0.00     0.018 A 
ATOM     33  C   UNL     1      43.613 137.326  18.089  1.00  0.00     0.001 A 
ATOM     34  C   UNL     1      45.287 136.684  19.728  1.00  0.00     0.045 A 
ATOM     35  C   UNL     1      44.241 131.216  22.298  1.00  0.00     0.001 A 
ATOM     36  C   UNL     1      44.786 137.598  18.783  1.00  0.00     0.011 A 
BRANCH  34  37
ATOM     37  N   UNL     1      46.494 136.972  20.456  1.00  0.00    -0.060 NA
BRANCH  37  38
ATOM     38  N   UNL     1      47.210 136.088  20.929  1.00  0.00     0.005 N 
ATOM     39  N   UNL     1      47.925 135.206  21.404  1.00  0.00    -0.003 NA
ENDBRANCH  37  38
ENDBRANCH  34  37
ENDBRANCH  18  23
ENDBRANCH  15  16
ENDBRANCH   1  15
TORSDOF 12
ENDMDL
MODEL 8
REMARK VINA RESULT:      -6.6      3.044      4.302
REMARK SMILES [H]/N=C/N(C(=O)/C(C)=C\n1n[nH+]c(C)c1-c1c2ccccc2cc2c(N=[N+]=[N-])cccc12)C(O)=C1CC1
REMARK SMILES IDX 7 1 8 2 5 3 6 4 4 5 3 6 2 7 1 8 33 9 34 10 35 12 36 13 37 14
REMARK SMILES IDX 9 15 10 16 11 17 15 18 12 19 13 20 14 22 16 23 17 24 32 25
REMARK SMILES IDX 18 26 22 27 31 28 24 29 19 30 21 31 23 32 30 33 25 34 20 35
REMARK SMILES IDX 29 36 26 37 27 38 28 39
REMARK H PARENT 34 11 12 21
ROOT
ATOM      1  C   UNL     1      44.465 132.208  17.016  1.00  0.00     0.057 C 
ATOM      2  C   UNL     1      44.534 131.480  18.333  1.00  0.00     0.054 C 
ENDROOT
BRANCH   1   3
ATOM      3  C   UNL     1      45.437 131.837  15.952  1.00  0.00     0.265 C 
ATOM      4  O   UNL     1      46.014 132.767  15.323  1.00  0.00    -0.268 OA
BRANCH   3   5
ATOM      5  N   UNL     1      45.727 130.468  15.590  1.00  0.00    -0.238 N 
BRANCH   5   6
ATOM      6  C   UNL     1      44.654 129.515  15.711  1.00  0.00     0.201 C 
BRANCH   6   7
ATOM      7  N   UNL     1      44.872 128.239  15.640  1.00  0.00    -0.291 NA
ATOM      8  H   UNL     1      44.810 127.737  14.727  1.00  0.00     0.189 HD
ENDBRANCH   6   7
ENDBRANCH   5   6
BRANCH   5   9
ATOM      9  C   UNL     1      47.030 130.036  15.133  1.00  0.00     0.198 C 
BRANCH   9  10
ATOM     10  O   UNL     1      47.966 129.576  16.060  1.00  0.00    -0.494 OA
ATOM     11  H   UNL     1      48.752 130.145  16.347  1.00  0.00     0.295 HD
ENDBRANCH   9  10
BRANCH   9  12
ATOM     12  C   UNL     1      47.383 130.106  13.850  1.00  0.00    -0.009 C 
ATOM     13  C   UNL     1      47.259 130.756  12.476  1.00  0.00     0.041 C 
ATOM     14  C   UNL     1      48.151 129.653  12.611  1.00  0.00     0.041 C 
ENDBRANCH   9  12
ENDBRANCH   5   9
ENDBRANCH   3   5
ENDBRANCH   1   3
BRANCH   1  15
ATOM     15  C   UNL     1      43.489 133.124  16.860  1.00  0.00     0.242 C 
BRANCH  15  16
ATOM     16  N   UNL     1      42.661 133.237  15.690  1.00  0.00    -0.101 N 
ATOM     17  N   UNL     1      42.714 132.442  14.629  1.00  0.00     0.093 NA
ATOM     18  C   UNL     1      41.591 134.045  15.550  1.00  0.00     0.207 A 
ATOM     19  N   UNL     1      41.732 132.741  13.792  1.00  0.00    -0.147 N 
ATOM     20  C   UNL     1      41.007 133.735  14.340  1.00  0.00     0.170 A 
ATOM     21  H   UNL     1      41.561 132.258  12.883  1.00  0.00     0.342 HD
ATOM     22  C   UNL     1      39.785 134.347  13.737  1.00  0.00     0.100 C 
BRANCH  18  23
ATOM     23  C   UNL     1      41.108 135.030  16.549  1.00  0.00     0.044 A 
ATOM     24  C   UNL     1      40.045 134.687  17.422  1.00  0.00    -0.006 A 
ATOM     25  C   UNL     1      41.721 136.306  16.648  1.00  0.00    -0.006 A 
ATOM     26  C   UNL     1      39.398 133.433  17.354  1.00  0.00     0.009 A 
ATOM     27  C   UNL     1      39.609 135.622  18.394  1.00  0.00    -0.017 A 
ATOM     28  C   UNL     1      42.773 136.683  15.787  1.00  0.00     0.009 A 
ATOM     29  C   UNL     1      41.280 137.229  17.635  1.00  0.00    -0.007 A 
ATOM     30  C   UNL     1      38.351 133.122  18.224  1.00  0.00     0.001 A 
ATOM     31  C   UNL     1      38.556 135.292  19.264  1.00  0.00     0.009 A 
ATOM     32  C   UNL     1      40.228 136.871  18.493  1.00  0.00     0.018 A 
ATOM     33  C   UNL     1      43.385 137.926  15.909  1.00  0.00     0.001 A 
ATOM     34  C   UNL     1      41.907 138.495  17.751  1.00  0.00     0.045 A 
ATOM     35  C   UNL     1      37.934 134.047  19.178  1.00  0.00     0.001 A 
ATOM     36  C   UNL     1      42.963 138.825  16.882  1.00  0.00     0.011 A 
BRANCH  34  37
ATOM     37  N   UNL     1      41.462 139.430  18.749  1.00  0.00    -0.060 NA
BRANCH  37  38
ATOM     38  N   UNL     1      41.998 139.526  19.854  1.00  0.00     0.005 N 
ATOM     39  N   UNL     1      42.536 139.624  20.958  1.00  0.00    -0.003 NA
ENDBRANCH  37  38
ENDBRANCH  34  37
ENDBRANCH  18  23
ENDBRANCH  15  16
ENDBRANCH   1  15
TORSDOF 12
ENDMDL
MODEL 9
REMARK VINA RESULT:      -6.6      2.934      5.066
REMARK SMILES [H]/N=C/N(C(=O)/C(C)=C\n1n[nH+]c(C)c1-c1c2ccccc2cc2c(N=[N+]=[N-])cccc12)C(O)=C1CC1
REMARK SMILES IDX 7 1 8 2 5 3 6 4 4 5 3 6 2 7 1 8 33 9 34 10 35 12 36 13 37 14
REMARK SMILES IDX 9 15 10 16 11 17 15 18 12 19 13 20 14 22 16 23 17 24 32 25
REMARK SMILES IDX 18 26 22 27 31 28 24 29 19 30 21 31 23 32 30 33 25 34 20 35
REMARK SMILES IDX 29 36 26 37 27 38 28 39
REMARK H PARENT 34 11 12 21
ROOT
ATOM      1  C   UNL     1      43.527 132.208  14.923  1.00  0.00     0.057 C 
ATOM      2  C   UNL     1      43.159 131.032  14.056  1.00  0.00     0.054 C 
ENDROOT
BRANCH   1   3
ATOM      3  C   UNL     1      44.885 132.241  15.531  1.00  0.00     0.265 C 
ATOM      4  O   UNL     1      45.544 133.315  15.456  1.00  0.00    -0.268 OA
BRANCH   3   5
ATOM      5  N   UNL     1      45.490 131.097  16.175  1.00  0.00    -0.238 N 
BRANCH   5   6
ATOM      6  C   UNL     1      44.958 130.706  17.455  1.00  0.00     0.201 C 
BRANCH   6   7
ATOM      7  N   UNL     1      44.954 131.522  18.462  1.00  0.00    -0.291 NA
ATOM      8  H   UNL     1      45.696 131.470  19.194  1.00  0.00     0.189 HD
ENDBRANCH   6   7
ENDBRANCH   5   6
BRANCH   5   9
ATOM      9  C   UNL     1      46.590 130.358  15.592  1.00  0.00     0.198 C 
BRANCH   9  10
ATOM     10  O   UNL     1      47.470 129.667  16.424  1.00  0.00    -0.494 OA
ATOM     11  H   UNL     1      47.485 129.818  17.424  1.00  0.00     0.295 HD
ENDBRANCH   9  10
BRANCH   9  12
ATOM     12  C   UNL     1      46.816 130.355  14.279  1.00  0.00    -0.009 C 
ATOM     13  C   UNL     1      46.398 130.735  12.862  1.00  0.00     0.041 C 
ATOM     14  C   UNL     1      47.605 129.995  13.023  1.00  0.00     0.041 C 
ENDBRANCH   9  12
ENDBRANCH   5   9
ENDBRANCH   3   5
ENDBRANCH   1   3
BRANCH   1  15
ATOM     15  C   UNL     1      42.617 133.193  15.058  1.00  0.00     0.242 C 
BRANCH  15  16
ATOM     16  N   UNL     1      42.941 134.569  15.317  1.00  0.00    -0.101 N 
ATOM     17  N   UNL     1      43.573 135.382  14.480  1.00  0.00     0.093 NA
ATOM     18  C   UNL     1      42.511 135.303  16.363  1.00  0.00     0.207 A 
ATOM     19  N   UNL     1      43.595 136.611  14.975  1.00  0.00    -0.147 N 
ATOM     20  C   UNL     1      42.934 136.598  16.148  1.00  0.00     0.170 A 
ATOM     21  H   UNL     1      44.036 137.431  14.505  1.00  0.00     0.342 HD
ATOM     22  C   UNL     1      42.696 137.788  17.020  1.00  0.00     0.100 C 
BRANCH  18  23
ATOM     23  C   UNL     1      41.682 134.809  17.489  1.00  0.00     0.044 A 
ATOM     24  C   UNL     1      42.283 134.537  18.744  1.00  0.00    -0.006 A 
ATOM     25  C   UNL     1      40.284 134.629  17.321  1.00  0.00    -0.006 A 
ATOM     26  C   UNL     1      43.671 134.692  18.955  1.00  0.00     0.009 A 
ATOM     27  C   UNL     1      41.479 134.093  19.823  1.00  0.00    -0.017 A 
ATOM     28  C   UNL     1      39.656 134.880  16.083  1.00  0.00     0.009 A 
ATOM     29  C   UNL     1      39.489 134.193  18.416  1.00  0.00    -0.007 A 
ATOM     30  C   UNL     1      44.239 134.414  20.200  1.00  0.00     0.001 A 
ATOM     31  C   UNL     1      42.066 133.820  21.071  1.00  0.00     0.009 A 
ATOM     32  C   UNL     1      40.102 133.931  19.652  1.00  0.00     0.018 A 
ATOM     33  C   UNL     1      38.282 134.725  15.935  1.00  0.00     0.001 A 
ATOM     34  C   UNL     1      38.090 134.035  18.256  1.00  0.00     0.045 A 
ATOM     35  C   UNL     1      43.438 133.982  21.256  1.00  0.00     0.001 A 
ATOM     36  C   UNL     1      37.501 134.311  17.009  1.00  0.00     0.011 A 
BRANCH  34  37
ATOM     37  N   UNL     1      37.284 133.595  19.364  1.00  0.00    -0.060 NA
BRANCH  37  38
ATOM     38  N   UNL     1      36.831 134.373  20.205  1.00  0.00     0.005 N 
ATOM     39  N   UNL     1      36.377 135.149  21.047  1.00  0.00    -0.003 NA
ENDBRANCH  37  38
ENDBRANCH  34  37
ENDBRANCH  18  23
ENDBRANCH  15  16
ENDBRANCH   1  15
TORSDOF 12
ENDMDL


