MODEL 1
REMARK VINA RESULT:      -6.8      0.000      0.000
REMARK SMILES C#Cc1ccc(-n2cc(CCCCN(C)[C@@H](C)C#N)[nH+]n2)cc(N)ccc2ccccc12
REMARK SMILES IDX 11 1 10 2 9 3 7 4 8 5 21 6 20 7 6 9 3 10 4 11 32 12 5 13
REMARK SMILES IDX 31 14 27 15 30 16 26 17 28 18 22 19 29 20 25 21 23 22 2 23
REMARK SMILES IDX 1 24 24 25 12 28 13 29 14 30 15 31 16 32 17 33 18 34 19 35
REMARK H PARENT 20 8 24 26 24 27
ROOT
ATOM      1  C   UNL     1      44.734 131.564  17.316  1.00  0.00     0.010 C 
ENDROOT
BRANCH   1   2
ATOM      2  C   UNL     1      44.959 132.582  16.189  1.00  0.00     0.086 C 
BRANCH   2   3
ATOM      3  C   UNL     1      43.655 133.110  15.667  1.00  0.00     0.165 A 
ATOM      4  N   UNL     1      42.056 134.413  14.943  1.00  0.00    -0.102 N 
ATOM      5  C   UNL     1      43.332 134.420  15.379  1.00  0.00     0.281 A 
ATOM      6  N   UNL     1      41.612 133.163  14.976  1.00  0.00     0.093 NA
ATOM      7  N   UNL     1      42.566 132.360  15.416  1.00  0.00    -0.147 N 
ATOM      8  H   UNL     1      42.467 131.328  15.535  1.00  0.00     0.342 HD
BRANCH   4   9
ATOM      9  C   UNL     1      41.295 135.536  14.454  1.00  0.00     0.157 A 
ATOM     10  C   UNL     1      41.492 136.505  17.353  1.00  0.00     0.032 A 
ATOM     11  C   UNL     1      41.912 137.200  16.195  1.00  0.00     0.022 A 
ATOM     12  C   UNL     1      40.426 135.560  17.380  1.00  0.00    -0.003 A 
ATOM     13  C   UNL     1      41.621 136.839  14.870  1.00  0.00     0.056 A 
ATOM     14  C   UNL     1      40.540 134.426  18.213  1.00  0.00     0.010 A 
ATOM     15  C   UNL     1      39.298 135.647  16.507  1.00  0.00    -0.017 A 
ATOM     16  C   UNL     1      39.654 133.355  18.088  1.00  0.00     0.001 A 
ATOM     17  C   UNL     1      38.946 136.853  15.874  1.00  0.00     0.011 A 
ATOM     18  C   UNL     1      38.464 134.524  16.343  1.00  0.00     0.009 A 
ATOM     19  C   UNL     1      40.224 135.320  13.565  1.00  0.00     0.079 A 
ATOM     20  C   UNL     1      38.644 133.386  17.130  1.00  0.00     0.001 A 
ATOM     21  C   UNL     1      38.602 136.964  14.518  1.00  0.00     0.026 A 
ATOM     22  C   UNL     1      39.057 136.114  13.484  1.00  0.00     0.036 A 
BRANCH  10  23
ATOM     23  C   UNL     1      42.208 136.798  18.574  1.00  0.00    -0.070 C 
ATOM     24  C   UNL     1      42.806 137.043  19.590  1.00  0.00     0.010 C 
ENDBRANCH  10  23
BRANCH  22  25
ATOM     25  N   UNL     1      38.288 136.055  12.279  1.00  0.00    -0.399 N 
ATOM     26  H   UNL     1      38.082 135.142  11.815  1.00  0.00     0.156 HD
ATOM     27  H   UNL     1      37.905 136.926  11.844  1.00  0.00     0.156 HD
ENDBRANCH  22  25
ENDBRANCH   4   9
ENDBRANCH   2   3
ENDBRANCH   1   2
BRANCH   1  28
ATOM     28  C   UNL     1      45.903 130.577  17.472  1.00  0.00     0.016 C 
BRANCH  28  29
ATOM     29  C   UNL     1      46.590 130.219  16.143  1.00  0.00     0.085 C 
BRANCH  29  30
ATOM     30  N   UNL     1      45.629 129.591  15.208  1.00  0.00    -0.291 NA
ATOM     31  C   UNL     1      45.137 128.297  15.718  1.00  0.00     0.106 C 
BRANCH  30  32
ATOM     32  C   UNL     1      46.124 129.543  13.809  1.00  0.00     0.157 C 
ATOM     33  C   UNL     1      45.731 130.768  12.962  1.00  0.00     0.041 C 
BRANCH  32  34
ATOM     34  C   UNL     1      47.584 129.376  13.807  1.00  0.00     0.081 C 
ATOM     35  N   UNL     1      48.734 129.247  13.804  1.00  0.00    -0.197 NA
ENDBRANCH  32  34
ENDBRANCH  30  32
ENDBRANCH  29  30
ENDBRANCH  28  29
ENDBRANCH   1  28
TORSDOF 10
ENDMDL
MODEL 2
REMARK VINA RESULT:      -6.6      1.421      2.105
REMARK SMILES C#Cc1ccc(-n2cc(CCCCN(C)[C@@H](C)C#N)[nH+]n2)cc(N)ccc2ccccc12
REMARK SMILES IDX 11 1 10 2 9 3 7 4 8 5 21 6 20 7 6 9 3 10 4 11 32 12 5 13
REMARK SMILES IDX 31 14 27 15 30 16 26 17 28 18 22 19 29 20 25 21 23 22 2 23
REMARK SMILES IDX 1 24 24 25 12 28 13 29 14 30 15 31 16 32 17 33 18 34 19 35
REMARK H PARENT 20 8 24 26 24 27
ROOT
ATOM      1  C   UNL     1      45.957 130.351  17.245  1.00  0.00     0.010 C 
ENDROOT
BRANCH   1   2
ATOM      2  C   UNL     1      45.048 131.150  18.189  1.00  0.00     0.086 C 
BRANCH   2   3
ATOM      3  C   UNL     1      44.005 131.910  17.422  1.00  0.00     0.165 A 
ATOM      4  N   UNL     1      42.967 133.378  16.177  1.00  0.00    -0.102 N 
ATOM      5  C   UNL     1      44.178 133.060  16.680  1.00  0.00     0.281 A 
ATOM      6  N   UNL     1      42.091 132.476  16.601  1.00  0.00     0.093 NA
ATOM      7  N   UNL     1      42.702 131.581  17.360  1.00  0.00    -0.147 N 
ATOM      8  H   UNL     1      42.232 130.768  17.817  1.00  0.00     0.342 HD
BRANCH   4   9
ATOM      9  C   UNL     1      42.652 134.460  15.279  1.00  0.00     0.157 A 
ATOM     10  C   UNL     1      43.398 136.221  17.672  1.00  0.00     0.032 A 
ATOM     11  C   UNL     1      43.967 136.261  16.378  1.00  0.00     0.022 A 
ATOM     12  C   UNL     1      42.060 135.818  17.947  1.00  0.00    -0.003 A 
ATOM     13  C   UNL     1      43.472 135.602  15.241  1.00  0.00     0.056 A 
ATOM     14  C   UNL     1      41.796 135.087  19.127  1.00  0.00     0.010 A 
ATOM     15  C   UNL     1      40.990 136.014  17.021  1.00  0.00    -0.017 A 
ATOM     16  C   UNL     1      40.566 134.456  19.317  1.00  0.00     0.001 A 
ATOM     17  C   UNL     1      41.074 136.965  15.988  1.00  0.00     0.011 A 
ATOM     18  C   UNL     1      39.785 135.305  17.196  1.00  0.00     0.009 A 
ATOM     19  C   UNL     1      41.520 134.369  14.446  1.00  0.00     0.079 A 
ATOM     20  C   UNL     1      39.579 134.531  18.338  1.00  0.00     0.001 A 
ATOM     21  C   UNL     1      40.705 136.722  14.656  1.00  0.00     0.026 A 
ATOM     22  C   UNL     1      40.734 135.463  14.013  1.00  0.00     0.036 A 
BRANCH  10  23
ATOM     23  C   UNL     1      44.254 136.626  18.763  1.00  0.00    -0.070 C 
ATOM     24  C   UNL     1      44.968 136.965  19.671  1.00  0.00     0.010 C 
ENDBRANCH  10  23
BRANCH  22  25
ATOM     25  N   UNL     1      39.919 135.284  12.851  1.00  0.00    -0.399 N 
ATOM     26  H   UNL     1      40.005 134.428  12.259  1.00  0.00     0.156 HD
ATOM     27  H   UNL     1      39.210 136.002  12.579  1.00  0.00     0.156 HD
ENDBRANCH  22  25
ENDBRANCH   4   9
ENDBRANCH   2   3
ENDBRANCH   1   2
BRANCH   1  28
ATOM     28  C   UNL     1      45.196 129.280  16.446  1.00  0.00     0.016 C 
BRANCH  28  29
ATOM     29  C   UNL     1      45.662 129.155  14.985  1.00  0.00     0.085 C 
BRANCH  29  30
ATOM     30  N   UNL     1      45.892 130.491  14.390  1.00  0.00    -0.291 NA
ATOM     31  C   UNL     1      44.804 130.875  13.470  1.00  0.00     0.106 C 
BRANCH  30  32
ATOM     32  C   UNL     1      47.253 130.648  13.818  1.00  0.00     0.157 C 
ATOM     33  C   UNL     1      48.273 129.616  14.333  1.00  0.00     0.041 C 
BRANCH  32  34
ATOM     34  C   UNL     1      47.181 130.596  12.350  1.00  0.00     0.081 C 
ATOM     35  N   UNL     1      47.122 130.556  11.195  1.00  0.00    -0.197 NA
ENDBRANCH  32  34
ENDBRANCH  30  32
ENDBRANCH  29  30
ENDBRANCH  28  29
ENDBRANCH   1  28
TORSDOF 10
ENDMDL
MODEL 3
REMARK VINA RESULT:      -6.2      3.010      4.395
REMARK SMILES C#Cc1ccc(-n2cc(CCCCN(C)[C@@H](C)C#N)[nH+]n2)cc(N)ccc2ccccc12
REMARK SMILES IDX 11 1 10 2 9 3 7 4 8 5 21 6 20 7 6 9 3 10 4 11 32 12 5 13
REMARK SMILES IDX 31 14 27 15 30 16 26 17 28 18 22 19 29 20 25 21 23 22 2 23
REMARK SMILES IDX 1 24 24 25 12 28 13 29 14 30 15 31 16 32 17 33 18 34 19 35
REMARK H PARENT 20 8 24 26 24 27
ROOT
ATOM      1  C   UNL     1      45.725 130.479  17.776  1.00  0.00     0.010 C 
ENDROOT
BRANCH   1   2
ATOM      2  C   UNL     1      44.761 130.463  16.582  1.00  0.00     0.086 C 
BRANCH   2   3
ATOM      3  C   UNL     1      44.479 131.854  16.095  1.00  0.00     0.165 A 
ATOM      4  N   UNL     1      43.505 133.649  15.313  1.00  0.00    -0.102 N 
ATOM      5  C   UNL     1      43.277 132.362  15.648  1.00  0.00     0.281 A 
ATOM      6  N   UNL     1      44.787 133.914  15.530  1.00  0.00     0.093 NA
ATOM      7  N   UNL     1      45.393 132.837  16.000  1.00  0.00    -0.147 N 
ATOM      8  H   UNL     1      46.406 132.786  16.249  1.00  0.00     0.342 HD
BRANCH   4   9
ATOM      9  C   UNL     1      42.537 134.617  14.861  1.00  0.00     0.157 A 
ATOM     10  C   UNL     1      43.239 136.047  17.477  1.00  0.00     0.032 A 
ATOM     11  C   UNL     1      43.322 136.580  16.170  1.00  0.00     0.022 A 
ATOM     12  C   UNL     1      42.315 135.038  17.875  1.00  0.00    -0.003 A 
ATOM     13  C   UNL     1      42.797 135.991  15.008  1.00  0.00     0.056 A 
ATOM     14  C   UNL     1      42.729 134.063  18.809  1.00  0.00     0.010 A 
ATOM     15  C   UNL     1      41.025 134.896  17.278  1.00  0.00    -0.017 A 
ATOM     16  C   UNL     1      41.962 132.920  19.037  1.00  0.00     0.001 A 
ATOM     17  C   UNL     1      40.413 135.956  16.583  1.00  0.00     0.011 A 
ATOM     18  C   UNL     1      40.304 133.700  17.465  1.00  0.00     0.009 A 
ATOM     19  C   UNL     1      41.333 134.180  14.277  1.00  0.00     0.079 A 
ATOM     20  C   UNL     1      40.774 132.720  18.339  1.00  0.00     0.001 A 
ATOM     21  C   UNL     1      39.778 135.823  15.338  1.00  0.00     0.026 A 
ATOM     22  C   UNL     1      40.093 134.858  14.355  1.00  0.00     0.036 A 
BRANCH  10  23
ATOM     23  C   UNL     1      44.161 136.585  18.450  1.00  0.00    -0.070 C 
ATOM     24  C   UNL     1      44.931 137.033  19.261  1.00  0.00     0.010 C 
ENDBRANCH  10  23
BRANCH  22  25
ATOM     25  N   UNL     1      39.097 134.548  13.376  1.00  0.00    -0.399 N 
ATOM     26  H   UNL     1      39.036 135.083  12.481  1.00  0.00     0.156 HD
ATOM     27  H   UNL     1      38.416 133.771  13.532  1.00  0.00     0.156 HD
ENDBRANCH  22  25
ENDBRANCH   4   9
ENDBRANCH   2   3
ENDBRANCH   1   2
BRANCH   1  28
ATOM     28  C   UNL     1      45.085 131.044  19.055  1.00  0.00     0.016 C 
BRANCH  28  29
ATOM     29  C   UNL     1      46.085 131.251  20.206  1.00  0.00     0.085 C 
BRANCH  29  30
ATOM     30  N   UNL     1      45.380 131.354  21.503  1.00  0.00    -0.291 NA
ATOM     31  C   UNL     1      43.976 130.911  21.399  1.00  0.00     0.106 C 
BRANCH  30  32
ATOM     32  C   UNL     1      45.552 132.676  22.157  1.00  0.00     0.157 C 
ATOM     33  C   UNL     1      45.546 133.865  21.179  1.00  0.00     0.041 C 
BRANCH  32  34
ATOM     34  C   UNL     1      44.513 132.860  23.181  1.00  0.00     0.081 C 
ATOM     35  N   UNL     1      43.694 133.006  23.985  1.00  0.00    -0.197 NA
ENDBRANCH  32  34
ENDBRANCH  30  32
ENDBRANCH  29  30
ENDBRANCH  28  29
ENDBRANCH   1  28
TORSDOF 10
ENDMDL
MODEL 4
REMARK VINA RESULT:      -6.2      2.188      4.190
REMARK SMILES C#Cc1ccc(-n2cc(CCCCN(C)[C@@H](C)C#N)[nH+]n2)cc(N)ccc2ccccc12
REMARK SMILES IDX 11 1 10 2 9 3 7 4 8 5 21 6 20 7 6 9 3 10 4 11 32 12 5 13
REMARK SMILES IDX 31 14 27 15 30 16 26 17 28 18 22 19 29 20 25 21 23 22 2 23
REMARK SMILES IDX 1 24 24 25 12 28 13 29 14 30 15 31 16 32 17 33 18 34 19 35
REMARK H PARENT 20 8 24 26 24 27
ROOT
ATOM      1  C   UNL     1      45.273 131.064  17.074  1.00  0.00     0.010 C 
ENDROOT
BRANCH   1   2
ATOM      2  C   UNL     1      44.775 131.660  18.398  1.00  0.00     0.086 C 
BRANCH   2   3
ATOM      3  C   UNL     1      43.343 132.094  18.292  1.00  0.00     0.165 A 
ATOM      4  N   UNL     1      41.425 133.101  18.593  1.00  0.00    -0.102 N 
ATOM      5  C   UNL     1      42.699 133.061  19.036  1.00  0.00     0.281 A 
ATOM      6  N   UNL     1      41.290 132.195  17.633  1.00  0.00     0.093 NA
ATOM      7  N   UNL     1      42.441 131.572  17.440  1.00  0.00    -0.147 N 
ATOM      8  H   UNL     1      42.596 130.813  16.740  1.00  0.00     0.342 HD
BRANCH   4   9
ATOM      9  C   UNL     1      40.384 134.004  19.014  1.00  0.00     0.157 A 
ATOM     10  C   UNL     1      40.585 135.048  16.142  1.00  0.00     0.032 A 
ATOM     11  C   UNL     1      39.428 134.550  16.785  1.00  0.00     0.022 A 
ATOM     12  C   UNL     1      41.665 135.689  16.815  1.00  0.00    -0.003 A 
ATOM     13  C   UNL     1      39.303 134.279  18.157  1.00  0.00     0.056 A 
ATOM     14  C   UNL     1      42.983 135.464  16.360  1.00  0.00     0.010 A 
ATOM     15  C   UNL     1      41.483 136.452  18.009  1.00  0.00    -0.017 A 
ATOM     16  C   UNL     1      44.081 135.855  17.128  1.00  0.00     0.001 A 
ATOM     17  C   UNL     1      40.227 136.975  18.367  1.00  0.00     0.011 A 
ATOM     18  C   UNL     1      42.602 136.768  18.804  1.00  0.00     0.009 A 
ATOM     19  C   UNL     1      40.456 134.610  20.283  1.00  0.00     0.079 A 
ATOM     20  C   UNL     1      43.891 136.469  18.363  1.00  0.00     0.001 A 
ATOM     21  C   UNL     1      39.676 136.900  19.655  1.00  0.00     0.026 A 
ATOM     22  C   UNL     1      39.950 135.891  20.607  1.00  0.00     0.036 A 
BRANCH  10  23
ATOM     23  C   UNL     1      40.643 134.886  14.707  1.00  0.00    -0.070 C 
ATOM     24  C   UNL     1      40.691 134.749  13.512  1.00  0.00     0.010 C 
ENDBRANCH  10  23
BRANCH  22  25
ATOM     25  N   UNL     1      39.698 136.184  21.985  1.00  0.00    -0.399 N 
ATOM     26  H   UNL     1      38.862 135.793  22.474  1.00  0.00     0.156 HD
ATOM     27  H   UNL     1      40.353 136.785  22.534  1.00  0.00     0.156 HD
ENDBRANCH  22  25
ENDBRANCH   4   9
ENDBRANCH   2   3
ENDBRANCH   1   2
BRANCH   1  28
ATOM     28  C   UNL     1      45.440 132.120  15.968  1.00  0.00     0.016 C 
BRANCH  28  29
ATOM     29  C   UNL     1      46.460 131.723  14.887  1.00  0.00     0.085 C 
BRANCH  29  30
ATOM     30  N   UNL     1      45.777 131.160  13.700  1.00  0.00    -0.291 NA
ATOM     31  C   UNL     1      44.403 130.726  14.015  1.00  0.00     0.106 C 
BRANCH  30  32
ATOM     32  C   UNL     1      46.588 130.139  12.990  1.00  0.00     0.157 C 
ATOM     33  C   UNL     1      47.239 130.646  11.691  1.00  0.00     0.041 C 
BRANCH  32  34
ATOM     34  C   UNL     1      47.617 129.609  13.897  1.00  0.00     0.081 C 
ATOM     35  N   UNL     1      48.427 129.194  14.612  1.00  0.00    -0.197 NA
ENDBRANCH  32  34
ENDBRANCH  30  32
ENDBRANCH  29  30
ENDBRANCH  28  29
ENDBRANCH   1  28
TORSDOF 10
ENDMDL
MODEL 5
REMARK VINA RESULT:      -6.0      3.006      4.487
REMARK SMILES C#Cc1ccc(-n2cc(CCCCN(C)[C@@H](C)C#N)[nH+]n2)cc(N)ccc2ccccc12
REMARK SMILES IDX 11 1 10 2 9 3 7 4 8 5 21 6 20 7 6 9 3 10 4 11 32 12 5 13
REMARK SMILES IDX 31 14 27 15 30 16 26 17 28 18 22 19 29 20 25 21 23 22 2 23
REMARK SMILES IDX 1 24 24 25 12 28 13 29 14 30 15 31 16 32 17 33 18 34 19 35
REMARK H PARENT 20 8 24 26 24 27
ROOT
ATOM      1  C   UNL     1      45.443 130.352  18.200  1.00  0.00     0.010 C 
ENDROOT
BRANCH   1   2
ATOM      2  C   UNL     1      45.769 131.079  16.887  1.00  0.00     0.086 C 
BRANCH   2   3
ATOM      3  C   UNL     1      44.577 131.834  16.377  1.00  0.00     0.165 A 
ATOM      4  N   UNL     1      43.262 133.374  15.551  1.00  0.00    -0.102 N 
ATOM      5  C   UNL     1      44.545 133.122  15.884  1.00  0.00     0.281 A 
ATOM      6  N   UNL     1      42.540 132.299  15.837  1.00  0.00     0.093 NA
ATOM      7  N   UNL     1      43.319 131.357  16.343  1.00  0.00    -0.147 N 
ATOM      8  H   UNL     1      42.991 130.415  16.651  1.00  0.00     0.342 HD
BRANCH   4   9
ATOM      9  C   UNL     1      42.741 134.564  14.927  1.00  0.00     0.157 A 
ATOM     10  C   UNL     1      43.295 135.836  17.657  1.00  0.00     0.032 A 
ATOM     11  C   UNL     1      43.795 136.262  16.405  1.00  0.00     0.022 A 
ATOM     12  C   UNL     1      42.051 135.166  17.838  1.00  0.00    -0.003 A 
ATOM     13  C   UNL     1      43.365 135.805  15.149  1.00  0.00     0.056 A 
ATOM     14  C   UNL     1      41.957 134.154  18.819  1.00  0.00     0.010 A 
ATOM     15  C   UNL     1      40.926 135.386  16.986  1.00  0.00    -0.017 A 
ATOM     16  C   UNL     1      40.854 133.301  18.863  1.00  0.00     0.001 A 
ATOM     17  C   UNL     1      40.812 136.547  16.199  1.00  0.00     0.011 A 
ATOM     18  C   UNL     1      39.859 134.467  16.998  1.00  0.00     0.009 A 
ATOM     19  C   UNL     1      41.604 134.478  14.100  1.00  0.00     0.079 A 
ATOM     20  C   UNL     1      39.827 133.431  17.932  1.00  0.00     0.001 A 
ATOM     21  C   UNL     1      40.431 136.554  14.848  1.00  0.00     0.026 A 
ATOM     22  C   UNL     1      40.635 135.496  13.933  1.00  0.00     0.036 A 
BRANCH  10  23
ATOM     23  C   UNL     1      44.120 136.120  18.809  1.00  0.00    -0.070 C 
ATOM     24  C   UNL     1      44.805 136.356  19.770  1.00  0.00     0.010 C 
ENDBRANCH  10  23
BRANCH  22  25
ATOM     25  N   UNL     1      39.811 135.452  12.765  1.00  0.00    -0.399 N 
ATOM     26  H   UNL     1      39.931 136.148  11.995  1.00  0.00     0.156 HD
ATOM     27  H   UNL     1      39.080 134.714  12.652  1.00  0.00     0.156 HD
ENDBRANCH  22  25
ENDBRANCH   4   9
ENDBRANCH   2   3
ENDBRANCH   1   2
BRANCH   1  28
ATOM     28  C   UNL     1      45.654 131.236  19.441  1.00  0.00     0.016 C 
BRANCH  28  29
ATOM     29  C   UNL     1      44.343 131.746  20.064  1.00  0.00     0.085 C 
BRANCH  29  30
ATOM     30  N   UNL     1      44.423 131.732  21.542  1.00  0.00    -0.291 NA
ATOM     31  C   UNL     1      43.759 130.545  22.115  1.00  0.00     0.106 C 
BRANCH  30  32
ATOM     32  C   UNL     1      44.009 133.017  22.160  1.00  0.00     0.157 C 
ATOM     33  C   UNL     1      42.499 133.118  22.444  1.00  0.00     0.041 C 
BRANCH  32  34
ATOM     34  C   UNL     1      44.771 133.238  23.398  1.00  0.00     0.081 C 
ATOM     35  N   UNL     1      45.371 133.409  24.373  1.00  0.00    -0.197 NA
ENDBRANCH  32  34
ENDBRANCH  30  32
ENDBRANCH  29  30
ENDBRANCH  28  29
ENDBRANCH   1  28
TORSDOF 10
ENDMDL
MODEL 6
REMARK VINA RESULT:      -5.9      2.008      3.292
REMARK SMILES C#Cc1ccc(-n2cc(CCCCN(C)[C@@H](C)C#N)[nH+]n2)cc(N)ccc2ccccc12
REMARK SMILES IDX 11 1 10 2 9 3 7 4 8 5 21 6 20 7 6 9 3 10 4 11 32 12 5 13
REMARK SMILES IDX 31 14 27 15 30 16 26 17 28 18 22 19 29 20 25 21 23 22 2 23
REMARK SMILES IDX 1 24 24 25 12 28 13 29 14 30 15 31 16 32 17 33 18 34 19 35
REMARK H PARENT 20 8 24 26 24 27
ROOT
ATOM      1  C   UNL     1      44.222 135.042  15.898  1.00  0.00     0.010 C 
ENDROOT
BRANCH   1   2
ATOM      2  C   UNL     1      43.908 135.937  17.105  1.00  0.00     0.086 C 
BRANCH   2   3
ATOM      3  C   UNL     1      42.565 136.591  16.959  1.00  0.00     0.165 A 
ATOM      4  N   UNL     1      40.670 137.343  16.169  1.00  0.00    -0.102 N 
ATOM      5  C   UNL     1      41.781 136.659  15.826  1.00  0.00     0.281 A 
ATOM      6  N   UNL     1      40.773 137.690  17.446  1.00  0.00     0.093 NA
ATOM      7  N   UNL     1      41.917 137.246  17.939  1.00  0.00    -0.147 N 
ATOM      8  H   UNL     1      42.236 137.390  18.923  1.00  0.00     0.342 HD
BRANCH   4   9
ATOM      9  C   UNL     1      39.520 137.611  15.342  1.00  0.00     0.157 A 
ATOM     10  C   UNL     1      38.122 135.643  17.226  1.00  0.00     0.032 A 
ATOM     11  C   UNL     1      37.736 136.975  16.952  1.00  0.00     0.022 A 
ATOM     12  C   UNL     1      38.815 134.803  16.308  1.00  0.00    -0.003 A 
ATOM     13  C   UNL     1      38.256 137.788  15.932  1.00  0.00     0.056 A 
ATOM     14  C   UNL     1      39.787 133.906  16.803  1.00  0.00     0.010 A 
ATOM     15  C   UNL     1      38.659 134.915  14.892  1.00  0.00    -0.017 A 
ATOM     16  C   UNL     1      40.665 133.253  15.937  1.00  0.00     0.001 A 
ATOM     17  C   UNL     1      37.535 135.540  14.321  1.00  0.00     0.011 A 
ATOM     18  C   UNL     1      39.603 134.307  14.042  1.00  0.00     0.009 A 
ATOM     19  C   UNL     1      39.670 137.689  13.943  1.00  0.00     0.079 A 
ATOM     20  C   UNL     1      40.600 133.483  14.565  1.00  0.00     0.001 A 
ATOM     21  C   UNL     1      37.595 136.469  13.271  1.00  0.00     0.026 A 
ATOM     22  C   UNL     1      38.684 137.326  12.995  1.00  0.00     0.036 A 
BRANCH  10  23
ATOM     23  C   UNL     1      37.769 135.127  18.529  1.00  0.00    -0.070 C 
ATOM     24  C   UNL     1      37.475 134.695  19.614  1.00  0.00     0.010 C 
ENDBRANCH  10  23
BRANCH  22  25
ATOM     25  N   UNL     1      38.797 137.861  11.673  1.00  0.00    -0.399 N 
ATOM     26  H   UNL     1      39.731 138.073  11.255  1.00  0.00     0.156 HD
ATOM     27  H   UNL     1      37.946 138.039  11.092  1.00  0.00     0.156 HD
ENDBRANCH  22  25
ENDBRANCH   4   9
ENDBRANCH   2   3
ENDBRANCH   1   2
BRANCH   1  28
ATOM     28  C   UNL     1      44.781 133.667  16.303  1.00  0.00     0.016 C 
BRANCH  28  29
ATOM     29  C   UNL     1      44.065 132.486  15.624  1.00  0.00     0.085 C 
BRANCH  29  30
ATOM     30  N   UNL     1      44.936 131.857  14.607  1.00  0.00    -0.291 NA
ATOM     31  C   UNL     1      44.265 130.728  13.934  1.00  0.00     0.106 C 
BRANCH  30  32
ATOM     32  C   UNL     1      46.293 131.538  15.118  1.00  0.00     0.157 C 
ATOM     33  C   UNL     1      46.331 130.357  16.105  1.00  0.00     0.041 C 
BRANCH  32  34
ATOM     34  C   UNL     1      47.199 131.281  13.989  1.00  0.00     0.081 C 
ATOM     35  N   UNL     1      47.914 131.079  13.101  1.00  0.00    -0.197 NA
ENDBRANCH  32  34
ENDBRANCH  30  32
ENDBRANCH  29  30
ENDBRANCH  28  29
ENDBRANCH   1  28
TORSDOF 10
ENDMDL
MODEL 7
REMARK VINA RESULT:      -5.9      2.288      4.171
REMARK SMILES C#Cc1ccc(-n2cc(CCCCN(C)[C@@H](C)C#N)[nH+]n2)cc(N)ccc2ccccc12
REMARK SMILES IDX 11 1 10 2 9 3 7 4 8 5 21 6 20 7 6 9 3 10 4 11 32 12 5 13
REMARK SMILES IDX 31 14 27 15 30 16 26 17 28 18 22 19 29 20 25 21 23 22 2 23
REMARK SMILES IDX 1 24 24 25 12 28 13 29 14 30 15 31 16 32 17 33 18 34 19 35
REMARK H PARENT 20 8 24 26 24 27
ROOT
ATOM      1  C   UNL     1      43.535 131.657  16.264  1.00  0.00     0.010 C 
ENDROOT
BRANCH   1   2
ATOM      2  C   UNL     1      43.806 132.016  17.731  1.00  0.00     0.086 C 
BRANCH   2   3
ATOM      3  C   UNL     1      43.256 133.370  18.068  1.00  0.00     0.165 A 
ATOM      4  N   UNL     1      41.936 135.020  18.633  1.00  0.00    -0.102 N 
ATOM      5  C   UNL     1      41.962 133.686  18.431  1.00  0.00     0.281 A 
ATOM      6  N   UNL     1      43.149 135.501  18.394  1.00  0.00     0.093 NA
ATOM      7  N   UNL     1      43.961 134.516  18.047  1.00  0.00    -0.147 N 
ATOM      8  H   UNL     1      44.970 134.633  17.805  1.00  0.00     0.342 HD
BRANCH   4   9
ATOM      9  C   UNL     1      40.823 135.810  19.095  1.00  0.00     0.157 A 
ATOM     10  C   UNL     1      39.704 135.264  16.297  1.00  0.00     0.032 A 
ATOM     11  C   UNL     1      39.083 134.967  17.532  1.00  0.00     0.022 A 
ATOM     12  C   UNL     1      40.618 136.338  16.096  1.00  0.00    -0.003 A 
ATOM     13  C   UNL     1      39.508 135.414  18.793  1.00  0.00     0.056 A 
ATOM     14  C   UNL     1      41.709 136.151  15.218  1.00  0.00     0.010 A 
ATOM     15  C   UNL     1      40.551 137.556  16.839  1.00  0.00    -0.017 A 
ATOM     16  C   UNL     1      42.762 137.065  15.181  1.00  0.00     0.001 A 
ATOM     17  C   UNL     1      39.372 137.956  17.495  1.00  0.00     0.011 A 
ATOM     18  C   UNL     1      41.659 138.425  16.844  1.00  0.00     0.009 A 
ATOM     19  C   UNL     1      41.059 136.979  19.844  1.00  0.00     0.079 A 
ATOM     20  C   UNL     1      42.757 138.177  16.019  1.00  0.00     0.001 A 
ATOM     21  C   UNL     1      39.325 138.451  18.807  1.00  0.00     0.026 A 
ATOM     22  C   UNL     1      40.241 138.134  19.837  1.00  0.00     0.036 A 
BRANCH  10  23
ATOM     23  C   UNL     1      39.363 134.408  15.184  1.00  0.00    -0.070 C 
ATOM     24  C   UNL     1      39.080 133.696  14.255  1.00  0.00     0.010 C 
ENDBRANCH  10  23
BRANCH  22  25
ATOM     25  N   UNL     1      40.345 139.036  20.942  1.00  0.00    -0.399 N 
ATOM     26  H   UNL     1      40.027 138.758  21.897  1.00  0.00     0.156 HD
ATOM     27  H   UNL     1      40.756 139.990  20.818  1.00  0.00     0.156 HD
ENDBRANCH  22  25
ENDBRANCH   4   9
ENDBRANCH   2   3
ENDBRANCH   1   2
BRANCH   1  28
ATOM     28  C   UNL     1      44.441 132.421  15.284  1.00  0.00     0.016 C 
BRANCH  28  29
ATOM     29  C   UNL     1      45.879 131.876  15.222  1.00  0.00     0.085 C 
BRANCH  29  30
ATOM     30  N   UNL     1      45.882 130.396  15.251  1.00  0.00    -0.291 NA
ATOM     31  C   UNL     1      46.657 129.873  16.393  1.00  0.00     0.106 C 
BRANCH  30  32
ATOM     32  C   UNL     1      46.241 129.788  13.945  1.00  0.00     0.157 C 
ATOM     33  C   UNL     1      45.862 130.650  12.727  1.00  0.00     0.041 C 
BRANCH  32  34
ATOM     34  C   UNL     1      47.679 129.484  13.921  1.00  0.00     0.081 C 
ATOM     35  N   UNL     1      48.811 129.243  13.901  1.00  0.00    -0.197 NA
ENDBRANCH  32  34
ENDBRANCH  30  32
ENDBRANCH  29  30
ENDBRANCH  28  29
ENDBRANCH   1  28
TORSDOF 10
ENDMDL
MODEL 8
REMARK VINA RESULT:      -5.8      1.425      1.682
REMARK SMILES C#Cc1ccc(-n2cc(CCCCN(C)[C@@H](C)C#N)[nH+]n2)cc(N)ccc2ccccc12
REMARK SMILES IDX 11 1 10 2 9 3 7 4 8 5 21 6 20 7 6 9 3 10 4 11 32 12 5 13
REMARK SMILES IDX 31 14 27 15 30 16 26 17 28 18 22 19 29 20 25 21 23 22 2 23
REMARK SMILES IDX 1 24 24 25 12 28 13 29 14 30 15 31 16 32 17 33 18 34 19 35
REMARK H PARENT 20 8 24 26 24 27
ROOT
ATOM      1  C   UNL     1      44.572 130.955  17.608  1.00  0.00     0.010 C 
ENDROOT
BRANCH   1   2
ATOM      2  C   UNL     1      44.179 132.402  17.937  1.00  0.00     0.086 C 
BRANCH   2   3
ATOM      3  C   UNL     1      42.897 132.783  17.258  1.00  0.00     0.165 A 
ATOM      4  N   UNL     1      41.402 133.720  15.965  1.00  0.00    -0.102 N 
ATOM      5  C   UNL     1      42.719 133.718  16.259  1.00  0.00     0.281 A 
ATOM      6  N   UNL     1      40.799 132.839  16.754  1.00  0.00     0.093 NA
ATOM      7  N   UNL     1      41.689 132.265  17.546  1.00  0.00    -0.147 N 
ATOM      8  H   UNL     1      41.467 131.536  18.261  1.00  0.00     0.342 HD
BRANCH   4   9
ATOM      9  C   UNL     1      40.739 134.480  14.936  1.00  0.00     0.157 A 
ATOM     10  C   UNL     1      41.199 136.833  16.842  1.00  0.00     0.032 A 
ATOM     11  C   UNL     1      41.625 136.734  15.497  1.00  0.00     0.022 A 
ATOM     12  C   UNL     1      40.042 136.189  17.366  1.00  0.00    -0.003 A 
ATOM     13  C   UNL     1      41.224 135.751  14.579  1.00  0.00     0.056 A 
ATOM     14  C   UNL     1      40.081 135.683  18.685  1.00  0.00     0.010 A 
ATOM     15  C   UNL     1      38.883 135.923  16.575  1.00  0.00    -0.017 A 
ATOM     16  C   UNL     1      39.080 134.830  19.153  1.00  0.00     0.001 A 
ATOM     17  C   UNL     1      38.626 136.626  15.384  1.00  0.00     0.011 A 
ATOM     18  C   UNL     1      37.926 135.000  17.039  1.00  0.00     0.009 A 
ATOM     19  C   UNL     1      39.604 133.947  14.296  1.00  0.00     0.079 A 
ATOM     20  C   UNL     1      38.028 134.458  18.321  1.00  0.00     0.001 A 
ATOM     21  C   UNL     1      38.221 136.025  14.182  1.00  0.00     0.026 A 
ATOM     22  C   UNL     1      38.524 134.704  13.782  1.00  0.00     0.036 A 
BRANCH  10  23
ATOM     23  C   UNL     1      42.009 137.653  17.714  1.00  0.00    -0.070 C 
ATOM     24  C   UNL     1      42.683 138.335  18.442  1.00  0.00     0.010 C 
ENDBRANCH  10  23
BRANCH  22  25
ATOM     25  N   UNL     1      37.688 134.094  12.795  1.00  0.00    -0.399 N 
ATOM     26  H   UNL     1      36.989 133.362  13.057  1.00  0.00     0.156 HD
ATOM     27  H   UNL     1      37.749 134.377  11.790  1.00  0.00     0.156 HD
ENDBRANCH  22  25
ENDBRANCH   4   9
ENDBRANCH   2   3
ENDBRANCH   1   2
BRANCH   1  28
ATOM     28  C   UNL     1      45.995 130.837  17.037  1.00  0.00     0.016 C 
BRANCH  28  29
ATOM     29  C   UNL     1      46.085 129.944  15.787  1.00  0.00     0.085 C 
BRANCH  29  30
ATOM     30  N   UNL     1      46.155 130.765  14.558  1.00  0.00    -0.291 NA
ATOM     31  C   UNL     1      44.986 130.545  13.686  1.00  0.00     0.106 C 
BRANCH  30  32
ATOM     32  C   UNL     1      47.461 130.659  13.859  1.00  0.00     0.157 C 
ATOM     33  C   UNL     1      48.306 129.445  14.289  1.00  0.00     0.041 C 
BRANCH  32  34
ATOM     34  C   UNL     1      47.243 130.632  12.406  1.00  0.00     0.081 C 
ATOM     35  N   UNL     1      47.074 130.610  11.261  1.00  0.00    -0.197 NA
ENDBRANCH  32  34
ENDBRANCH  30  32
ENDBRANCH  29  30
ENDBRANCH  28  29
ENDBRANCH   1  28
TORSDOF 10
ENDMDL
MODEL 9
REMARK VINA RESULT:      -5.8      2.084      4.273
REMARK SMILES C#Cc1ccc(-n2cc(CCCCN(C)[C@@H](C)C#N)[nH+]n2)cc(N)ccc2ccccc12
REMARK SMILES IDX 11 1 10 2 9 3 7 4 8 5 21 6 20 7 6 9 3 10 4 11 32 12 5 13
REMARK SMILES IDX 31 14 27 15 30 16 26 17 28 18 22 19 29 20 25 21 23 22 2 23
REMARK SMILES IDX 1 24 24 25 12 28 13 29 14 30 15 31 16 32 17 33 18 34 19 35
REMARK H PARENT 20 8 24 26 24 27
ROOT
ATOM      1  C   UNL     1      44.298 132.471  14.973  1.00  0.00     0.010 C 
ENDROOT
BRANCH   1   2
ATOM      2  C   UNL     1      44.371 132.756  16.479  1.00  0.00     0.086 C 
BRANCH   2   3
ATOM      3  C   UNL     1      43.002 132.964  17.058  1.00  0.00     0.165 A 
ATOM      4  N   UNL     1      41.266 133.785  18.104  1.00  0.00    -0.102 N 
ATOM      5  C   UNL     1      42.557 134.037  17.801  1.00  0.00     0.281 A 
ATOM      6  N   UNL     1      40.940 132.609  17.584  1.00  0.00     0.093 NA
ATOM      7  N   UNL     1      41.980 132.095  16.950  1.00  0.00    -0.147 N 
ATOM      8  H   UNL     1      41.982 131.174  16.457  1.00  0.00     0.342 HD
BRANCH   4   9
ATOM      9  C   UNL     1      40.351 134.648  18.807  1.00  0.00     0.157 A 
ATOM     10  C   UNL     1      39.038 134.943  16.056  1.00  0.00     0.032 A 
ATOM     11  C   UNL     1      38.419 134.504  17.249  1.00  0.00     0.022 A 
ATOM     12  C   UNL     1      40.139 135.846  16.008  1.00  0.00    -0.003 A 
ATOM     13  C   UNL     1      38.973 134.579  18.537  1.00  0.00     0.056 A 
ATOM     14  C   UNL     1      41.135 135.656  15.025  1.00  0.00     0.010 A 
ATOM     15  C   UNL     1      40.344 136.863  16.989  1.00  0.00    -0.017 A 
ATOM     16  C   UNL     1      42.347 136.344  15.093  1.00  0.00     0.001 A 
ATOM     17  C   UNL     1      39.294 137.323  17.806  1.00  0.00     0.011 A 
ATOM     18  C   UNL     1      41.602 137.490  17.083  1.00  0.00     0.009 A 
ATOM     19  C   UNL     1      40.844 135.562  19.759  1.00  0.00     0.079 A 
ATOM     20  C   UNL     1      42.595 137.228  16.140  1.00  0.00     0.001 A 
ATOM     21  C   UNL     1      39.398 137.519  19.192  1.00  0.00     0.026 A 
ATOM     22  C   UNL     1      40.272 136.821  20.056  1.00  0.00     0.036 A 
BRANCH  10  23
ATOM     23  C   UNL     1      38.491 134.428  14.821  1.00  0.00    -0.070 C 
ATOM     24  C   UNL     1      38.035 133.998  13.793  1.00  0.00     0.010 C 
ENDBRANCH  10  23
BRANCH  22  25
ATOM     25  N   UNL     1      40.596 137.425  21.312  1.00  0.00    -0.399 N 
ATOM     26  H   UNL     1      39.993 137.279  22.152  1.00  0.00     0.156 HD
ATOM     27  H   UNL     1      41.452 138.016  21.417  1.00  0.00     0.156 HD
ENDBRANCH  22  25
ENDBRANCH   4   9
ENDBRANCH   2   3
ENDBRANCH   1   2
BRANCH   1  28
ATOM     28  C   UNL     1      44.255 130.968  14.650  1.00  0.00     0.016 C 
BRANCH  28  29
ATOM     29  C   UNL     1      44.898 130.608  13.300  1.00  0.00     0.085 C 
BRANCH  29  30
ATOM     30  N   UNL     1      46.375 130.652  13.393  1.00  0.00    -0.291 NA
ATOM     31  C   UNL     1      47.002 130.818  12.067  1.00  0.00     0.106 C 
BRANCH  30  32
ATOM     32  C   UNL     1      46.942 129.541  14.198  1.00  0.00     0.157 C 
ATOM     33  C   UNL     1      48.390 129.172  13.827  1.00  0.00     0.041 C 
BRANCH  32  34
ATOM     34  C   UNL     1      46.856 129.873  15.628  1.00  0.00     0.081 C 
ATOM     35  N   UNL     1      46.787 130.133  16.753  1.00  0.00    -0.197 NA
ENDBRANCH  32  34
ENDBRANCH  30  32
ENDBRANCH  29  30
ENDBRANCH  28  29
ENDBRANCH   1  28
TORSDOF 10
ENDMDL


