REMARK SMILES CC[C@H]1C[C@]1(/N=C(\O)c1noc(C)c1C)C(=O)Oc1c(Cl)c(Cl)c(N)c2ccccc12
REMARK SMILES IDX 5 1 4 2 3 3 6 4 7 5 8 6 9 8 10 9 14 10 11 11 12 12 15 13
REMARK SMILES IDX 13 14 16 15 17 16 18 17 19 18 20 19 31 20 22 21 30 22 26 23
REMARK SMILES IDX 24 24 29 25 27 26 28 27 21 28 23 29 25 30 2 33 1 34
REMARK H PARENT 8 7 25 31 25 32
ROOT
ATOM      1  C   UNL     1      -1.447   0.080  -2.019  1.00  0.00     0.165 C 
ATOM      2  C   UNL     1      -2.422   0.094  -3.189  1.00  0.00     0.050 C 
ATOM      3  C   UNL     1      -1.654  -1.186  -2.848  1.00  0.00     0.031 C 
ENDROOT
BRANCH   1   4
ATOM      4  N   UNL     1      -2.044   0.074  -0.685  1.00  0.00    -0.231 NA
BRANCH   4   5
ATOM      5  C   UNL     1      -2.492   1.141  -0.097  1.00  0.00     0.237 C 
BRANCH   5   6
ATOM      6  O   UNL     1      -2.437   2.373  -0.752  1.00  0.00    -0.492 OA
ATOM      7  H   UNL     1      -2.773   3.225  -0.318  1.00  0.00     0.295 HD
ENDBRANCH   5   6
BRANCH   5   8
ATOM      8  C   UNL     1      -3.059   1.055   1.264  1.00  0.00     0.171 A 
ATOM      9  N   UNL     1      -3.588   2.112   1.913  1.00  0.00    -0.074 NA
ATOM     10  C   UNL     1      -3.138  -0.062   2.086  1.00  0.00     0.024 A 
ATOM     11  O   UNL     1      -3.983   1.695   3.081  1.00  0.00    -0.361 OA
ATOM     12  C   UNL     1      -3.738   0.415   3.236  1.00  0.00     0.137 A 
ATOM     13  C   UNL     1      -2.676  -1.460   1.806  1.00  0.00     0.051 C 
ATOM     14  C   UNL     1      -4.079  -0.361   4.465  1.00  0.00     0.091 C 
ENDBRANCH   5   8
ENDBRANCH   4   5
ENDBRANCH   1   4
BRANCH   1  15
ATOM     15  C   UNL     1      -0.112   0.735  -2.172  1.00  0.00     0.339 C 
ATOM     16  O   UNL     1      -0.024   1.868  -2.717  1.00  0.00    -0.249 OA
BRANCH  15  17
ATOM     17  O   UNL     1       1.021   0.094  -1.662  1.00  0.00    -0.422 OA
BRANCH  17  18
ATOM     18  C   UNL     1       2.278   0.708  -1.609  1.00  0.00     0.159 A 
ATOM     19  C   UNL     1       3.291   0.235  -2.448  1.00  0.00     0.105 A 
ATOM     20  C   UNL     1       2.532   1.777  -0.725  1.00  0.00     0.028 A 
ATOM     21  C   UNL     1       4.560   0.835  -2.441  1.00  0.00     0.087 A 
ATOM     22  C   UNL     1       1.537   2.222   0.169  1.00  0.00     0.013 A 
ATOM     23  C   UNL     1       3.807   2.407  -0.724  1.00  0.00     0.010 A 
ATOM     24  C   UNL     1       4.831   1.919  -1.579  1.00  0.00     0.060 A 
ATOM     25  C   UNL     1       1.774   3.307   1.011  1.00  0.00     0.001 A 
ATOM     26  C   UNL     1       4.011   3.522   0.120  1.00  0.00     0.011 A 
ATOM     27  C   UNL     1       3.001   3.962   0.978  1.00  0.00     0.001 A 
ATOM     28  Cl  UNL     1       2.942  -1.119  -3.525  1.00  0.00    -0.078 Cl
ATOM     29  Cl  UNL     1       5.823   0.187  -3.493  1.00  0.00    -0.080 Cl
BRANCH  24  30
ATOM     30  N   UNL     1       6.151   2.491  -1.559  1.00  0.00    -0.397 N 
ATOM     31  H   UNL     1       6.800   2.392  -2.370  1.00  0.00     0.156 HD
ATOM     32  H   UNL     1       6.550   2.929  -0.702  1.00  0.00     0.156 HD
ENDBRANCH  24  30
ENDBRANCH  17  18
ENDBRANCH  15  17
ENDBRANCH   1  15
BRANCH   3  33
ATOM     33  C   UNL     1      -2.525  -2.308  -2.262  1.00  0.00     0.003 C 
ATOM     34  C   UNL     1      -1.665  -3.282  -1.465  1.00  0.00     0.004 C 
ENDBRANCH   3  33
TORSDOF 9


