MODEL 1
REMARK VINA RESULT:      -5.5      0.000      0.000
REMARK SMILES C[C@@H](C#N)N(C)CCCCc1cn(-c2cc(N=C=O)c3c4c(cccc24)C(=O)[N-]3)nn1
REMARK SMILES IDX 9 1 10 2 11 3 13 4 30 5 12 6 31 7 14 8 24 9 23 10 25 11
REMARK SMILES IDX 22 12 26 13 21 14 27 15 20 16 29 17 15 18 16 19 28 20 17 21
REMARK SMILES IDX 18 22 19 23 8 24 7 25 5 26 6 27 2 28 1 29 3 30 4 31
REMARK H PARENT
ROOT
ATOM      1  C   UNL     1      45.945 130.856  16.287  1.00  0.00     0.008 C 
ENDROOT
BRANCH   1   2
ATOM      2  C   UNL     1      44.798 130.805  15.269  1.00  0.00     0.060 C 
BRANCH   2   3
ATOM      3  C   UNL     1      44.114 132.131  15.137  1.00  0.00     0.083 A 
ATOM      4  N   UNL     1      42.596 133.678  14.964  1.00  0.00    -0.220 N 
ATOM      5  N   UNL     1      43.761 134.243  15.239  1.00  0.00    -0.062 NA
ATOM      6  C   UNL     1      42.773 132.346  14.913  1.00  0.00     0.140 A 
ATOM      7  N   UNL     1      44.708 133.322  15.346  1.00  0.00    -0.135 NA
BRANCH   4   8
ATOM      8  C   UNL     1      41.349 134.388  14.902  1.00  0.00     0.076 A 
ATOM      9  C   UNL     1      40.333 135.162  18.481  1.00  0.00     0.001 A 
ATOM     10  C   UNL     1      39.156 135.903  18.233  1.00  0.00     0.011 A 
ATOM     11  C   UNL     1      41.102 134.637  17.410  1.00  0.00     0.011 A 
ATOM     12  C   UNL     1      38.782 136.094  16.904  1.00  0.00     0.006 A 
ATOM     13  C   UNL     1      40.700 134.865  16.071  1.00  0.00     0.007 A 
ATOM     14  C   UNL     1      39.530 135.588  15.891  1.00  0.00    -0.019 A 
ATOM     15  C   UNL     1      37.646 136.732  16.249  1.00  0.00     0.086 C 
ATOM     16  C   UNL     1      38.957 135.847  14.681  1.00  0.00    -0.098 A 
ATOM     17  N   UNL     1      37.737 136.585  14.822  1.00  0.00    -0.620 NA
ATOM     18  C   UNL     1      40.755 134.632  13.631  1.00  0.00     0.057 A 
ATOM     19  C   UNL     1      39.545 135.372  13.508  1.00  0.00     0.064 A 
ATOM     20  O   UNL     1      36.704 137.326  16.833  1.00  0.00    -0.315 OA
BRANCH  19  21
ATOM     21  N   UNL     1      38.922 135.641  12.243  1.00  0.00    -0.169 NA
BRANCH  21  22
ATOM     22  C   UNL     1      38.715 136.814  11.794  1.00  0.00     0.240 C 
ATOM     23  O   UNL     1      38.513 137.955  11.358  1.00  0.00    -0.211 OA
ENDBRANCH  21  22
ENDBRANCH  19  21
ENDBRANCH   4   8
ENDBRANCH   2   3
ENDBRANCH   1   2
BRANCH   1  24
ATOM     24  C   UNL     1      45.510 130.375  17.680  1.00  0.00     0.016 C 
BRANCH  24  25
ATOM     25  C   UNL     1      44.942 131.530  18.513  1.00  0.00     0.085 C 
BRANCH  25  26
ATOM     26  N   UNL     1      44.841 131.128  19.935  1.00  0.00    -0.291 NA
ATOM     27  C   UNL     1      46.170 131.135  20.581  1.00  0.00     0.106 C 
BRANCH  26  28
ATOM     28  C   UNL     1      43.813 131.917  20.669  1.00  0.00     0.157 C 
ATOM     29  C   UNL     1      43.309 131.152  21.896  1.00  0.00     0.041 C 
BRANCH  28  30
ATOM     30  C   UNL     1      44.287 133.263  21.059  1.00  0.00     0.081 C 
ATOM     31  N   UNL     1      44.657 134.316  21.363  1.00  0.00    -0.197 NA
ENDBRANCH  28  30
ENDBRANCH  26  28
ENDBRANCH  25  26
ENDBRANCH  24  25
ENDBRANCH   1  24
TORSDOF 10
ENDMDL
MODEL 2
REMARK VINA RESULT:      -5.5      1.432      1.892
REMARK SMILES C[C@@H](C#N)N(C)CCCCc1cn(-c2cc(N=C=O)c3c4c(cccc24)C(=O)[N-]3)nn1
REMARK SMILES IDX 9 1 10 2 11 3 13 4 30 5 12 6 31 7 14 8 24 9 23 10 25 11
REMARK SMILES IDX 22 12 26 13 21 14 27 15 20 16 29 17 15 18 16 19 28 20 17 21
REMARK SMILES IDX 18 22 19 23 8 24 7 25 5 26 6 27 2 28 1 29 3 30 4 31
REMARK H PARENT
ROOT
ATOM      1  C   UNL     1      45.545 130.444  18.034  1.00  0.00     0.008 C 
ENDROOT
BRANCH   1   2
ATOM      2  C   UNL     1      45.901 130.967  16.636  1.00  0.00     0.060 C 
BRANCH   2   3
ATOM      3  C   UNL     1      44.919 131.994  16.161  1.00  0.00     0.083 A 
ATOM      4  N   UNL     1      43.084 133.097  15.787  1.00  0.00    -0.220 N 
ATOM      5  N   UNL     1      44.120 133.860  15.473  1.00  0.00    -0.062 NA
ATOM      6  C   UNL     1      43.547 131.922  16.246  1.00  0.00     0.140 A 
ATOM      7  N   UNL     1      45.255 133.210  15.687  1.00  0.00    -0.135 NA
BRANCH   4   8
ATOM      8  C   UNL     1      41.720 133.547  15.782  1.00  0.00     0.076 A 
ATOM      9  C   UNL     1      40.807 134.370  19.377  1.00  0.00     0.001 A 
ATOM     10  C   UNL     1      39.492 134.849  19.179  1.00  0.00     0.011 A 
ATOM     11  C   UNL     1      41.592 133.926  18.282  1.00  0.00     0.011 A 
ATOM     12  C   UNL     1      39.002 134.866  17.875  1.00  0.00     0.006 A 
ATOM     13  C   UNL     1      41.067 133.973  16.968  1.00  0.00     0.007 A 
ATOM     14  C   UNL     1      39.768 134.442  16.838  1.00  0.00    -0.019 A 
ATOM     15  C   UNL     1      37.722 135.223  17.274  1.00  0.00     0.086 C 
ATOM     16  C   UNL     1      39.077 134.496  15.663  1.00  0.00    -0.098 A 
ATOM     17  N   UNL     1      37.746 134.993  15.856  1.00  0.00    -0.620 NA
ATOM     18  C   UNL     1      41.008 133.578  14.549  1.00  0.00     0.057 A 
ATOM     19  C   UNL     1      39.669 134.059  14.478  1.00  0.00     0.064 A 
ATOM     20  O   UNL     1      36.721 135.665  17.894  1.00  0.00    -0.315 OA
BRANCH  19  21
ATOM     21  N   UNL     1      38.924 134.109  13.252  1.00  0.00    -0.169 NA
BRANCH  21  22
ATOM     22  C   UNL     1      38.668 135.187  12.626  1.00  0.00     0.240 C 
ATOM     23  O   UNL     1      38.417 136.235  12.018  1.00  0.00    -0.211 OA
ENDBRANCH  21  22
ENDBRANCH  19  21
ENDBRANCH   4   8
ENDBRANCH   2   3
ENDBRANCH   1   2
BRANCH   1  24
ATOM     24  C   UNL     1      45.159 131.576  18.999  1.00  0.00     0.016 C 
BRANCH  24  25
ATOM     25  C   UNL     1      45.782 131.361  20.383  1.00  0.00     0.085 C 
BRANCH  25  26
ATOM     26  N   UNL     1      45.344 132.432  21.309  1.00  0.00    -0.291 NA
ATOM     27  C   UNL     1      45.130 133.701  20.584  1.00  0.00     0.106 C 
BRANCH  26  28
ATOM     28  C   UNL     1      44.183 132.014  22.142  1.00  0.00     0.157 C 
ATOM     29  C   UNL     1      42.954 131.741  21.270  1.00  0.00     0.041 C 
BRANCH  28  30
ATOM     30  C   UNL     1      44.478 130.846  22.999  1.00  0.00     0.081 C 
ATOM     31  N   UNL     1      44.709 129.932  23.670  1.00  0.00    -0.197 NA
ENDBRANCH  28  30
ENDBRANCH  26  28
ENDBRANCH  25  26
ENDBRANCH  24  25
ENDBRANCH   1  24
TORSDOF 10
ENDMDL
MODEL 3
REMARK VINA RESULT:      -5.4      3.472      7.653
REMARK SMILES C[C@@H](C#N)N(C)CCCCc1cn(-c2cc(N=C=O)c3c4c(cccc24)C(=O)[N-]3)nn1
REMARK SMILES IDX 9 1 10 2 11 3 13 4 30 5 12 6 31 7 14 8 24 9 23 10 25 11
REMARK SMILES IDX 22 12 26 13 21 14 27 15 20 16 29 17 15 18 16 19 28 20 17 21
REMARK SMILES IDX 18 22 19 23 8 24 7 25 5 26 6 27 2 28 1 29 3 30 4 31
REMARK H PARENT
ROOT
ATOM      1  C   UNL     1      40.473 136.389  14.125  1.00  0.00     0.008 C 
ENDROOT
BRANCH   1   2
ATOM      2  C   UNL     1      39.375 135.335  14.323  1.00  0.00     0.060 C 
BRANCH   2   3
ATOM      3  C   UNL     1      39.692 134.408  15.456  1.00  0.00     0.083 A 
ATOM      4  N   UNL     1      40.690 133.424  17.119  1.00  0.00    -0.220 N 
ATOM      5  N   UNL     1      39.425 133.034  17.079  1.00  0.00    -0.062 NA
ATOM      6  C   UNL     1      40.891 134.307  16.125  1.00  0.00     0.140 A 
ATOM      7  N   UNL     1      38.792 133.616  16.071  1.00  0.00    -0.135 NA
BRANCH   4   8
ATOM      8  C   UNL     1      41.612 133.068  18.160  1.00  0.00     0.076 A 
ATOM      9  C   UNL     1      44.473 131.184  16.514  1.00  0.00     0.001 A 
ATOM     10  C   UNL     1      45.296 130.979  17.644  1.00  0.00     0.011 A 
ATOM     11  C   UNL     1      43.238 131.875  16.629  1.00  0.00     0.011 A 
ATOM     12  C   UNL     1      44.848 131.476  18.866  1.00  0.00     0.006 A 
ATOM     13  C   UNL     1      42.823 132.380  17.885  1.00  0.00     0.007 A 
ATOM     14  C   UNL     1      43.667 132.137  18.959  1.00  0.00    -0.019 A 
ATOM     15  C   UNL     1      45.359 131.427  20.232  1.00  0.00     0.086 C 
ATOM     16  C   UNL     1      43.401 132.489  20.249  1.00  0.00    -0.098 A 
ATOM     17  N   UNL     1      44.446 132.070  21.137  1.00  0.00    -0.620 NA
ATOM     18  C   UNL     1      41.308 133.426  19.504  1.00  0.00     0.057 A 
ATOM     19  C   UNL     1      42.209 133.139  20.570  1.00  0.00     0.064 A 
ATOM     20  O   UNL     1      46.441 130.895  20.590  1.00  0.00    -0.315 OA
BRANCH  19  21
ATOM     21  N   UNL     1      41.937 133.490  21.934  1.00  0.00    -0.169 NA
BRANCH  21  22
ATOM     22  C   UNL     1      41.025 134.305  22.285  1.00  0.00     0.240 C 
ATOM     23  O   UNL     1      40.137 135.097  22.627  1.00  0.00    -0.211 OA
ENDBRANCH  21  22
ENDBRANCH  19  21
ENDBRANCH   4   8
ENDBRANCH   2   3
ENDBRANCH   1   2
BRANCH   1  24
ATOM     24  C   UNL     1      39.976 137.811  14.426  1.00  0.00     0.016 C 
BRANCH  24  25
ATOM     25  C   UNL     1      40.176 138.168  15.903  1.00  0.00     0.085 C 
BRANCH  25  26
ATOM     26  N   UNL     1      41.568 137.872  16.313  1.00  0.00    -0.291 NA
ATOM     27  C   UNL     1      42.496 138.909  15.818  1.00  0.00     0.106 C 
BRANCH  26  28
ATOM     28  C   UNL     1      41.680 137.617  17.776  1.00  0.00     0.157 C 
ATOM     29  C   UNL     1      40.384 137.016  18.327  1.00  0.00     0.041 C 
BRANCH  28  30
ATOM     30  C   UNL     1      42.835 136.763  18.127  1.00  0.00     0.081 C 
ATOM     31  N   UNL     1      43.738 136.094  18.401  1.00  0.00    -0.197 NA
ENDBRANCH  28  30
ENDBRANCH  26  28
ENDBRANCH  25  26
ENDBRANCH  24  25
ENDBRANCH   1  24
TORSDOF 10
ENDMDL
MODEL 4
REMARK VINA RESULT:      -5.3      2.791      3.954
REMARK SMILES C[C@@H](C#N)N(C)CCCCc1cn(-c2cc(N=C=O)c3c4c(cccc24)C(=O)[N-]3)nn1
REMARK SMILES IDX 9 1 10 2 11 3 13 4 30 5 12 6 31 7 14 8 24 9 23 10 25 11
REMARK SMILES IDX 22 12 26 13 21 14 27 15 20 16 29 17 15 18 16 19 28 20 17 21
REMARK SMILES IDX 18 22 19 23 8 24 7 25 5 26 6 27 2 28 1 29 3 30 4 31
REMARK H PARENT
ROOT
ATOM      1  C   UNL     1      46.484 130.324  16.156  1.00  0.00     0.008 C 
ENDROOT
BRANCH   1   2
ATOM      2  C   UNL     1      46.173 131.164  14.911  1.00  0.00     0.060 C 
BRANCH   2   3
ATOM      3  C   UNL     1      44.930 131.982  15.088  1.00  0.00     0.083 A 
ATOM      4  N   UNL     1      43.562 133.619  15.506  1.00  0.00    -0.220 N 
ATOM      5  N   UNL     1      42.907 132.655  14.876  1.00  0.00    -0.062 NA
ATOM      6  C   UNL     1      44.845 133.240  15.638  1.00  0.00     0.140 A 
ATOM      7  N   UNL     1      43.716 131.641  14.612  1.00  0.00    -0.135 NA
BRANCH   4   8
ATOM      8  C   UNL     1      42.999 134.900  15.827  1.00  0.00     0.076 A 
ATOM      9  C   UNL     1      40.071 135.450  13.469  1.00  0.00     0.001 A 
ATOM     10  C   UNL     1      39.607 136.691  13.960  1.00  0.00     0.011 A 
ATOM     11  C   UNL     1      41.193 134.809  14.054  1.00  0.00     0.011 A 
ATOM     12  C   UNL     1      40.293 137.257  15.032  1.00  0.00     0.006 A 
ATOM     13  C   UNL     1      41.856 135.406  15.153  1.00  0.00     0.007 A 
ATOM     14  C   UNL     1      41.363 136.629  15.583  1.00  0.00    -0.019 A 
ATOM     15  C   UNL     1      40.171 138.508  15.771  1.00  0.00     0.086 C 
ATOM     16  C   UNL     1      41.913 137.380  16.580  1.00  0.00    -0.098 A 
ATOM     17  N   UNL     1      41.200 138.610  16.770  1.00  0.00    -0.620 NA
ATOM     18  C   UNL     1      43.598 135.679  16.858  1.00  0.00     0.057 A 
ATOM     19  C   UNL     1      43.054 136.936  17.248  1.00  0.00     0.064 A 
ATOM     20  O   UNL     1      39.298 139.393  15.574  1.00  0.00    -0.315 OA
BRANCH  19  21
ATOM     21  N   UNL     1      43.628 137.744  18.286  1.00  0.00    -0.169 NA
BRANCH  21  22
ATOM     22  C   UNL     1      44.877 137.813  18.517  1.00  0.00     0.240 C 
ATOM     23  O   UNL     1      46.093 137.882  18.741  1.00  0.00    -0.211 OA
ENDBRANCH  21  22
ENDBRANCH  19  21
ENDBRANCH   4   8
ENDBRANCH   2   3
ENDBRANCH   1   2
BRANCH   1  24
ATOM     24  C   UNL     1      45.287 130.242  17.117  1.00  0.00     0.016 C 
BRANCH  24  25
ATOM     25  C   UNL     1      45.654 130.774  18.507  1.00  0.00     0.085 C 
BRANCH  25  26
ATOM     26  N   UNL     1      44.762 131.898  18.873  1.00  0.00    -0.291 NA
ATOM     27  C   UNL     1      43.364 131.607  18.495  1.00  0.00     0.106 C 
BRANCH  26  28
ATOM     28  C   UNL     1      44.926 132.303  20.297  1.00  0.00     0.157 C 
ATOM     29  C   UNL     1      46.163 131.645  20.915  1.00  0.00     0.041 C 
BRANCH  28  30
ATOM     30  C   UNL     1      44.976 133.770  20.478  1.00  0.00     0.081 C 
ATOM     31  N   UNL     1      45.015 134.917  20.619  1.00  0.00    -0.197 NA
ENDBRANCH  28  30
ENDBRANCH  26  28
ENDBRANCH  25  26
ENDBRANCH  24  25
ENDBRANCH   1  24
TORSDOF 10
ENDMDL
MODEL 5
REMARK VINA RESULT:      -5.2      2.009      2.365
REMARK SMILES C[C@@H](C#N)N(C)CCCCc1cn(-c2cc(N=C=O)c3c4c(cccc24)C(=O)[N-]3)nn1
REMARK SMILES IDX 9 1 10 2 11 3 13 4 30 5 12 6 31 7 14 8 24 9 23 10 25 11
REMARK SMILES IDX 22 12 26 13 21 14 27 15 20 16 29 17 15 18 16 19 28 20 17 21
REMARK SMILES IDX 18 22 19 23 8 24 7 25 5 26 6 27 2 28 1 29 3 30 4 31
REMARK H PARENT
ROOT
ATOM      1  C   UNL     1      44.675 130.151  16.437  1.00  0.00     0.008 C 
ENDROOT
BRANCH   1   2
ATOM      2  C   UNL     1      45.238 130.978  15.274  1.00  0.00     0.060 C 
BRANCH   2   3
ATOM      3  C   UNL     1      44.562 132.310  15.162  1.00  0.00     0.083 A 
ATOM      4  N   UNL     1      43.066 133.866  14.902  1.00  0.00    -0.220 N 
ATOM      5  N   UNL     1      44.167 134.403  15.405  1.00  0.00    -0.062 NA
ATOM      6  C   UNL     1      43.268 132.545  14.756  1.00  0.00     0.140 A 
ATOM      7  N   UNL     1      45.100 133.477  15.570  1.00  0.00    -0.135 NA
BRANCH   4   8
ATOM      8  C   UNL     1      41.833 134.579  14.716  1.00  0.00     0.076 A 
ATOM      9  C   UNL     1      42.581 138.259  15.296  1.00  0.00     0.001 A 
ATOM     10  C   UNL     1      41.308 138.803  15.010  1.00  0.00     0.011 A 
ATOM     11  C   UNL     1      42.811 136.862  15.212  1.00  0.00     0.011 A 
ATOM     12  C   UNL     1      40.296 137.917  14.647  1.00  0.00     0.006 A 
ATOM     13  C   UNL     1      41.763 135.993  14.824  1.00  0.00     0.007 A 
ATOM     14  C   UNL     1      40.534 136.583  14.568  1.00  0.00    -0.019 A 
ATOM     15  C   UNL     1      38.878 138.065  14.337  1.00  0.00     0.086 C 
ATOM     16  C   UNL     1      39.397 135.900  14.248  1.00  0.00    -0.098 A 
ATOM     17  N   UNL     1      38.281 136.783  14.078  1.00  0.00    -0.620 NA
ATOM     18  C   UNL     1      40.652 133.848  14.402  1.00  0.00     0.057 A 
ATOM     19  C   UNL     1      39.414 134.508  14.161  1.00  0.00     0.064 A 
ATOM     20  O   UNL     1      38.246 139.151  14.302  1.00  0.00    -0.315 OA
BRANCH  19  21
ATOM     21  N   UNL     1      38.206 133.803  13.837  1.00  0.00    -0.169 NA
BRANCH  21  22
ATOM     22  C   UNL     1      37.622 133.886  12.709  1.00  0.00     0.240 C 
ATOM     23  O   UNL     1      37.052 133.967  11.613  1.00  0.00    -0.211 OA
ENDBRANCH  21  22
ENDBRANCH  19  21
ENDBRANCH   4   8
ENDBRANCH   2   3
ENDBRANCH   1   2
BRANCH   1  24
ATOM     24  C   UNL     1      45.546 130.252  17.699  1.00  0.00     0.016 C 
BRANCH  24  25
ATOM     25  C   UNL     1      45.284 131.563  18.450  1.00  0.00     0.085 C 
BRANCH  25  26
ATOM     26  N   UNL     1      44.126 131.405  19.359  1.00  0.00    -0.291 NA
ATOM     27  C   UNL     1      44.570 131.052  20.723  1.00  0.00     0.106 C 
BRANCH  26  28
ATOM     28  C   UNL     1      43.210 132.579  19.312  1.00  0.00     0.157 C 
ATOM     29  C   UNL     1      42.076 132.348  18.309  1.00  0.00     0.041 C 
BRANCH  28  30
ATOM     30  C   UNL     1      42.662 132.939  20.637  1.00  0.00     0.081 C 
ATOM     31  N   UNL     1      42.232 133.220  21.673  1.00  0.00    -0.197 NA
ENDBRANCH  28  30
ENDBRANCH  26  28
ENDBRANCH  25  26
ENDBRANCH  24  25
ENDBRANCH   1  24
TORSDOF 10
ENDMDL
MODEL 6
REMARK VINA RESULT:      -5.0      3.382      6.860
REMARK SMILES C[C@@H](C#N)N(C)CCCCc1cn(-c2cc(N=C=O)c3c4c(cccc24)C(=O)[N-]3)nn1
REMARK SMILES IDX 9 1 10 2 11 3 13 4 30 5 12 6 31 7 14 8 24 9 23 10 25 11
REMARK SMILES IDX 22 12 26 13 21 14 27 15 20 16 29 17 15 18 16 19 28 20 17 21
REMARK SMILES IDX 18 22 19 23 8 24 7 25 5 26 6 27 2 28 1 29 3 30 4 31
REMARK H PARENT
ROOT
ATOM      1  C   UNL     1      45.714 133.896  24.019  1.00  0.00     0.008 C 
ENDROOT
BRANCH   1   2
ATOM      2  C   UNL     1      44.634 132.880  23.623  1.00  0.00     0.060 C 
BRANCH   2   3
ATOM      3  C   UNL     1      44.781 132.440  22.199  1.00  0.00     0.083 A 
ATOM      4  N   UNL     1      44.444 132.136  20.072  1.00  0.00    -0.220 N 
ATOM      5  N   UNL     1      45.683 131.776  20.371  1.00  0.00    -0.062 NA
ATOM      6  C   UNL     1      43.851 132.581  21.194  1.00  0.00     0.140 A 
ATOM      7  N   UNL     1      45.916 131.947  21.664  1.00  0.00    -0.135 NA
BRANCH   4   8
ATOM      8  C   UNL     1      43.918 132.183  18.737  1.00  0.00     0.076 A 
ATOM      9  C   UNL     1      46.206 130.064  16.566  1.00  0.00     0.001 A 
ATOM     10  C   UNL     1      45.517 130.164  15.336  1.00  0.00     0.011 A 
ATOM     11  C   UNL     1      45.717 130.714  17.729  1.00  0.00     0.011 A 
ATOM     12  C   UNL     1      44.348 130.923  15.312  1.00  0.00     0.006 A 
ATOM     13  C   UNL     1      44.517 131.464  17.670  1.00  0.00     0.007 A 
ATOM     14  C   UNL     1      43.893 131.535  16.434  1.00  0.00    -0.019 A 
ATOM     15  C   UNL     1      43.407 131.306  14.266  1.00  0.00     0.086 C 
ATOM     16  C   UNL     1      42.768 132.263  16.174  1.00  0.00    -0.098 A 
ATOM     17  N   UNL     1      42.384 132.166  14.796  1.00  0.00    -0.620 NA
ATOM     18  C   UNL     1      42.755 132.964  18.480  1.00  0.00     0.057 A 
ATOM     19  C   UNL     1      42.164 133.009  17.185  1.00  0.00     0.064 A 
ATOM     20  O   UNL     1      43.466 130.950  13.061  1.00  0.00    -0.315 OA
BRANCH  19  21
ATOM     21  N   UNL     1      40.990 133.780  16.892  1.00  0.00    -0.169 NA
BRANCH  21  22
ATOM     22  C   UNL     1      39.868 133.604  17.467  1.00  0.00     0.240 C 
ATOM     23  O   UNL     1      38.777 133.434  18.028  1.00  0.00    -0.211 OA
ENDBRANCH  21  22
ENDBRANCH  19  21
ENDBRANCH   4   8
ENDBRANCH   2   3
ENDBRANCH   1   2
BRANCH   1  24
ATOM     24  C   UNL     1      45.672 135.160  23.146  1.00  0.00     0.016 C 
BRANCH  24  25
ATOM     25  C   UNL     1      47.033 135.429  22.493  1.00  0.00     0.085 C 
BRANCH  25  26
ATOM     26  N   UNL     1      47.595 136.703  22.997  1.00  0.00    -0.291 NA
ATOM     27  C   UNL     1      48.959 136.506  23.528  1.00  0.00     0.106 C 
BRANCH  26  28
ATOM     28  C   UNL     1      47.496 137.796  21.990  1.00  0.00     0.157 C 
ATOM     29  C   UNL     1      47.627 137.243  20.568  1.00  0.00     0.041 C 
BRANCH  28  30
ATOM     30  C   UNL     1      46.258 138.594  22.121  1.00  0.00     0.081 C 
ATOM     31  N   UNL     1      45.289 139.218  22.224  1.00  0.00    -0.197 NA
ENDBRANCH  28  30
ENDBRANCH  26  28
ENDBRANCH  25  26
ENDBRANCH  24  25
ENDBRANCH   1  24
TORSDOF 10
ENDMDL
MODEL 7
REMARK VINA RESULT:      -5.0      4.106      7.810
REMARK SMILES C[C@@H](C#N)N(C)CCCCc1cn(-c2cc(N=C=O)c3c4c(cccc24)C(=O)[N-]3)nn1
REMARK SMILES IDX 9 1 10 2 11 3 13 4 30 5 12 6 31 7 14 8 24 9 23 10 25 11
REMARK SMILES IDX 22 12 26 13 21 14 27 15 20 16 29 17 15 18 16 19 28 20 17 21
REMARK SMILES IDX 18 22 19 23 8 24 7 25 5 26 6 27 2 28 1 29 3 30 4 31
REMARK H PARENT
ROOT
ATOM      1  C   UNL     1      39.074 134.938  19.447  1.00  0.00     0.008 C 
ENDROOT
BRANCH   1   2
ATOM      2  C   UNL     1      38.700 133.990  18.300  1.00  0.00     0.060 C 
BRANCH   2   3
ATOM      3  C   UNL     1      39.899 133.592  17.495  1.00  0.00     0.083 A 
ATOM      4  N   UNL     1      41.813 132.755  16.893  1.00  0.00    -0.220 N 
ATOM      5  N   UNL     1      41.130 133.097  15.811  1.00  0.00    -0.062 NA
ATOM      6  C   UNL     1      41.061 133.031  17.973  1.00  0.00     0.140 A 
ATOM      7  N   UNL     1      39.958 133.616  16.149  1.00  0.00    -0.135 NA
BRANCH   4   8
ATOM      8  C   UNL     1      43.069 132.059  16.867  1.00  0.00     0.076 A 
ATOM      9  C   UNL     1      43.726 131.089  13.252  1.00  0.00     0.001 A 
ATOM     10  C   UNL     1      44.999 130.493  13.399  1.00  0.00     0.011 A 
ATOM     11  C   UNL     1      43.041 131.627  14.372  1.00  0.00     0.011 A 
ATOM     12  C   UNL     1      45.548 130.453  14.680  1.00  0.00     0.006 A 
ATOM     13  C   UNL     1      43.637 131.584  15.656  1.00  0.00     0.007 A 
ATOM     14  C   UNL     1      44.881 130.976  15.739  1.00  0.00    -0.019 A 
ATOM     15  C   UNL     1      46.772 129.896  15.244  1.00  0.00     0.086 C 
ATOM     16  C   UNL     1      45.574 130.784  16.899  1.00  0.00    -0.098 A 
ATOM     17  N   UNL     1      46.810 130.096  16.667  1.00  0.00    -0.620 NA
ATOM     18  C   UNL     1      43.769 131.850  18.089  1.00  0.00     0.057 A 
ATOM     19  C   UNL     1      45.039 131.207  18.116  1.00  0.00     0.064 A 
ATOM     20  O   UNL     1      47.677 129.312  14.595  1.00  0.00    -0.315 OA
BRANCH  19  21
ATOM     21  N   UNL     1      45.775 130.986  19.328  1.00  0.00    -0.169 NA
BRANCH  21  22
ATOM     22  C   UNL     1      45.428 131.455  20.459  1.00  0.00     0.240 C 
ATOM     23  O   UNL     1      45.093 131.912  21.560  1.00  0.00    -0.211 OA
ENDBRANCH  21  22
ENDBRANCH  19  21
ENDBRANCH   4   8
ENDBRANCH   2   3
ENDBRANCH   1   2
BRANCH   1  24
ATOM     24  C   UNL     1      40.595 135.073  19.619  1.00  0.00     0.016 C 
BRANCH  24  25
ATOM     25  C   UNL     1      40.984 135.121  21.101  1.00  0.00     0.085 C 
BRANCH  25  26
ATOM     26  N   UNL     1      41.250 136.520  21.511  1.00  0.00    -0.291 NA
ATOM     27  C   UNL     1      40.503 136.861  22.738  1.00  0.00     0.106 C 
BRANCH  26  28
ATOM     28  C   UNL     1      42.708 136.811  21.595  1.00  0.00     0.157 C 
ATOM     29  C   UNL     1      43.460 135.654  22.257  1.00  0.00     0.041 C 
BRANCH  28  30
ATOM     30  C   UNL     1      43.310 137.136  20.284  1.00  0.00     0.081 C 
ATOM     31  N   UNL     1      43.779 137.390  19.258  1.00  0.00    -0.197 NA
ENDBRANCH  28  30
ENDBRANCH  26  28
ENDBRANCH  25  26
ENDBRANCH  24  25
ENDBRANCH   1  24
TORSDOF 10
ENDMDL
MODEL 8
REMARK VINA RESULT:      -5.0      3.618      7.527
REMARK SMILES C[C@@H](C#N)N(C)CCCCc1cn(-c2cc(N=C=O)c3c4c(cccc24)C(=O)[N-]3)nn1
REMARK SMILES IDX 9 1 10 2 11 3 13 4 30 5 12 6 31 7 14 8 24 9 23 10 25 11
REMARK SMILES IDX 22 12 26 13 21 14 27 15 20 16 29 17 15 18 16 19 28 20 17 21
REMARK SMILES IDX 18 22 19 23 8 24 7 25 5 26 6 27 2 28 1 29 3 30 4 31
REMARK H PARENT
ROOT
ATOM      1  C   UNL     1      40.424 138.735  14.063  1.00  0.00     0.008 C 
ENDROOT
BRANCH   1   2
ATOM      2  C   UNL     1      41.744 138.992  14.801  1.00  0.00     0.060 C 
BRANCH   2   3
ATOM      3  C   UNL     1      42.035 137.920  15.806  1.00  0.00     0.083 A 
ATOM      4  N   UNL     1      42.809 136.133  16.773  1.00  0.00    -0.220 N 
ATOM      5  N   UNL     1      42.282 136.929  17.691  1.00  0.00    -0.062 NA
ATOM      6  C   UNL     1      42.693 136.733  15.575  1.00  0.00     0.140 A 
ATOM      7  N   UNL     1      41.797 138.026  17.129  1.00  0.00    -0.135 NA
BRANCH   4   8
ATOM      8  C   UNL     1      43.522 134.921  17.068  1.00  0.00     0.076 A 
ATOM      9  C   UNL     1      43.299 134.391  20.824  1.00  0.00     0.001 A 
ATOM     10  C   UNL     1      43.974 133.154  20.925  1.00  0.00     0.011 A 
ATOM     11  C   UNL     1      43.119 135.022  19.566  1.00  0.00     0.011 A 
ATOM     12  C   UNL     1      44.454 132.584  19.747  1.00  0.00     0.006 A 
ATOM     13  C   UNL     1      43.606 134.406  18.388  1.00  0.00     0.007 A 
ATOM     14  C   UNL     1      44.270 133.199  18.551  1.00  0.00    -0.019 A 
ATOM     15  C   UNL     1      45.225 131.385  19.438  1.00  0.00     0.086 C 
ATOM     16  C   UNL     1      44.862 132.497  17.542  1.00  0.00    -0.098 A 
ATOM     17  N   UNL     1      45.498 131.308  18.029  1.00  0.00    -0.620 NA
ATOM     18  C   UNL     1      44.150 134.212  16.005  1.00  0.00     0.057 A 
ATOM     19  C   UNL     1      44.829 132.982  16.235  1.00  0.00     0.064 A 
ATOM     20  O   UNL     1      45.612 130.528  20.274  1.00  0.00    -0.315 OA
BRANCH  19  21
ATOM     21  N   UNL     1      45.468 132.238  15.187  1.00  0.00    -0.169 NA
BRANCH  21  22
ATOM     22  C   UNL     1      45.028 131.132  14.736  1.00  0.00     0.240 C 
ATOM     23  O   UNL     1      44.600 130.056  14.299  1.00  0.00    -0.211 OA
ENDBRANCH  21  22
ENDBRANCH  19  21
ENDBRANCH   4   8
ENDBRANCH   2   3
ENDBRANCH   1   2
BRANCH   1  24
ATOM     24  C   UNL     1      39.748 137.431  14.514  1.00  0.00     0.016 C 
BRANCH  24  25
ATOM     25  C   UNL     1      39.529 136.482  13.329  1.00  0.00     0.085 C 
BRANCH  25  26
ATOM     26  N   UNL     1      39.476 135.080  13.805  1.00  0.00    -0.291 NA
ATOM     27  C   UNL     1      40.805 134.443  13.719  1.00  0.00     0.106 C 
BRANCH  26  28
ATOM     28  C   UNL     1      38.842 134.967  15.148  1.00  0.00     0.157 C 
ATOM     29  C   UNL     1      37.346 134.662  15.023  1.00  0.00     0.041 C 
BRANCH  28  30
ATOM     30  C   UNL     1      39.501 133.968  16.016  1.00  0.00     0.081 C 
ATOM     31  N   UNL     1      40.017 133.186  16.694  1.00  0.00    -0.197 NA
ENDBRANCH  28  30
ENDBRANCH  26  28
ENDBRANCH  25  26
ENDBRANCH  24  25
ENDBRANCH   1  24
TORSDOF 10
ENDMDL
MODEL 9
REMARK VINA RESULT:      -5.0      3.912      7.682
REMARK SMILES C[C@@H](C#N)N(C)CCCCc1cn(-c2cc(N=C=O)c3c4c(cccc24)C(=O)[N-]3)nn1
REMARK SMILES IDX 9 1 10 2 11 3 13 4 30 5 12 6 31 7 14 8 24 9 23 10 25 11
REMARK SMILES IDX 22 12 26 13 21 14 27 15 20 16 29 17 15 18 16 19 28 20 17 21
REMARK SMILES IDX 18 22 19 23 8 24 7 25 5 26 6 27 2 28 1 29 3 30 4 31
REMARK H PARENT
ROOT
ATOM      1  C   UNL     1      37.977 135.343  16.611  1.00  0.00     0.008 C 
ENDROOT
BRANCH   1   2
ATOM      2  C   UNL     1      38.075 134.523  15.318  1.00  0.00     0.060 C 
BRANCH   2   3
ATOM      3  C   UNL     1      39.459 133.993  15.101  1.00  0.00     0.083 A 
ATOM      4  N   UNL     1      41.464 133.219  15.433  1.00  0.00    -0.220 N 
ATOM      5  N   UNL     1      41.137 133.046  14.161  1.00  0.00    -0.062 NA
ATOM      6  C   UNL     1      40.424 133.792  16.062  1.00  0.00     0.140 A 
ATOM      7  N   UNL     1      39.920 133.514  13.928  1.00  0.00    -0.135 NA
BRANCH   4   8
ATOM      8  C   UNL     1      42.668 132.715  16.032  1.00  0.00     0.076 A 
ATOM      9  C   UNL     1      41.930 132.172  19.719  1.00  0.00     0.001 A 
ATOM     10  C   UNL     1      43.168 131.624  20.125  1.00  0.00     0.011 A 
ATOM     11  C   UNL     1      41.710 132.550  18.370  1.00  0.00     0.011 A 
ATOM     12  C   UNL     1      44.156 131.474  19.154  1.00  0.00     0.006 A 
ATOM     13  C   UNL     1      42.732 132.368  17.406  1.00  0.00     0.007 A 
ATOM     14  C   UNL     1      43.928 131.837  17.867  1.00  0.00    -0.019 A 
ATOM     15  C   UNL     1      45.540 131.015  19.175  1.00  0.00     0.086 C 
ATOM     16  C   UNL     1      45.041 131.654  17.100  1.00  0.00    -0.098 A 
ATOM     17  N   UNL     1      46.128 131.122  17.868  1.00  0.00    -0.620 NA
ATOM     18  C   UNL     1      43.826 132.548  15.220  1.00  0.00     0.057 A 
ATOM     19  C   UNL     1      45.032 132.009  15.752  1.00  0.00     0.064 A 
ATOM     20  O   UNL     1      46.155 130.588  20.186  1.00  0.00    -0.315 OA
BRANCH  19  21
ATOM     21  N   UNL     1      46.216 131.822  14.962  1.00  0.00    -0.169 NA
BRANCH  21  22
ATOM     22  C   UNL     1      46.945 130.780  15.018  1.00  0.00     0.240 C 
ATOM     23  O   UNL     1      47.653 129.766  15.074  1.00  0.00    -0.211 OA
ENDBRANCH  21  22
ENDBRANCH  19  21
ENDBRANCH   4   8
ENDBRANCH   2   3
ENDBRANCH   1   2
BRANCH   1  24
ATOM     24  C   UNL     1      36.536 135.426  17.141  1.00  0.00     0.016 C 
BRANCH  24  25
ATOM     25  C   UNL     1      36.377 134.630  18.442  1.00  0.00     0.085 C 
BRANCH  25  26
ATOM     26  N   UNL     1      36.640 135.505  19.608  1.00  0.00    -0.291 NA
ATOM     27  C   UNL     1      37.359 134.770  20.668  1.00  0.00     0.106 C 
BRANCH  26  28
ATOM     28  C   UNL     1      37.295 136.783  19.213  1.00  0.00     0.157 C 
ATOM     29  C   UNL     1      36.461 137.987  19.660  1.00  0.00     0.041 C 
BRANCH  28  30
ATOM     30  C   UNL     1      38.681 136.901  19.715  1.00  0.00     0.081 C 
ATOM     31  N   UNL     1      39.765 136.994  20.107  1.00  0.00    -0.197 NA
ENDBRANCH  28  30
ENDBRANCH  26  28
ENDBRANCH  25  26
ENDBRANCH  24  25
ENDBRANCH   1  24
TORSDOF 10
ENDMDL


