MODEL 1
REMARK VINA RESULT:      -7.5      0.000      0.000
REMARK SMILES C#CCO/C([O-])=C\[C@H]1[CH][C]2C=CC=C[C@@H]2CC1
REMARK SMILES IDX 4 1 3 2 2 3 1 4 5 5 6 6 7 7 8 8 9 9 17 10 10 11 16 12 11 13
REMARK SMILES IDX 15 14 12 15 14 16 13 17
REMARK H PARENT
ROOT
ATOM      1  O   UNL     1      41.925 131.680  17.830  1.00  0.00    -0.601 OA
ENDROOT
BRANCH   1   2
ATOM      2  C   UNL     1      41.928 132.242  19.136  1.00  0.00     0.160 C 
BRANCH   2   3
ATOM      3  C   UNL     1      43.226 131.983  19.762  1.00  0.00    -0.095 C 
ATOM      4  C   UNL     1      44.292 131.769  20.280  1.00  0.00     0.005 C 
ENDBRANCH   2   3
ENDBRANCH   1   2
BRANCH   1   5
ATOM      5  C   UNL     1      42.155 132.440  16.681  1.00  0.00     0.049 C 
ATOM      6  O   UNL     1      41.114 133.150  16.091  1.00  0.00    -0.547 OA
BRANCH   5   7
ATOM      7  C   UNL     1      43.378 132.499  16.140  1.00  0.00     0.004 C 
BRANCH   7   8
ATOM      8  C   UNL     1      44.214 131.279  15.836  1.00  0.00     0.036 C 
ATOM      9  C   UNL     1      44.677 131.287  14.394  1.00  0.00    -0.015 C 
ATOM     10  C   UNL     1      45.367 131.127  16.855  1.00  0.00     0.013 C 
ATOM     11  C   UNL     1      45.950 130.835  14.017  1.00  0.00    -0.045 C 
ATOM     12  C   UNL     1      46.403 130.104  16.376  1.00  0.00     0.013 C 
ATOM     13  C   UNL     1      46.290 130.684  12.587  1.00  0.00     0.004 C 
ATOM     14  C   UNL     1      47.025 130.579  15.057  1.00  0.00     0.041 C 
ATOM     15  C   UNL     1      47.387 130.010  12.233  1.00  0.00    -0.000 C 
ATOM     16  C   UNL     1      48.058 129.593  14.557  1.00  0.00    -0.019 C 
ATOM     17  C   UNL     1      48.260 129.391  13.248  1.00  0.00    -0.004 C 
ENDBRANCH   7   8
ENDBRANCH   5   7
ENDBRANCH   1   5
TORSDOF 5
ENDMDL
MODEL 2
REMARK VINA RESULT:      -7.4      1.684      2.204
REMARK SMILES C#CCO/C([O-])=C\[C@H]1[CH][C]2C=CC=C[C@@H]2CC1
REMARK SMILES IDX 4 1 3 2 2 3 1 4 5 5 6 6 7 7 8 8 9 9 17 10 10 11 16 12 11 13
REMARK SMILES IDX 15 14 12 15 14 16 13 17
REMARK H PARENT
ROOT
ATOM      1  O   UNL     1      43.476 134.083  14.903  1.00  0.00    -0.601 OA
ENDROOT
BRANCH   1   2
ATOM      2  C   UNL     1      43.492 135.382  15.478  1.00  0.00     0.160 C 
BRANCH   2   3
ATOM      3  C   UNL     1      43.633 135.258  16.930  1.00  0.00    -0.095 C 
ATOM      4  C   UNL     1      43.749 135.160  18.125  1.00  0.00     0.005 C 
ENDBRANCH   2   3
ENDBRANCH   1   2
BRANCH   1   5
ATOM      5  C   UNL     1      42.631 133.067  15.357  1.00  0.00     0.049 C 
ATOM      6  O   UNL     1      41.338 132.956  14.854  1.00  0.00    -0.547 OA
BRANCH   5   7
ATOM      7  C   UNL     1      43.056 132.189  16.272  1.00  0.00     0.004 C 
BRANCH   7   8
ATOM      8  C   UNL     1      43.996 131.049  15.959  1.00  0.00     0.036 C 
ATOM      9  C   UNL     1      44.482 131.127  14.526  1.00  0.00    -0.015 C 
ATOM     10  C   UNL     1      45.140 130.971  16.996  1.00  0.00     0.013 C 
ATOM     11  C   UNL     1      45.794 130.791  14.164  1.00  0.00    -0.045 C 
ATOM     12  C   UNL     1      46.266 130.048  16.517  1.00  0.00     0.013 C 
ATOM     13  C   UNL     1      46.170 130.699  12.738  1.00  0.00     0.004 C 
ATOM     14  C   UNL     1      46.869 130.602  15.219  1.00  0.00     0.041 C 
ATOM     15  C   UNL     1      47.325 130.126  12.391  1.00  0.00    -0.000 C 
ATOM     16  C   UNL     1      47.988 129.717  14.719  1.00  0.00    -0.019 C 
ATOM     17  C   UNL     1      48.229 129.561  13.410  1.00  0.00    -0.004 C 
ENDBRANCH   7   8
ENDBRANCH   5   7
ENDBRANCH   1   5
TORSDOF 5
ENDMDL
MODEL 3
REMARK VINA RESULT:      -7.0      2.206      3.417
REMARK SMILES C#CCO/C([O-])=C\[C@H]1[CH][C]2C=CC=C[C@@H]2CC1
REMARK SMILES IDX 4 1 3 2 2 3 1 4 5 5 6 6 7 7 8 8 9 9 17 10 10 11 16 12 11 13
REMARK SMILES IDX 15 14 12 15 14 16 13 17
REMARK H PARENT
ROOT
ATOM      1  O   UNL     1      42.375 134.534  14.471  1.00  0.00    -0.601 OA
ENDROOT
BRANCH   1   2
ATOM      2  C   UNL     1      41.788 135.784  14.806  1.00  0.00     0.160 C 
BRANCH   2   3
ATOM      3  C   UNL     1      40.353 135.725  14.527  1.00  0.00    -0.095 C 
ATOM      4  C   UNL     1      39.172 135.676  14.294  1.00  0.00     0.005 C 
ENDBRANCH   2   3
ENDBRANCH   1   2
BRANCH   1   5
ATOM      5  C   UNL     1      43.289 133.882  15.303  1.00  0.00     0.049 C 
ATOM      6  O   UNL     1      44.526 134.459  15.573  1.00  0.00    -0.547 OA
BRANCH   5   7
ATOM      7  C   UNL     1      42.983 132.701  15.852  1.00  0.00     0.004 C 
BRANCH   7   8
ATOM      8  C   UNL     1      43.845 131.468  15.709  1.00  0.00     0.036 C 
ATOM      9  C   UNL     1      44.431 131.377  14.315  1.00  0.00    -0.015 C 
ATOM     10  C   UNL     1      44.905 131.398  16.831  1.00  0.00     0.013 C 
ATOM     11  C   UNL     1      45.732 130.909  14.082  1.00  0.00    -0.045 C 
ATOM     12  C   UNL     1      45.980 130.351  16.518  1.00  0.00     0.013 C 
ATOM     13  C   UNL     1      46.194 130.658  12.701  1.00  0.00     0.004 C 
ATOM     14  C   UNL     1      46.714 130.735  15.226  1.00  0.00     0.041 C 
ATOM     15  C   UNL     1      47.318 129.969  12.492  1.00  0.00    -0.000 C 
ATOM     16  C   UNL     1      47.787 129.725  14.889  1.00  0.00    -0.019 C 
ATOM     17  C   UNL     1      48.102 129.431  13.620  1.00  0.00    -0.004 C 
ENDBRANCH   7   8
ENDBRANCH   5   7
ENDBRANCH   1   5
TORSDOF 5
ENDMDL
MODEL 4
REMARK VINA RESULT:      -7.0      1.459      1.587
REMARK SMILES C#CCO/C([O-])=C\[C@H]1[CH][C]2C=CC=C[C@@H]2CC1
REMARK SMILES IDX 4 1 3 2 2 3 1 4 5 5 6 6 7 7 8 8 9 9 17 10 10 11 16 12 11 13
REMARK SMILES IDX 15 14 12 15 14 16 13 17
REMARK H PARENT
ROOT
ATOM      1  O   UNL     1      43.360 133.416  18.412  1.00  0.00    -0.601 OA
ENDROOT
BRANCH   1   2
ATOM      2  C   UNL     1      44.085 132.813  19.475  1.00  0.00     0.160 C 
BRANCH   2   3
ATOM      3  C   UNL     1      44.688 133.865  20.295  1.00  0.00    -0.095 C 
ATOM      4  C   UNL     1      45.185 134.733  20.967  1.00  0.00     0.005 C 
ENDBRANCH   2   3
ENDBRANCH   1   2
BRANCH   1   5
ATOM      5  C   UNL     1      43.692 133.225  17.068  1.00  0.00     0.049 C 
ATOM      6  O   UNL     1      44.495 134.149  16.407  1.00  0.00    -0.547 OA
BRANCH   5   7
ATOM      7  C   UNL     1      43.248 132.151  16.406  1.00  0.00     0.004 C 
BRANCH   7   8
ATOM      8  C   UNL     1      44.136 131.002  15.991  1.00  0.00     0.036 C 
ATOM      9  C   UNL     1      44.557 131.141  14.542  1.00  0.00    -0.015 C 
ATOM     10  C   UNL     1      45.323 130.836  16.967  1.00  0.00     0.013 C 
ATOM     11  C   UNL     1      45.840 130.786  14.101  1.00  0.00    -0.045 C 
ATOM     12  C   UNL     1      46.396 129.907  16.388  1.00  0.00     0.013 C 
ATOM     13  C   UNL     1      46.147 130.758  12.656  1.00  0.00     0.004 C 
ATOM     14  C   UNL     1      46.956 130.510  15.092  1.00  0.00     0.041 C 
ATOM     15  C   UNL     1      47.266 130.170  12.226  1.00  0.00    -0.000 C 
ATOM     16  C   UNL     1      48.022 129.620  14.495  1.00  0.00    -0.019 C 
ATOM     17  C   UNL     1      48.198 129.526  13.170  1.00  0.00    -0.004 C 
ENDBRANCH   7   8
ENDBRANCH   5   7
ENDBRANCH   1   5
TORSDOF 5
ENDMDL
MODEL 5
REMARK VINA RESULT:      -6.9      1.710      2.643
REMARK SMILES C#CCO/C([O-])=C\[C@H]1[CH][C]2C=CC=C[C@@H]2CC1
REMARK SMILES IDX 4 1 3 2 2 3 1 4 5 5 6 6 7 7 8 8 9 9 17 10 10 11 16 12 11 13
REMARK SMILES IDX 15 14 12 15 14 16 13 17
REMARK H PARENT
ROOT
ATOM      1  O   UNL     1      43.091 134.159  16.851  1.00  0.00    -0.601 OA
ENDROOT
BRANCH   1   2
ATOM      2  C   UNL     1      42.357 135.343  17.132  1.00  0.00     0.160 C 
BRANCH   2   3
ATOM      3  C   UNL     1      41.788 135.857  15.886  1.00  0.00    -0.095 C 
ATOM      4  C   UNL     1      41.320 136.277  14.858  1.00  0.00     0.005 C 
ENDBRANCH   2   3
ENDBRANCH   1   2
BRANCH   1   5
ATOM      5  C   UNL     1      42.476 132.950  16.517  1.00  0.00     0.049 C 
ATOM      6  O   UNL     1      41.523 132.393  17.364  1.00  0.00    -0.547 OA
BRANCH   5   7
ATOM      7  C   UNL     1      42.790 132.320  15.380  1.00  0.00     0.004 C 
BRANCH   7   8
ATOM      8  C   UNL     1      43.762 131.165  15.309  1.00  0.00     0.036 C 
ATOM      9  C   UNL     1      44.478 131.144  13.974  1.00  0.00    -0.015 C 
ATOM     10  C   UNL     1      44.718 131.167  16.523  1.00  0.00     0.013 C 
ATOM     11  C   UNL     1      45.830 130.790  13.858  1.00  0.00    -0.045 C 
ATOM     12  C   UNL     1      45.901 130.219  16.303  1.00  0.00     0.013 C 
ATOM     13  C   UNL     1      46.436 130.599  12.525  1.00  0.00     0.004 C 
ATOM     14  C   UNL     1      46.715 130.682  15.087  1.00  0.00     0.041 C 
ATOM     15  C   UNL     1      47.629 130.009  12.415  1.00  0.00    -0.000 C 
ATOM     16  C   UNL     1      47.895 129.769  14.843  1.00  0.00    -0.019 C 
ATOM     17  C   UNL     1      48.348 129.522  13.607  1.00  0.00    -0.004 C 
ENDBRANCH   7   8
ENDBRANCH   5   7
ENDBRANCH   1   5
TORSDOF 5
ENDMDL
MODEL 6
REMARK VINA RESULT:      -6.9      1.640      2.612
REMARK SMILES C#CCO/C([O-])=C\[C@H]1[CH][C]2C=CC=C[C@@H]2CC1
REMARK SMILES IDX 4 1 3 2 2 3 1 4 5 5 6 6 7 7 8 8 9 9 17 10 10 11 16 12 11 13
REMARK SMILES IDX 15 14 12 15 14 16 13 17
REMARK H PARENT
ROOT
ATOM      1  O   UNL     1      42.100 133.646  15.996  1.00  0.00    -0.601 OA
ENDROOT
BRANCH   1   2
ATOM      2  C   UNL     1      41.603 134.876  16.505  1.00  0.00     0.160 C 
BRANCH   2   3
ATOM      3  C   UNL     1      42.226 135.980  15.774  1.00  0.00    -0.095 C 
ATOM      4  C   UNL     1      42.743 136.887  15.171  1.00  0.00     0.005 C 
ENDBRANCH   2   3
ENDBRANCH   1   2
BRANCH   1   5
ATOM      5  C   UNL     1      42.386 132.551  16.816  1.00  0.00     0.049 C 
ATOM      6  O   UNL     1      41.353 131.776  17.334  1.00  0.00    -0.547 OA
BRANCH   5   7
ATOM      7  C   UNL     1      43.653 132.233  17.105  1.00  0.00     0.004 C 
BRANCH   7   8
ATOM      8  C   UNL     1      44.376 131.055  16.496  1.00  0.00     0.036 C 
ATOM      9  C   UNL     1      44.671 131.302  15.030  1.00  0.00    -0.015 C 
ATOM     10  C   UNL     1      45.627 130.683  17.324  1.00  0.00     0.013 C 
ATOM     11  C   UNL     1      45.863 130.877  14.427  1.00  0.00    -0.045 C 
ATOM     12  C   UNL     1      46.540 129.723  16.553  1.00  0.00     0.013 C 
ATOM     13  C   UNL     1      46.028 130.968  12.962  1.00  0.00     0.004 C 
ATOM     14  C   UNL     1      47.034 130.400  15.268  1.00  0.00     0.041 C 
ATOM     15  C   UNL     1      47.036 130.327  12.366  1.00  0.00    -0.000 C 
ATOM     16  C   UNL     1      47.943 129.481  14.483  1.00  0.00    -0.019 C 
ATOM     17  C   UNL     1      47.982 129.507  13.145  1.00  0.00    -0.004 C 
ENDBRANCH   7   8
ENDBRANCH   5   7
ENDBRANCH   1   5
TORSDOF 5
ENDMDL
MODEL 7
REMARK VINA RESULT:      -6.7      2.402      3.637
REMARK SMILES C#CCO/C([O-])=C\[C@H]1[CH][C]2C=CC=C[C@@H]2CC1
REMARK SMILES IDX 4 1 3 2 2 3 1 4 5 5 6 6 7 7 8 8 9 9 17 10 10 11 16 12 11 13
REMARK SMILES IDX 15 14 12 15 14 16 13 17
REMARK H PARENT
ROOT
ATOM      1  O   UNL     1      39.681 133.159  14.331  1.00  0.00    -0.601 OA
ENDROOT
BRANCH   1   2
ATOM      2  C   UNL     1      38.482 133.898  14.515  1.00  0.00     0.160 C 
BRANCH   2   3
ATOM      3  C   UNL     1      38.209 134.011  15.949  1.00  0.00    -0.095 C 
ATOM      4  C   UNL     1      37.985 134.108  17.129  1.00  0.00     0.005 C 
ENDBRANCH   2   3
ENDBRANCH   1   2
BRANCH   1   5
ATOM      5  C   UNL     1      40.932 133.769  14.205  1.00  0.00     0.049 C 
ATOM      6  O   UNL     1      41.295 134.380  13.008  1.00  0.00    -0.547 OA
BRANCH   5   7
ATOM      7  C   UNL     1      41.789 133.778  15.232  1.00  0.00     0.004 C 
BRANCH   7   8
ATOM      8  C   UNL     1      42.563 132.560  15.681  1.00  0.00     0.036 C 
ATOM      9  C   UNL     1      43.310 131.936  14.520  1.00  0.00    -0.015 C 
ATOM     10  C   UNL     1      43.466 132.891  16.891  1.00  0.00     0.013 C 
ATOM     11  C   UNL     1      44.590 131.382  14.668  1.00  0.00    -0.045 C 
ATOM     12  C   UNL     1      44.487 131.777  17.146  1.00  0.00     0.013 C 
ATOM     13  C   UNL     1      45.200 130.619  13.561  1.00  0.00     0.004 C 
ATOM     14  C   UNL     1      45.404 131.628  15.925  1.00  0.00     0.041 C 
ATOM     15  C   UNL     1      46.284 129.873  13.786  1.00  0.00    -0.000 C 
ATOM     16  C   UNL     1      46.429 130.538  16.145  1.00  0.00    -0.019 C 
ATOM     17  C   UNL     1      46.876 129.780  15.134  1.00  0.00    -0.004 C 
ENDBRANCH   7   8
ENDBRANCH   5   7
ENDBRANCH   1   5
TORSDOF 5
ENDMDL
MODEL 8
REMARK VINA RESULT:      -6.6      2.769      6.245
REMARK SMILES C#CCO/C([O-])=C\[C@H]1[CH][C]2C=CC=C[C@@H]2CC1
REMARK SMILES IDX 4 1 3 2 2 3 1 4 5 5 6 6 7 7 8 8 9 9 17 10 10 11 16 12 11 13
REMARK SMILES IDX 15 14 12 15 14 16 13 17
REMARK H PARENT
ROOT
ATOM      1  O   UNL     1      46.998 130.431  15.385  1.00  0.00    -0.601 OA
ENDROOT
BRANCH   1   2
ATOM      2  C   UNL     1      47.011 131.495  14.444  1.00  0.00     0.160 C 
BRANCH   2   3
ATOM      3  C   UNL     1      47.080 130.934  13.094  1.00  0.00    -0.095 C 
ATOM      4  C   UNL     1      47.141 130.472  11.982  1.00  0.00     0.005 C 
ENDBRANCH   2   3
ENDBRANCH   1   2
BRANCH   1   5
ATOM      5  C   UNL     1      45.849 130.057  16.086  1.00  0.00     0.049 C 
ATOM      6  O   UNL     1      45.232 128.839  15.821  1.00  0.00    -0.547 OA
BRANCH   5   7
ATOM      7  C   UNL     1      45.334 130.863  17.022  1.00  0.00     0.004 C 
BRANCH   7   8
ATOM      8  C   UNL     1      44.136 131.752  16.788  1.00  0.00     0.036 C 
ATOM      9  C   UNL     1      44.383 133.145  17.331  1.00  0.00    -0.015 C 
ATOM     10  C   UNL     1      43.712 131.735  15.301  1.00  0.00     0.013 C 
ATOM     11  C   UNL     1      43.920 134.295  16.674  1.00  0.00    -0.045 C 
ATOM     12  C   UNL     1      42.727 132.866  14.988  1.00  0.00     0.013 C 
ATOM     13  C   UNL     1      44.017 135.614  17.332  1.00  0.00     0.004 C 
ATOM     14  C   UNL     1      43.396 134.221  15.252  1.00  0.00     0.041 C 
ATOM     15  C   UNL     1      43.345 136.655  16.834  1.00  0.00    -0.000 C 
ATOM     16  C   UNL     1      42.451 135.362  14.949  1.00  0.00    -0.019 C 
ATOM     17  C   UNL     1      42.485 136.507  15.644  1.00  0.00    -0.004 C 
ENDBRANCH   7   8
ENDBRANCH   5   7
ENDBRANCH   1   5
TORSDOF 5
ENDMDL
MODEL 9
REMARK VINA RESULT:      -6.6      2.871      6.488
REMARK SMILES C#CCO/C([O-])=C\[C@H]1[CH][C]2C=CC=C[C@@H]2CC1
REMARK SMILES IDX 4 1 3 2 2 3 1 4 5 5 6 6 7 7 8 8 9 9 17 10 10 11 16 12 11 13
REMARK SMILES IDX 15 14 12 15 14 16 13 17
REMARK H PARENT
ROOT
ATOM      1  O   UNL     1      47.632 129.949  15.311  1.00  0.00    -0.601 OA
ENDROOT
BRANCH   1   2
ATOM      2  C   UNL     1      47.880 129.210  14.123  1.00  0.00     0.160 C 
BRANCH   2   3
ATOM      3  C   UNL     1      47.430 129.994  12.972  1.00  0.00    -0.095 C 
ATOM      4  C   UNL     1      47.055 130.640  12.027  1.00  0.00     0.005 C 
ENDBRANCH   2   3
ENDBRANCH   1   2
BRANCH   1   5
ATOM      5  C   UNL     1      46.351 130.351  15.696  1.00  0.00     0.049 C 
ATOM      6  O   UNL     1      45.387 129.401  16.021  1.00  0.00    -0.547 OA
BRANCH   5   7
ATOM      7  C   UNL     1      46.039 131.650  15.763  1.00  0.00     0.004 C 
BRANCH   7   8
ATOM      8  C   UNL     1      44.628 132.161  15.938  1.00  0.00     0.036 C 
ATOM      9  C   UNL     1      44.627 133.630  16.309  1.00  0.00    -0.015 C 
ATOM     10  C   UNL     1      43.761 131.835  14.700  1.00  0.00     0.013 C 
ATOM     11  C   UNL     1      43.662 134.522  15.820  1.00  0.00    -0.045 C 
ATOM     12  C   UNL     1      42.445 132.621  14.718  1.00  0.00     0.013 C 
ATOM     13  C   UNL     1      43.585 135.897  16.354  1.00  0.00     0.004 C 
ATOM     14  C   UNL     1      42.742 134.126  14.680  1.00  0.00     0.041 C 
ATOM     15  C   UNL     1      42.516 136.653  16.091  1.00  0.00    -0.000 C 
ATOM     16  C   UNL     1      41.463 134.933  14.692  1.00  0.00    -0.019 C 
ATOM     17  C   UNL     1      41.394 136.130  15.290  1.00  0.00    -0.004 C 
ENDBRANCH   7   8
ENDBRANCH   5   7
ENDBRANCH   1   5
TORSDOF 5
ENDMDL


