MODEL 1
REMARK VINA RESULT:      -7.4      0.000      0.000
REMARK SMILES Cc1nnn(C/C([O-])=N/c2cccc(C#N)c2C)c1-c1cc2ccccc2c2ccccc12
REMARK SMILES IDX 9 1 10 2 12 3 13 4 11 5 14 6 17 7 18 8 15 9 16 10 7 11 8 12
REMARK SMILES IDX 6 13 5 14 4 15 19 16 3 17 2 18 1 19 20 20 21 21 33 22 22 23
REMARK SMILES IDX 32 24 28 25 23 26 27 27 31 28 29 29 24 30 26 31 30 32 25 33
REMARK H PARENT
ROOT
ATOM      1  N   UNL     1      42.871 133.430  14.809  1.00  0.00    -0.267 NA
ENDROOT
BRANCH   1   2
ATOM      2  C   UNL     1      42.437 134.804  14.826  1.00  0.00     0.066 A 
ATOM      3  C   UNL     1      42.897 137.187  15.029  1.00  0.00     0.004 A 
ATOM      4  C   UNL     1      41.541 137.471  14.891  1.00  0.00     0.020 A 
ATOM      5  C   UNL     1      43.347 135.869  14.982  1.00  0.00     0.028 A 
ATOM      6  C   UNL     1      40.622 136.439  14.680  1.00  0.00     0.057 A 
ATOM      7  C   UNL     1      41.061 135.094  14.639  1.00  0.00    -0.008 A 
ATOM      8  C   UNL     1      40.076 133.988  14.331  1.00  0.00     0.048 C 
BRANCH   6   9
ATOM      9  C   UNL     1      39.232 136.785  14.497  1.00  0.00     0.099 C 
ATOM     10  N   UNL     1      38.118 137.064  14.351  1.00  0.00    -0.192 NA
ENDBRANCH   6   9
ENDBRANCH   1   2
BRANCH   1  11
ATOM     11  C   UNL     1      43.899 132.903  15.409  1.00  0.00    -0.014 C 
ATOM     12  O   UNL     1      45.066 133.626  15.634  1.00  0.00    -0.860 OA
BRANCH  11  13
ATOM     13  C   UNL     1      43.799 131.509  15.943  1.00  0.00     0.186 C 
BRANCH  13  14
ATOM     14  N   UNL     1      44.233 131.479  17.340  1.00  0.00    -0.240 N 
ATOM     15  N   UNL     1      45.265 130.777  17.783  1.00  0.00    -0.066 NA
ATOM     16  C   UNL     1      43.744 132.194  18.371  1.00  0.00     0.092 A 
ATOM     17  N   UNL     1      45.462 131.004  19.076  1.00  0.00    -0.135 NA
ATOM     18  C   UNL     1      44.516 131.879  19.469  1.00  0.00     0.088 A 
ATOM     19  C   UNL     1      44.428 132.479  20.833  1.00  0.00     0.071 C 
BRANCH  16  20
ATOM     20  C   UNL     1      42.640 133.173  18.303  1.00  0.00     0.010 A 
ATOM     21  C   UNL     1      41.355 132.685  18.076  1.00  0.00     0.019 A 
ATOM     22  C   UNL     1      42.856 134.562  18.445  1.00  0.00    -0.008 A 
ATOM     23  C   UNL     1      40.260 133.548  18.009  1.00  0.00    -0.017 A 
ATOM     24  C   UNL     1      44.157 135.070  18.654  1.00  0.00     0.009 A 
ATOM     25  C   UNL     1      41.756 135.468  18.354  1.00  0.00    -0.010 A 
ATOM     26  C   UNL     1      38.979 133.014  17.790  1.00  0.00     0.009 A 
ATOM     27  C   UNL     1      40.437 134.951  18.157  1.00  0.00    -0.010 A 
ATOM     28  C   UNL     1      44.384 136.441  18.732  1.00  0.00     0.001 A 
ATOM     29  C   UNL     1      42.024 136.858  18.436  1.00  0.00     0.009 A 
ATOM     30  C   UNL     1      37.867 133.850  17.722  1.00  0.00     0.001 A 
ATOM     31  C   UNL     1      39.284 135.774  18.095  1.00  0.00     0.009 A 
ATOM     32  C   UNL     1      43.324 137.330  18.616  1.00  0.00     0.001 A 
ATOM     33  C   UNL     1      38.020 135.223  17.878  1.00  0.00     0.001 A 
ENDBRANCH  16  20
ENDBRANCH  13  14
ENDBRANCH  11  13
ENDBRANCH   1  11
TORSDOF 6
ENDMDL
MODEL 2
REMARK VINA RESULT:      -7.4      2.407      4.726
REMARK SMILES Cc1nnn(C/C([O-])=N/c2cccc(C#N)c2C)c1-c1cc2ccccc2c2ccccc12
REMARK SMILES IDX 9 1 10 2 12 3 13 4 11 5 14 6 17 7 18 8 15 9 16 10 7 11 8 12
REMARK SMILES IDX 6 13 5 14 4 15 19 16 3 17 2 18 1 19 20 20 21 21 33 22 22 23
REMARK SMILES IDX 32 24 28 25 23 26 27 27 31 28 29 29 24 30 26 31 30 32 25 33
REMARK H PARENT
ROOT
ATOM      1  N   UNL     1      40.076 133.628  18.167  1.00  0.00    -0.267 NA
ENDROOT
BRANCH   1   2
ATOM      2  C   UNL     1      40.505 133.964  16.834  1.00  0.00     0.066 A 
ATOM      3  C   UNL     1      41.597 133.390  14.733  1.00  0.00     0.004 A 
ATOM      4  C   UNL     1      41.359 134.673  14.248  1.00  0.00     0.020 A 
ATOM      5  C   UNL     1      41.162 133.030  16.008  1.00  0.00     0.028 A 
ATOM      6  C   UNL     1      40.661 135.604  15.024  1.00  0.00     0.057 A 
ATOM      7  C   UNL     1      40.221 135.257  16.324  1.00  0.00    -0.008 A 
ATOM      8  C   UNL     1      39.398 136.238  17.128  1.00  0.00     0.048 C 
BRANCH   6   9
ATOM      9  C   UNL     1      40.399 136.907  14.461  1.00  0.00     0.099 C 
ATOM     10  N   UNL     1      40.189 137.953  14.011  1.00  0.00    -0.192 NA
ENDBRANCH   6   9
ENDBRANCH   1   2
BRANCH   1  11
ATOM     11  C   UNL     1      40.810 133.303  19.192  1.00  0.00    -0.014 C 
ATOM     12  O   UNL     1      40.970 134.157  20.279  1.00  0.00    -0.860 OA
BRANCH  11  13
ATOM     13  C   UNL     1      41.434 131.944  19.244  1.00  0.00     0.186 C 
BRANCH  13  14
ATOM     14  N   UNL     1      42.567 131.952  20.170  1.00  0.00    -0.240 N 
ATOM     15  N   UNL     1      42.455 131.814  21.482  1.00  0.00    -0.066 NA
ATOM     16  C   UNL     1      43.878 132.011  19.869  1.00  0.00     0.092 A 
ATOM     17  N   UNL     1      43.654 131.787  22.052  1.00  0.00    -0.135 NA
ATOM     18  C   UNL     1      44.560 131.919  21.063  1.00  0.00     0.088 A 
ATOM     19  C   UNL     1      46.039 131.847  21.252  1.00  0.00     0.071 C 
BRANCH  16  20
ATOM     20  C   UNL     1      44.454 132.085  18.511  1.00  0.00     0.010 A 
ATOM     21  C   UNL     1      45.119 130.960  18.027  1.00  0.00     0.019 A 
ATOM     22  C   UNL     1      44.361 133.249  17.715  1.00  0.00    -0.008 A 
ATOM     23  C   UNL     1      45.680 130.951  16.749  1.00  0.00    -0.017 A 
ATOM     24  C   UNL     1      43.708 134.402  18.204  1.00  0.00     0.009 A 
ATOM     25  C   UNL     1      44.950 133.274  16.415  1.00  0.00    -0.010 A 
ATOM     26  C   UNL     1      46.331 129.792  16.296  1.00  0.00     0.009 A 
ATOM     27  C   UNL     1      45.597 132.101  15.917  1.00  0.00    -0.010 A 
ATOM     28  C   UNL     1      43.668 135.572  17.450  1.00  0.00     0.001 A 
ATOM     29  C   UNL     1      44.892 134.483  15.677  1.00  0.00     0.009 A 
ATOM     30  C   UNL     1      46.898 129.751  15.024  1.00  0.00     0.001 A 
ATOM     31  C   UNL     1      46.173 132.024  14.624  1.00  0.00     0.009 A 
ATOM     32  C   UNL     1      44.263 135.614  16.197  1.00  0.00     0.001 A 
ATOM     33  C   UNL     1      46.815 130.862  14.191  1.00  0.00     0.001 A 
ENDBRANCH  16  20
ENDBRANCH  13  14
ENDBRANCH  11  13
ENDBRANCH   1  11
TORSDOF 6
ENDMDL
MODEL 3
REMARK VINA RESULT:      -7.3      2.549      5.986
REMARK SMILES Cc1nnn(C/C([O-])=N/c2cccc(C#N)c2C)c1-c1cc2ccccc2c2ccccc12
REMARK SMILES IDX 9 1 10 2 12 3 13 4 11 5 14 6 17 7 18 8 15 9 16 10 7 11 8 12
REMARK SMILES IDX 6 13 5 14 4 15 19 16 3 17 2 18 1 19 20 20 21 21 33 22 22 23
REMARK SMILES IDX 32 24 28 25 23 26 27 27 31 28 29 29 24 30 26 31 30 32 25 33
REMARK H PARENT
ROOT
ATOM      1  N   UNL     1      43.092 131.692  14.575  1.00  0.00    -0.267 NA
ENDROOT
BRANCH   1   2
ATOM      2  C   UNL     1      44.261 131.195  15.255  1.00  0.00     0.066 A 
ATOM      3  C   UNL     1      45.499 130.704  17.295  1.00  0.00     0.004 A 
ATOM      4  C   UNL     1      46.580 130.254  16.542  1.00  0.00     0.020 A 
ATOM      5  C   UNL     1      44.343 131.158  16.662  1.00  0.00     0.028 A 
ATOM      6  C   UNL     1      46.506 130.228  15.146  1.00  0.00     0.057 A 
ATOM      7  C   UNL     1      45.343 130.694  14.487  1.00  0.00    -0.008 A 
ATOM      8  C   UNL     1      45.236 130.590  12.982  1.00  0.00     0.048 C 
BRANCH   6   9
ATOM      9  C   UNL     1      47.634 129.709  14.409  1.00  0.00     0.099 C 
ATOM     10  N   UNL     1      48.539 129.295  13.818  1.00  0.00    -0.192 NA
ENDBRANCH   6   9
ENDBRANCH   1   2
BRANCH   1  11
ATOM     11  C   UNL     1      42.622 132.906  14.561  1.00  0.00    -0.014 C 
ATOM     12  O   UNL     1      41.780 133.354  13.549  1.00  0.00    -0.860 OA
BRANCH  11  13
ATOM     13  C   UNL     1      42.929 133.823  15.703  1.00  0.00     0.186 C 
BRANCH  13  14
ATOM     14  N   UNL     1      41.809 133.837  16.645  1.00  0.00    -0.240 N 
ATOM     15  N   UNL     1      40.628 133.288  16.404  1.00  0.00    -0.066 NA
ATOM     16  C   UNL     1      41.798 134.309  17.906  1.00  0.00     0.092 A 
ATOM     17  N   UNL     1      39.840 133.393  17.467  1.00  0.00    -0.135 NA
ATOM     18  C   UNL     1      40.547 134.038  18.416  1.00  0.00     0.088 A 
ATOM     19  C   UNL     1      40.069 134.286  19.809  1.00  0.00     0.071 C 
BRANCH  16  20
ATOM     20  C   UNL     1      42.938 134.929  18.611  1.00  0.00     0.010 A 
ATOM     21  C   UNL     1      43.652 134.138  19.508  1.00  0.00     0.019 A 
ATOM     22  C   UNL     1      43.304 136.279  18.410  1.00  0.00    -0.008 A 
ATOM     23  C   UNL     1      44.749 134.651  20.204  1.00  0.00    -0.017 A 
ATOM     24  C   UNL     1      42.575 137.097  17.519  1.00  0.00     0.009 A 
ATOM     25  C   UNL     1      44.405 136.835  19.130  1.00  0.00    -0.010 A 
ATOM     26  C   UNL     1      45.447 133.815  21.092  1.00  0.00     0.009 A 
ATOM     27  C   UNL     1      45.152 136.002  20.021  1.00  0.00    -0.010 A 
ATOM     28  C   UNL     1      42.891 138.443  17.365  1.00  0.00     0.001 A 
ATOM     29  C   UNL     1      44.698 138.210  18.949  1.00  0.00     0.009 A 
ATOM     30  C   UNL     1      46.547 134.297  21.797  1.00  0.00     0.001 A 
ATOM     31  C   UNL     1      46.282 136.458  20.744  1.00  0.00     0.009 A 
ATOM     32  C   UNL     1      43.943 138.998  18.081  1.00  0.00     0.001 A 
ATOM     33  C   UNL     1      46.964 135.612  21.620  1.00  0.00     0.001 A 
ENDBRANCH  16  20
ENDBRANCH  13  14
ENDBRANCH  11  13
ENDBRANCH   1  11
TORSDOF 6
ENDMDL
MODEL 4
REMARK VINA RESULT:      -7.3      2.138      4.995
REMARK SMILES Cc1nnn(C/C([O-])=N/c2cccc(C#N)c2C)c1-c1cc2ccccc2c2ccccc12
REMARK SMILES IDX 9 1 10 2 12 3 13 4 11 5 14 6 17 7 18 8 15 9 16 10 7 11 8 12
REMARK SMILES IDX 6 13 5 14 4 15 19 16 3 17 2 18 1 19 20 20 21 21 33 22 22 23
REMARK SMILES IDX 32 24 28 25 23 26 27 27 31 28 29 29 24 30 26 31 30 32 25 33
REMARK H PARENT
ROOT
ATOM      1  N   UNL     1      42.890 136.598  15.206  1.00  0.00    -0.267 NA
ENDROOT
BRANCH   1   2
ATOM      2  C   UNL     1      41.601 136.225  14.682  1.00  0.00     0.066 A 
ATOM      3  C   UNL     1      40.083 134.587  13.709  1.00  0.00     0.004 A 
ATOM      4  C   UNL     1      39.080 135.549  13.631  1.00  0.00     0.020 A 
ATOM      5  C   UNL     1      41.329 134.914  14.242  1.00  0.00     0.028 A 
ATOM      6  C   UNL     1      39.303 136.843  14.110  1.00  0.00     0.057 A 
ATOM      7  C   UNL     1      40.566 137.194  14.647  1.00  0.00    -0.008 A 
ATOM      8  C   UNL     1      40.778 138.570  15.236  1.00  0.00     0.048 C 
BRANCH   6   9
ATOM      9  C   UNL     1      38.218 137.793  14.050  1.00  0.00     0.099 C 
ATOM     10  N   UNL     1      37.349 138.556  14.001  1.00  0.00    -0.192 NA
ENDBRANCH   6   9
ENDBRANCH   1   2
BRANCH   1  11
ATOM     11  C   UNL     1      43.681 135.901  15.971  1.00  0.00    -0.014 C 
ATOM     12  O   UNL     1      44.785 135.226  15.461  1.00  0.00    -0.860 OA
BRANCH  11  13
ATOM     13  C   UNL     1      43.448 135.889  17.449  1.00  0.00     0.186 C 
BRANCH  13  14
ATOM     14  N   UNL     1      42.241 135.122  17.757  1.00  0.00    -0.240 N 
ATOM     15  N   UNL     1      41.062 135.664  18.021  1.00  0.00    -0.066 NA
ATOM     16  C   UNL     1      42.090 133.784  17.744  1.00  0.00     0.092 A 
ATOM     17  N   UNL     1      40.143 134.721  18.189  1.00  0.00    -0.135 NA
ATOM     18  C   UNL     1      40.765 133.536  18.030  1.00  0.00     0.088 A 
ATOM     19  C   UNL     1      40.079 132.210  18.044  1.00  0.00     0.071 C 
BRANCH  16  20
ATOM     20  C   UNL     1      43.135 132.795  17.413  1.00  0.00     0.010 A 
ATOM     21  C   UNL     1      43.249 132.392  16.084  1.00  0.00     0.019 A 
ATOM     22  C   UNL     1      43.994 132.249  18.393  1.00  0.00    -0.008 A 
ATOM     23  C   UNL     1      44.220 131.469  15.692  1.00  0.00    -0.017 A 
ATOM     24  C   UNL     1      43.874 132.633  19.747  1.00  0.00     0.009 A 
ATOM     25  C   UNL     1      44.978 131.283  18.023  1.00  0.00    -0.010 A 
ATOM     26  C   UNL     1      44.307 131.099  14.340  1.00  0.00     0.009 A 
ATOM     27  C   UNL     1      45.107 130.906  16.650  1.00  0.00    -0.010 A 
ATOM     28  C   UNL     1      44.674 132.052  20.727  1.00  0.00     0.001 A 
ATOM     29  C   UNL     1      45.774 130.711  19.047  1.00  0.00     0.009 A 
ATOM     30  C   UNL     1      45.268 130.184  13.918  1.00  0.00     0.001 A 
ATOM     31  C   UNL     1      46.082 129.986  16.188  1.00  0.00     0.009 A 
ATOM     32  C   UNL     1      45.614 131.092  20.379  1.00  0.00     0.001 A 
ATOM     33  C   UNL     1      46.153 129.633  14.839  1.00  0.00     0.001 A 
ENDBRANCH  16  20
ENDBRANCH  13  14
ENDBRANCH  11  13
ENDBRANCH   1  11
TORSDOF 6
ENDMDL
MODEL 5
REMARK VINA RESULT:      -7.2      1.091      1.709
REMARK SMILES Cc1nnn(C/C([O-])=N/c2cccc(C#N)c2C)c1-c1cc2ccccc2c2ccccc12
REMARK SMILES IDX 9 1 10 2 12 3 13 4 11 5 14 6 17 7 18 8 15 9 16 10 7 11 8 12
REMARK SMILES IDX 6 13 5 14 4 15 19 16 3 17 2 18 1 19 20 20 21 21 33 22 22 23
REMARK SMILES IDX 32 24 28 25 23 26 27 27 31 28 29 29 24 30 26 31 30 32 25 33
REMARK H PARENT
ROOT
ATOM      1  N   UNL     1      43.467 133.547  14.668  1.00  0.00    -0.267 NA
ENDROOT
BRANCH   1   2
ATOM      2  C   UNL     1      42.218 134.257  14.561  1.00  0.00     0.066 A 
ATOM      3  C   UNL     1      39.829 134.318  14.089  1.00  0.00     0.004 A 
ATOM      4  C   UNL     1      39.807 135.690  14.326  1.00  0.00     0.020 A 
ATOM      5  C   UNL     1      41.018 133.602  14.219  1.00  0.00     0.028 A 
ATOM      6  C   UNL     1      40.971 136.357  14.720  1.00  0.00     0.057 A 
ATOM      7  C   UNL     1      42.189 135.646  14.847  1.00  0.00    -0.008 A 
ATOM      8  C   UNL     1      43.426 136.355  15.351  1.00  0.00     0.048 C 
BRANCH   6   9
ATOM      9  C   UNL     1      40.890 137.771  14.999  1.00  0.00     0.099 C 
ATOM     10  N   UNL     1      40.826 138.905  15.221  1.00  0.00    -0.192 NA
ENDBRANCH   6   9
ENDBRANCH   1   2
BRANCH   1  11
ATOM     11  C   UNL     1      43.821 132.670  15.562  1.00  0.00    -0.014 C 
ATOM     12  O   UNL     1      43.376 131.352  15.512  1.00  0.00    -0.860 OA
BRANCH  11  13
ATOM     13  C   UNL     1      44.795 133.062  16.628  1.00  0.00     0.186 C 
BRANCH  13  14
ATOM     14  N   UNL     1      44.481 132.361  17.873  1.00  0.00    -0.240 N 
ATOM     15  N   UNL     1      45.262 131.448  18.430  1.00  0.00    -0.066 NA
ATOM     16  C   UNL     1      43.431 132.564  18.691  1.00  0.00     0.092 A 
ATOM     17  N   UNL     1      44.753 131.042  19.586  1.00  0.00    -0.135 NA
ATOM     18  C   UNL     1      43.601 131.719  19.766  1.00  0.00     0.088 A 
ATOM     19  C   UNL     1      42.750 131.635  20.990  1.00  0.00     0.071 C 
BRANCH  16  20
ATOM     20  C   UNL     1      42.356 133.557  18.494  1.00  0.00     0.010 A 
ATOM     21  C   UNL     1      41.117 133.092  18.059  1.00  0.00     0.019 A 
ATOM     22  C   UNL     1      42.555 134.938  18.717  1.00  0.00    -0.008 A 
ATOM     23  C   UNL     1      40.048 133.968  17.860  1.00  0.00    -0.017 A 
ATOM     24  C   UNL     1      43.812 135.424  19.138  1.00  0.00     0.009 A 
ATOM     25  C   UNL     1      41.486 135.859  18.495  1.00  0.00    -0.010 A 
ATOM     26  C   UNL     1      38.813 133.456  17.432  1.00  0.00     0.009 A 
ATOM     27  C   UNL     1      40.209 135.363  18.084  1.00  0.00    -0.010 A 
ATOM     28  C   UNL     1      44.033 136.789  19.298  1.00  0.00     0.001 A 
ATOM     29  C   UNL     1      41.746 137.241  18.667  1.00  0.00     0.009 A 
ATOM     30  C   UNL     1      37.728 134.305  17.229  1.00  0.00     0.001 A 
ATOM     31  C   UNL     1      39.083 136.200  17.880  1.00  0.00     0.009 A 
ATOM     32  C   UNL     1      43.007 137.693  19.058  1.00  0.00     0.001 A 
ATOM     33  C   UNL     1      37.863 135.671  17.455  1.00  0.00     0.001 A 
ENDBRANCH  16  20
ENDBRANCH  13  14
ENDBRANCH  11  13
ENDBRANCH   1  11
TORSDOF 6
ENDMDL
MODEL 6
REMARK VINA RESULT:      -7.0      1.090      3.182
REMARK SMILES Cc1nnn(C/C([O-])=N/c2cccc(C#N)c2C)c1-c1cc2ccccc2c2ccccc12
REMARK SMILES IDX 9 1 10 2 12 3 13 4 11 5 14 6 17 7 18 8 15 9 16 10 7 11 8 12
REMARK SMILES IDX 6 13 5 14 4 15 19 16 3 17 2 18 1 19 20 20 21 21 33 22 22 23
REMARK SMILES IDX 32 24 28 25 23 26 27 27 31 28 29 29 24 30 26 31 30 32 25 33
REMARK H PARENT
ROOT
ATOM      1  N   UNL     1      43.109 133.874  14.576  1.00  0.00    -0.267 NA
ENDROOT
BRANCH   1   2
ATOM      2  C   UNL     1      42.510 135.172  14.757  1.00  0.00     0.066 A 
ATOM      3  C   UNL     1      42.687 137.574  15.122  1.00  0.00     0.004 A 
ATOM      4  C   UNL     1      41.300 137.682  15.145  1.00  0.00     0.020 A 
ATOM      5  C   UNL     1      43.291 136.334  14.916  1.00  0.00     0.028 A 
ATOM      6  C   UNL     1      40.500 136.555  14.936  1.00  0.00     0.057 A 
ATOM      7  C   UNL     1      41.097 135.288  14.734  1.00  0.00    -0.008 A 
ATOM      8  C   UNL     1      40.231 134.086  14.429  1.00  0.00     0.048 C 
BRANCH   6   9
ATOM      9  C   UNL     1      39.066 136.725  14.923  1.00  0.00     0.099 C 
ATOM     10  N   UNL     1      37.917 136.861  14.911  1.00  0.00    -0.192 NA
ENDBRANCH   6   9
ENDBRANCH   1   2
BRANCH   1  11
ATOM     11  C   UNL     1      43.402 132.989  15.485  1.00  0.00    -0.014 C 
ATOM     12  O   UNL     1      42.540 131.941  15.791  1.00  0.00    -0.860 OA
BRANCH  11  13
ATOM     13  C   UNL     1      44.735 133.048  16.163  1.00  0.00     0.186 C 
BRANCH  13  14
ATOM     14  N   UNL     1      44.617 132.561  17.537  1.00  0.00    -0.240 N 
ATOM     15  N   UNL     1      45.099 131.403  17.959  1.00  0.00    -0.066 NA
ATOM     16  C   UNL     1      44.098 133.207  18.599  1.00  0.00     0.092 A 
ATOM     17  N   UNL     1      44.906 131.265  19.265  1.00  0.00    -0.135 NA
ATOM     18  C   UNL     1      44.271 132.378  19.686  1.00  0.00     0.088 A 
ATOM     19  C   UNL     1      43.943 132.679  21.111  1.00  0.00     0.071 C 
BRANCH  16  20
ATOM     20  C   UNL     1      43.524 134.567  18.592  1.00  0.00     0.010 A 
ATOM     21  C   UNL     1      44.405 135.642  18.695  1.00  0.00     0.019 A 
ATOM     22  C   UNL     1      42.133 134.799  18.500  1.00  0.00    -0.008 A 
ATOM     23  C   UNL     1      43.939 136.958  18.686  1.00  0.00    -0.017 A 
ATOM     24  C   UNL     1      41.229 133.717  18.417  1.00  0.00     0.009 A 
ATOM     25  C   UNL     1      41.629 136.134  18.515  1.00  0.00    -0.010 A 
ATOM     26  C   UNL     1      44.862 138.012  18.780  1.00  0.00     0.009 A 
ATOM     27  C   UNL     1      42.547 137.229  18.585  1.00  0.00    -0.010 A 
ATOM     28  C   UNL     1      39.855 133.936  18.390  1.00  0.00     0.001 A 
ATOM     29  C   UNL     1      40.224 136.320  18.488  1.00  0.00     0.009 A 
ATOM     30  C   UNL     1      44.427 139.335  18.769  1.00  0.00     0.001 A 
ATOM     31  C   UNL     1      42.137 138.586  18.564  1.00  0.00     0.009 A 
ATOM     32  C   UNL     1      39.355 135.231  18.432  1.00  0.00     0.001 A 
ATOM     33  C   UNL     1      43.071 139.619  18.658  1.00  0.00     0.001 A 
ENDBRANCH  16  20
ENDBRANCH  13  14
ENDBRANCH  11  13
ENDBRANCH   1  11
TORSDOF 6
ENDMDL
MODEL 7
REMARK VINA RESULT:      -6.9      1.325      3.512
REMARK SMILES Cc1nnn(C/C([O-])=N/c2cccc(C#N)c2C)c1-c1cc2ccccc2c2ccccc12
REMARK SMILES IDX 9 1 10 2 12 3 13 4 11 5 14 6 17 7 18 8 15 9 16 10 7 11 8 12
REMARK SMILES IDX 6 13 5 14 4 15 19 16 3 17 2 18 1 19 20 20 21 21 33 22 22 23
REMARK SMILES IDX 32 24 28 25 23 26 27 27 31 28 29 29 24 30 26 31 30 32 25 33
REMARK H PARENT
ROOT
ATOM      1  N   UNL     1      42.856 133.391  14.624  1.00  0.00    -0.267 NA
ENDROOT
BRANCH   1   2
ATOM      2  C   UNL     1      41.730 134.289  14.620  1.00  0.00     0.066 A 
ATOM      3  C   UNL     1      39.333 134.709  14.508  1.00  0.00     0.004 A 
ATOM      4  C   UNL     1      39.560 136.080  14.577  1.00  0.00     0.020 A 
ATOM      5  C   UNL     1      40.404 133.817  14.544  1.00  0.00     0.028 A 
ATOM      6  C   UNL     1      40.861 136.575  14.709  1.00  0.00     0.057 A 
ATOM      7  C   UNL     1      41.961 135.684  14.737  1.00  0.00    -0.008 A 
ATOM      8  C   UNL     1      43.358 136.217  14.959  1.00  0.00     0.048 C 
BRANCH   6   9
ATOM      9  C   UNL     1      41.044 138.003  14.822  1.00  0.00     0.099 C 
ATOM     10  N   UNL     1      41.190 139.147  14.915  1.00  0.00    -0.192 NA
ENDBRANCH   6   9
ENDBRANCH   1   2
BRANCH   1  11
ATOM     11  C   UNL     1      43.265 132.615  15.586  1.00  0.00    -0.014 C 
ATOM     12  O   UNL     1      42.523 131.515  16.004  1.00  0.00    -0.860 OA
BRANCH  11  13
ATOM     13  C   UNL     1      44.603 132.860  16.208  1.00  0.00     0.186 C 
BRANCH  13  14
ATOM     14  N   UNL     1      44.570 132.494  17.623  1.00  0.00    -0.240 N 
ATOM     15  N   UNL     1      45.086 131.377  18.115  1.00  0.00    -0.066 NA
ATOM     16  C   UNL     1      44.109 133.227  18.655  1.00  0.00     0.092 A 
ATOM     17  N   UNL     1      44.971 131.353  19.436  1.00  0.00    -0.135 NA
ATOM     18  C   UNL     1      44.353 132.495  19.797  1.00  0.00     0.088 A 
ATOM     19  C   UNL     1      44.106 132.918  21.207  1.00  0.00     0.071 C 
BRANCH  16  20
ATOM     20  C   UNL     1      43.525 134.580  18.565  1.00  0.00     0.010 A 
ATOM     21  C   UNL     1      44.393 135.667  18.645  1.00  0.00     0.019 A 
ATOM     22  C   UNL     1      42.136 134.793  18.417  1.00  0.00    -0.008 A 
ATOM     23  C   UNL     1      43.917 136.976  18.558  1.00  0.00    -0.017 A 
ATOM     24  C   UNL     1      41.244 133.700  18.356  1.00  0.00     0.009 A 
ATOM     25  C   UNL     1      41.620 136.123  18.352  1.00  0.00    -0.010 A 
ATOM     26  C   UNL     1      44.828 138.043  18.632  1.00  0.00     0.009 A 
ATOM     27  C   UNL     1      42.527 137.228  18.399  1.00  0.00    -0.010 A 
ATOM     28  C   UNL     1      39.869 133.904  18.274  1.00  0.00     0.001 A 
ATOM     29  C   UNL     1      40.216 136.294  18.271  1.00  0.00     0.009 A 
ATOM     30  C   UNL     1      44.383 139.359  18.544  1.00  0.00     0.001 A 
ATOM     31  C   UNL     1      42.107 138.579  18.301  1.00  0.00     0.009 A 
ATOM     32  C   UNL     1      39.358 135.194  18.239  1.00  0.00     0.001 A 
ATOM     33  C   UNL     1      43.028 139.625  18.376  1.00  0.00     0.001 A 
ENDBRANCH  16  20
ENDBRANCH  13  14
ENDBRANCH  11  13
ENDBRANCH   1  11
TORSDOF 6
ENDMDL
MODEL 8
REMARK VINA RESULT:      -6.9      2.601      5.285
REMARK SMILES Cc1nnn(C/C([O-])=N/c2cccc(C#N)c2C)c1-c1cc2ccccc2c2ccccc12
REMARK SMILES IDX 9 1 10 2 12 3 13 4 11 5 14 6 17 7 18 8 15 9 16 10 7 11 8 12
REMARK SMILES IDX 6 13 5 14 4 15 19 16 3 17 2 18 1 19 20 20 21 21 33 22 22 23
REMARK SMILES IDX 32 24 28 25 23 26 27 27 31 28 29 29 24 30 26 31 30 32 25 33
REMARK H PARENT
ROOT
ATOM      1  N   UNL     1      42.779 131.435  16.252  1.00  0.00    -0.267 NA
ENDROOT
BRANCH   1   2
ATOM      2  C   UNL     1      44.140 131.038  15.994  1.00  0.00     0.066 A 
ATOM      3  C   UNL     1      46.334 130.308  16.761  1.00  0.00     0.004 A 
ATOM      4  C   UNL     1      46.801 130.305  15.449  1.00  0.00     0.020 A 
ATOM      5  C   UNL     1      45.012 130.656  17.034  1.00  0.00     0.028 A 
ATOM      6  C   UNL     1      45.944 130.626  14.393  1.00  0.00     0.057 A 
ATOM      7  C   UNL     1      44.601 130.991  14.654  1.00  0.00    -0.008 A 
ATOM      8  C   UNL     1      43.656 131.260  13.504  1.00  0.00     0.048 C 
BRANCH   6   9
ATOM      9  C   UNL     1      46.462 130.566  13.047  1.00  0.00     0.099 C 
ATOM     10  N   UNL     1      46.875 130.516  11.967  1.00  0.00    -0.192 NA
ENDBRANCH   6   9
ENDBRANCH   1   2
BRANCH   1  11
ATOM     11  C   UNL     1      42.313 132.099  17.270  1.00  0.00    -0.014 C 
ATOM     12  O   UNL     1      41.263 131.614  18.044  1.00  0.00    -0.860 OA
BRANCH  11  13
ATOM     13  C   UNL     1      42.972 133.381  17.672  1.00  0.00     0.186 C 
BRANCH  13  14
ATOM     14  N   UNL     1      42.149 134.075  18.663  1.00  0.00    -0.240 N 
ATOM     15  N   UNL     1      42.346 134.009  19.971  1.00  0.00    -0.066 NA
ATOM     16  C   UNL     1      41.140 134.938  18.438  1.00  0.00     0.092 A 
ATOM     17  N   UNL     1      41.492 134.798  20.611  1.00  0.00    -0.135 NA
ATOM     18  C   UNL     1      40.720 135.382  19.673  1.00  0.00     0.088 A 
ATOM     19  C   UNL     1      39.684 136.420  19.953  1.00  0.00     0.071 C 
BRANCH  16  20
ATOM     20  C   UNL     1      40.644 135.368  17.115  1.00  0.00     0.010 A 
ATOM     21  C   UNL     1      39.627 134.618  16.530  1.00  0.00     0.019 A 
ATOM     22  C   UNL     1      41.175 136.490  16.439  1.00  0.00    -0.008 A 
ATOM     23  C   UNL     1      39.099 134.968  15.285  1.00  0.00    -0.017 A 
ATOM     24  C   UNL     1      42.221 137.245  17.013  1.00  0.00     0.009 A 
ATOM     25  C   UNL     1      40.671 136.853  15.154  1.00  0.00    -0.010 A 
ATOM     26  C   UNL     1      38.066 134.190  14.736  1.00  0.00     0.009 A 
ATOM     27  C   UNL     1      39.602 136.095  14.581  1.00  0.00    -0.010 A 
ATOM     28  C   UNL     1      42.791 138.312  16.324  1.00  0.00     0.001 A 
ATOM     29  C   UNL     1      41.276 137.944  14.481  1.00  0.00     0.009 A 
ATOM     30  C   UNL     1      37.517 134.518  13.499  1.00  0.00     0.001 A 
ATOM     31  C   UNL     1      39.014 136.409  13.329  1.00  0.00     0.009 A 
ATOM     32  C   UNL     1      42.326 138.655  15.063  1.00  0.00     0.001 A 
ATOM     33  C   UNL     1      37.988 135.625  12.801  1.00  0.00     0.001 A 
ENDBRANCH  16  20
ENDBRANCH  13  14
ENDBRANCH  11  13
ENDBRANCH   1  11
TORSDOF 6
ENDMDL
MODEL 9
REMARK VINA RESULT:      -6.8      2.611      5.245
REMARK SMILES Cc1nnn(C/C([O-])=N/c2cccc(C#N)c2C)c1-c1cc2ccccc2c2ccccc12
REMARK SMILES IDX 9 1 10 2 12 3 13 4 11 5 14 6 17 7 18 8 15 9 16 10 7 11 8 12
REMARK SMILES IDX 6 13 5 14 4 15 19 16 3 17 2 18 1 19 20 20 21 21 33 22 22 23
REMARK SMILES IDX 32 24 28 25 23 26 27 27 31 28 29 29 24 30 26 31 30 32 25 33
REMARK H PARENT
ROOT
ATOM      1  N   UNL     1      40.219 134.209  16.843  1.00  0.00    -0.267 NA
ENDROOT
BRANCH   1   2
ATOM      2  C   UNL     1      39.507 134.648  15.670  1.00  0.00     0.066 A 
ATOM      3  C   UNL     1      37.937 134.251  13.851  1.00  0.00     0.004 A 
ATOM      4  C   UNL     1      38.166 135.533  13.361  1.00  0.00     0.020 A 
ATOM      5  C   UNL     1      38.589 133.813  15.003  1.00  0.00     0.028 A 
ATOM      6  C   UNL     1      39.030 136.403  14.033  1.00  0.00     0.057 A 
ATOM      7  C   UNL     1      39.707 135.971  15.199  1.00  0.00    -0.008 A 
ATOM      8  C   UNL     1      40.578 136.939  15.967  1.00  0.00     0.048 C 
BRANCH   6   9
ATOM      9  C   UNL     1      39.200 137.739  13.513  1.00  0.00     0.099 C 
ATOM     10  N   UNL     1      39.337 138.810  13.097  1.00  0.00    -0.192 NA
ENDBRANCH   6   9
ENDBRANCH   1   2
BRANCH   1  11
ATOM     11  C   UNL     1      39.747 133.980  18.034  1.00  0.00    -0.014 C 
ATOM     12  O   UNL     1      38.405 133.678  18.244  1.00  0.00    -0.860 OA
BRANCH  11  13
ATOM     13  C   UNL     1      40.682 133.960  19.202  1.00  0.00     0.186 C 
BRANCH  13  14
ATOM     14  N   UNL     1      41.601 135.095  19.124  1.00  0.00    -0.240 N 
ATOM     15  N   UNL     1      41.288 136.332  19.477  1.00  0.00    -0.066 NA
ATOM     16  C   UNL     1      42.902 135.080  18.777  1.00  0.00     0.092 A 
ATOM     17  N   UNL     1      42.342 137.130  19.366  1.00  0.00    -0.135 NA
ATOM     18  C   UNL     1      43.362 136.371  18.919  1.00  0.00     0.088 A 
ATOM     19  C   UNL     1      44.764 136.852  18.742  1.00  0.00     0.071 C 
BRANCH  16  20
ATOM     20  C   UNL     1      43.684 133.887  18.392  1.00  0.00     0.010 A 
ATOM     21  C   UNL     1      43.860 133.639  17.032  1.00  0.00     0.019 A 
ATOM     22  C   UNL     1      44.234 133.005  19.350  1.00  0.00    -0.008 A 
ATOM     23  C   UNL     1      44.596 132.538  16.591  1.00  0.00    -0.017 A 
ATOM     24  C   UNL     1      44.044 133.234  20.730  1.00  0.00     0.009 A 
ATOM     25  C   UNL     1      44.968 131.857  18.924  1.00  0.00    -0.010 A 
ATOM     26  C   UNL     1      44.758 132.331  15.211  1.00  0.00     0.009 A 
ATOM     27  C   UNL     1      45.171 131.634  17.526  1.00  0.00    -0.010 A 
ATOM     28  C   UNL     1      44.528 132.335  21.676  1.00  0.00     0.001 A 
ATOM     29  C   UNL     1      45.445 130.962  19.914  1.00  0.00     0.009 A 
ATOM     30  C   UNL     1      45.490 131.244  14.742  1.00  0.00     0.001 A 
ATOM     31  C   UNL     1      45.921 130.544  17.017  1.00  0.00     0.009 A 
ATOM     32  C   UNL     1      45.219 131.202  21.269  1.00  0.00     0.001 A 
ATOM     33  C   UNL     1      46.072 130.356  15.641  1.00  0.00     0.001 A 
ENDBRANCH  16  20
ENDBRANCH  13  14
ENDBRANCH  11  13
ENDBRANCH   1  11
TORSDOF 6
ENDMDL


