REMARK SMILES C#CCO[C@]1(O)O[C@H]1[C@H]1CC[C@@H]2C(=O)N([O-])C(=O)c3ccc(N=[N+]=[N-])c1c32
REMARK SMILES IDX 5 1 7 2 8 3 4 4 3 5 2 6 1 7 6 8 9 10 26 11 10 12 22 13 27 14
REMARK SMILES IDX 11 15 21 16 19 17 12 18 20 19 17 20 13 21 15 22 18 23 14 24
REMARK SMILES IDX 16 25 23 26 24 27 25 28
REMARK H PARENT 6 9
ROOT
ATOM      1  C   UNL     1      -0.082  -1.932   3.341  1.00  0.00     0.310 C 
ATOM      2  O   UNL     1       0.240  -0.619   3.740  1.00  0.00    -0.313 OA
ATOM      3  C   UNL     1       0.039  -0.827   2.357  1.00  0.00     0.222 C 
ENDROOT
BRANCH   1   4
ATOM      4  O   UNL     1      -1.359  -2.310   3.796  1.00  0.00    -0.312 OA
BRANCH   4   5
ATOM      5  C   UNL     1      -1.879  -3.263   2.898  1.00  0.00     0.255 C 
BRANCH   5   6
ATOM      6  C   UNL     1      -3.221  -3.645   3.337  1.00  0.00    -0.078 C 
ATOM      7  C   UNL     1      -4.327  -3.960   3.699  1.00  0.00     0.006 C 
ENDBRANCH   5   6
ENDBRANCH   4   5
ENDBRANCH   1   4
BRANCH   1   8
ATOM      8  O   UNL     1       0.984  -2.813   3.564  1.00  0.00    -0.341 OA
ATOM      9  H   UNL     1       1.005  -2.964   4.544  1.00  0.00     0.216 HD
ENDBRANCH   1   8
BRANCH   3  10
ATOM     10  C   UNL     1       1.354  -0.726   1.562  1.00  0.00     0.058 C 
ATOM     11  C   UNL     1       1.559   0.685   1.051  1.00  0.00    -0.028 A 
ATOM     12  C   UNL     1       1.386  -1.720   0.388  1.00  0.00     0.012 C 
ATOM     13  C   UNL     1       2.342   1.613   1.775  1.00  0.00     0.041 A 
ATOM     14  C   UNL     1       0.948   1.071  -0.166  1.00  0.00    -0.019 A 
ATOM     15  C   UNL     1       0.471  -1.351  -0.801  1.00  0.00     0.019 C 
ATOM     16  C   UNL     1       2.538   2.902   1.255  1.00  0.00     0.011 A 
ATOM     17  C   UNL     1       1.160   2.371  -0.672  1.00  0.00     0.043 A 
ATOM     18  C   UNL     1      -0.038   0.113  -0.820  1.00  0.00     0.109 C 
ATOM     19  C   UNL     1       1.963   3.272   0.043  1.00  0.00     0.014 A 
ATOM     20  C   UNL     1       0.552   2.775  -1.955  1.00  0.00     0.250 C 
ATOM     21  C   UNL     1      -0.450   0.514  -2.219  1.00  0.00     0.226 C 
ATOM     22  N   UNL     1      -0.195   1.829  -2.720  1.00  0.00    -0.351 N 
ATOM     23  O   UNL     1       0.702   3.949  -2.391  1.00  0.00    -0.269 OA
ATOM     24  O   UNL     1      -1.103  -0.299  -2.929  1.00  0.00    -0.275 OA
ATOM     25  O   UNL     1      -0.673   2.185  -3.937  1.00  0.00    -0.749 OA
BRANCH  13  26
ATOM     26  N   UNL     1       2.921   1.231   3.033  1.00  0.00    -0.060 NA
BRANCH  26  27
ATOM     27  N   UNL     1       3.605   2.001   3.709  1.00  0.00     0.005 N 
ATOM     28  N   UNL     1       4.288   2.768   4.386  1.00  0.00    -0.003 NA
ENDBRANCH  26  27
ENDBRANCH  13  26
ENDBRANCH   3  10
TORSDOF 7


