REMARK SMILES C[N+]1(C)Cc2cc3ccc(-n4cc(CCN5C[C@@H](CN=[N+]=[N-])CN5C(=O)c5ccc(N)cc5)n[nH+]4)cc3cc2C1
REMARK SMILES IDX 24 1 16 2 17 3 18 4 23 5 25 6 26 7 27 8 28 9 29 10 30 11
REMARK SMILES IDX 33 12 32 13 31 14 15 17 14 18 13 19 34 20 12 21 35 22 11 23
REMARK SMILES IDX 10 25 9 26 36 27 8 28 37 29 7 30 38 31 6 32 39 33 5 34 40 35
REMARK SMILES IDX 4 36 2 37 1 38 3 39 19 40 20 41 21 42 22 43
REMARK H PARENT 31 15 31 16 35 24
ROOT
ATOM      1  N   UNL     1       0.812   4.890   2.197  1.00  0.00    -0.271 N 
ATOM      2  N   UNL     1      -0.533   4.479   2.135  1.00  0.00    -0.218 NA
ATOM      3  C   UNL     1      -1.297   5.737   2.076  1.00  0.00     0.114 C 
ATOM      4  C   UNL     1      -0.343   6.832   1.579  1.00  0.00     0.032 C 
ATOM      5  C   UNL     1       1.036   6.298   1.933  1.00  0.00     0.145 C 
ENDROOT
BRANCH   1   6
ATOM      6  C   UNL     1       1.871   4.015   2.629  1.00  0.00     0.268 C 
ATOM      7  O   UNL     1       3.067   4.319   2.368  1.00  0.00    -0.268 OA
BRANCH   6   8
ATOM      8  C   UNL     1       1.590   2.758   3.358  1.00  0.00     0.041 A 
ATOM      9  C   UNL     1       2.406   1.631   3.156  1.00  0.00     0.016 A 
ATOM     10  C   UNL     1       2.152   0.440   3.843  1.00  0.00     0.026 A 
ATOM     11  C   UNL     1       1.089   0.362   4.752  1.00  0.00     0.031 A 
ATOM     12  C   UNL     1       0.536   2.680   4.284  1.00  0.00     0.016 A 
ATOM     13  C   UNL     1       0.284   1.489   4.972  1.00  0.00     0.026 A 
BRANCH  11  14
ATOM     14  N   UNL     1       0.829  -0.857   5.454  1.00  0.00    -0.399 N 
ATOM     15  H   UNL     1       0.032  -0.927   6.125  1.00  0.00     0.156 HD
ATOM     16  H   UNL     1       1.425  -1.701   5.299  1.00  0.00     0.156 HD
ENDBRANCH  11  14
ENDBRANCH   6   8
ENDBRANCH   1   6
BRANCH   2  17
ATOM     17  C   UNL     1      -0.724   3.668   0.916  1.00  0.00     0.115 C 
BRANCH  17  18
ATOM     18  C   UNL     1      -1.970   2.790   1.058  1.00  0.00     0.082 C 
BRANCH  18  19
ATOM     19  C   UNL     1      -2.189   1.986  -0.183  1.00  0.00     0.134 A 
ATOM     20  N   UNL     1      -2.734   2.471  -1.317  1.00  0.00     0.020 NA
ATOM     21  C   UNL     1      -1.813   0.676  -0.400  1.00  0.00     0.190 A 
ATOM     22  N   UNL     1      -2.708   1.477  -2.191  1.00  0.00    -0.012 N 
ATOM     23  N   UNL     1      -2.161   0.387  -1.669  1.00  0.00    -0.104 N 
ATOM     24  H   UNL     1      -3.048   1.567  -3.174  1.00  0.00     0.527 HD
BRANCH  23  25
ATOM     25  C   UNL     1      -1.985  -0.866  -2.359  1.00  0.00     0.107 A 
ATOM     26  C   UNL     1      -2.852  -1.227  -3.406  1.00  0.00     0.033 A 
ATOM     27  C   UNL     1      -0.949  -1.746  -1.992  1.00  0.00     0.041 A 
ATOM     28  C   UNL     1      -2.693  -2.440  -4.080  1.00  0.00     0.011 A 
ATOM     29  C   UNL     1      -0.779  -2.966  -2.663  1.00  0.00    -0.016 A 
ATOM     30  C   UNL     1      -1.664  -3.317  -3.721  1.00  0.00    -0.018 A 
ATOM     31  C   UNL     1       0.261  -3.845  -2.301  1.00  0.00     0.019 A 
ATOM     32  C   UNL     1      -1.496  -4.541  -4.399  1.00  0.00     0.018 A 
ATOM     33  C   UNL     1       0.388  -5.051  -2.992  1.00  0.00     0.016 A 
ATOM     34  C   UNL     1      -0.459  -5.387  -4.003  1.00  0.00     0.016 A 
ATOM     35  C   UNL     1       1.405  -6.108  -2.796  1.00  0.00     0.301 C 
ATOM     36  C   UNL     1      -0.088  -6.698  -4.578  1.00  0.00     0.301 C 
ATOM     37  N   UNL     1       0.990  -7.236  -3.689  1.00  0.00    -0.321 N 
ATOM     38  C   UNL     1       2.137  -7.720  -4.491  1.00  0.00     0.334 C 
ATOM     39  C   UNL     1       0.461  -8.359  -2.876  1.00  0.00     0.334 C 
ENDBRANCH  23  25
ENDBRANCH  18  19
ENDBRANCH  17  18
ENDBRANCH   2  17
BRANCH   4  40
ATOM     40  C   UNL     1      -0.625   8.210   2.205  1.00  0.00     0.097 C 
BRANCH  40  41
ATOM     41  N   UNL     1      -1.964   8.678   1.863  1.00  0.00    -0.094 NA
BRANCH  41  42
ATOM     42  N   UNL     1      -2.267   8.947   0.699  1.00  0.00     0.001 N 
ATOM     43  N   UNL     1      -2.568   9.212  -0.464  1.00  0.00    -0.003 NA
ENDBRANCH  41  42
ENDBRANCH  40  41
ENDBRANCH   4  40
TORSDOF 10


