REMARK SMILES C/C(=C/n1nnc(C)c1-c1c2ccccc2cc2c(N=[N+]=[N-])cccc12)C(=O)N(C=N)C(O)=C1CC1
REMARK SMILES IDX 2 1 1 2 27 3 28 4 29 5 30 6 31 7 32 9 33 10 34 12 35 13
REMARK SMILES IDX 36 14 3 15 4 16 5 17 9 18 6 19 7 20 8 21 10 22 11 23 26 24
REMARK SMILES IDX 12 25 16 26 25 27 18 28 13 29 15 30 17 31 24 32 19 33 14 34
REMARK SMILES IDX 23 35 20 36 21 37 22 38
REMARK H PARENT 31 8 33 11
ROOT
ATOM      1  C   UNL     1      -2.893   1.268   2.479  1.00  0.00     0.033 C 
ATOM      2  C   UNL     1      -4.049   0.612   3.182  1.00  0.00     0.052 C 
ENDROOT
BRANCH   1   3
ATOM      3  C   UNL     1      -2.437   2.587   2.982  1.00  0.00     0.263 C 
ATOM      4  O   UNL     1      -3.310   3.458   3.247  1.00  0.00    -0.268 OA
BRANCH   3   5
ATOM      5  N   UNL     1      -1.042   2.872   3.236  1.00  0.00    -0.238 N 
BRANCH   5   6
ATOM      6  C   UNL     1      -0.558   4.231   3.187  1.00  0.00     0.201 C 
BRANCH   6   7
ATOM      7  N   UNL     1      -1.221   5.155   2.570  1.00  0.00    -0.291 NA
ATOM      8  H   UNL     1      -0.859   6.133   2.528  1.00  0.00     0.189 HD
ENDBRANCH   6   7
ENDBRANCH   5   6
BRANCH   5   9
ATOM      9  C   UNL     1      -0.152   1.813   3.646  1.00  0.00     0.198 C 
BRANCH   9  10
ATOM     10  O   UNL     1      -0.661   0.703   4.320  1.00  0.00    -0.494 OA
ATOM     11  H   UNL     1      -0.064  -0.063   4.611  1.00  0.00     0.295 HD
ENDBRANCH   9  10
BRANCH   9  12
ATOM     12  C   UNL     1       1.153   1.872   3.381  1.00  0.00    -0.009 C 
ATOM     13  C   UNL     1       2.382   2.551   2.780  1.00  0.00     0.041 C 
ATOM     14  C   UNL     1       2.567   1.300   3.440  1.00  0.00     0.041 C 
ENDBRANCH   9  12
ENDBRANCH   5   9
ENDBRANCH   3   5
ENDBRANCH   1   3
BRANCH   1  15
ATOM     15  C   UNL     1      -2.367   0.653   1.400  1.00  0.00     0.124 C 
BRANCH  15  16
ATOM     16  N   UNL     1      -1.350   1.216   0.551  1.00  0.00    -0.219 N 
ATOM     17  N   UNL     1      -1.042   2.500   0.450  1.00  0.00    -0.062 NA
ATOM     18  C   UNL     1      -0.605   0.544  -0.347  1.00  0.00     0.098 A 
ATOM     19  N   UNL     1      -0.094   2.687  -0.459  1.00  0.00    -0.135 NA
ATOM     20  C   UNL     1       0.192   1.476  -0.978  1.00  0.00     0.088 A 
ATOM     21  C   UNL     1       1.258   1.219  -1.991  1.00  0.00     0.071 C 
BRANCH  18  22
ATOM     22  C   UNL     1      -0.665  -0.917  -0.610  1.00  0.00     0.018 A 
ATOM     23  C   UNL     1      -1.293  -1.402  -1.786  1.00  0.00    -0.008 A 
ATOM     24  C   UNL     1      -0.108  -1.835   0.320  1.00  0.00    -0.008 A 
ATOM     25  C   UNL     1      -1.901  -0.532  -2.721  1.00  0.00     0.009 A 
ATOM     26  C   UNL     1      -1.335  -2.796  -2.033  1.00  0.00    -0.017 A 
ATOM     27  C   UNL     1       0.516  -1.390   1.503  1.00  0.00     0.009 A 
ATOM     28  C   UNL     1      -0.167  -3.232   0.063  1.00  0.00    -0.008 A 
ATOM     29  C   UNL     1      -2.508  -1.036  -3.873  1.00  0.00     0.001 A 
ATOM     30  C   UNL     1      -1.949  -3.287  -3.198  1.00  0.00     0.009 A 
ATOM     31  C   UNL     1      -0.775  -3.691  -1.116  1.00  0.00     0.018 A 
ATOM     32  C   UNL     1       1.055  -2.295   2.413  1.00  0.00     0.001 A 
ATOM     33  C   UNL     1       0.386  -4.148   0.992  1.00  0.00     0.045 A 
ATOM     34  C   UNL     1      -2.530  -2.408  -4.113  1.00  0.00     0.001 A 
ATOM     35  C   UNL     1       0.992  -3.662   2.164  1.00  0.00     0.011 A 
BRANCH  33  36
ATOM     36  N   UNL     1       0.324  -5.561   0.733  1.00  0.00    -0.060 NA
BRANCH  36  37
ATOM     37  N   UNL     1       0.789  -6.399   1.507  1.00  0.00     0.005 N 
ATOM     38  N   UNL     1       1.252  -7.237   2.279  1.00  0.00    -0.003 NA
ENDBRANCH  36  37
ENDBRANCH  33  36
ENDBRANCH  18  22
ENDBRANCH  15  16
ENDBRANCH   1  15
TORSDOF 12


