REMARK SMILES C[C@@H](C#N)N(C)CCCCc1cn(-c2cc(N=C=O)c3c4c(cccc24)C(=O)[N-]3)nn1
REMARK SMILES IDX 9 1 10 2 11 3 13 4 30 5 12 6 31 7 14 8 24 9 23 10 25 11
REMARK SMILES IDX 22 12 26 13 21 14 27 15 20 16 29 17 15 18 16 19 28 20 17 21
REMARK SMILES IDX 18 22 19 23 8 24 7 25 5 26 6 27 2 28 1 29 3 30 4 31
REMARK H PARENT
ROOT
ATOM      1  C   UNL     1       2.142  -0.838   3.464  1.00  0.00     0.008 C 
ENDROOT
BRANCH   1   2
ATOM      2  C   UNL     1       0.961   0.125   3.283  1.00  0.00     0.060 C 
BRANCH   2   3
ATOM      3  C   UNL     1       0.939   0.727   1.913  1.00  0.00     0.083 A 
ATOM      4  N   UNL     1       0.496   1.129  -0.178  1.00  0.00    -0.220 N 
ATOM      5  N   UNL     1       1.501   1.901   0.209  1.00  0.00    -0.062 NA
ATOM      6  C   UNL     1       0.130   0.356   0.860  1.00  0.00     0.140 A 
ATOM      7  N   UNL     1       1.790   1.681   1.485  1.00  0.00    -0.135 NA
BRANCH   4   8
ATOM      8  C   UNL     1      -0.001   1.066  -1.526  1.00  0.00     0.076 A 
ATOM      9  C   UNL     1      -3.795   1.112  -1.310  1.00  0.00     0.001 A 
ATOM     10  C   UNL     1      -4.107   0.992  -2.686  1.00  0.00     0.011 A 
ATOM     11  C   UNL     1      -2.445   1.137  -0.870  1.00  0.00     0.011 A 
ATOM     12  C   UNL     1      -3.045   0.896  -3.584  1.00  0.00     0.006 A 
ATOM     13  C   UNL     1      -1.392   1.023  -1.810  1.00  0.00     0.007 A 
ATOM     14  C   UNL     1      -1.760   0.915  -3.145  1.00  0.00    -0.019 A 
ATOM     15  C   UNL     1      -2.948   0.830  -5.040  1.00  0.00     0.086 C 
ATOM     16  C   UNL     1      -0.886   0.877  -4.194  1.00  0.00    -0.098 A 
ATOM     17  N   UNL     1      -1.573   0.816  -5.455  1.00  0.00    -0.620 NA
ATOM     18  C   UNL     1       0.925   1.047  -2.610  1.00  0.00     0.057 A 
ATOM     19  C   UNL     1       0.487   0.953  -3.965  1.00  0.00     0.064 A 
ATOM     20  O   UNL     1      -3.922   0.805  -5.842  1.00  0.00    -0.315 OA
BRANCH  19  21
ATOM     21  N   UNL     1       1.393   0.934  -5.080  1.00  0.00    -0.169 NA
BRANCH  21  22
ATOM     22  C   UNL     1       2.654   1.046  -4.963  1.00  0.00     0.240 C 
ATOM     23  O   UNL     1       3.879   1.157  -4.847  1.00  0.00    -0.211 OA
ENDBRANCH  21  22
ENDBRANCH  19  21
ENDBRANCH   4   8
ENDBRANCH   2   3
ENDBRANCH   1   2
BRANCH   1  24
ATOM     24  C   UNL     1       2.083  -2.080   2.559  1.00  0.00     0.016 C 
BRANCH  24  25
ATOM     25  C   UNL     1       0.870  -2.979   2.861  1.00  0.00     0.085 C 
BRANCH  25  26
ATOM     26  N   UNL     1       1.109  -4.361   2.383  1.00  0.00    -0.291 NA
ATOM     27  C   UNL     1       1.802  -5.168   3.412  1.00  0.00     0.106 C 
BRANCH  26  28
ATOM     28  C   UNL     1      -0.108  -5.056   1.877  1.00  0.00     0.157 C 
ATOM     29  C   UNL     1      -1.309  -5.011   2.847  1.00  0.00     0.041 C 
BRANCH  28  30
ATOM     30  C   UNL     1      -0.498  -4.501   0.563  1.00  0.00     0.081 C 
ATOM     31  N   UNL     1      -0.808  -4.076  -0.469  1.00  0.00    -0.197 NA
ENDBRANCH  28  30
ENDBRANCH  26  28
ENDBRANCH  25  26
ENDBRANCH  24  25
ENDBRANCH   1  24
TORSDOF 10


