REMARK SMILES Cc1[nH+]nn(C/C(C#N)=N\c2cccc(C#N)c2C)c1-c1cc2ccccc2c2ccccc12
REMARK SMILES IDX 10 1 11 2 13 3 14 4 12 5 15 6 18 7 19 8 16 9 17 10 7 11 8 12
REMARK SMILES IDX 9 13 6 14 5 15 4 16 20 17 3 18 2 19 1 21 21 22 22 23 34 24
REMARK SMILES IDX 23 25 33 26 29 27 24 28 28 29 32 30 30 31 25 32 27 33 31 34
REMARK SMILES IDX 26 35
REMARK H PARENT 3 20
ROOT
ATOM      1  N   UNL     1      -1.086  -1.443  -2.483  1.00  0.00    -0.238 NA
ENDROOT
BRANCH   1   2
ATOM      2  C   UNL     1       0.245  -1.074  -2.082  1.00  0.00     0.069 A 
ATOM      3  C   UNL     1       2.502  -1.707  -1.438  1.00  0.00     0.004 A 
ATOM      4  C   UNL     1       2.889  -0.369  -1.452  1.00  0.00     0.020 A 
ATOM      5  C   UNL     1       1.198  -2.062  -1.778  1.00  0.00     0.029 A 
ATOM      6  C   UNL     1       1.979   0.627  -1.824  1.00  0.00     0.057 A 
ATOM      7  C   UNL     1       0.641   0.283  -2.138  1.00  0.00    -0.008 A 
ATOM      8  C   UNL     1      -0.337   1.332  -2.613  1.00  0.00     0.048 C 
BRANCH   6   9
ATOM      9  C   UNL     1       2.444   1.992  -1.880  1.00  0.00     0.099 C 
ATOM     10  N   UNL     1       2.816   3.087  -1.922  1.00  0.00    -0.192 NA
ENDBRANCH   6   9
ENDBRANCH   1   2
BRANCH   1  11
ATOM     11  C   UNL     1      -1.921  -2.248  -1.887  1.00  0.00     0.162 C 
BRANCH  11  12
ATOM     12  C   UNL     1      -3.195  -2.477  -2.515  1.00  0.00     0.119 C 
ATOM     13  N   UNL     1      -4.220  -2.661  -3.019  1.00  0.00    -0.191 NA
ENDBRANCH  11  12
BRANCH  11  14
ATOM     14  C   UNL     1      -1.680  -2.865  -0.529  1.00  0.00     0.338 C 
BRANCH  14  15
ATOM     15  N   UNL     1      -2.576  -2.278   0.466  1.00  0.00    -0.122 N 
ATOM     16  N   UNL     1      -3.789  -2.744   0.728  1.00  0.00     0.089 NA
ATOM     17  C   UNL     1      -2.376  -1.175   1.222  1.00  0.00     0.201 A 
ATOM     18  N   UNL     1      -4.372  -1.991   1.648  1.00  0.00    -0.147 N 
ATOM     19  C   UNL     1      -3.514  -1.012   1.992  1.00  0.00     0.169 A 
ATOM     20  H   UNL     1      -5.331  -2.151   2.028  1.00  0.00     0.342 HD
ATOM     21  C   UNL     1      -3.800   0.054   3.001  1.00  0.00     0.100 C 
BRANCH  17  22
ATOM     22  C   UNL     1      -1.143  -0.353   1.260  1.00  0.00     0.036 A 
ATOM     23  C   UNL     1       0.028  -0.961   1.713  1.00  0.00     0.022 A 
ATOM     24  C   UNL     1      -1.133   1.016   0.905  1.00  0.00    -0.006 A 
ATOM     25  C   UNL     1       1.222  -0.247   1.809  1.00  0.00    -0.017 A 
ATOM     26  C   UNL     1      -2.294   1.638   0.395  1.00  0.00     0.009 A 
ATOM     27  C   UNL     1       0.068   1.780   1.041  1.00  0.00    -0.010 A 
ATOM     28  C   UNL     1       2.385  -0.913   2.230  1.00  0.00     0.009 A 
ATOM     29  C   UNL     1       1.263   1.136   1.485  1.00  0.00    -0.010 A 
ATOM     30  C   UNL     1      -2.297   2.991   0.072  1.00  0.00     0.001 A 
ATOM     31  C   UNL     1       0.024   3.159   0.712  1.00  0.00     0.009 A 
ATOM     32  C   UNL     1       3.594  -0.230   2.328  1.00  0.00     0.001 A 
ATOM     33  C   UNL     1       2.508   1.805   1.601  1.00  0.00     0.009 A 
ATOM     34  C   UNL     1      -1.147   3.750   0.240  1.00  0.00     0.001 A 
ATOM     35  C   UNL     1       3.654   1.124   2.015  1.00  0.00     0.001 A 
ENDBRANCH  17  22
ENDBRANCH  14  15
ENDBRANCH  11  14
ENDBRANCH   1  11
TORSDOF 7


