MODEL 1
REMARK VINA RESULT:      -9.0      0.000      0.000
REMARK SMILES Cc1nnn(Cc2nc3cc4ccccc4cc3[n-]2)c1-c1nnc([C@@H]2C[C@@H]2C)o1
REMARK SMILES IDX 1 1 2 2 3 3 4 4 5 5 20 6 21 7 22 8 29 9 23 10 24 11 25 12
REMARK SMILES IDX 26 13 27 14 28 15 6 16 7 17 8 18 19 19 9 20 18 21 10 22
REMARK SMILES IDX 17 23 11 24 16 25 12 26 15 27 13 28 14 29
REMARK H PARENT
ROOT
ATOM      1  C   UNL     1      42.131 137.502  18.878  1.00  0.00     0.071 C 
ATOM      2  C   UNL     1      42.628 136.098  18.991  1.00  0.00     0.093 A 
ATOM      3  N   UNL     1      43.849 135.767  19.454  1.00  0.00    -0.135 NA
ATOM      4  N   UNL     1      43.943 134.447  19.387  1.00  0.00    -0.066 NA
ATOM      5  N   UNL     1      42.827 133.922  18.903  1.00  0.00    -0.236 N 
ATOM      6  C   UNL     1      41.973 134.933  18.632  1.00  0.00     0.149 A 
ENDROOT
BRANCH   6   7
ATOM      7  C   UNL     1      40.630 134.809  18.027  1.00  0.00     0.267 A 
ATOM      8  N   UNL     1      39.489 135.219  18.615  1.00  0.00    -0.106 NA
ATOM      9  O   UNL     1      40.391 134.306  16.840  1.00  0.00    -0.419 OA
ATOM     10  N   UNL     1      38.512 134.967  17.758  1.00  0.00    -0.112 NA
ATOM     11  C   UNL     1      39.096 134.413  16.678  1.00  0.00     0.220 A 
BRANCH  11  12
ATOM     12  C   UNL     1      38.351 133.980  15.453  1.00  0.00     0.081 C 
ATOM     13  C   UNL     1      39.183 133.956  14.171  1.00  0.00     0.017 C 
ATOM     14  C   UNL     1      38.121 135.032  14.365  1.00  0.00    -0.001 C 
ATOM     15  C   UNL     1      38.671 136.447  14.583  1.00  0.00     0.008 C 
ENDBRANCH  11  12
ENDBRANCH   6   7
BRANCH   5  16
ATOM     16  C   UNL     1      42.656 132.489  18.668  1.00  0.00     0.173 C 
BRANCH  16  17
ATOM     17  C   UNL     1      43.607 132.010  17.615  1.00  0.00    -0.060 A 
ATOM     18  N   UNL     1      43.397 132.208  16.287  1.00  0.00    -0.438 NA
ATOM     19  N   UNL     1      44.729 131.302  17.909  1.00  0.00    -0.438 NA
ATOM     20  C   UNL     1      44.450 131.595  15.730  1.00  0.00    -0.038 A 
ATOM     21  C   UNL     1      45.243 131.056  16.695  1.00  0.00    -0.038 A 
ATOM     22  C   UNL     1      44.748 131.481  14.376  1.00  0.00     0.012 A 
ATOM     23  C   UNL     1      46.408 130.355  16.393  1.00  0.00     0.012 A 
ATOM     24  C   UNL     1      45.920 130.780  14.016  1.00  0.00    -0.018 A 
ATOM     25  C   UNL     1      46.755 130.214  15.031  1.00  0.00    -0.018 A 
ATOM     26  C   UNL     1      46.275 130.631  12.668  1.00  0.00     0.009 A 
ATOM     27  C   UNL     1      47.917 129.520  14.661  1.00  0.00     0.009 A 
ATOM     28  C   UNL     1      47.436 129.937  12.320  1.00  0.00     0.001 A 
ATOM     29  C   UNL     1      48.254 129.385  13.312  1.00  0.00     0.001 A 
ENDBRANCH  16  17
ENDBRANCH   5  16
TORSDOF 4
ENDMDL
MODEL 2
REMARK VINA RESULT:      -8.4      1.963      2.361
REMARK SMILES Cc1nnn(Cc2nc3cc4ccccc4cc3[n-]2)c1-c1nnc([C@@H]2C[C@@H]2C)o1
REMARK SMILES IDX 1 1 2 2 3 3 4 4 5 5 20 6 21 7 22 8 29 9 23 10 24 11 25 12
REMARK SMILES IDX 26 13 27 14 28 15 6 16 7 17 8 18 19 19 9 20 18 21 10 22
REMARK SMILES IDX 17 23 11 24 16 25 12 26 15 27 13 28 14 29
REMARK H PARENT
ROOT
ATOM      1  C   UNL     1      44.121 136.475  21.268  1.00  0.00     0.071 C 
ATOM      2  C   UNL     1      43.869 135.033  20.971  1.00  0.00     0.093 A 
ATOM      3  N   UNL     1      44.423 134.015  21.658  1.00  0.00    -0.135 NA
ATOM      4  N   UNL     1      43.992 132.892  21.101  1.00  0.00    -0.066 NA
ATOM      5  N   UNL     1      43.179 133.155  20.088  1.00  0.00    -0.236 N 
ATOM      6  C   UNL     1      43.081 134.497  19.967  1.00  0.00     0.149 A 
ENDROOT
BRANCH   6   7
ATOM      7  C   UNL     1      42.321 135.232  18.933  1.00  0.00     0.267 A 
ATOM      8  N   UNL     1      41.003 135.076  18.704  1.00  0.00    -0.106 NA
ATOM      9  O   UNL     1      42.834 136.136  18.135  1.00  0.00    -0.419 OA
ATOM     10  N   UNL     1      40.689 135.920  17.732  1.00  0.00    -0.112 NA
ATOM     11  C   UNL     1      41.829 136.559  17.409  1.00  0.00     0.220 A 
BRANCH  11  12
ATOM     12  C   UNL     1      41.925 137.618  16.353  1.00  0.00     0.081 C 
ATOM     13  C   UNL     1      41.031 137.392  15.135  1.00  0.00     0.017 C 
ATOM     14  C   UNL     1      42.539 137.214  15.011  1.00  0.00    -0.001 C 
ATOM     15  C   UNL     1      43.003 135.765  14.821  1.00  0.00     0.008 C 
ENDBRANCH  11  12
ENDBRANCH   6   7
BRANCH   5  16
ATOM     16  C   UNL     1      42.586 132.112  19.250  1.00  0.00     0.173 C 
BRANCH  16  17
ATOM     17  C   UNL     1      43.502 131.762  18.117  1.00  0.00    -0.060 A 
ATOM     18  N   UNL     1      43.192 132.006  16.816  1.00  0.00    -0.438 NA
ATOM     19  N   UNL     1      44.691 131.133  18.305  1.00  0.00    -0.438 NA
ATOM     20  C   UNL     1      44.252 131.507  16.166  1.00  0.00    -0.038 A 
ATOM     21  C   UNL     1      45.144 130.987  17.051  1.00  0.00    -0.038 A 
ATOM     22  C   UNL     1      44.470 131.482  14.792  1.00  0.00     0.012 A 
ATOM     23  C   UNL     1      46.337 130.398  16.644  1.00  0.00     0.012 A 
ATOM     24  C   UNL     1      45.667 130.894  14.326  1.00  0.00    -0.018 A 
ATOM     25  C   UNL     1      46.606 130.350  15.258  1.00  0.00    -0.018 A 
ATOM     26  C   UNL     1      45.945 130.839  12.953  1.00  0.00     0.009 A 
ATOM     27  C   UNL     1      47.792 129.770  14.782  1.00  0.00     0.009 A 
ATOM     28  C   UNL     1      47.132 130.257  12.500  1.00  0.00     0.001 A 
ATOM     29  C   UNL     1      48.051 129.726  13.410  1.00  0.00     0.001 A 
ENDBRANCH  16  17
ENDBRANCH   5  16
TORSDOF 4
ENDMDL
MODEL 3
REMARK VINA RESULT:      -8.4      2.260      3.472
REMARK SMILES Cc1nnn(Cc2nc3cc4ccccc4cc3[n-]2)c1-c1nnc([C@@H]2C[C@@H]2C)o1
REMARK SMILES IDX 1 1 2 2 3 3 4 4 5 5 20 6 21 7 22 8 29 9 23 10 24 11 25 12
REMARK SMILES IDX 26 13 27 14 28 15 6 16 7 17 8 18 19 19 9 20 18 21 10 22
REMARK SMILES IDX 17 23 11 24 16 25 12 26 15 27 13 28 14 29
REMARK H PARENT
ROOT
ATOM      1  C   UNL     1      37.947 134.345  16.108  1.00  0.00     0.071 C 
ATOM      2  C   UNL     1      39.001 133.966  17.096  1.00  0.00     0.093 A 
ATOM      3  N   UNL     1      38.761 133.264  18.221  1.00  0.00    -0.135 NA
ATOM      4  N   UNL     1      39.919 133.140  18.854  1.00  0.00    -0.066 NA
ATOM      5  N   UNL     1      40.890 133.733  18.174  1.00  0.00    -0.236 N 
ATOM      6  C   UNL     1      40.350 134.275  17.060  1.00  0.00     0.149 A 
ENDROOT
BRANCH   6   7
ATOM      7  C   UNL     1      41.060 135.076  16.041  1.00  0.00     0.267 A 
ATOM      8  N   UNL     1      41.238 134.695  14.761  1.00  0.00    -0.106 NA
ATOM      9  O   UNL     1      41.582 136.260  16.255  1.00  0.00    -0.419 OA
ATOM     10  N   UNL     1      41.886 135.682  14.161  1.00  0.00    -0.112 NA
ATOM     11  C   UNL     1      42.077 136.628  15.100  1.00  0.00     0.220 A 
BRANCH  11  12
ATOM     12  C   UNL     1      42.769 137.933  14.845  1.00  0.00     0.081 C 
ATOM     13  C   UNL     1      42.417 139.048  15.829  1.00  0.00     0.017 C 
ATOM     14  C   UNL     1      41.900 139.110  14.397  1.00  0.00    -0.001 C 
ATOM     15  C   UNL     1      40.389 138.893  14.248  1.00  0.00     0.008 C 
ENDBRANCH  11  12
ENDBRANCH   6   7
BRANCH   5  16
ATOM     16  C   UNL     1      42.271 133.803  18.652  1.00  0.00     0.173 C 
BRANCH  16  17
ATOM     17  C   UNL     1      43.191 133.085  17.713  1.00  0.00    -0.060 A 
ATOM     18  N   UNL     1      43.190 131.733  17.569  1.00  0.00    -0.438 NA
ATOM     19  N   UNL     1      44.126 133.730  16.968  1.00  0.00    -0.438 NA
ATOM     20  C   UNL     1      44.173 131.534  16.681  1.00  0.00    -0.038 A 
ATOM     21  C   UNL     1      44.731 132.722  16.323  1.00  0.00    -0.038 A 
ATOM     22  C   UNL     1      44.617 130.321  16.164  1.00  0.00     0.012 A 
ATOM     23  C   UNL     1      45.782 132.805  15.414  1.00  0.00     0.012 A 
ATOM     24  C   UNL     1      45.682 130.350  15.237  1.00  0.00    -0.018 A 
ATOM     25  C   UNL     1      46.267 131.600  14.859  1.00  0.00    -0.018 A 
ATOM     26  C   UNL     1      46.174 129.161  14.681  1.00  0.00     0.009 A 
ATOM     27  C   UNL     1      47.323 131.617  13.936  1.00  0.00     0.009 A 
ATOM     28  C   UNL     1      47.227 129.199  13.762  1.00  0.00     0.001 A 
ATOM     29  C   UNL     1      47.798 130.420  13.391  1.00  0.00     0.001 A 
ENDBRANCH  16  17
ENDBRANCH   5  16
TORSDOF 4
ENDMDL
MODEL 4
REMARK VINA RESULT:      -8.1      2.048      4.776
REMARK SMILES Cc1nnn(Cc2nc3cc4ccccc4cc3[n-]2)c1-c1nnc([C@@H]2C[C@@H]2C)o1
REMARK SMILES IDX 1 1 2 2 3 3 4 4 5 5 20 6 21 7 22 8 29 9 23 10 24 11 25 12
REMARK SMILES IDX 26 13 27 14 28 15 6 16 7 17 8 18 19 19 9 20 18 21 10 22
REMARK SMILES IDX 17 23 11 24 16 25 12 26 15 27 13 28 14 29
REMARK H PARENT
ROOT
ATOM      1  C   UNL     1      40.887 137.163  17.787  1.00  0.00     0.071 C 
ATOM      2  C   UNL     1      40.928 135.670  17.822  1.00  0.00     0.093 A 
ATOM      3  N   UNL     1      39.966 134.878  17.310  1.00  0.00    -0.135 NA
ATOM      4  N   UNL     1      40.330 133.625  17.545  1.00  0.00    -0.066 NA
ATOM      5  N   UNL     1      41.490 133.588  18.184  1.00  0.00    -0.236 N 
ATOM      6  C   UNL     1      41.898 134.860  18.386  1.00  0.00     0.149 A 
ENDROOT
BRANCH   6   7
ATOM      7  C   UNL     1      43.115 135.287  19.110  1.00  0.00     0.267 A 
ATOM      8  N   UNL     1      44.057 136.103  18.599  1.00  0.00    -0.106 NA
ATOM      9  O   UNL     1      43.410 134.942  20.339  1.00  0.00    -0.419 OA
ATOM     10  N   UNL     1      44.963 136.273  19.550  1.00  0.00    -0.112 NA
ATOM     11  C   UNL     1      44.536 135.554  20.605  1.00  0.00     0.220 A 
BRANCH  11  12
ATOM     12  C   UNL     1      45.264 135.473  21.913  1.00  0.00     0.081 C 
ATOM     13  C   UNL     1      44.411 135.010  23.093  1.00  0.00     0.017 C 
ATOM     14  C   UNL     1      44.855 136.465  23.004  1.00  0.00    -0.001 C 
ATOM     15  C   UNL     1      43.730 137.464  22.705  1.00  0.00     0.008 C 
ENDBRANCH  11  12
ENDBRANCH   6   7
BRANCH   5  16
ATOM     16  C   UNL     1      42.120 132.342  18.623  1.00  0.00     0.173 C 
BRANCH  16  17
ATOM     17  C   UNL     1      43.119 131.872  17.611  1.00  0.00    -0.060 A 
ATOM     18  N   UNL     1      44.324 131.344  17.954  1.00  0.00    -0.438 NA
ATOM     19  N   UNL     1      42.913 131.980  16.272  1.00  0.00    -0.438 NA
ATOM     20  C   UNL     1      44.889 131.107  16.763  1.00  0.00    -0.038 A 
ATOM     21  C   UNL     1      44.049 131.486  15.761  1.00  0.00    -0.038 A 
ATOM     22  C   UNL     1      46.146 130.565  16.512  1.00  0.00     0.012 A 
ATOM     23  C   UNL     1      44.389 131.354  14.418  1.00  0.00     0.012 A 
ATOM     24  C   UNL     1      46.539 130.411  15.164  1.00  0.00    -0.018 A 
ATOM     25  C   UNL     1      45.655 130.806  14.111  1.00  0.00    -0.018 A 
ATOM     26  C   UNL     1      47.793 129.870  14.847  1.00  0.00     0.009 A 
ATOM     27  C   UNL     1      46.056 130.646  12.776  1.00  0.00     0.009 A 
ATOM     28  C   UNL     1      48.174 129.718  13.511  1.00  0.00     0.001 A 
ATOM     29  C   UNL     1      47.310 130.104  12.481  1.00  0.00     0.001 A 
ENDBRANCH  16  17
ENDBRANCH   5  16
TORSDOF 4
ENDMDL
MODEL 5
REMARK VINA RESULT:      -7.9      1.943      2.974
REMARK SMILES Cc1nnn(Cc2nc3cc4ccccc4cc3[n-]2)c1-c1nnc([C@@H]2C[C@@H]2C)o1
REMARK SMILES IDX 1 1 2 2 3 3 4 4 5 5 20 6 21 7 22 8 29 9 23 10 24 11 25 12
REMARK SMILES IDX 26 13 27 14 28 15 6 16 7 17 8 18 19 19 9 20 18 21 10 22
REMARK SMILES IDX 17 23 11 24 16 25 12 26 15 27 13 28 14 29
REMARK H PARENT
ROOT
ATOM      1  C   UNL     1      45.144 136.701  21.231  1.00  0.00     0.071 C 
ATOM      2  C   UNL     1      44.492 135.380  20.982  1.00  0.00     0.093 A 
ATOM      3  N   UNL     1      44.627 134.310  21.790  1.00  0.00    -0.135 NA
ATOM      4  N   UNL     1      43.932 133.322  21.243  1.00  0.00    -0.066 NA
ATOM      5  N   UNL     1      43.354 133.723  20.120  1.00  0.00    -0.236 N 
ATOM      6  C   UNL     1      43.690 135.015  19.915  1.00  0.00     0.149 A 
ENDROOT
BRANCH   6   7
ATOM      7  C   UNL     1      43.309 135.847  18.753  1.00  0.00     0.267 A 
ATOM      8  N   UNL     1      44.074 136.018  17.657  1.00  0.00    -0.106 NA
ATOM      9  O   UNL     1      42.176 136.496  18.641  1.00  0.00    -0.419 OA
ATOM     10  N   UNL     1      43.385 136.796  16.836  1.00  0.00    -0.112 NA
ATOM     11  C   UNL     1      42.226 137.068  17.464  1.00  0.00     0.220 A 
BRANCH  11  12
ATOM     12  C   UNL     1      41.136 137.915  16.880  1.00  0.00     0.081 C 
ATOM     13  C   UNL     1      39.751 137.683  17.483  1.00  0.00     0.017 C 
ATOM     14  C   UNL     1      40.052 137.201  16.070  1.00  0.00    -0.001 C 
ATOM     15  C   UNL     1      40.135 135.678  15.913  1.00  0.00     0.008 C 
ENDBRANCH  11  12
ENDBRANCH   6   7
BRANCH   5  16
ATOM     16  C   UNL     1      42.562 132.834  19.271  1.00  0.00     0.173 C 
BRANCH  16  17
ATOM     17  C   UNL     1      43.407 132.260  18.175  1.00  0.00    -0.060 A 
ATOM     18  N   UNL     1      44.570 131.597  18.411  1.00  0.00    -0.438 NA
ATOM     19  N   UNL     1      43.094 132.399  16.860  1.00  0.00    -0.438 NA
ATOM     20  C   UNL     1      44.995 131.305  17.175  1.00  0.00    -0.038 A 
ATOM     21  C   UNL     1      44.117 131.782  16.251  1.00  0.00    -0.038 A 
ATOM     22  C   UNL     1      46.154 130.625  16.815  1.00  0.00     0.012 A 
ATOM     23  C   UNL     1      44.318 131.621  14.884  1.00  0.00     0.012 A 
ATOM     24  C   UNL     1      46.405 130.435  15.438  1.00  0.00    -0.018 A 
ATOM     25  C   UNL     1      45.481 130.935  14.467  1.00  0.00    -0.018 A 
ATOM     26  C   UNL     1      47.556 129.758  15.011  1.00  0.00     0.009 A 
ATOM     27  C   UNL     1      45.740 130.738  13.102  1.00  0.00     0.009 A 
ATOM     28  C   UNL     1      47.796 129.572  13.647  1.00  0.00     0.001 A 
ATOM     29  C   UNL     1      46.892 130.058  12.698  1.00  0.00     0.001 A 
ENDBRANCH  16  17
ENDBRANCH   5  16
TORSDOF 4
ENDMDL
MODEL 6
REMARK VINA RESULT:      -7.9      1.696      3.475
REMARK SMILES Cc1nnn(Cc2nc3cc4ccccc4cc3[n-]2)c1-c1nnc([C@@H]2C[C@@H]2C)o1
REMARK SMILES IDX 1 1 2 2 3 3 4 4 5 5 20 6 21 7 22 8 29 9 23 10 24 11 25 12
REMARK SMILES IDX 26 13 27 14 28 15 6 16 7 17 8 18 19 19 9 20 18 21 10 22
REMARK SMILES IDX 17 23 11 24 16 25 12 26 15 27 13 28 14 29
REMARK H PARENT
ROOT
ATOM      1  C   UNL     1      37.021 133.664  18.624  1.00  0.00     0.071 C 
ATOM      2  C   UNL     1      38.261 134.327  19.129  1.00  0.00     0.093 A 
ATOM      3  N   UNL     1      38.423 134.753  20.397  1.00  0.00    -0.135 NA
ATOM      4  N   UNL     1      39.626 135.306  20.468  1.00  0.00    -0.066 NA
ATOM      5  N   UNL     1      40.239 135.245  19.295  1.00  0.00    -0.236 N 
ATOM      6  C   UNL     1      39.406 134.641  18.419  1.00  0.00     0.149 A 
ENDROOT
BRANCH   6   7
ATOM      7  C   UNL     1      39.662 134.413  16.981  1.00  0.00     0.267 A 
ATOM      8  N   UNL     1      40.039 133.233  16.453  1.00  0.00    -0.106 NA
ATOM      9  O   UNL     1      39.530 135.324  16.047  1.00  0.00    -0.419 OA
ATOM     10  N   UNL     1      40.138 133.419  15.145  1.00  0.00    -0.112 NA
ATOM     11  C   UNL     1      39.814 134.708  14.927  1.00  0.00     0.220 A 
BRANCH  11  12
ATOM     12  C   UNL     1      39.785 135.346  13.571  1.00  0.00     0.081 C 
ATOM     13  C   UNL     1      38.972 136.637  13.488  1.00  0.00     0.017 C 
ATOM     14  C   UNL     1      38.443 135.366  12.836  1.00  0.00    -0.001 C 
ATOM     15  C   UNL     1      37.218 134.751  13.525  1.00  0.00     0.008 C 
ENDBRANCH  11  12
ENDBRANCH   6   7
BRANCH   5  16
ATOM     16  C   UNL     1      41.562 135.820  19.056  1.00  0.00     0.173 C 
BRANCH  16  17
ATOM     17  C   UNL     1      42.466 134.814  18.412  1.00  0.00    -0.060 A 
ATOM     18  N   UNL     1      42.786 133.629  18.996  1.00  0.00    -0.438 NA
ATOM     19  N   UNL     1      43.068 135.032  17.214  1.00  0.00    -0.438 NA
ATOM     20  C   UNL     1      43.626 133.083  18.106  1.00  0.00    -0.038 A 
ATOM     21  C   UNL     1      43.795 133.918  17.046  1.00  0.00    -0.038 A 
ATOM     22  C   UNL     1      44.272 131.853  18.193  1.00  0.00     0.012 A 
ATOM     23  C   UNL     1      44.623 133.599  15.974  1.00  0.00     0.012 A 
ATOM     24  C   UNL     1      45.125 131.482  17.130  1.00  0.00    -0.018 A 
ATOM     25  C   UNL     1      45.300 132.359  16.014  1.00  0.00    -0.018 A 
ATOM     26  C   UNL     1      45.804 130.256  17.159  1.00  0.00     0.009 A 
ATOM     27  C   UNL     1      46.149 131.978  14.963  1.00  0.00     0.009 A 
ATOM     28  C   UNL     1      46.645 129.894  16.102  1.00  0.00     0.001 A 
ATOM     29  C   UNL     1      46.816 130.751  15.010  1.00  0.00     0.001 A 
ENDBRANCH  16  17
ENDBRANCH   5  16
TORSDOF 4
ENDMDL
MODEL 7
REMARK VINA RESULT:      -7.9      1.934      4.489
REMARK SMILES Cc1nnn(Cc2nc3cc4ccccc4cc3[n-]2)c1-c1nnc([C@@H]2C[C@@H]2C)o1
REMARK SMILES IDX 1 1 2 2 3 3 4 4 5 5 20 6 21 7 22 8 29 9 23 10 24 11 25 12
REMARK SMILES IDX 26 13 27 14 28 15 6 16 7 17 8 18 19 19 9 20 18 21 10 22
REMARK SMILES IDX 17 23 11 24 16 25 12 26 15 27 13 28 14 29
REMARK H PARENT
ROOT
ATOM      1  C   UNL     1      40.860 137.890  15.788  1.00  0.00     0.071 C 
ATOM      2  C   UNL     1      40.708 136.422  16.018  1.00  0.00     0.093 A 
ATOM      3  N   UNL     1      39.747 135.667  15.452  1.00  0.00    -0.135 NA
ATOM      4  N   UNL     1      39.911 134.431  15.903  1.00  0.00    -0.066 NA
ATOM      5  N   UNL     1      40.944 134.368  16.730  1.00  0.00    -0.236 N 
ATOM      6  C   UNL     1      41.471 135.607  16.837  1.00  0.00     0.149 A 
ENDROOT
BRANCH   6   7
ATOM      7  C   UNL     1      42.603 136.008  17.698  1.00  0.00     0.267 A 
ATOM      8  N   UNL     1      43.826 135.444  17.658  1.00  0.00    -0.106 NA
ATOM      9  O   UNL     1      42.560 136.973  18.585  1.00  0.00    -0.419 OA
ATOM     10  N   UNL     1      44.566 136.088  18.548  1.00  0.00    -0.112 NA
ATOM     11  C   UNL     1      43.765 137.022  19.095  1.00  0.00     0.220 A 
BRANCH  11  12
ATOM     12  C   UNL     1      44.206 137.990  20.150  1.00  0.00     0.081 C 
ATOM     13  C   UNL     1      43.353 139.253  20.258  1.00  0.00     0.017 C 
ATOM     14  C   UNL     1      44.760 139.336  19.678  1.00  0.00    -0.001 C 
ATOM     15  C   UNL     1      44.820 139.619  18.172  1.00  0.00     0.008 C 
ENDBRANCH  11  12
ENDBRANCH   6   7
BRANCH   5  16
ATOM     16  C   UNL     1      41.337 133.141  17.423  1.00  0.00     0.173 C 
BRANCH  16  17
ATOM     17  C   UNL     1      42.480 132.479  16.716  1.00  0.00    -0.060 A 
ATOM     18  N   UNL     1      43.504 131.875  17.374  1.00  0.00    -0.438 NA
ATOM     19  N   UNL     1      42.599 132.474  15.362  1.00  0.00    -0.438 NA
ATOM     20  C   UNL     1      44.295 131.468  16.372  1.00  0.00    -0.038 A 
ATOM     21  C   UNL     1      43.757 131.825  15.175  1.00  0.00    -0.038 A 
ATOM     22  C   UNL     1      45.503 130.785  16.468  1.00  0.00     0.012 A 
ATOM     23  C   UNL     1      44.377 131.529  13.964  1.00  0.00     0.012 A 
ATOM     24  C   UNL     1      46.173 130.461  15.268  1.00  0.00    -0.018 A 
ATOM     25  C   UNL     1      45.606 130.834  14.009  1.00  0.00    -0.018 A 
ATOM     26  C   UNL     1      47.395 129.774  15.299  1.00  0.00     0.009 A 
ATOM     27  C   UNL     1      46.281 130.505  12.823  1.00  0.00     0.009 A 
ATOM     28  C   UNL     1      48.051 129.455  14.107  1.00  0.00     0.001 A 
ATOM     29  C   UNL     1      47.497 129.818  12.875  1.00  0.00     0.001 A 
ENDBRANCH  16  17
ENDBRANCH   5  16
TORSDOF 4
ENDMDL
MODEL 8
REMARK VINA RESULT:      -7.8      2.714      3.828
REMARK SMILES Cc1nnn(Cc2nc3cc4ccccc4cc3[n-]2)c1-c1nnc([C@@H]2C[C@@H]2C)o1
REMARK SMILES IDX 1 1 2 2 3 3 4 4 5 5 20 6 21 7 22 8 29 9 23 10 24 11 25 12
REMARK SMILES IDX 26 13 27 14 28 15 6 16 7 17 8 18 19 19 9 20 18 21 10 22
REMARK SMILES IDX 17 23 11 24 16 25 12 26 15 27 13 28 14 29
REMARK H PARENT
ROOT
ATOM      1  C   UNL     1      46.395 134.810  22.938  1.00  0.00     0.071 C 
ATOM      2  C   UNL     1      45.653 133.766  22.169  1.00  0.00     0.093 A 
ATOM      3  N   UNL     1      45.801 132.441  22.363  1.00  0.00    -0.135 NA
ATOM      4  N   UNL     1      45.008 131.832  21.492  1.00  0.00    -0.066 NA
ATOM      5  N   UNL     1      44.357 132.718  20.753  1.00  0.00    -0.236 N 
ATOM      6  C   UNL     1      44.743 133.953  21.143  1.00  0.00     0.149 A 
ENDROOT
BRANCH   6   7
ATOM      7  C   UNL     1      44.308 135.236  20.552  1.00  0.00     0.267 A 
ATOM      8  N   UNL     1      43.689 136.218  21.235  1.00  0.00    -0.106 NA
ATOM      9  O   UNL     1      44.493 135.580  19.300  1.00  0.00    -0.419 OA
ATOM     10  N   UNL     1      43.490 137.207  20.376  1.00  0.00    -0.112 NA
ATOM     11  C   UNL     1      43.998 136.788  19.202  1.00  0.00     0.220 A 
BRANCH  11  12
ATOM     12  C   UNL     1      43.995 137.609  17.947  1.00  0.00     0.081 C 
ATOM     13  C   UNL     1      42.773 138.510  17.774  1.00  0.00     0.017 C 
ATOM     14  C   UNL     1      42.934 137.276  16.896  1.00  0.00    -0.001 C 
ATOM     15  C   UNL     1      41.941 136.144  17.187  1.00  0.00     0.008 C 
ENDBRANCH  11  12
ENDBRANCH   6   7
BRANCH   5  16
ATOM     16  C   UNL     1      43.446 132.341  19.672  1.00  0.00     0.173 C 
BRANCH  16  17
ATOM     17  C   UNL     1      44.215 131.923  18.457  1.00  0.00    -0.060 A 
ATOM     18  N   UNL     1      43.940 132.393  17.212  1.00  0.00    -0.438 NA
ATOM     19  N   UNL     1      45.218 131.007  18.504  1.00  0.00    -0.438 NA
ATOM     20  C   UNL     1      44.825 131.737  16.449  1.00  0.00    -0.038 A 
ATOM     21  C   UNL     1      45.586 130.912  17.218  1.00  0.00    -0.038 A 
ATOM     22  C   UNL     1      44.992 131.831  15.071  1.00  0.00     0.012 A 
ATOM     23  C   UNL     1      46.584 130.107  16.678  1.00  0.00     0.012 A 
ATOM     24  C   UNL     1      45.993 131.034  14.474  1.00  0.00    -0.018 A 
ATOM     25  C   UNL     1      46.795 130.167  15.283  1.00  0.00    -0.018 A 
ATOM     26  C   UNL     1      46.210 131.083  13.090  1.00  0.00     0.009 A 
ATOM     27  C   UNL     1      47.787 129.381  14.678  1.00  0.00     0.009 A 
ATOM     28  C   UNL     1      47.204 130.293  12.507  1.00  0.00     0.001 A 
ATOM     29  C   UNL     1      47.989 129.447  13.296  1.00  0.00     0.001 A 
ENDBRANCH  16  17
ENDBRANCH   5  16
TORSDOF 4
ENDMDL
MODEL 9
REMARK VINA RESULT:      -7.8      3.293      5.049
REMARK SMILES Cc1nnn(Cc2nc3cc4ccccc4cc3[n-]2)c1-c1nnc([C@@H]2C[C@@H]2C)o1
REMARK SMILES IDX 1 1 2 2 3 3 4 4 5 5 20 6 21 7 22 8 29 9 23 10 24 11 25 12
REMARK SMILES IDX 26 13 27 14 28 15 6 16 7 17 8 18 19 19 9 20 18 21 10 22
REMARK SMILES IDX 17 23 11 24 16 25 12 26 15 27 13 28 14 29
REMARK H PARENT
ROOT
ATOM      1  C   UNL     1      44.689 132.077  23.482  1.00  0.00     0.071 C 
ATOM      2  C   UNL     1      43.876 131.962  22.235  1.00  0.00     0.093 A 
ATOM      3  N   UNL     1      43.068 130.921  21.956  1.00  0.00    -0.135 NA
ATOM      4  N   UNL     1      42.535 131.153  20.765  1.00  0.00    -0.066 NA
ATOM      5  N   UNL     1      42.968 132.305  20.275  1.00  0.00    -0.236 N 
ATOM      6  C   UNL     1      43.824 132.845  21.169  1.00  0.00     0.149 A 
ENDROOT
BRANCH   6   7
ATOM      7  C   UNL     1      44.585 134.102  21.008  1.00  0.00     0.267 A 
ATOM      8  N   UNL     1      45.874 134.263  21.363  1.00  0.00    -0.106 NA
ATOM      9  O   UNL     1      44.103 135.202  20.481  1.00  0.00    -0.419 OA
ATOM     10  N   UNL     1      46.202 135.504  21.038  1.00  0.00    -0.112 NA
ATOM     11  C   UNL     1      45.099 136.052  20.495  1.00  0.00     0.220 A 
BRANCH  11  12
ATOM     12  C   UNL     1      45.030 137.455  19.974  1.00  0.00     0.081 C 
ATOM     13  C   UNL     1      45.802 138.484  20.799  1.00  0.00     0.017 C 
ATOM     14  C   UNL     1      44.278 138.482  20.825  1.00  0.00    -0.001 C 
ATOM     15  C   UNL     1      43.658 138.024  22.151  1.00  0.00     0.008 C 
ENDBRANCH  11  12
ENDBRANCH   6   7
BRANCH   5  16
ATOM     16  C   UNL     1      42.588 132.803  18.953  1.00  0.00     0.173 C 
BRANCH  16  17
ATOM     17  C   UNL     1      43.525 132.283  17.905  1.00  0.00    -0.060 A 
ATOM     18  N   UNL     1      43.325 132.478  16.575  1.00  0.00    -0.438 NA
ATOM     19  N   UNL     1      44.621 131.540  18.208  1.00  0.00    -0.438 NA
ATOM     20  C   UNL     1      44.359 131.825  16.026  1.00  0.00    -0.038 A 
ATOM     21  C   UNL     1      45.130 131.266  16.998  1.00  0.00    -0.038 A 
ATOM     22  C   UNL     1      44.656 131.690  14.674  1.00  0.00     0.012 A 
ATOM     23  C   UNL     1      46.270 130.524  16.705  1.00  0.00     0.012 A 
ATOM     24  C   UNL     1      45.803 130.946  14.323  1.00  0.00    -0.018 A 
ATOM     25  C   UNL     1      46.616 130.360  15.345  1.00  0.00    -0.018 A 
ATOM     26  C   UNL     1      46.156 130.774  12.977  1.00  0.00     0.009 A 
ATOM     27  C   UNL     1      47.755 129.624  14.983  1.00  0.00     0.009 A 
ATOM     28  C   UNL     1      47.294 130.038  12.638  1.00  0.00     0.001 A 
ATOM     29  C   UNL     1      48.090 129.467  13.636  1.00  0.00     0.001 A 
ENDBRANCH  16  17
ENDBRANCH   5  16
TORSDOF 4
ENDMDL


