REMARK SMILES Cc1nnn(/C=C2/C[C@@H](C)OC2=O)c1-c1c2ccccc2cc2c(N=[N+]=[N-])cccc12
REMARK SMILES IDX 15 1 16 2 17 3 18 4 19 5 20 6 21 7 22 8 23 9 24 10 28 11
REMARK SMILES IDX 29 12 30 13 31 14 14 15 5 16 4 17 3 18 2 19 1 20 6 21 7 22
REMARK SMILES IDX 12 23 8 24 11 25 9 26 13 27 10 28 25 29 26 30 27 31
REMARK H PARENT
ROOT
ATOM      1  C   UNL     1      -1.297   1.320   0.095  1.00  0.00     0.018 A 
ATOM      2  C   UNL     1      -2.103   1.208  -1.066  1.00  0.00    -0.008 A 
ATOM      3  C   UNL     1      -3.199   0.318  -1.131  1.00  0.00     0.009 A 
ATOM      4  C   UNL     1      -3.977   0.229  -2.287  1.00  0.00     0.001 A 
ATOM      5  C   UNL     1      -3.677   1.015  -3.398  1.00  0.00     0.001 A 
ATOM      6  C   UNL     1      -2.593   1.891  -3.361  1.00  0.00     0.009 A 
ATOM      7  C   UNL     1      -1.799   1.992  -2.206  1.00  0.00    -0.017 A 
ATOM      8  C   UNL     1      -0.704   2.861  -2.191  1.00  0.00     0.018 A 
ATOM      9  C   UNL     1       0.114   2.976  -1.055  1.00  0.00    -0.008 A 
ATOM     10  C   UNL     1       1.225   3.854  -1.054  1.00  0.00     0.045 A 
ATOM     11  C   UNL     1       2.025   3.955   0.097  1.00  0.00     0.011 A 
ATOM     12  C   UNL     1       1.730   3.206   1.232  1.00  0.00     0.001 A 
ATOM     13  C   UNL     1       0.639   2.342   1.240  1.00  0.00     0.009 A 
ATOM     14  C   UNL     1      -0.183   2.203   0.101  1.00  0.00    -0.008 A 
ENDROOT
BRANCH   1  15
ATOM     15  C   UNL     1      -1.605   0.504   1.295  1.00  0.00     0.098 A 
ATOM     16  N   UNL     1      -0.887  -0.544   1.735  1.00  0.00    -0.219 N 
ATOM     17  N   UNL     1      -1.448  -0.986   2.850  1.00  0.00    -0.062 NA
ATOM     18  N   UNL     1      -2.492  -0.234   3.175  1.00  0.00    -0.135 NA
ATOM     19  C   UNL     1      -2.615   0.702   2.213  1.00  0.00     0.088 A 
ATOM     20  C   UNL     1      -3.611   1.815   2.236  1.00  0.00     0.071 C 
BRANCH  16  21
ATOM     21  C   UNL     1       0.206  -1.173   1.052  1.00  0.00     0.126 C 
BRANCH  21  22
ATOM     22  C   UNL     1       1.288  -1.656   1.678  1.00  0.00     0.059 C 
ATOM     23  C   UNL     1       1.654  -1.546   3.076  1.00  0.00     0.335 C 
ATOM     24  C   UNL     1       2.413  -2.346   0.978  1.00  0.00     0.089 C 
ATOM     25  O   UNL     1       2.868  -2.153   3.308  1.00  0.00    -0.459 OA
ATOM     26  C   UNL     1       3.406  -2.714   2.115  1.00  0.00     0.178 C 
ATOM     27  O   UNL     1       1.021  -0.919   3.965  1.00  0.00    -0.247 OA
ATOM     28  C   UNL     1       4.806  -2.159   1.863  1.00  0.00     0.053 C 
ENDBRANCH  21  22
ENDBRANCH  16  21
ENDBRANCH   1  15
BRANCH  10  29
ATOM     29  N   UNL     1       1.527   4.634  -2.224  1.00  0.00    -0.060 NA
BRANCH  29  30
ATOM     30  N   UNL     1       2.478   5.415  -2.275  1.00  0.00     0.005 N 
ATOM     31  N   UNL     1       3.428   6.195  -2.328  1.00  0.00    -0.003 NA
ENDBRANCH  29  30
ENDBRANCH  10  29
TORSDOF 5


