MODEL 1
REMARK VINA RESULT:      -6.5      0.000      0.000
REMARK SMILES C#C/C(C#N)=N\[C@H](c1c(C)n[nH+]n1-c1c2ccccc2c(C(=O)N=[N+]=[N-])c2ccccc12)C(C)C
REMARK SMILES IDX 8 1 9 2 10 3 11 4 12 5 13 7 7 8 6 9 3 10 2 11 1 12 4 13 5 14
REMARK SMILES IDX 33 15 34 16 35 17 14 18 15 19 32 20 16 21 20 22 31 23 27 24
REMARK SMILES IDX 17 25 19 26 21 27 30 28 28 29 18 30 29 31 22 32 23 33 24 34
REMARK SMILES IDX 25 35 26 36
REMARK H PARENT 12 6
ROOT
ATOM      1  C   UNL     1      42.391 135.230  19.411  1.00  0.00     0.137 A 
ATOM      2  C   UNL     1      41.405 135.598  20.315  1.00  0.00     0.135 A 
ATOM      3  C   UNL     1      41.304 136.878  21.080  1.00  0.00     0.076 C 
ATOM      4  N   UNL     1      40.493 134.607  20.381  1.00  0.00     0.020 NA
ATOM      5  N   UNL     1      40.908 133.664  19.549  1.00  0.00    -0.012 N 
ATOM      6  H   UNL     1      40.404 132.763  19.392  1.00  0.00     0.527 HD
ATOM      7  N   UNL     1      42.036 134.008  18.952  1.00  0.00    -0.097 N 
ENDROOT
BRANCH   1   8
ATOM      8  C   UNL     1      43.589 136.063  18.981  1.00  0.00     0.165 C 
BRANCH   8   9
ATOM      9  N   UNL     1      43.155 137.188  18.147  1.00  0.00    -0.256 NA
BRANCH   9  10
ATOM     10  C   UNL     1      42.480 137.102  17.039  1.00  0.00     0.186 C 
BRANCH  10  11
ATOM     11  C   UNL     1      41.094 137.494  16.951  1.00  0.00    -0.039 C 
ATOM     12  C   UNL     1      39.938 137.826  16.873  1.00  0.00     0.012 C 
ENDBRANCH  10  11
BRANCH  10  13
ATOM     13  C   UNL     1      43.133 136.607  15.862  1.00  0.00     0.129 C 
ATOM     14  N   UNL     1      43.661 136.205  14.912  1.00  0.00    -0.190 NA
ENDBRANCH  10  13
ENDBRANCH   9  10
ENDBRANCH   8   9
BRANCH   8  15
ATOM     15  C   UNL     1      44.403 136.596  20.189  1.00  0.00     0.014 C 
ATOM     16  C   UNL     1      45.279 137.790  19.779  1.00  0.00     0.010 C 
ATOM     17  C   UNL     1      45.293 135.506  20.810  1.00  0.00     0.010 C 
ENDBRANCH   8  15
ENDBRANCH   1   8
BRANCH   7  18
ATOM     18  C   UNL     1      42.735 133.166  18.019  1.00  0.00     0.123 A 
ATOM     19  C   UNL     1      42.350 133.142  16.664  1.00  0.00     0.013 A 
ATOM     20  C   UNL     1      43.779 132.333  18.471  1.00  0.00     0.013 A 
ATOM     21  C   UNL     1      41.223 133.868  16.223  1.00  0.00     0.011 A 
ATOM     22  C   UNL     1      43.093 132.376  15.726  1.00  0.00    -0.004 A 
ATOM     23  C   UNL     1      44.089 132.248  19.846  1.00  0.00     0.011 A 
ATOM     24  C   UNL     1      44.530 131.565  17.541  1.00  0.00    -0.004 A 
ATOM     25  C   UNL     1      40.853 133.866  14.880  1.00  0.00     0.001 A 
ATOM     26  C   UNL     1      42.694 132.389  14.369  1.00  0.00     0.009 A 
ATOM     27  C   UNL     1      44.198 131.603  16.164  1.00  0.00     0.040 A 
ATOM     28  C   UNL     1      45.139 131.448  20.292  1.00  0.00     0.001 A 
ATOM     29  C   UNL     1      45.604 130.779  18.019  1.00  0.00     0.009 A 
ATOM     30  C   UNL     1      41.589 133.131  13.954  1.00  0.00     0.001 A 
ATOM     31  C   UNL     1      45.899 130.723  19.381  1.00  0.00     0.001 A 
BRANCH  27  32
ATOM     32  C   UNL     1      44.982 130.809  15.185  1.00  0.00     0.250 C 
ATOM     33  O   UNL     1      44.660 129.612  14.962  1.00  0.00    -0.287 OA
BRANCH  32  34
ATOM     34  N   UNL     1      46.104 131.371  14.498  1.00  0.00    -0.017 NA
BRANCH  34  35
ATOM     35  N   UNL     1      46.438 130.977  13.380  1.00  0.00     0.009 N 
ATOM     36  N   UNL     1      46.770 130.583  12.262  1.00  0.00    -0.003 NA
ENDBRANCH  34  35
ENDBRANCH  32  34
ENDBRANCH  27  32
ENDBRANCH   7  18
TORSDOF 10
ENDMDL
MODEL 2
REMARK VINA RESULT:      -6.2      1.459      3.021
REMARK SMILES C#C/C(C#N)=N\[C@H](c1c(C)n[nH+]n1-c1c2ccccc2c(C(=O)N=[N+]=[N-])c2ccccc12)C(C)C
REMARK SMILES IDX 8 1 9 2 10 3 11 4 12 5 13 7 7 8 6 9 3 10 2 11 1 12 4 13 5 14
REMARK SMILES IDX 33 15 34 16 35 17 14 18 15 19 32 20 16 21 20 22 31 23 27 24
REMARK SMILES IDX 17 25 19 26 21 27 30 28 28 29 18 30 29 31 22 32 23 33 24 34
REMARK SMILES IDX 25 35 26 36
REMARK H PARENT 12 6
ROOT
ATOM      1  C   UNL     1      42.154 135.160  20.261  1.00  0.00     0.137 A 
ATOM      2  C   UNL     1      41.170 135.343  21.221  1.00  0.00     0.135 A 
ATOM      3  C   UNL     1      40.996 136.513  22.134  1.00  0.00     0.076 C 
ATOM      4  N   UNL     1      40.336 134.283  21.188  1.00  0.00     0.020 NA
ATOM      5  N   UNL     1      40.795 133.478  20.242  1.00  0.00    -0.012 N 
ATOM      6  H   UNL     1      40.355 132.566  19.990  1.00  0.00     0.527 HD
ATOM      7  N   UNL     1      41.878 133.975  19.667  1.00  0.00    -0.097 N 
ENDROOT
BRANCH   1   8
ATOM      8  C   UNL     1      43.275 136.126  19.909  1.00  0.00     0.165 C 
BRANCH   8   9
ATOM      9  N   UNL     1      44.580 135.514  20.177  1.00  0.00    -0.256 NA
BRANCH   9  10
ATOM     10  C   UNL     1      45.342 135.760  21.202  1.00  0.00     0.186 C 
BRANCH  10  11
ATOM     11  C   UNL     1      45.605 134.773  22.219  1.00  0.00    -0.039 C 
ATOM     12  C   UNL     1      45.822 133.950  23.073  1.00  0.00     0.012 C 
ENDBRANCH  10  11
BRANCH  10  13
ATOM     13  C   UNL     1      45.950 137.055  21.323  1.00  0.00     0.129 C 
ATOM     14  N   UNL     1      46.441 138.099  21.421  1.00  0.00    -0.190 NA
ENDBRANCH  10  13
ENDBRANCH   9  10
ENDBRANCH   8   9
BRANCH   8  15
ATOM     15  C   UNL     1      43.212 136.588  18.430  1.00  0.00     0.014 C 
ATOM     16  C   UNL     1      44.624 136.729  17.838  1.00  0.00     0.010 C 
ATOM     17  C   UNL     1      42.464 137.923  18.273  1.00  0.00     0.010 C 
ENDBRANCH   8  15
ENDBRANCH   1   8
BRANCH   7  18
ATOM     18  C   UNL     1      42.609 133.303  18.628  1.00  0.00     0.123 A 
ATOM     19  C   UNL     1      42.252 133.492  17.278  1.00  0.00     0.013 A 
ATOM     20  C   UNL     1      43.660 132.424  18.965  1.00  0.00     0.013 A 
ATOM     21  C   UNL     1      41.121 134.263  16.934  1.00  0.00     0.011 A 
ATOM     22  C   UNL     1      43.027 132.897  16.247  1.00  0.00    -0.004 A 
ATOM     23  C   UNL     1      43.943 132.125  20.315  1.00  0.00     0.011 A 
ATOM     24  C   UNL     1      44.442 131.827  17.941  1.00  0.00    -0.004 A 
ATOM     25  C   UNL     1      40.778 134.470  15.599  1.00  0.00     0.001 A 
ATOM     26  C   UNL     1      42.656 133.121  14.900  1.00  0.00     0.009 A 
ATOM     27  C   UNL     1      44.137 132.079  16.580  1.00  0.00     0.040 A 
ATOM     28  C   UNL     1      44.998 131.278  20.651  1.00  0.00     0.001 A 
ATOM     29  C   UNL     1      45.520 130.989  18.311  1.00  0.00     0.009 A 
ATOM     30  C   UNL     1      41.546 133.905  14.585  1.00  0.00     0.001 A 
ATOM     31  C   UNL     1      45.789 130.720  19.653  1.00  0.00     0.001 A 
BRANCH  27  32
ATOM     32  C   UNL     1      44.955 131.464  15.505  1.00  0.00     0.250 C 
ATOM     33  O   UNL     1      44.613 130.348  15.032  1.00  0.00    -0.287 OA
BRANCH  32  34
ATOM     34  N   UNL     1      46.130 132.107  15.002  1.00  0.00    -0.017 NA
BRANCH  34  35
ATOM     35  N   UNL     1      46.899 131.531  14.231  1.00  0.00     0.009 N 
ATOM     36  N   UNL     1      47.667 130.956  13.461  1.00  0.00    -0.003 NA
ENDBRANCH  34  35
ENDBRANCH  32  34
ENDBRANCH  27  32
ENDBRANCH   7  18
TORSDOF 10
ENDMDL
MODEL 3
REMARK VINA RESULT:      -5.9      1.759      3.112
REMARK SMILES C#C/C(C#N)=N\[C@H](c1c(C)n[nH+]n1-c1c2ccccc2c(C(=O)N=[N+]=[N-])c2ccccc12)C(C)C
REMARK SMILES IDX 8 1 9 2 10 3 11 4 12 5 13 7 7 8 6 9 3 10 2 11 1 12 4 13 5 14
REMARK SMILES IDX 33 15 34 16 35 17 14 18 15 19 32 20 16 21 20 22 31 23 27 24
REMARK SMILES IDX 17 25 19 26 21 27 30 28 28 29 18 30 29 31 22 32 23 33 24 34
REMARK SMILES IDX 25 35 26 36
REMARK H PARENT 12 6
ROOT
ATOM      1  C   UNL     1      42.066 135.303  20.288  1.00  0.00     0.137 A 
ATOM      2  C   UNL     1      41.058 135.448  21.230  1.00  0.00     0.135 A 
ATOM      3  C   UNL     1      40.868 136.575  22.192  1.00  0.00     0.076 C 
ATOM      4  N   UNL     1      40.219 134.397  21.124  1.00  0.00     0.020 NA
ATOM      5  N   UNL     1      40.698 133.634  20.154  1.00  0.00    -0.012 N 
ATOM      6  H   UNL     1      40.260 132.738  19.847  1.00  0.00     0.527 HD
ATOM      7  N   UNL     1      41.799 134.150  19.632  1.00  0.00    -0.097 N 
ENDROOT
BRANCH   1   8
ATOM      8  C   UNL     1      43.201 136.277  20.011  1.00  0.00     0.165 C 
BRANCH   8   9
ATOM      9  N   UNL     1      44.497 135.615  20.193  1.00  0.00    -0.256 NA
BRANCH   9  10
ATOM     10  C   UNL     1      45.334 135.829  21.165  1.00  0.00     0.186 C 
BRANCH  10  11
ATOM     11  C   UNL     1      46.121 137.035  21.251  1.00  0.00    -0.039 C 
ATOM     12  C   UNL     1      46.773 138.046  21.324  1.00  0.00     0.012 C 
ENDBRANCH  10  11
BRANCH  10  13
ATOM     13  C   UNL     1      45.477 134.837  22.192  1.00  0.00     0.129 C 
ATOM     14  N   UNL     1      45.593 134.038  23.022  1.00  0.00    -0.190 NA
ENDBRANCH  10  13
ENDBRANCH   9  10
ENDBRANCH   8   9
BRANCH   8  15
ATOM     15  C   UNL     1      43.124 136.884  18.586  1.00  0.00     0.014 C 
ATOM     16  C   UNL     1      44.427 136.633  17.810  1.00  0.00     0.010 C 
ATOM     17  C   UNL     1      42.838 138.395  18.618  1.00  0.00     0.010 C 
ENDBRANCH   8  15
ENDBRANCH   1   8
BRANCH   7  18
ATOM     18  C   UNL     1      42.554 133.522  18.581  1.00  0.00     0.123 A 
ATOM     19  C   UNL     1      42.250 133.797  17.233  1.00  0.00     0.013 A 
ATOM     20  C   UNL     1      43.572 132.601  18.903  1.00  0.00     0.013 A 
ATOM     21  C   UNL     1      41.149 134.612  16.895  1.00  0.00     0.011 A 
ATOM     22  C   UNL     1      43.050 133.245  16.197  1.00  0.00    -0.004 A 
ATOM     23  C   UNL     1      43.800 132.218  20.242  1.00  0.00     0.011 A 
ATOM     24  C   UNL     1      44.379 132.046  17.874  1.00  0.00    -0.004 A 
ATOM     25  C   UNL     1      40.860 134.905  15.564  1.00  0.00     0.001 A 
ATOM     26  C   UNL     1      42.733 133.555  14.854  1.00  0.00     0.009 A 
ATOM     27  C   UNL     1      44.129 132.384  16.521  1.00  0.00     0.040 A 
ATOM     28  C   UNL     1      44.824 131.329  20.565  1.00  0.00     0.001 A 
ATOM     29  C   UNL     1      45.425 131.164  18.232  1.00  0.00     0.009 A 
ATOM     30  C   UNL     1      41.652 134.381  14.546  1.00  0.00     0.001 A 
ATOM     31  C   UNL     1      45.639 130.811  19.564  1.00  0.00     0.001 A 
BRANCH  27  32
ATOM     32  C   UNL     1      44.972 131.813  15.441  1.00  0.00     0.250 C 
ATOM     33  O   UNL     1      45.968 132.464  15.026  1.00  0.00    -0.287 OA
BRANCH  32  34
ATOM     34  N   UNL     1      44.672 130.543  14.853  1.00  0.00    -0.017 NA
BRANCH  34  35
ATOM     35  N   UNL     1      45.563 129.746  14.553  1.00  0.00     0.009 N 
ATOM     36  N   UNL     1      46.452 128.951  14.253  1.00  0.00    -0.003 NA
ENDBRANCH  34  35
ENDBRANCH  32  34
ENDBRANCH  27  32
ENDBRANCH   7  18
TORSDOF 10
ENDMDL
MODEL 4
REMARK VINA RESULT:      -5.8      2.104      3.542
REMARK SMILES C#C/C(C#N)=N\[C@H](c1c(C)n[nH+]n1-c1c2ccccc2c(C(=O)N=[N+]=[N-])c2ccccc12)C(C)C
REMARK SMILES IDX 8 1 9 2 10 3 11 4 12 5 13 7 7 8 6 9 3 10 2 11 1 12 4 13 5 14
REMARK SMILES IDX 33 15 34 16 35 17 14 18 15 19 32 20 16 21 20 22 31 23 27 24
REMARK SMILES IDX 17 25 19 26 21 27 30 28 28 29 18 30 29 31 22 32 23 33 24 34
REMARK SMILES IDX 25 35 26 36
REMARK H PARENT 12 6
ROOT
ATOM      1  C   UNL     1      42.848 135.229  21.031  1.00  0.00     0.137 A 
ATOM      2  C   UNL     1      41.930 135.361  22.063  1.00  0.00     0.135 A 
ATOM      3  C   UNL     1      41.941 136.370  23.165  1.00  0.00     0.076 C 
ATOM      4  N   UNL     1      40.967 134.431  21.902  1.00  0.00     0.020 NA
ATOM      5  N   UNL     1      41.286 133.751  20.811  1.00  0.00    -0.012 N 
ATOM      6  H   UNL     1      40.724 132.955  20.437  1.00  0.00     0.527 HD
ATOM      7  N   UNL     1      42.402 134.206  20.266  1.00  0.00    -0.097 N 
ENDROOT
BRANCH   1   8
ATOM      8  C   UNL     1      44.070 136.100  20.781  1.00  0.00     0.165 C 
BRANCH   8   9
ATOM      9  N   UNL     1      45.286 135.281  20.768  1.00  0.00    -0.256 NA
BRANCH   9  10
ATOM     10  C   UNL     1      46.076 135.071  21.779  1.00  0.00     0.186 C 
BRANCH  10  11
ATOM     11  C   UNL     1      45.620 134.436  22.991  1.00  0.00    -0.039 C 
ATOM     12  C   UNL     1      45.234 133.905  24.002  1.00  0.00     0.012 C 
ENDBRANCH  10  11
BRANCH  10  13
ATOM     13  C   UNL     1      47.449 135.476  21.686  1.00  0.00     0.129 C 
ATOM     14  N   UNL     1      48.558 135.802  21.614  1.00  0.00    -0.190 NA
ENDBRANCH  10  13
ENDBRANCH   9  10
ENDBRANCH   8   9
BRANCH   8  15
ATOM     15  C   UNL     1      43.965 136.896  19.454  1.00  0.00     0.014 C 
ATOM     16  C   UNL     1      45.349 137.388  18.997  1.00  0.00     0.010 C 
ATOM     17  C   UNL     1      43.016 138.100  19.576  1.00  0.00     0.010 C 
ENDBRANCH   8  15
ENDBRANCH   1   8
BRANCH   7  18
ATOM     18  C   UNL     1      43.004 133.639  19.090  1.00  0.00     0.123 A 
ATOM     19  C   UNL     1      42.623 134.095  17.812  1.00  0.00     0.013 A 
ATOM     20  C   UNL     1      43.947 132.598  19.216  1.00  0.00     0.013 A 
ATOM     21  C   UNL     1      41.586 135.041  17.665  1.00  0.00     0.011 A 
ATOM     22  C   UNL     1      43.278 133.597  16.654  1.00  0.00    -0.004 A 
ATOM     23  C   UNL     1      44.241 132.042  20.480  1.00  0.00     0.011 A 
ATOM     24  C   UNL     1      44.610 132.095  18.065  1.00  0.00    -0.004 A 
ATOM     25  C   UNL     1      41.223 135.511  16.405  1.00  0.00     0.001 A 
ATOM     26  C   UNL     1      42.888 134.089  15.387  1.00  0.00     0.009 A 
ATOM     27  C   UNL     1      44.288 132.610  16.784  1.00  0.00     0.040 A 
ATOM     28  C   UNL     1      45.193 131.033  20.611  1.00  0.00     0.001 A 
ATOM     29  C   UNL     1      45.587 131.087  18.230  1.00  0.00     0.009 A 
ATOM     30  C   UNL     1      41.874 135.040  15.269  1.00  0.00     0.001 A 
ATOM     31  C   UNL     1      45.870 130.563  19.491  1.00  0.00     0.001 A 
BRANCH  27  32
ATOM     32  C   UNL     1      44.981 132.095  15.577  1.00  0.00     0.250 C 
ATOM     33  O   UNL     1      46.074 132.613  15.224  1.00  0.00    -0.287 OA
BRANCH  32  34
ATOM     34  N   UNL     1      44.430 131.028  14.799  1.00  0.00    -0.017 NA
BRANCH  34  35
ATOM     35  N   UNL     1      44.764 129.857  14.984  1.00  0.00     0.009 N 
ATOM     36  N   UNL     1      45.097 128.687  15.169  1.00  0.00    -0.003 NA
ENDBRANCH  34  35
ENDBRANCH  32  34
ENDBRANCH  27  32
ENDBRANCH   7  18
TORSDOF 10
ENDMDL
MODEL 5
REMARK VINA RESULT:      -5.6      1.467      3.444
REMARK SMILES C#C/C(C#N)=N\[C@H](c1c(C)n[nH+]n1-c1c2ccccc2c(C(=O)N=[N+]=[N-])c2ccccc12)C(C)C
REMARK SMILES IDX 8 1 9 2 10 3 11 4 12 5 13 7 7 8 6 9 3 10 2 11 1 12 4 13 5 14
REMARK SMILES IDX 33 15 34 16 35 17 14 18 15 19 32 20 16 21 20 22 31 23 27 24
REMARK SMILES IDX 17 25 19 26 21 27 30 28 28 29 18 30 29 31 22 32 23 33 24 34
REMARK SMILES IDX 25 35 26 36
REMARK H PARENT 12 6
ROOT
ATOM      1  C   UNL     1      41.899 135.348  20.049  1.00  0.00     0.137 A 
ATOM      2  C   UNL     1      40.859 135.407  20.964  1.00  0.00     0.135 A 
ATOM      3  C   UNL     1      40.521 136.534  21.886  1.00  0.00     0.076 C 
ATOM      4  N   UNL     1      40.145 134.266  20.876  1.00  0.00     0.020 NA
ATOM      5  N   UNL     1      40.729 133.534  19.941  1.00  0.00    -0.012 N 
ATOM      6  H   UNL     1      40.401 132.585  19.654  1.00  0.00     0.527 HD
ATOM      7  N   UNL     1      41.778 134.154  19.425  1.00  0.00    -0.097 N 
ENDROOT
BRANCH   1   8
ATOM      8  C   UNL     1      42.925 136.435  19.764  1.00  0.00     0.165 C 
BRANCH   8   9
ATOM      9  N   UNL     1      42.256 137.717  19.521  1.00  0.00    -0.256 NA
BRANCH   9  10
ATOM     10  C   UNL     1      41.699 138.087  18.405  1.00  0.00     0.186 C 
BRANCH  10  11
ATOM     11  C   UNL     1      40.272 138.037  18.205  1.00  0.00    -0.039 C 
ATOM     12  C   UNL     1      39.078 137.998  18.041  1.00  0.00     0.012 C 
ENDBRANCH  10  11
BRANCH  10  13
ATOM     13  C   UNL     1      42.529 138.571  17.339  1.00  0.00     0.129 C 
ATOM     14  N   UNL     1      43.199 138.963  16.480  1.00  0.00    -0.190 NA
ENDBRANCH  10  13
ENDBRANCH   9  10
ENDBRANCH   8   9
BRANCH   8  15
ATOM     15  C   UNL     1      43.951 136.595  20.917  1.00  0.00     0.014 C 
ATOM     16  C   UNL     1      44.239 138.080  21.193  1.00  0.00     0.010 C 
ATOM     17  C   UNL     1      45.274 135.871  20.617  1.00  0.00     0.010 C 
ENDBRANCH   8  15
ENDBRANCH   1   8
BRANCH   7  18
ATOM     18  C   UNL     1      42.623 133.584  18.411  1.00  0.00     0.123 A 
ATOM     19  C   UNL     1      43.650 132.689  18.769  1.00  0.00     0.013 A 
ATOM     20  C   UNL     1      42.447 133.954  17.061  1.00  0.00     0.013 A 
ATOM     21  C   UNL     1      43.923 132.412  20.125  1.00  0.00     0.011 A 
ATOM     22  C   UNL     1      44.429 132.060  17.761  1.00  0.00    -0.004 A 
ATOM     23  C   UNL     1      41.510 134.948  16.703  1.00  0.00     0.011 A 
ATOM     24  C   UNL     1      43.219 133.330  16.046  1.00  0.00    -0.004 A 
ATOM     25  C   UNL     1      44.923 131.509  20.482  1.00  0.00     0.001 A 
ATOM     26  C   UNL     1      45.440 131.150  18.151  1.00  0.00     0.009 A 
ATOM     27  C   UNL     1      44.199 132.366  16.396  1.00  0.00     0.040 A 
ATOM     28  C   UNL     1      41.315 135.296  15.368  1.00  0.00     0.001 A 
ATOM     29  C   UNL     1      42.985 133.686  14.698  1.00  0.00     0.009 A 
ATOM     30  C   UNL     1      45.677 130.877  19.498  1.00  0.00     0.001 A 
ATOM     31  C   UNL     1      42.043 134.660  14.368  1.00  0.00     0.001 A 
BRANCH  27  32
ATOM     32  C   UNL     1      45.004 131.704  15.340  1.00  0.00     0.250 C 
ATOM     33  O   UNL     1      46.118 132.195  15.014  1.00  0.00    -0.287 OA
BRANCH  32  34
ATOM     34  N   UNL     1      44.538 130.525  14.676  1.00  0.00    -0.017 NA
BRANCH  34  35
ATOM     35  N   UNL     1      44.880 129.401  15.044  1.00  0.00     0.009 N 
ATOM     36  N   UNL     1      45.222 128.277  15.412  1.00  0.00    -0.003 NA
ENDBRANCH  34  35
ENDBRANCH  32  34
ENDBRANCH  27  32
ENDBRANCH   7  18
TORSDOF 10
ENDMDL
MODEL 6
REMARK VINA RESULT:      -5.4      1.720      3.296
REMARK SMILES C#C/C(C#N)=N\[C@H](c1c(C)n[nH+]n1-c1c2ccccc2c(C(=O)N=[N+]=[N-])c2ccccc12)C(C)C
REMARK SMILES IDX 8 1 9 2 10 3 11 4 12 5 13 7 7 8 6 9 3 10 2 11 1 12 4 13 5 14
REMARK SMILES IDX 33 15 34 16 35 17 14 18 15 19 32 20 16 21 20 22 31 23 27 24
REMARK SMILES IDX 17 25 19 26 21 27 30 28 28 29 18 30 29 31 22 32 23 33 24 34
REMARK SMILES IDX 25 35 26 36
REMARK H PARENT 12 6
ROOT
ATOM      1  C   UNL     1      39.899 135.607  19.161  1.00  0.00     0.137 A 
ATOM      2  C   UNL     1      38.696 135.632  19.850  1.00  0.00     0.135 A 
ATOM      3  C   UNL     1      38.080 136.791  20.564  1.00  0.00     0.076 C 
ATOM      4  N   UNL     1      38.120 134.416  19.750  1.00  0.00     0.020 NA
ATOM      5  N   UNL     1      38.944 133.672  19.028  1.00  0.00    -0.012 N 
ATOM      6  H   UNL     1      38.767 132.672  18.788  1.00  0.00     0.527 HD
ATOM      7  N   UNL     1      40.014 134.357  18.657  1.00  0.00    -0.097 N 
ENDROOT
BRANCH   1   8
ATOM      8  C   UNL     1      40.858 136.771  18.961  1.00  0.00     0.165 C 
BRANCH   8   9
ATOM      9  N   UNL     1      42.239 136.343  19.209  1.00  0.00    -0.256 NA
BRANCH   9  10
ATOM     10  C   UNL     1      42.883 136.457  20.333  1.00  0.00     0.186 C 
BRANCH  10  11
ATOM     11  C   UNL     1      44.080 135.702  20.613  1.00  0.00    -0.039 C 
ATOM     12  C   UNL     1      45.077 135.066  20.846  1.00  0.00     0.012 C 
ENDBRANCH  10  11
BRANCH  10  13
ATOM     13  C   UNL     1      42.394 137.369  21.327  1.00  0.00     0.129 C 
ATOM     14  N   UNL     1      42.001 138.107  22.128  1.00  0.00    -0.190 NA
ENDBRANCH  10  13
ENDBRANCH   9  10
ENDBRANCH   8   9
BRANCH   8  15
ATOM     15  C   UNL     1      40.753 137.386  17.541  1.00  0.00     0.014 C 
ATOM     16  C   UNL     1      41.957 138.295  17.244  1.00  0.00     0.010 C 
ATOM     17  C   UNL     1      39.455 138.190  17.355  1.00  0.00     0.010 C 
ENDBRANCH   8  15
ENDBRANCH   1   8
BRANCH   7  18
ATOM     18  C   UNL     1      41.093 133.796  17.889  1.00  0.00     0.123 A 
ATOM     19  C   UNL     1      41.123 133.960  16.490  1.00  0.00     0.013 A 
ATOM     20  C   UNL     1      42.099 133.049  18.535  1.00  0.00     0.013 A 
ATOM     21  C   UNL     1      40.055 134.591  15.816  1.00  0.00     0.011 A 
ATOM     22  C   UNL     1      42.231 133.482  15.741  1.00  0.00    -0.004 A 
ATOM     23  C   UNL     1      42.013 132.766  19.915  1.00  0.00     0.011 A 
ATOM     24  C   UNL     1      43.213 132.568  17.796  1.00  0.00    -0.004 A 
ATOM     25  C   UNL     1      40.092 134.775  14.436  1.00  0.00     0.001 A 
ATOM     26  C   UNL     1      42.242 133.679  14.340  1.00  0.00     0.009 A 
ATOM     27  C   UNL     1      43.287 132.802  16.400  1.00  0.00     0.040 A 
ATOM     28  C   UNL     1      43.020 132.051  20.561  1.00  0.00     0.001 A 
ATOM     29  C   UNL     1      44.231 131.865  18.480  1.00  0.00     0.009 A 
ATOM     30  C   UNL     1      41.185 134.324  13.700  1.00  0.00     0.001 A 
ATOM     31  C   UNL     1      44.129 131.610  19.847  1.00  0.00     0.001 A 
BRANCH  27  32
ATOM     32  C   UNL     1      44.451 132.310  15.622  1.00  0.00     0.250 C 
ATOM     33  O   UNL     1      45.442 133.067  15.447  1.00  0.00    -0.287 OA
BRANCH  32  34
ATOM     34  N   UNL     1      44.467 130.995  15.056  1.00  0.00    -0.017 NA
BRANCH  34  35
ATOM     35  N   UNL     1      45.123 130.737  14.045  1.00  0.00     0.009 N 
ATOM     36  N   UNL     1      45.778 130.480  13.036  1.00  0.00    -0.003 NA
ENDBRANCH  34  35
ENDBRANCH  32  34
ENDBRANCH  27  32
ENDBRANCH   7  18
TORSDOF 10
ENDMDL
MODEL 7
REMARK VINA RESULT:      -5.3      1.828      4.413
REMARK SMILES C#C/C(C#N)=N\[C@H](c1c(C)n[nH+]n1-c1c2ccccc2c(C(=O)N=[N+]=[N-])c2ccccc12)C(C)C
REMARK SMILES IDX 8 1 9 2 10 3 11 4 12 5 13 7 7 8 6 9 3 10 2 11 1 12 4 13 5 14
REMARK SMILES IDX 33 15 34 16 35 17 14 18 15 19 32 20 16 21 20 22 31 23 27 24
REMARK SMILES IDX 17 25 19 26 21 27 30 28 28 29 18 30 29 31 22 32 23 33 24 34
REMARK SMILES IDX 25 35 26 36
REMARK H PARENT 12 6
ROOT
ATOM      1  C   UNL     1      40.907 135.087  19.508  1.00  0.00     0.137 A 
ATOM      2  C   UNL     1      39.719 135.115  20.225  1.00  0.00     0.135 A 
ATOM      3  C   UNL     1      39.262 136.164  21.186  1.00  0.00     0.076 C 
ATOM      4  N   UNL     1      38.990 134.031  19.889  1.00  0.00     0.020 NA
ATOM      5  N   UNL     1      39.708 133.361  19.000  1.00  0.00    -0.012 N 
ATOM      6  H   UNL     1      39.401 132.465  18.560  1.00  0.00     0.527 HD
ATOM      7  N   UNL     1      40.855 133.968  18.748  1.00  0.00    -0.097 N 
ENDROOT
BRANCH   1   8
ATOM      8  C   UNL     1      42.008 136.136  19.527  1.00  0.00     0.165 C 
BRANCH   8   9
ATOM      9  N   UNL     1      43.089 135.724  20.428  1.00  0.00    -0.256 NA
BRANCH   9  10
ATOM     10  C   UNL     1      43.121 135.904  21.716  1.00  0.00     0.186 C 
BRANCH  10  11
ATOM     11  C   UNL     1      42.601 134.928  22.641  1.00  0.00    -0.039 C 
ATOM     12  C   UNL     1      42.169 134.108  23.413  1.00  0.00     0.012 C 
ENDBRANCH  10  11
BRANCH  10  13
ATOM     13  C   UNL     1      43.699 137.110  22.236  1.00  0.00     0.129 C 
ATOM     14  N   UNL     1      44.166 138.082  22.658  1.00  0.00    -0.190 NA
ENDBRANCH  10  13
ENDBRANCH   9  10
ENDBRANCH   8   9
BRANCH   8  15
ATOM     15  C   UNL     1      42.586 136.412  18.115  1.00  0.00     0.014 C 
ATOM     16  C   UNL     1      44.122 136.345  18.126  1.00  0.00     0.010 C 
ATOM     17  C   UNL     1      42.145 137.781  17.569  1.00  0.00     0.010 C 
ENDBRANCH   8  15
ENDBRANCH   1   8
BRANCH   7  18
ATOM     18  C   UNL     1      41.849 133.454  17.845  1.00  0.00     0.123 A 
ATOM     19  C   UNL     1      42.939 132.712  18.343  1.00  0.00     0.013 A 
ATOM     20  C   UNL     1      41.752 133.726  16.465  1.00  0.00     0.013 A 
ATOM     21  C   UNL     1      43.121 132.545  19.733  1.00  0.00     0.011 A 
ATOM     22  C   UNL     1      43.874 132.131  17.445  1.00  0.00    -0.004 A 
ATOM     23  C   UNL     1      40.740 134.576  15.969  1.00  0.00     0.011 A 
ATOM     24  C   UNL     1      42.680 133.148  15.559  1.00  0.00    -0.004 A 
ATOM     25  C   UNL     1      44.184 131.793  20.228  1.00  0.00     0.001 A 
ATOM     26  C   UNL     1      44.946 131.375  17.974  1.00  0.00     0.009 A 
ATOM     27  C   UNL     1      43.731 132.333  16.049  1.00  0.00     0.040 A 
ATOM     28  C   UNL     1      40.625 134.825  14.602  1.00  0.00     0.001 A 
ATOM     29  C   UNL     1      42.527 133.400  14.176  1.00  0.00     0.009 A 
ATOM     30  C   UNL     1      45.092 131.206  19.351  1.00  0.00     0.001 A 
ATOM     31  C   UNL     1      41.510 134.231  13.708  1.00  0.00     0.001 A 
BRANCH  27  32
ATOM     32  C   UNL     1      44.701 131.720  15.108  1.00  0.00     0.250 C 
ATOM     33  O   UNL     1      45.767 132.332  14.833  1.00  0.00    -0.287 OA
BRANCH  32  34
ATOM     34  N   UNL     1      44.445 130.451  14.496  1.00  0.00    -0.017 NA
BRANCH  34  35
ATOM     35  N   UNL     1      44.815 129.399  15.018  1.00  0.00     0.009 N 
ATOM     36  N   UNL     1      45.185 128.347  15.539  1.00  0.00    -0.003 NA
ENDBRANCH  34  35
ENDBRANCH  32  34
ENDBRANCH  27  32
ENDBRANCH   7  18
TORSDOF 10
ENDMDL
MODEL 8
REMARK VINA RESULT:      -5.2      1.402      1.727
REMARK SMILES C#C/C(C#N)=N\[C@H](c1c(C)n[nH+]n1-c1c2ccccc2c(C(=O)N=[N+]=[N-])c2ccccc12)C(C)C
REMARK SMILES IDX 8 1 9 2 10 3 11 4 12 5 13 7 7 8 6 9 3 10 2 11 1 12 4 13 5 14
REMARK SMILES IDX 33 15 34 16 35 17 14 18 15 19 32 20 16 21 20 22 31 23 27 24
REMARK SMILES IDX 17 25 19 26 21 27 30 28 28 29 18 30 29 31 22 32 23 33 24 34
REMARK SMILES IDX 25 35 26 36
REMARK H PARENT 12 6
ROOT
ATOM      1  C   UNL     1      41.584 135.496  18.777  1.00  0.00     0.137 A 
ATOM      2  C   UNL     1      40.703 135.883  19.777  1.00  0.00     0.135 A 
ATOM      3  C   UNL     1      40.222 137.265  20.079  1.00  0.00     0.076 C 
ATOM      4  N   UNL     1      40.301 134.782  20.445  1.00  0.00     0.020 NA
ATOM      5  N   UNL     1      40.916 133.757  19.875  1.00  0.00    -0.012 N 
ATOM      6  H   UNL     1      40.805 132.766  20.185  1.00  0.00     0.527 HD
ATOM      7  N   UNL     1      41.685 134.150  18.874  1.00  0.00    -0.097 N 
ENDROOT
BRANCH   1   8
ATOM      8  C   UNL     1      42.245 136.397  17.745  1.00  0.00     0.165 C 
BRANCH   8   9
ATOM      9  N   UNL     1      41.417 137.581  17.498  1.00  0.00    -0.256 NA
BRANCH   9  10
ATOM     10  C   UNL     1      40.872 137.908  16.363  1.00  0.00     0.186 C 
BRANCH  10  11
ATOM     11  C   UNL     1      41.554 138.726  15.390  1.00  0.00    -0.039 C 
ATOM     12  C   UNL     1      42.119 139.408  14.573  1.00  0.00     0.012 C 
ENDBRANCH  10  11
BRANCH  10  13
ATOM     13  C   UNL     1      39.551 137.436  16.064  1.00  0.00     0.129 C 
ATOM     14  N   UNL     1      38.485 137.052  15.823  1.00  0.00    -0.190 NA
ENDBRANCH  10  13
ENDBRANCH   9  10
ENDBRANCH   8   9
BRANCH   8  15
ATOM     15  C   UNL     1      43.669 136.838  18.173  1.00  0.00     0.014 C 
ATOM     16  C   UNL     1      44.740 136.148  17.314  1.00  0.00     0.010 C 
ATOM     17  C   UNL     1      43.943 136.541  19.657  1.00  0.00     0.010 C 
ENDBRANCH   8  15
ENDBRANCH   1   8
BRANCH   7  18
ATOM     18  C   UNL     1      42.496 133.255  18.092  1.00  0.00     0.123 A 
ATOM     19  C   UNL     1      42.257 133.112  16.711  1.00  0.00     0.013 A 
ATOM     20  C   UNL     1      43.503 132.492  18.718  1.00  0.00     0.013 A 
ATOM     21  C   UNL     1      41.169 133.767  16.096  1.00  0.00     0.011 A 
ATOM     22  C   UNL     1      43.111 132.294  15.922  1.00  0.00    -0.004 A 
ATOM     23  C   UNL     1      43.666 132.527  20.120  1.00  0.00     0.011 A 
ATOM     24  C   UNL     1      44.364 131.674  17.939  1.00  0.00    -0.004 A 
ATOM     25  C   UNL     1      40.945 133.646  14.726  1.00  0.00     0.001 A 
ATOM     26  C   UNL     1      42.859 132.186  14.535  1.00  0.00     0.009 A 
ATOM     27  C   UNL     1      44.179 131.591  16.536  1.00  0.00     0.040 A 
ATOM     28  C   UNL     1      44.679 131.796  20.739  1.00  0.00     0.001 A 
ATOM     29  C   UNL     1      45.396 130.960  18.590  1.00  0.00     0.009 A 
ATOM     30  C   UNL     1      41.789 132.861  13.947  1.00  0.00     0.001 A 
ATOM     31  C   UNL     1      45.546 131.022  19.975  1.00  0.00     0.001 A 
BRANCH  27  32
ATOM     32  C   UNL     1      45.079 130.744  15.714  1.00  0.00     0.250 C 
ATOM     33  O   UNL     1      44.752 129.552  15.470  1.00  0.00    -0.287 OA
BRANCH  32  34
ATOM     34  N   UNL     1      46.316 131.249  15.202  1.00  0.00    -0.017 NA
BRANCH  34  35
ATOM     35  N   UNL     1      47.163 130.501  14.711  1.00  0.00     0.009 N 
ATOM     36  N   UNL     1      48.008 129.754  14.221  1.00  0.00    -0.003 NA
ENDBRANCH  34  35
ENDBRANCH  32  34
ENDBRANCH  27  32
ENDBRANCH   7  18
TORSDOF 10
ENDMDL
MODEL 9
REMARK VINA RESULT:      -5.2      1.785      2.293
REMARK SMILES C#C/C(C#N)=N\[C@H](c1c(C)n[nH+]n1-c1c2ccccc2c(C(=O)N=[N+]=[N-])c2ccccc12)C(C)C
REMARK SMILES IDX 8 1 9 2 10 3 11 4 12 5 13 7 7 8 6 9 3 10 2 11 1 12 4 13 5 14
REMARK SMILES IDX 33 15 34 16 35 17 14 18 15 19 32 20 16 21 20 22 31 23 27 24
REMARK SMILES IDX 17 25 19 26 21 27 30 28 28 29 18 30 29 31 22 32 23 33 24 34
REMARK SMILES IDX 25 35 26 36
REMARK H PARENT 12 6
ROOT
ATOM      1  C   UNL     1      40.629 136.092  19.335  1.00  0.00     0.137 A 
ATOM      2  C   UNL     1      39.433 136.280  20.013  1.00  0.00     0.135 A 
ATOM      3  C   UNL     1      38.922 137.546  20.622  1.00  0.00     0.076 C 
ATOM      4  N   UNL     1      38.753 135.115  20.014  1.00  0.00     0.020 NA
ATOM      5  N   UNL     1      39.508 134.244  19.363  1.00  0.00    -0.012 N 
ATOM      6  H   UNL     1      39.244 133.246  19.208  1.00  0.00     0.527 HD
ATOM      7  N   UNL     1      40.632 134.798  18.941  1.00  0.00    -0.097 N 
ENDROOT
BRANCH   1   8
ATOM      8  C   UNL     1      41.685 137.147  19.043  1.00  0.00     0.165 C 
BRANCH   8   9
ATOM      9  N   UNL     1      41.084 138.297  18.361  1.00  0.00    -0.256 NA
BRANCH   9  10
ATOM     10  C   UNL     1      40.813 138.376  17.091  1.00  0.00     0.186 C 
BRANCH  10  11
ATOM     11  C   UNL     1      41.740 137.933  16.079  1.00  0.00    -0.039 C 
ATOM     12  C   UNL     1      42.511 137.560  15.230  1.00  0.00     0.012 C 
ENDBRANCH  10  11
BRANCH  10  13
ATOM     13  C   UNL     1      39.548 138.915  16.681  1.00  0.00     0.129 C 
ATOM     14  N   UNL     1      38.527 139.351  16.352  1.00  0.00    -0.190 NA
ENDBRANCH  10  13
ENDBRANCH   9  10
ENDBRANCH   8   9
BRANCH   8  15
ATOM     15  C   UNL     1      42.412 137.626  20.326  1.00  0.00     0.014 C 
ATOM     16  C   UNL     1      42.443 139.162  20.399  1.00  0.00     0.010 C 
ATOM     17  C   UNL     1      43.851 137.088  20.410  1.00  0.00     0.010 C 
ENDBRANCH   8  15
ENDBRANCH   1   8
BRANCH   7  18
ATOM     18  C   UNL     1      41.657 134.082  18.230  1.00  0.00     0.123 A 
ATOM     19  C   UNL     1      41.588 133.958  16.828  1.00  0.00     0.013 A 
ATOM     20  C   UNL     1      42.710 133.471  18.942  1.00  0.00     0.013 A 
ATOM     21  C   UNL     1      40.473 134.450  16.116  1.00  0.00     0.011 A 
ATOM     22  C   UNL     1      42.643 133.326  16.117  1.00  0.00    -0.004 A 
ATOM     23  C   UNL     1      42.721 133.475  20.354  1.00  0.00     0.011 A 
ATOM     24  C   UNL     1      43.770 132.839  18.241  1.00  0.00    -0.004 A 
ATOM     25  C   UNL     1      40.413 134.350  14.728  1.00  0.00     0.001 A 
ATOM     26  C   UNL     1      42.555 133.235  14.708  1.00  0.00     0.009 A 
ATOM     27  C   UNL     1      43.746 132.784  16.825  1.00  0.00     0.040 A 
ATOM     28  C   UNL     1      43.774 132.896  21.060  1.00  0.00     0.001 A 
ATOM     29  C   UNL     1      44.836 132.279  18.982  1.00  0.00     0.009 A 
ATOM     30  C   UNL     1      41.453 133.747  14.025  1.00  0.00     0.001 A 
ATOM     31  C   UNL     1      44.832 132.308  20.376  1.00  0.00     0.001 A 
BRANCH  27  32
ATOM     32  C   UNL     1      44.854 132.131  16.084  1.00  0.00     0.250 C 
ATOM     33  O   UNL     1      45.753 132.844  15.564  1.00  0.00    -0.287 OA
BRANCH  32  34
ATOM     34  N   UNL     1      44.918 130.709  15.939  1.00  0.00    -0.017 NA
BRANCH  34  35
ATOM     35  N   UNL     1      45.436 130.185  14.952  1.00  0.00     0.009 N 
ATOM     36  N   UNL     1      45.954 129.662  13.965  1.00  0.00    -0.003 NA
ENDBRANCH  34  35
ENDBRANCH  32  34
ENDBRANCH  27  32
ENDBRANCH   7  18
TORSDOF 10
ENDMDL


