MODEL 1
REMARK VINA RESULT:      -7.0      0.000      0.000
REMARK SMILES C#C[C@@](O)(c1cc(N=[N+]=[N-])cc(OC(=O)[C@]2([NH3+])C[C@H](CO)C2)c(C(=O)N=[N+]=[N-])cc2cc1CC2)C(C)(C)C
REMARK SMILES IDX 13 1 12 2 5 3 6 4 32 5 7 6 31 7 33 8 11 9 30 10 34 11 29 12
REMARK SMILES IDX 23 13 3 14 2 15 1 16 4 17 35 19 36 20 37 21 38 22 8 23 9 24
REMARK SMILES IDX 10 25 24 26 25 27 26 28 27 29 28 30 14 31 15 32 16 33 18 34
REMARK SMILES IDX 22 35 19 36 17 37 20 41 21 42
REMARK H PARENT 4 18 17 38 17 39 17 40 21 43
ROOT
ATOM      1  O   UNL     1      43.238 132.747  14.941  1.00  0.00    -0.421 OA
ENDROOT
BRANCH   1   2
ATOM      2  C   UNL     1      42.525 133.179  16.078  1.00  0.00     0.142 A 
ATOM      3  C   UNL     1      42.738 133.071  20.341  1.00  0.00    -0.000 A 
ATOM      4  C   UNL     1      41.867 132.205  19.622  1.00  0.00     0.018 A 
ATOM      5  C   UNL     1      42.977 134.375  19.850  1.00  0.00    -0.040 A 
ATOM      6  C   UNL     1      41.606 132.346  18.240  1.00  0.00     0.042 A 
ATOM      7  C   UNL     1      41.952 135.064  19.225  1.00  0.00     0.008 A 
ATOM      8  C   UNL     1      44.282 134.721  19.202  1.00  0.00     0.041 C 
ATOM      9  C   UNL     1      42.668 132.548  17.338  1.00  0.00     0.058 A 
ATOM     10  C   UNL     1      42.367 135.481  17.987  1.00  0.00    -0.047 A 
ATOM     11  C   UNL     1      43.867 135.426  17.909  1.00  0.00     0.040 C 
ATOM     12  C   UNL     1      41.496 135.283  16.905  1.00  0.00     0.019 A 
ATOM     13  C   UNL     1      41.667 134.297  15.906  1.00  0.00     0.067 A 
BRANCH   3  14
ATOM     14  C   UNL     1      43.290 132.669  21.722  1.00  0.00     0.155 C 
BRANCH  14  15
ATOM     15  C   UNL     1      43.310 133.865  22.607  1.00  0.00    -0.066 C 
ATOM     16  C   UNL     1      43.318 134.831  23.330  1.00  0.00     0.007 C 
ENDBRANCH  14  15
BRANCH  14  17
ATOM     17  O   UNL     1      42.424 131.721  22.312  1.00  0.00    -0.373 OA
ATOM     18  H   UNL     1      41.498 131.891  21.993  1.00  0.00     0.213 HD
ENDBRANCH  14  17
BRANCH  14  19
ATOM     19  C   UNL     1      44.737 132.026  21.633  1.00  0.00     0.006 C 
ATOM     20  C   UNL     1      44.945 131.307  20.277  1.00  0.00     0.015 C 
ATOM     21  C   UNL     1      44.924 130.966  22.750  1.00  0.00     0.015 C 
ATOM     22  C   UNL     1      45.857 133.086  21.789  1.00  0.00     0.015 C 
ENDBRANCH  14  19
ENDBRANCH   3  14
BRANCH   6  23
ATOM     23  N   UNL     1      40.285 132.138  17.721  1.00  0.00    -0.061 NA
BRANCH  23  24
ATOM     24  N   UNL     1      39.353 132.892  17.998  1.00  0.00     0.005 N 
ATOM     25  N   UNL     1      38.418 133.647  18.270  1.00  0.00    -0.003 NA
ENDBRANCH  23  24
ENDBRANCH   6  23
BRANCH  13  26
ATOM     26  C   UNL     1      40.909 134.445  14.636  1.00  0.00     0.252 C 
ATOM     27  O   UNL     1      40.378 133.432  14.094  1.00  0.00    -0.287 OA
BRANCH  26  28
ATOM     28  N   UNL     1      40.790 135.724  14.005  1.00  0.00    -0.017 NA
BRANCH  28  29
ATOM     29  N   UNL     1      39.689 136.183  13.701  1.00  0.00     0.009 N 
ATOM     30  N   UNL     1      38.592 136.643  13.394  1.00  0.00    -0.003 NA
ENDBRANCH  28  29
ENDBRANCH  26  28
ENDBRANCH  13  26
ENDBRANCH   1   2
BRANCH   1  31
ATOM     31  C   UNL     1      44.484 132.102  14.885  1.00  0.00     0.373 C 
ATOM     32  O   UNL     1      45.492 132.559  15.485  1.00  0.00    -0.244 OA
BRANCH  31  33
ATOM     33  C   UNL     1      44.601 130.824  14.087  1.00  0.00     0.194 C 
ATOM     34  C   UNL     1      45.924 130.712  13.309  1.00  0.00     0.087 C 
ATOM     35  C   UNL     1      44.985 129.581  14.910  1.00  0.00     0.087 C 
ATOM     36  C   UNL     1      46.296 129.471  14.123  1.00  0.00     0.028 C 
BRANCH  33  37
ATOM     37  N   UNL     1      43.425 130.602  13.233  1.00  0.00    -0.343 N 
ATOM     38  H   UNL     1      42.759 129.952  13.714  1.00  0.00     0.345 HD
ATOM     39  H   UNL     1      43.699 130.183  12.312  1.00  0.00     0.345 HD
ATOM     40  H   UNL     1      42.945 131.514  13.050  1.00  0.00     0.345 HD
ENDBRANCH  33  37
BRANCH  36  41
ATOM     41  C   UNL     1      47.554 129.662  14.988  1.00  0.00     0.160 C 
BRANCH  41  42
ATOM     42  O   UNL     1      47.199 129.834  16.332  1.00  0.00    -0.396 OA
ATOM     43  H   UNL     1      46.234 130.071  16.343  1.00  0.00     0.210 HD
ENDBRANCH  41  42
ENDBRANCH  36  41
ENDBRANCH  31  33
ENDBRANCH   1  31
TORSDOF 15
ENDMDL
MODEL 2
REMARK VINA RESULT:      -6.9      1.318      1.953
REMARK SMILES C#C[C@@](O)(c1cc(N=[N+]=[N-])cc(OC(=O)[C@]2([NH3+])C[C@H](CO)C2)c(C(=O)N=[N+]=[N-])cc2cc1CC2)C(C)(C)C
REMARK SMILES IDX 13 1 12 2 5 3 6 4 32 5 7 6 31 7 33 8 11 9 30 10 34 11 29 12
REMARK SMILES IDX 23 13 3 14 2 15 1 16 4 17 35 19 36 20 37 21 38 22 8 23 9 24
REMARK SMILES IDX 10 25 24 26 25 27 26 28 27 29 28 30 14 31 15 32 16 33 18 34
REMARK SMILES IDX 22 35 19 36 17 37 20 41 21 42
REMARK H PARENT 4 18 17 38 17 39 17 40 21 43
ROOT
ATOM      1  O   UNL     1      43.835 133.065  14.995  1.00  0.00    -0.421 OA
ENDROOT
BRANCH   1   2
ATOM      2  C   UNL     1      43.008 133.381  16.091  1.00  0.00     0.142 A 
ATOM      3  C   UNL     1      43.040 133.359  20.361  1.00  0.00    -0.000 A 
ATOM      4  C   UNL     1      42.363 132.349  19.621  1.00  0.00     0.018 A 
ATOM      5  C   UNL     1      43.074 134.679  19.856  1.00  0.00    -0.040 A 
ATOM      6  C   UNL     1      42.146 132.427  18.226  1.00  0.00     0.042 A 
ATOM      7  C   UNL     1      41.977 135.175  19.174  1.00  0.00     0.008 A 
ATOM      8  C   UNL     1      44.330 135.236  19.259  1.00  0.00     0.041 C 
ATOM      9  C   UNL     1      43.198 132.798  17.368  1.00  0.00     0.058 A 
ATOM     10  C   UNL     1      42.372 135.643  17.948  1.00  0.00    -0.047 A 
ATOM     11  C   UNL     1      43.861 135.845  17.936  1.00  0.00     0.040 C 
ATOM     12  C   UNL     1      41.598 135.288  16.833  1.00  0.00     0.019 A 
ATOM     13  C   UNL     1      41.980 134.334  15.861  1.00  0.00     0.067 A 
BRANCH   3  14
ATOM     14  C   UNL     1      43.587 133.072  21.771  1.00  0.00     0.155 C 
BRANCH  14  15
ATOM     15  C   UNL     1      43.450 131.619  22.062  1.00  0.00    -0.066 C 
ATOM     16  C   UNL     1      43.349 130.439  22.297  1.00  0.00     0.007 C 
ENDBRANCH  14  15
BRANCH  14  17
ATOM     17  O   UNL     1      44.966 133.382  21.809  1.00  0.00    -0.373 OA
ATOM     18  H   UNL     1      45.432 132.852  21.108  1.00  0.00     0.213 HD
ENDBRANCH  14  17
BRANCH  14  19
ATOM     19  C   UNL     1      42.858 133.927  22.891  1.00  0.00     0.006 C 
ATOM     20  C   UNL     1      43.135 133.351  24.302  1.00  0.00     0.015 C 
ATOM     21  C   UNL     1      41.322 133.896  22.674  1.00  0.00     0.015 C 
ATOM     22  C   UNL     1      43.311 135.409  22.882  1.00  0.00     0.015 C 
ENDBRANCH  14  19
ENDBRANCH   3  14
BRANCH   6  23
ATOM     23  N   UNL     1      40.905 131.990  17.654  1.00  0.00    -0.061 NA
BRANCH  23  24
ATOM     24  N   UNL     1      39.858 132.617  17.819  1.00  0.00     0.005 N 
ATOM     25  N   UNL     1      38.814 133.248  17.988  1.00  0.00    -0.003 NA
ENDBRANCH  23  24
ENDBRANCH   6  23
BRANCH  13  26
ATOM     26  C   UNL     1      41.268 134.335  14.557  1.00  0.00     0.252 C 
ATOM     27  O   UNL     1      41.583 135.174  13.663  1.00  0.00    -0.287 OA
BRANCH  26  28
ATOM     28  N   UNL     1      40.209 133.406  14.306  1.00  0.00    -0.017 NA
BRANCH  28  29
ATOM     29  N   UNL     1      39.030 133.754  14.363  1.00  0.00     0.009 N 
ATOM     30  N   UNL     1      37.853 134.106  14.419  1.00  0.00    -0.003 NA
ENDBRANCH  28  29
ENDBRANCH  26  28
ENDBRANCH  13  26
ENDBRANCH   1   2
BRANCH   1  31
ATOM     31  C   UNL     1      44.933 132.190  14.953  1.00  0.00     0.373 C 
ATOM     32  O   UNL     1      46.019 132.465  15.527  1.00  0.00    -0.244 OA
BRANCH  31  33
ATOM     33  C   UNL     1      44.790 130.886  14.202  1.00  0.00     0.194 C 
ATOM     34  C   UNL     1      45.835 130.708  13.088  1.00  0.00     0.087 C 
ATOM     35  C   UNL     1      45.364 129.656  14.930  1.00  0.00     0.087 C 
ATOM     36  C   UNL     1      46.394 129.481  13.809  1.00  0.00     0.028 C 
BRANCH  33  37
ATOM     37  N   UNL     1      43.415 130.677  13.725  1.00  0.00    -0.343 N 
ATOM     38  H   UNL     1      42.961 129.918  14.284  1.00  0.00     0.345 HD
ATOM     39  H   UNL     1      43.403 130.404  12.713  1.00  0.00     0.345 HD
ATOM     40  H   UNL     1      42.867 131.562  13.834  1.00  0.00     0.345 HD
ENDBRANCH  33  37
BRANCH  36  41
ATOM     41  C   UNL     1      47.850 129.656  14.275  1.00  0.00     0.160 C 
BRANCH  41  42
ATOM     42  O   UNL     1      48.722 128.983  13.409  1.00  0.00    -0.396 OA
ATOM     43  H   UNL     1      48.340 129.073  12.495  1.00  0.00     0.210 HD
ENDBRANCH  41  42
ENDBRANCH  36  41
ENDBRANCH  31  33
ENDBRANCH   1  31
TORSDOF 15
ENDMDL
MODEL 3
REMARK VINA RESULT:      -6.6      3.076      6.512
REMARK SMILES C#C[C@@](O)(c1cc(N=[N+]=[N-])cc(OC(=O)[C@]2([NH3+])C[C@H](CO)C2)c(C(=O)N=[N+]=[N-])cc2cc1CC2)C(C)(C)C
REMARK SMILES IDX 13 1 12 2 5 3 6 4 32 5 7 6 31 7 33 8 11 9 30 10 34 11 29 12
REMARK SMILES IDX 23 13 3 14 2 15 1 16 4 17 35 19 36 20 37 21 38 22 8 23 9 24
REMARK SMILES IDX 10 25 24 26 25 27 26 28 27 29 28 30 14 31 15 32 16 33 18 34
REMARK SMILES IDX 22 35 19 36 17 37 20 41 21 42
REMARK H PARENT 4 18 17 38 17 39 17 40 21 43
ROOT
ATOM      1  O   UNL     1      43.801 132.178  16.482  1.00  0.00    -0.421 OA
ENDROOT
BRANCH   1   2
ATOM      2  C   UNL     1      43.155 133.341  16.947  1.00  0.00     0.142 A 
ATOM      3  C   UNL     1      40.192 136.171  15.744  1.00  0.00    -0.000 A 
ATOM      4  C   UNL     1      41.580 136.479  15.674  1.00  0.00     0.018 A 
ATOM      5  C   UNL     1      39.718 135.349  16.791  1.00  0.00    -0.040 A 
ATOM      6  C   UNL     1      42.581 135.666  16.253  1.00  0.00     0.042 A 
ATOM      7  C   UNL     1      40.297 135.443  18.045  1.00  0.00     0.008 A 
ATOM      8  C   UNL     1      39.320 133.929  16.527  1.00  0.00     0.041 C 
ATOM      9  C   UNL     1      42.556 134.271  16.062  1.00  0.00     0.058 A 
ATOM     10  C   UNL     1      40.713 134.202  18.452  1.00  0.00    -0.047 A 
ATOM     11  C   UNL     1      40.040 133.143  17.625  1.00  0.00     0.040 C 
ATOM     12  C   UNL     1      41.995 134.094  19.011  1.00  0.00     0.019 A 
ATOM     13  C   UNL     1      43.114 133.530  18.353  1.00  0.00     0.067 A 
BRANCH   3  14
ATOM     14  C   UNL     1      39.184 136.851  14.798  1.00  0.00     0.155 C 
BRANCH  14  15
ATOM     15  C   UNL     1      37.943 137.169  15.555  1.00  0.00    -0.066 C 
ATOM     16  C   UNL     1      36.939 137.418  16.176  1.00  0.00     0.007 C 
ENDBRANCH  14  15
BRANCH  14  17
ATOM     17  O   UNL     1      39.724 138.073  14.339  1.00  0.00    -0.373 OA
ATOM     18  H   UNL     1      40.102 137.935  13.430  1.00  0.00     0.213 HD
ENDBRANCH  14  17
BRANCH  14  19
ATOM     19  C   UNL     1      38.842 135.956  13.533  1.00  0.00     0.006 C 
ATOM     20  C   UNL     1      40.016 135.007  13.187  1.00  0.00     0.015 C 
ATOM     21  C   UNL     1      38.595 136.854  12.291  1.00  0.00     0.015 C 
ATOM     22  C   UNL     1      37.576 135.091  13.755  1.00  0.00     0.015 C 
ENDBRANCH  14  19
ENDBRANCH   3  14
BRANCH   6  23
ATOM     23  N   UNL     1      43.712 136.255  16.911  1.00  0.00    -0.061 NA
BRANCH  23  24
ATOM     24  N   UNL     1      43.578 137.092  17.804  1.00  0.00     0.005 N 
ATOM     25  N   UNL     1      43.444 137.925  18.701  1.00  0.00    -0.003 NA
ENDBRANCH  23  24
ENDBRANCH   6  23
BRANCH  13  26
ATOM     26  C   UNL     1      44.285 133.130  19.176  1.00  0.00     0.252 C 
ATOM     27  O   UNL     1      44.910 133.998  19.853  1.00  0.00    -0.287 OA
BRANCH  26  28
ATOM     28  N   UNL     1      44.728 131.770  19.197  1.00  0.00    -0.017 NA
BRANCH  28  29
ATOM     29  N   UNL     1      45.549 131.381  20.028  1.00  0.00     0.009 N 
ATOM     30  N   UNL     1      46.370 130.991  20.855  1.00  0.00    -0.003 NA
ENDBRANCH  28  29
ENDBRANCH  26  28
ENDBRANCH  13  26
ENDBRANCH   1   2
BRANCH   1  31
ATOM     31  C   UNL     1      44.813 132.068  15.515  1.00  0.00     0.373 C 
ATOM     32  O   UNL     1      45.804 132.845  15.505  1.00  0.00    -0.244 OA
BRANCH  31  33
ATOM     33  C   UNL     1      44.700 130.982  14.471  1.00  0.00     0.194 C 
ATOM     34  C   UNL     1      45.845 131.004  13.444  1.00  0.00     0.087 C 
ATOM     35  C   UNL     1      45.153 129.586  14.939  1.00  0.00     0.087 C 
ATOM     36  C   UNL     1      46.284 129.613  13.906  1.00  0.00     0.028 C 
BRANCH  33  37
ATOM     37  N   UNL     1      43.374 130.968  13.836  1.00  0.00    -0.343 N 
ATOM     38  H   UNL     1      42.846 130.117  14.143  1.00  0.00     0.345 HD
ATOM     39  H   UNL     1      43.454 130.957  12.791  1.00  0.00     0.345 HD
ATOM     40  H   UNL     1      42.841 131.824  14.116  1.00  0.00     0.345 HD
ENDBRANCH  33  37
BRANCH  36  41
ATOM     41  C   UNL     1      47.691 129.592  14.529  1.00  0.00     0.160 C 
BRANCH  41  42
ATOM     42  O   UNL     1      48.621 129.084  13.612  1.00  0.00    -0.396 OA
ATOM     43  H   UNL     1      49.270 128.543  14.135  1.00  0.00     0.210 HD
ENDBRANCH  41  42
ENDBRANCH  36  41
ENDBRANCH  31  33
ENDBRANCH   1  31
TORSDOF 15
ENDMDL
MODEL 4
REMARK VINA RESULT:      -6.5      3.218      6.633
REMARK SMILES C#C[C@@](O)(c1cc(N=[N+]=[N-])cc(OC(=O)[C@]2([NH3+])C[C@H](CO)C2)c(C(=O)N=[N+]=[N-])cc2cc1CC2)C(C)(C)C
REMARK SMILES IDX 13 1 12 2 5 3 6 4 32 5 7 6 31 7 33 8 11 9 30 10 34 11 29 12
REMARK SMILES IDX 23 13 3 14 2 15 1 16 4 17 35 19 36 20 37 21 38 22 8 23 9 24
REMARK SMILES IDX 10 25 24 26 25 27 26 28 27 29 28 30 14 31 15 32 16 33 18 34
REMARK SMILES IDX 22 35 19 36 17 37 20 41 21 42
REMARK H PARENT 4 18 17 38 17 39 17 40 21 43
ROOT
ATOM      1  O   UNL     1      43.265 131.994  16.962  1.00  0.00    -0.421 OA
ENDROOT
BRANCH   1   2
ATOM      2  C   UNL     1      42.728 133.254  17.294  1.00  0.00     0.142 A 
ATOM      3  C   UNL     1      40.008 136.180  15.786  1.00  0.00    -0.000 A 
ATOM      4  C   UNL     1      41.417 136.355  15.679  1.00  0.00     0.018 A 
ATOM      5  C   UNL     1      39.477 135.525  16.920  1.00  0.00    -0.040 A 
ATOM      6  C   UNL     1      42.350 135.528  16.343  1.00  0.00     0.042 A 
ATOM      7  C   UNL     1      40.077 135.708  18.154  1.00  0.00     0.008 A 
ATOM      8  C   UNL     1      38.954 134.125  16.819  1.00  0.00     0.041 C 
ATOM      9  C   UNL     1      42.202 134.128  16.311  1.00  0.00     0.058 A 
ATOM     10  C   UNL     1      40.389 134.489  18.698  1.00  0.00    -0.047 A 
ATOM     11  C   UNL     1      39.617 133.407  17.997  1.00  0.00     0.040 C 
ATOM     12  C   UNL     1      41.663 134.333  19.263  1.00  0.00     0.019 A 
ATOM     13  C   UNL     1      42.721 133.603  18.670  1.00  0.00     0.067 A 
BRANCH   3  14
ATOM     14  C   UNL     1      39.052 136.835  14.771  1.00  0.00     0.155 C 
BRANCH  14  15
ATOM     15  C   UNL     1      37.813 137.265  15.476  1.00  0.00    -0.066 C 
ATOM     16  C   UNL     1      36.815 137.612  16.058  1.00  0.00     0.007 C 
ENDBRANCH  14  15
BRANCH  14  17
ATOM     17  O   UNL     1      39.658 137.993  14.237  1.00  0.00    -0.373 OA
ATOM     18  H   UNL     1      39.287 138.791  14.700  1.00  0.00     0.213 HD
ENDBRANCH  14  17
BRANCH  14  19
ATOM     19  C   UNL     1      38.690 135.867  13.567  1.00  0.00     0.006 C 
ATOM     20  C   UNL     1      38.433 136.668  12.267  1.00  0.00     0.015 C 
ATOM     21  C   UNL     1      37.393 135.076  13.885  1.00  0.00     0.015 C 
ATOM     22  C   UNL     1      39.816 134.842  13.283  1.00  0.00     0.015 C 
ENDBRANCH  14  19
ENDBRANCH   3  14
BRANCH   6  23
ATOM     23  N   UNL     1      43.535 136.086  16.928  1.00  0.00    -0.061 NA
BRANCH  23  24
ATOM     24  N   UNL     1      43.497 137.091  17.638  1.00  0.00     0.005 N 
ATOM     25  N   UNL     1      43.459 138.092  18.354  1.00  0.00    -0.003 NA
ENDBRANCH  23  24
ENDBRANCH   6  23
BRANCH  13  26
ATOM     26  C   UNL     1      43.862 133.197  19.530  1.00  0.00     0.252 C 
ATOM     27  O   UNL     1      44.734 134.049  19.871  1.00  0.00    -0.287 OA
BRANCH  26  28
ATOM     28  N   UNL     1      43.999 131.840  19.965  1.00  0.00    -0.017 NA
BRANCH  28  29
ATOM     29  N   UNL     1      45.093 131.387  20.303  1.00  0.00     0.009 N 
ATOM     30  N   UNL     1      46.186 130.937  20.637  1.00  0.00    -0.003 NA
ENDBRANCH  28  29
ENDBRANCH  26  28
ENDBRANCH  13  26
ENDBRANCH   1   2
BRANCH   1  31
ATOM     31  C   UNL     1      43.929 131.610  15.787  1.00  0.00     0.373 C 
ATOM     32  O   UNL     1      43.417 131.788  14.650  1.00  0.00    -0.244 OA
BRANCH  31  33
ATOM     33  C   UNL     1      45.295 130.975  15.902  1.00  0.00     0.194 C 
ATOM     34  C   UNL     1      45.451 129.705  15.048  1.00  0.00     0.087 C 
ATOM     35  C   UNL     1      46.399 131.660  15.075  1.00  0.00     0.087 C 
ATOM     36  C   UNL     1      46.553 130.388  14.236  1.00  0.00     0.028 C 
BRANCH  33  37
ATOM     37  N   UNL     1      45.683 130.762  17.305  1.00  0.00    -0.343 N 
ATOM     38  H   UNL     1      46.067 129.794  17.420  1.00  0.00     0.345 HD
ATOM     39  H   UNL     1      44.863 130.878  17.946  1.00  0.00     0.345 HD
ATOM     40  H   UNL     1      46.416 131.458  17.577  1.00  0.00     0.345 HD
ENDBRANCH  33  37
BRANCH  36  41
ATOM     41  C   UNL     1      46.192 130.577  12.753  1.00  0.00     0.160 C 
BRANCH  41  42
ATOM     42  O   UNL     1      47.330 130.421  11.951  1.00  0.00    -0.396 OA
ATOM     43  H   UNL     1      47.328 129.479  11.634  1.00  0.00     0.210 HD
ENDBRANCH  41  42
ENDBRANCH  36  41
ENDBRANCH  31  33
ENDBRANCH   1  31
TORSDOF 15
ENDMDL
MODEL 5
REMARK VINA RESULT:      -6.4      3.328      6.370
REMARK SMILES C#C[C@@](O)(c1cc(N=[N+]=[N-])cc(OC(=O)[C@]2([NH3+])C[C@H](CO)C2)c(C(=O)N=[N+]=[N-])cc2cc1CC2)C(C)(C)C
REMARK SMILES IDX 13 1 12 2 5 3 6 4 32 5 7 6 31 7 33 8 11 9 30 10 34 11 29 12
REMARK SMILES IDX 23 13 3 14 2 15 1 16 4 17 35 19 36 20 37 21 38 22 8 23 9 24
REMARK SMILES IDX 10 25 24 26 25 27 26 28 27 29 28 30 14 31 15 32 16 33 18 34
REMARK SMILES IDX 22 35 19 36 17 37 20 41 21 42
REMARK H PARENT 4 18 17 38 17 39 17 40 21 43
ROOT
ATOM      1  O   UNL     1      45.392 132.397  17.181  1.00  0.00    -0.421 OA
ENDROOT
BRANCH   1   2
ATOM      2  C   UNL     1      44.415 133.302  17.642  1.00  0.00     0.142 A 
ATOM      3  C   UNL     1      41.619 136.172  16.167  1.00  0.00    -0.000 A 
ATOM      4  C   UNL     1      42.853 136.574  16.751  1.00  0.00     0.018 A 
ATOM      5  C   UNL     1      40.959 135.025  16.665  1.00  0.00    -0.040 A 
ATOM      6  C   UNL     1      43.708 135.684  17.439  1.00  0.00     0.042 A 
ATOM      7  C   UNL     1      41.015 134.744  18.020  1.00  0.00     0.008 A 
ATOM      8  C   UNL     1      40.958 133.745  15.887  1.00  0.00     0.041 C 
ATOM      9  C   UNL     1      44.016 134.428  16.881  1.00  0.00     0.058 A 
ATOM     10  C   UNL     1      41.479 133.468  18.205  1.00  0.00    -0.047 A 
ATOM     11  C   UNL     1      41.364 132.693  16.922  1.00  0.00     0.040 C 
ATOM     12  C   UNL     1      42.465 133.267  19.181  1.00  0.00     0.019 A 
ATOM     13  C   UNL     1      43.831 133.021  18.905  1.00  0.00     0.067 A 
BRANCH   3  14
ATOM     14  C   UNL     1      40.916 137.055  15.119  1.00  0.00     0.155 C 
BRANCH  14  15
ATOM     15  C   UNL     1      41.816 138.179  14.745  1.00  0.00    -0.066 C 
ATOM     16  C   UNL     1      42.548 139.094  14.453  1.00  0.00     0.007 C 
ENDBRANCH  14  15
BRANCH  14  17
ATOM     17  O   UNL     1      40.680 136.296  13.950  1.00  0.00    -0.373 OA
ATOM     18  H   UNL     1      41.505 136.300  13.395  1.00  0.00     0.213 HD
ENDBRANCH  14  17
BRANCH  14  19
ATOM     19  C   UNL     1      39.523 137.614  15.633  1.00  0.00     0.006 C 
ATOM     20  C   UNL     1      39.638 138.146  17.084  1.00  0.00     0.015 C 
ATOM     21  C   UNL     1      38.460 136.484  15.640  1.00  0.00     0.015 C 
ATOM     22  C   UNL     1      38.991 138.764  14.742  1.00  0.00     0.015 C 
ENDBRANCH  14  19
ENDBRANCH   3  14
BRANCH   6  23
ATOM     23  N   UNL     1      44.390 136.099  18.631  1.00  0.00    -0.061 NA
BRANCH  23  24
ATOM     24  N   UNL     1      43.784 136.574  19.592  1.00  0.00     0.005 N 
ATOM     25  N   UNL     1      43.175 137.051  20.550  1.00  0.00    -0.003 NA
ENDBRANCH  23  24
ENDBRANCH   6  23
BRANCH  13  26
ATOM     26  C   UNL     1      44.675 132.452  19.988  1.00  0.00     0.252 C 
ATOM     27  O   UNL     1      44.638 131.212  20.235  1.00  0.00    -0.287 OA
BRANCH  26  28
ATOM     28  N   UNL     1      45.520 133.300  20.772  1.00  0.00    -0.017 NA
BRANCH  28  29
ATOM     29  N   UNL     1      45.435 133.323  22.000  1.00  0.00     0.009 N 
ATOM     30  N   UNL     1      45.348 133.342  23.226  1.00  0.00    -0.003 NA
ENDBRANCH  28  29
ENDBRANCH  26  28
ENDBRANCH  13  26
ENDBRANCH   1   2
BRANCH   1  31
ATOM     31  C   UNL     1      45.205 131.143  16.577  1.00  0.00     0.373 C 
ATOM     32  O   UNL     1      45.121 130.087  17.260  1.00  0.00    -0.244 OA
BRANCH  31  33
ATOM     33  C   UNL     1      45.095 131.074  15.072  1.00  0.00     0.194 C 
ATOM     34  C   UNL     1      46.350 131.587  14.346  1.00  0.00     0.087 C 
ATOM     35  C   UNL     1      45.325 129.675  14.471  1.00  0.00     0.087 C 
ATOM     36  C   UNL     1      46.568 130.198  13.744  1.00  0.00     0.028 C 
BRANCH  33  37
ATOM     37  N   UNL     1      43.862 131.709  14.583  1.00  0.00    -0.343 N 
ATOM     38  H   UNL     1      44.040 132.149  13.650  1.00  0.00     0.345 HD
ATOM     39  H   UNL     1      43.528 132.448  15.247  1.00  0.00     0.345 HD
ATOM     40  H   UNL     1      43.109 130.988  14.486  1.00  0.00     0.345 HD
ENDBRANCH  33  37
BRANCH  36  41
ATOM     41  C   UNL     1      47.877 129.532  14.200  1.00  0.00     0.160 C 
BRANCH  41  42
ATOM     42  O   UNL     1      48.561 128.998  13.100  1.00  0.00    -0.396 OA
ATOM     43  H   UNL     1      47.869 128.718  12.444  1.00  0.00     0.210 HD
ENDBRANCH  41  42
ENDBRANCH  36  41
ENDBRANCH  31  33
ENDBRANCH   1  31
TORSDOF 15
ENDMDL
MODEL 6
REMARK VINA RESULT:      -6.1      1.854      2.398
REMARK SMILES C#C[C@@](O)(c1cc(N=[N+]=[N-])cc(OC(=O)[C@]2([NH3+])C[C@H](CO)C2)c(C(=O)N=[N+]=[N-])cc2cc1CC2)C(C)(C)C
REMARK SMILES IDX 13 1 12 2 5 3 6 4 32 5 7 6 31 7 33 8 11 9 30 10 34 11 29 12
REMARK SMILES IDX 23 13 3 14 2 15 1 16 4 17 35 19 36 20 37 21 38 22 8 23 9 24
REMARK SMILES IDX 10 25 24 26 25 27 26 28 27 29 28 30 14 31 15 32 16 33 18 34
REMARK SMILES IDX 22 35 19 36 17 37 20 41 21 42
REMARK H PARENT 4 18 17 38 17 39 17 40 21 43
ROOT
ATOM      1  O   UNL     1      43.125 132.281  16.124  1.00  0.00    -0.421 OA
ENDROOT
BRANCH   1   2
ATOM      2  C   UNL     1      42.344 133.264  16.764  1.00  0.00     0.142 A 
ATOM      3  C   UNL     1      41.846 135.109  20.583  1.00  0.00    -0.000 A 
ATOM      4  C   UNL     1      40.942 134.112  20.119  1.00  0.00     0.018 A 
ATOM      5  C   UNL     1      42.424 136.005  19.654  1.00  0.00    -0.040 A 
ATOM      6  C   UNL     1      40.940 133.629  18.791  1.00  0.00     0.042 A 
ATOM      7  C   UNL     1      41.676 136.438  18.572  1.00  0.00     0.008 A 
ATOM      8  C   UNL     1      43.859 135.865  19.248  1.00  0.00     0.041 C 
ATOM      9  C   UNL     1      42.151 133.273  18.167  1.00  0.00     0.058 A 
ATOM     10  C   UNL     1      42.361 136.188  17.411  1.00  0.00    -0.047 A 
ATOM     11  C   UNL     1      43.810 135.936  17.720  1.00  0.00     0.040 C 
ATOM     12  C   UNL     1      41.652 135.614  16.346  1.00  0.00     0.019 A 
ATOM     13  C   UNL     1      41.773 134.265  15.934  1.00  0.00     0.067 A 
BRANCH   3  14
ATOM     14  C   UNL     1      42.075 135.328  22.090  1.00  0.00     0.155 C 
BRANCH  14  15
ATOM     15  C   UNL     1      42.822 136.600  22.290  1.00  0.00    -0.066 C 
ATOM     16  C   UNL     1      43.419 137.637  22.446  1.00  0.00     0.007 C 
ENDBRANCH  14  15
BRANCH  14  17
ATOM     17  O   UNL     1      40.827 135.465  22.737  1.00  0.00    -0.373 OA
ATOM     18  H   UNL     1      40.984 135.716  23.686  1.00  0.00     0.213 HD
ENDBRANCH  14  17
BRANCH  14  19
ATOM     19  C   UNL     1      42.853 134.123  22.767  1.00  0.00     0.006 C 
ATOM     20  C   UNL     1      43.752 134.620  23.926  1.00  0.00     0.015 C 
ATOM     21  C   UNL     1      43.779 133.431  21.731  1.00  0.00     0.015 C 
ATOM     22  C   UNL     1      41.889 133.051  23.335  1.00  0.00     0.015 C 
ENDBRANCH  14  19
ENDBRANCH   3  14
BRANCH   6  23
ATOM     23  N   UNL     1      39.705 133.354  18.115  1.00  0.00    -0.061 NA
BRANCH  23  24
ATOM     24  N   UNL     1      38.768 134.153  18.125  1.00  0.00     0.005 N 
ATOM     25  N   UNL     1      37.834 134.956  18.131  1.00  0.00    -0.003 NA
ENDBRANCH  23  24
ENDBRANCH   6  23
BRANCH  13  26
ATOM     26  C   UNL     1      41.275 133.895  14.584  1.00  0.00     0.252 C 
ATOM     27  O   UNL     1      41.940 134.211  13.555  1.00  0.00    -0.287 OA
BRANCH  26  28
ATOM     28  N   UNL     1      40.034 133.199  14.433  1.00  0.00    -0.017 NA
BRANCH  28  29
ATOM     29  N   UNL     1      38.963 133.806  14.410  1.00  0.00     0.009 N 
ATOM     30  N   UNL     1      37.895 134.415  14.386  1.00  0.00    -0.003 NA
ENDBRANCH  28  29
ENDBRANCH  26  28
ENDBRANCH  13  26
ENDBRANCH   1   2
BRANCH   1  31
ATOM     31  C   UNL     1      44.495 132.315  15.819  1.00  0.00     0.373 C 
ATOM     32  O   UNL     1      45.075 133.387  15.501  1.00  0.00    -0.244 OA
BRANCH  31  33
ATOM     33  C   UNL     1      45.283 131.027  15.885  1.00  0.00     0.194 C 
ATOM     34  C   UNL     1      44.812 129.972  14.869  1.00  0.00     0.087 C 
ATOM     35  C   UNL     1      46.657 131.074  15.192  1.00  0.00     0.087 C 
ATOM     36  C   UNL     1      46.182 130.016  14.191  1.00  0.00     0.028 C 
BRANCH  33  37
ATOM     37  N   UNL     1      45.353 130.498  17.256  1.00  0.00    -0.343 N 
ATOM     38  H   UNL     1      44.923 131.184  17.919  1.00  0.00     0.345 HD
ATOM     39  H   UNL     1      46.345 130.326  17.545  1.00  0.00     0.345 HD
ATOM     40  H   UNL     1      44.831 129.592  17.310  1.00  0.00     0.345 HD
ENDBRANCH  33  37
BRANCH  36  41
ATOM     41  C   UNL     1      46.129 130.518  12.738  1.00  0.00     0.160 C 
BRANCH  41  42
ATOM     42  O   UNL     1      47.380 130.367  12.125  1.00  0.00    -0.396 OA
ATOM     43  H   UNL     1      48.040 130.828  12.708  1.00  0.00     0.210 HD
ENDBRANCH  41  42
ENDBRANCH  36  41
ENDBRANCH  31  33
ENDBRANCH   1  31
TORSDOF 15
ENDMDL
MODEL 7
REMARK VINA RESULT:      -6.1      2.797      3.650
REMARK SMILES C#C[C@@](O)(c1cc(N=[N+]=[N-])cc(OC(=O)[C@]2([NH3+])C[C@H](CO)C2)c(C(=O)N=[N+]=[N-])cc2cc1CC2)C(C)(C)C
REMARK SMILES IDX 13 1 12 2 5 3 6 4 32 5 7 6 31 7 33 8 11 9 30 10 34 11 29 12
REMARK SMILES IDX 23 13 3 14 2 15 1 16 4 17 35 19 36 20 37 21 38 22 8 23 9 24
REMARK SMILES IDX 10 25 24 26 25 27 26 28 27 29 28 30 14 31 15 32 16 33 18 34
REMARK SMILES IDX 22 35 19 36 17 37 20 41 21 42
REMARK H PARENT 4 18 17 38 17 39 17 40 21 43
ROOT
ATOM      1  O   UNL     1      43.724 133.440  16.240  1.00  0.00    -0.421 OA
ENDROOT
BRANCH   1   2
ATOM      2  C   UNL     1      43.380 134.085  17.445  1.00  0.00     0.142 A 
ATOM      3  C   UNL     1      45.204 135.888  20.859  1.00  0.00    -0.000 A 
ATOM      4  C   UNL     1      44.643 134.581  20.924  1.00  0.00     0.018 A 
ATOM      5  C   UNL     1      44.598 136.860  20.030  1.00  0.00    -0.040 A 
ATOM      6  C   UNL     1      43.848 134.030  19.893  1.00  0.00     0.042 A 
ATOM      7  C   UNL     1      43.221 136.873  19.892  1.00  0.00     0.008 A 
ATOM      8  C   UNL     1      45.236 137.265  18.736  1.00  0.00     0.041 C 
ATOM      9  C   UNL     1      44.263 134.130  18.551  1.00  0.00     0.058 A 
ATOM     10  C   UNL     1      42.893 136.820  18.562  1.00  0.00    -0.047 A 
ATOM     11  C   UNL     1      44.088 137.186  17.728  1.00  0.00     0.040 C 
ATOM     12  C   UNL     1      41.882 135.928  18.175  1.00  0.00     0.019 A 
ATOM     13  C   UNL     1      42.105 134.708  17.493  1.00  0.00     0.067 A 
BRANCH   3  14
ATOM     14  C   UNL     1      46.352 136.302  21.798  1.00  0.00     0.155 C 
BRANCH  14  15
ATOM     15  C   UNL     1      47.412 135.257  21.762  1.00  0.00    -0.066 C 
ATOM     16  C   UNL     1      48.278 134.418  21.729  1.00  0.00     0.007 C 
ENDBRANCH  14  15
BRANCH  14  17
ATOM     17  O   UNL     1      46.928 137.504  21.330  1.00  0.00    -0.373 OA
ATOM     18  H   UNL     1      46.426 137.809  20.528  1.00  0.00     0.213 HD
ENDBRANCH  14  17
BRANCH  14  19
ATOM     19  C   UNL     1      45.863 136.537  23.288  1.00  0.00     0.006 C 
ATOM     20  C   UNL     1      46.853 137.440  24.065  1.00  0.00     0.015 C 
ATOM     21  C   UNL     1      45.781 135.185  24.046  1.00  0.00     0.015 C 
ATOM     22  C   UNL     1      44.464 137.200  23.346  1.00  0.00     0.015 C 
ENDBRANCH  14  19
ENDBRANCH   3  14
BRANCH   6  23
ATOM     23  N   UNL     1      42.695 133.236  20.204  1.00  0.00    -0.061 NA
BRANCH  23  24
ATOM     24  N   UNL     1      42.253 133.155  21.351  1.00  0.00     0.005 N 
ATOM     25  N   UNL     1      41.816 133.078  22.500  1.00  0.00    -0.003 NA
ENDBRANCH  23  24
ENDBRANCH   6  23
BRANCH  13  26
ATOM     26  C   UNL     1      40.953 134.063  16.812  1.00  0.00     0.252 C 
ATOM     27  O   UNL     1      40.481 132.977  17.257  1.00  0.00    -0.287 OA
BRANCH  26  28
ATOM     28  N   UNL     1      40.380 134.651  15.639  1.00  0.00    -0.017 NA
BRANCH  28  29
ATOM     29  N   UNL     1      39.821 133.958  14.789  1.00  0.00     0.009 N 
ATOM     30  N   UNL     1      39.267 133.264  13.939  1.00  0.00    -0.003 NA
ENDBRANCH  28  29
ENDBRANCH  26  28
ENDBRANCH  13  26
ENDBRANCH   1   2
BRANCH   1  31
ATOM     31  C   UNL     1      43.714 132.066  15.951  1.00  0.00     0.373 C 
ATOM     32  O   UNL     1      42.672 131.483  15.549  1.00  0.00    -0.244 OA
BRANCH  31  33
ATOM     33  C   UNL     1      44.993 131.281  16.123  1.00  0.00     0.194 C 
ATOM     34  C   UNL     1      44.996 129.946  15.359  1.00  0.00     0.087 C 
ATOM     35  C   UNL     1      46.173 131.770  15.262  1.00  0.00     0.087 C 
ATOM     36  C   UNL     1      46.173 130.434  14.513  1.00  0.00     0.028 C 
BRANCH  33  37
ATOM     37  N   UNL     1      45.350 131.119  17.541  1.00  0.00    -0.343 N 
ATOM     38  H   UNL     1      46.392 131.096  17.640  1.00  0.00     0.345 HD
ATOM     39  H   UNL     1      44.953 130.232  17.932  1.00  0.00     0.345 HD
ATOM     40  H   UNL     1      44.969 131.923  18.093  1.00  0.00     0.345 HD
ENDBRANCH  33  37
BRANCH  36  41
ATOM     41  C   UNL     1      45.840 130.563  13.017  1.00  0.00     0.160 C 
BRANCH  41  42
ATOM     42  O   UNL     1      47.018 130.587  12.258  1.00  0.00    -0.396 OA
ATOM     43  H   UNL     1      46.855 130.014  11.463  1.00  0.00     0.210 HD
ENDBRANCH  41  42
ENDBRANCH  36  41
ENDBRANCH  31  33
ENDBRANCH   1  31
TORSDOF 15
ENDMDL
MODEL 8
REMARK VINA RESULT:      -6.0      1.635      2.052
REMARK SMILES C#C[C@@](O)(c1cc(N=[N+]=[N-])cc(OC(=O)[C@]2([NH3+])C[C@H](CO)C2)c(C(=O)N=[N+]=[N-])cc2cc1CC2)C(C)(C)C
REMARK SMILES IDX 13 1 12 2 5 3 6 4 32 5 7 6 31 7 33 8 11 9 30 10 34 11 29 12
REMARK SMILES IDX 23 13 3 14 2 15 1 16 4 17 35 19 36 20 37 21 38 22 8 23 9 24
REMARK SMILES IDX 10 25 24 26 25 27 26 28 27 29 28 30 14 31 15 32 16 33 18 34
REMARK SMILES IDX 22 35 19 36 17 37 20 41 21 42
REMARK H PARENT 4 18 17 38 17 39 17 40 21 43
ROOT
ATOM      1  O   UNL     1      43.537 131.734  15.731  1.00  0.00    -0.421 OA
ENDROOT
BRANCH   1   2
ATOM      2  C   UNL     1      42.732 132.676  16.403  1.00  0.00     0.142 A 
ATOM      3  C   UNL     1      42.406 134.638  20.182  1.00  0.00    -0.000 A 
ATOM      4  C   UNL     1      41.555 133.549  19.838  1.00  0.00     0.018 A 
ATOM      5  C   UNL     1      42.820 135.537  19.173  1.00  0.00    -0.040 A 
ATOM      6  C   UNL     1      41.481 133.009  18.533  1.00  0.00     0.042 A 
ATOM      7  C   UNL     1      41.946 135.858  18.148  1.00  0.00     0.008 A 
ATOM      8  C   UNL     1      44.221 135.501  18.645  1.00  0.00     0.041 C 
ATOM      9  C   UNL     1      42.660 132.729  17.817  1.00  0.00     0.058 A 
ATOM     10  C   UNL     1      42.548 135.616  16.940  1.00  0.00    -0.047 A 
ATOM     11  C   UNL     1      44.034 135.501  17.126  1.00  0.00     0.040 C 
ATOM     12  C   UNL     1      41.803 134.938  15.964  1.00  0.00     0.019 A 
ATOM     13  C   UNL     1      42.006 133.588  15.592  1.00  0.00     0.067 A 
BRANCH   3  14
ATOM     14  C   UNL     1      42.744 134.941  21.653  1.00  0.00     0.155 C 
BRANCH  14  15
ATOM     15  C   UNL     1      42.761 136.416  21.856  1.00  0.00    -0.066 C 
ATOM     16  C   UNL     1      42.763 137.611  22.022  1.00  0.00     0.007 C 
ENDBRANCH  14  15
BRANCH  14  17
ATOM     17  O   UNL     1      41.730 134.413  22.484  1.00  0.00    -0.373 OA
ATOM     18  H   UNL     1      42.034 133.536  22.841  1.00  0.00     0.213 HD
ENDBRANCH  14  17
BRANCH  14  19
ATOM     19  C   UNL     1      44.128 134.310  22.100  1.00  0.00     0.006 C 
ATOM     20  C   UNL     1      45.294 135.305  21.876  1.00  0.00     0.015 C 
ATOM     21  C   UNL     1      44.437 133.042  21.260  1.00  0.00     0.015 C 
ATOM     22  C   UNL     1      44.129 133.902  23.595  1.00  0.00     0.015 C 
ENDBRANCH  14  19
ENDBRANCH   3  14
BRANCH   6  23
ATOM     23  N   UNL     1      40.221 132.602  17.982  1.00  0.00    -0.061 NA
BRANCH  23  24
ATOM     24  N   UNL     1      39.284 133.390  17.854  1.00  0.00     0.005 N 
ATOM     25  N   UNL     1      38.344 134.176  17.731  1.00  0.00    -0.003 NA
ENDBRANCH  23  24
ENDBRANCH   6  23
BRANCH  13  26
ATOM     26  C   UNL     1      41.428 133.119  14.307  1.00  0.00     0.252 C 
ATOM     27  O   UNL     1      42.163 132.540  13.455  1.00  0.00    -0.287 OA
BRANCH  26  28
ATOM     28  N   UNL     1      40.044 133.333  14.011  1.00  0.00    -0.017 NA
BRANCH  28  29
ATOM     29  N   UNL     1      39.636 134.432  13.635  1.00  0.00     0.009 N 
ATOM     30  N   UNL     1      39.232 135.531  13.262  1.00  0.00    -0.003 NA
ENDBRANCH  28  29
ENDBRANCH  26  28
ENDBRANCH  13  26
ENDBRANCH   1   2
BRANCH   1  31
ATOM     31  C   UNL     1      44.932 131.736  15.569  1.00  0.00     0.373 C 
ATOM     32  O   UNL     1      45.563 132.789  15.288  1.00  0.00    -0.244 OA
BRANCH  31  33
ATOM     33  C   UNL     1      45.683 130.437  15.747  1.00  0.00     0.194 C 
ATOM     34  C   UNL     1      45.444 129.435  14.604  1.00  0.00     0.087 C 
ATOM     35  C   UNL     1      47.176 130.497  15.375  1.00  0.00     0.087 C 
ATOM     36  C   UNL     1      46.930 129.491  14.246  1.00  0.00     0.028 C 
BRANCH  33  37
ATOM     37  N   UNL     1      45.448 129.846  17.073  1.00  0.00    -0.343 N 
ATOM     38  H   UNL     1      45.652 130.556  17.815  1.00  0.00     0.345 HD
ATOM     39  H   UNL     1      46.060 129.010  17.229  1.00  0.00     0.345 HD
ATOM     40  H   UNL     1      44.449 129.542  17.151  1.00  0.00     0.345 HD
ENDBRANCH  33  37
BRANCH  36  41
ATOM     41  C   UNL     1      47.199 130.059  12.842  1.00  0.00     0.160 C 
BRANCH  41  42
ATOM     42  O   UNL     1      46.026 130.606  12.306  1.00  0.00    -0.396 OA
ATOM     43  H   UNL     1      46.215 130.801  11.349  1.00  0.00     0.210 HD
ENDBRANCH  41  42
ENDBRANCH  36  41
ENDBRANCH  31  33
ENDBRANCH   1  31
TORSDOF 15
ENDMDL
MODEL 9
REMARK VINA RESULT:      -6.0      3.299      6.332
REMARK SMILES C#C[C@@](O)(c1cc(N=[N+]=[N-])cc(OC(=O)[C@]2([NH3+])C[C@H](CO)C2)c(C(=O)N=[N+]=[N-])cc2cc1CC2)C(C)(C)C
REMARK SMILES IDX 13 1 12 2 5 3 6 4 32 5 7 6 31 7 33 8 11 9 30 10 34 11 29 12
REMARK SMILES IDX 23 13 3 14 2 15 1 16 4 17 35 19 36 20 37 21 38 22 8 23 9 24
REMARK SMILES IDX 10 25 24 26 25 27 26 28 27 29 28 30 14 31 15 32 16 33 18 34
REMARK SMILES IDX 22 35 19 36 17 37 20 41 21 42
REMARK H PARENT 4 18 17 38 17 39 17 40 21 43
ROOT
ATOM      1  O   UNL     1      44.849 132.675  17.470  1.00  0.00    -0.421 OA
ENDROOT
BRANCH   1   2
ATOM      2  C   UNL     1      43.862 133.604  17.858  1.00  0.00     0.142 A 
ATOM      3  C   UNL     1      40.400 135.574  16.319  1.00  0.00    -0.000 A 
ATOM      4  C   UNL     1      41.651 136.246  16.419  1.00  0.00     0.018 A 
ATOM      5  C   UNL     1      40.050 134.616  17.298  1.00  0.00    -0.040 A 
ATOM      6  C   UNL     1      42.762 135.712  17.110  1.00  0.00     0.042 A 
ATOM      7  C   UNL     1      40.434 134.815  18.613  1.00  0.00     0.008 A 
ATOM      8  C   UNL     1      40.086 133.152  16.981  1.00  0.00     0.041 C 
ATOM      9  C   UNL     1      43.139 134.370  16.911  1.00  0.00     0.058 A 
ATOM     10  C   UNL     1      41.122 133.718  19.061  1.00  0.00    -0.047 A 
ATOM     11  C   UNL     1      40.862 132.549  18.155  1.00  0.00     0.040 C 
ATOM     12  C   UNL     1      42.312 133.939  19.771  1.00  0.00     0.019 A 
ATOM     13  C   UNL     1      43.610 133.722  19.250  1.00  0.00     0.067 A 
BRANCH   3  14
ATOM     14  C   UNL     1      39.361 135.991  15.262  1.00  0.00     0.155 C 
BRANCH  14  15
ATOM     15  C   UNL     1      37.997 135.873  15.845  1.00  0.00    -0.066 C 
ATOM     16  C   UNL     1      36.895 135.772  16.327  1.00  0.00     0.007 C 
ENDBRANCH  14  15
BRANCH  14  17
ATOM     17  O   UNL     1      39.560 137.348  14.922  1.00  0.00    -0.373 OA
ATOM     18  H   UNL     1      38.721 137.850  15.105  1.00  0.00     0.213 HD
ENDBRANCH  14  17
BRANCH  14  19
ATOM     19  C   UNL     1      39.467 135.129  13.934  1.00  0.00     0.006 C 
ATOM     20  C   UNL     1      38.546 133.886  14.002  1.00  0.00     0.015 C 
ATOM     21  C   UNL     1      40.919 134.617  13.741  1.00  0.00     0.015 C 
ATOM     22  C   UNL     1      39.078 135.945  12.676  1.00  0.00     0.015 C 
ENDBRANCH  14  19
ENDBRANCH   3  14
BRANCH   6  23
ATOM     23  N   UNL     1      43.606 136.559  17.903  1.00  0.00    -0.061 NA
BRANCH  23  24
ATOM     24  N   UNL     1      43.155 137.259  18.810  1.00  0.00     0.005 N 
ATOM     25  N   UNL     1      42.698 137.959  19.714  1.00  0.00    -0.003 NA
ENDBRANCH  23  24
ENDBRANCH   6  23
BRANCH  13  26
ATOM     26  C   UNL     1      44.743 133.622  20.207  1.00  0.00     0.252 C 
ATOM     27  O   UNL     1      45.174 132.486  20.562  1.00  0.00    -0.287 OA
BRANCH  26  28
ATOM     28  N   UNL     1      45.343 134.803  20.749  1.00  0.00    -0.017 NA
BRANCH  28  29
ATOM     29  N   UNL     1      45.078 135.184  21.889  1.00  0.00     0.009 N 
ATOM     30  N   UNL     1      44.812 135.568  23.026  1.00  0.00    -0.003 NA
ENDBRANCH  28  29
ENDBRANCH  26  28
ENDBRANCH  13  26
ENDBRANCH   1   2
BRANCH   1  31
ATOM     31  C   UNL     1      45.159 132.220  16.178  1.00  0.00     0.373 C 
ATOM     32  O   UNL     1      44.942 132.926  15.158  1.00  0.00    -0.244 OA
BRANCH  31  33
ATOM     33  C   UNL     1      45.776 130.849  16.024  1.00  0.00     0.194 C 
ATOM     34  C   UNL     1      45.018 129.948  15.034  1.00  0.00     0.087 C 
ATOM     35  C   UNL     1      47.017 130.798  15.113  1.00  0.00     0.087 C 
ATOM     36  C   UNL     1      46.257 129.893  14.138  1.00  0.00     0.028 C 
BRANCH  33  37
ATOM     37  N   UNL     1      45.995 130.198  17.324  1.00  0.00    -0.343 N 
ATOM     38  H   UNL     1      45.428 130.681  18.059  1.00  0.00     0.345 HD
ATOM     39  H   UNL     1      47.006 130.233  17.600  1.00  0.00     0.345 HD
ATOM     40  H   UNL     1      45.704 129.194  17.268  1.00  0.00     0.345 HD
ENDBRANCH  33  37
BRANCH  36  41
ATOM     41  C   UNL     1      46.038 130.523  12.752  1.00  0.00     0.160 C 
BRANCH  41  42
ATOM     42  O   UNL     1      47.151 130.295  11.932  1.00  0.00    -0.396 OA
ATOM     43  H   UNL     1      47.292 131.125  11.406  1.00  0.00     0.210 HD
ENDBRANCH  41  42
ENDBRANCH  36  41
ENDBRANCH  31  33
ENDBRANCH   1  31
TORSDOF 15
ENDMDL


