MODEL 1
REMARK VINA RESULT:      -7.4      0.000      0.000
REMARK SMILES C#CCO/C(O)=C/[C@@H]1c2c(N=[N+]=[N-])ccc3c2[C@@H](C[C@H]1C(=O)N=[N+]=[N-])C(=O)N(O)C3=O
REMARK SMILES IDX 7 1 5 2 4 3 3 4 2 5 1 6 6 7 8 9 9 10 20 11 10 12 17 13 19 14
REMARK SMILES IDX 14 15 16 16 18 17 15 18 30 19 26 20 28 21 31 22 27 23 21 24
REMARK SMILES IDX 22 25 23 26 24 27 25 28 11 29 12 30 13 31 29 32
REMARK H PARENT 6 8 29 33
ROOT
ATOM      1  C   UNL     1      45.283 132.127  16.429  1.00  0.00     0.070 C 
ENDROOT
BRANCH   1   2
ATOM      2  C   UNL     1      45.644 130.876  16.128  1.00  0.00     0.274 C 
BRANCH   2   3
ATOM      3  O   UNL     1      44.868 130.158  15.210  1.00  0.00    -0.453 OA
BRANCH   3   4
ATOM      4  C   UNL     1      44.674 130.559  13.860  1.00  0.00     0.322 C 
BRANCH   4   5
ATOM      5  C   UNL     1      45.959 130.538  13.162  1.00  0.00    -0.065 C 
ATOM      6  C   UNL     1      47.019 130.521  12.587  1.00  0.00     0.007 C 
ENDBRANCH   4   5
ENDBRANCH   3   4
ENDBRANCH   2   3
BRANCH   2   7
ATOM      7  O   UNL     1      46.776 130.311  16.723  1.00  0.00    -0.481 OA
ATOM      8  H   UNL     1      47.433 130.856  17.266  1.00  0.00     0.296 HD
ENDBRANCH   2   7
ENDBRANCH   1   2
BRANCH   1   9
ATOM      9  C   UNL     1      43.954 132.465  17.070  1.00  0.00     0.060 C 
ATOM     10  C   UNL     1      43.773 133.980  17.062  1.00  0.00    -0.026 A 
ATOM     11  C   UNL     1      43.865 131.844  18.486  1.00  0.00     0.076 C 
ATOM     12  C   UNL     1      43.447 134.626  15.845  1.00  0.00     0.042 A 
ATOM     13  C   UNL     1      44.051 134.761  18.219  1.00  0.00    -0.018 A 
ATOM     14  C   UNL     1      44.696 132.655  19.489  1.00  0.00     0.031 C 
ATOM     15  C   UNL     1      43.389 136.027  15.794  1.00  0.00     0.011 A 
ATOM     16  C   UNL     1      44.026 136.172  18.128  1.00  0.00     0.047 A 
ATOM     17  C   UNL     1      44.197 134.107  19.589  1.00  0.00     0.113 C 
ATOM     18  C   UNL     1      43.686 136.790  16.919  1.00  0.00     0.015 A 
ATOM     19  C   UNL     1      44.424 136.990  19.294  1.00  0.00     0.284 C 
ATOM     20  C   UNL     1      45.057 134.932  20.518  1.00  0.00     0.261 C 
ATOM     21  N   UNL     1      45.030 136.361  20.426  1.00  0.00    -0.151 N 
ATOM     22  O   UNL     1      44.273 138.242  19.282  1.00  0.00    -0.266 OA
ATOM     23  O   UNL     1      45.714 134.381  21.443  1.00  0.00    -0.271 OA
BRANCH  11  24
ATOM     24  C   UNL     1      42.438 131.679  18.957  1.00  0.00     0.222 C 
ATOM     25  O   UNL     1      42.183 131.466  20.176  1.00  0.00    -0.292 OA
BRANCH  24  26
ATOM     26  N   UNL     1      41.377 131.716  17.999  1.00  0.00    -0.022 NA
BRANCH  26  27
ATOM     27  N   UNL     1      40.659 132.710  17.878  1.00  0.00     0.008 N 
ATOM     28  N   UNL     1      39.943 133.702  17.756  1.00  0.00    -0.003 NA
ENDBRANCH  26  27
ENDBRANCH  24  26
ENDBRANCH  11  24
BRANCH  12  29
ATOM     29  N   UNL     1      43.191 133.839  14.669  1.00  0.00    -0.060 NA
BRANCH  29  30
ATOM     30  N   UNL     1      42.077 133.386  14.404  1.00  0.00     0.005 N 
ATOM     31  N   UNL     1      40.962 132.936  14.140  1.00  0.00    -0.003 NA
ENDBRANCH  29  30
ENDBRANCH  12  29
BRANCH  21  32
ATOM     32  O   UNL     1      45.569 137.115  21.415  1.00  0.00    -0.278 OA
ATOM     33  H   UNL     1      45.060 137.965  21.397  1.00  0.00     0.247 HD
ENDBRANCH  21  32
ENDBRANCH   1   9
TORSDOF 12
ENDMDL
MODEL 2
REMARK VINA RESULT:      -6.6      1.341      1.456
REMARK SMILES C#CCO/C(O)=C/[C@@H]1c2c(N=[N+]=[N-])ccc3c2[C@@H](C[C@H]1C(=O)N=[N+]=[N-])C(=O)N(O)C3=O
REMARK SMILES IDX 7 1 5 2 4 3 3 4 2 5 1 6 6 7 8 9 9 10 20 11 10 12 17 13 19 14
REMARK SMILES IDX 14 15 16 16 18 17 15 18 30 19 26 20 28 21 31 22 27 23 21 24
REMARK SMILES IDX 22 25 23 26 24 27 25 28 11 29 12 30 13 31 29 32
REMARK H PARENT 6 8 29 33
ROOT
ATOM      1  C   UNL     1      45.258 132.030  16.636  1.00  0.00     0.070 C 
ENDROOT
BRANCH   1   2
ATOM      2  C   UNL     1      45.757 130.791  16.584  1.00  0.00     0.274 C 
BRANCH   2   3
ATOM      3  O   UNL     1      45.534 130.027  15.432  1.00  0.00    -0.453 OA
BRANCH   3   4
ATOM      4  C   UNL     1      45.015 130.563  14.222  1.00  0.00     0.322 C 
BRANCH   4   5
ATOM      5  C   UNL     1      46.066 130.562  13.205  1.00  0.00    -0.065 C 
ATOM      6  C   UNL     1      46.933 130.561  12.366  1.00  0.00     0.007 C 
ENDBRANCH   4   5
ENDBRANCH   3   4
ENDBRANCH   2   3
BRANCH   2   7
ATOM      7  O   UNL     1      46.483 130.285  17.665  1.00  0.00    -0.481 OA
ATOM      8  H   UNL     1      46.226 130.467  18.626  1.00  0.00     0.296 HD
ENDBRANCH   2   7
ENDBRANCH   1   2
BRANCH   1   9
ATOM      9  C   UNL     1      43.968 132.366  17.354  1.00  0.00     0.060 C 
ATOM     10  C   UNL     1      43.694 133.859  17.204  1.00  0.00    -0.026 A 
ATOM     11  C   UNL     1      44.038 131.901  18.830  1.00  0.00     0.076 C 
ATOM     12  C   UNL     1      43.227 134.349  15.960  1.00  0.00     0.042 A 
ATOM     13  C   UNL     1      44.019 134.776  18.242  1.00  0.00    -0.018 A 
ATOM     14  C   UNL     1      44.899 132.861  19.663  1.00  0.00     0.031 C 
ATOM     15  C   UNL     1      43.078 135.731  15.767  1.00  0.00     0.011 A 
ATOM     16  C   UNL     1      43.899 136.166  18.006  1.00  0.00     0.047 A 
ATOM     17  C   UNL     1      44.320 134.286  19.655  1.00  0.00     0.113 C 
ATOM     18  C   UNL     1      43.420 136.628  16.774  1.00  0.00     0.015 A 
ATOM     19  C   UNL     1      44.342 137.127  19.039  1.00  0.00     0.284 C 
ATOM     20  C   UNL     1      45.203 135.252  20.410  1.00  0.00     0.261 C 
ATOM     21  N   UNL     1      45.080 136.659  20.171  1.00  0.00    -0.151 N 
ATOM     22  O   UNL     1      44.113 138.361  18.909  1.00  0.00    -0.266 OA
ATOM     23  O   UNL     1      45.969 134.843  21.324  1.00  0.00    -0.271 OA
BRANCH  11  24
ATOM     24  C   UNL     1      42.669 131.714  19.443  1.00  0.00     0.222 C 
ATOM     25  O   UNL     1      41.628 132.026  18.799  1.00  0.00    -0.292 OA
BRANCH  24  26
ATOM     26  N   UNL     1      42.563 131.226  20.783  1.00  0.00    -0.022 NA
BRANCH  26  27
ATOM     27  N   UNL     1      42.397 131.993  21.732  1.00  0.00     0.008 N 
ATOM     28  N   UNL     1      42.230 132.759  22.680  1.00  0.00    -0.003 NA
ENDBRANCH  26  27
ENDBRANCH  24  26
ENDBRANCH  11  24
BRANCH  12  29
ATOM     29  N   UNL     1      42.922 133.425  14.901  1.00  0.00    -0.060 NA
BRANCH  29  30
ATOM     30  N   UNL     1      41.779 133.264  14.471  1.00  0.00     0.005 N 
ATOM     31  N   UNL     1      40.639 133.102  14.038  1.00  0.00    -0.003 NA
ENDBRANCH  29  30
ENDBRANCH  12  29
BRANCH  21  32
ATOM     32  O   UNL     1      45.652 137.545  21.023  1.00  0.00    -0.278 OA
ATOM     33  H   UNL     1      45.923 138.311  20.454  1.00  0.00     0.247 HD
ENDBRANCH  21  32
ENDBRANCH   1   9
TORSDOF 12
ENDMDL
MODEL 3
REMARK VINA RESULT:      -6.4      2.795      5.155
REMARK SMILES C#CCO/C(O)=C/[C@@H]1c2c(N=[N+]=[N-])ccc3c2[C@@H](C[C@H]1C(=O)N=[N+]=[N-])C(=O)N(O)C3=O
REMARK SMILES IDX 7 1 5 2 4 3 3 4 2 5 1 6 6 7 8 9 9 10 20 11 10 12 17 13 19 14
REMARK SMILES IDX 14 15 16 16 18 17 15 18 30 19 26 20 28 21 31 22 27 23 21 24
REMARK SMILES IDX 22 25 23 26 24 27 25 28 11 29 12 30 13 31 29 32
REMARK H PARENT 6 8 29 33
ROOT
ATOM      1  C   UNL     1      44.121 131.558  17.384  1.00  0.00     0.070 C 
ENDROOT
BRANCH   1   2
ATOM      2  C   UNL     1      45.271 130.907  17.180  1.00  0.00     0.274 C 
BRANCH   2   3
ATOM      3  O   UNL     1      45.678 130.666  15.862  1.00  0.00    -0.453 OA
BRANCH   3   4
ATOM      4  C   UNL     1      46.379 131.617  15.069  1.00  0.00     0.322 C 
BRANCH   4   5
ATOM      5  C   UNL     1      46.658 131.037  13.756  1.00  0.00    -0.065 C 
ATOM      6  C   UNL     1      46.888 130.559  12.673  1.00  0.00     0.007 C 
ENDBRANCH   4   5
ENDBRANCH   3   4
ENDBRANCH   2   3
BRANCH   2   7
ATOM      7  O   UNL     1      46.038 130.483  18.268  1.00  0.00    -0.481 OA
ATOM      8  H   UNL     1      46.328 129.521  18.387  1.00  0.00     0.296 HD
ENDBRANCH   2   7
ENDBRANCH   1   2
BRANCH   1   9
ATOM      9  C   UNL     1      44.047 133.063  17.534  1.00  0.00     0.060 C 
ATOM     10  C   UNL     1      43.163 133.396  18.732  1.00  0.00    -0.026 A 
ATOM     11  C   UNL     1      43.562 133.712  16.214  1.00  0.00     0.076 C 
ATOM     12  C   UNL     1      43.676 133.206  20.038  1.00  0.00     0.042 A 
ATOM     13  C   UNL     1      41.800 133.768  18.560  1.00  0.00    -0.018 A 
ATOM     14  C   UNL     1      42.048 133.529  16.042  1.00  0.00     0.031 C 
ATOM     15  C   UNL     1      42.841 133.398  21.149  1.00  0.00     0.011 A 
ATOM     16  C   UNL     1      40.970 133.914  19.697  1.00  0.00     0.047 A 
ATOM     17  C   UNL     1      41.268 134.185  17.193  1.00  0.00     0.113 C 
ATOM     18  C   UNL     1      41.502 133.737  20.979  1.00  0.00     0.015 A 
ATOM     19  C   UNL     1      39.528 134.188  19.522  1.00  0.00     0.284 C 
ATOM     20  C   UNL     1      39.781 133.944  17.070  1.00  0.00     0.261 C 
ATOM     21  N   UNL     1      38.942 134.093  18.221  1.00  0.00    -0.151 N 
ATOM     22  O   UNL     1      38.801 134.462  20.516  1.00  0.00    -0.266 OA
ATOM     23  O   UNL     1      39.258 133.720  15.945  1.00  0.00    -0.271 OA
BRANCH  11  24
ATOM     24  C   UNL     1      43.958 135.167  16.105  1.00  0.00     0.222 C 
ATOM     25  O   UNL     1      44.490 135.764  17.083  1.00  0.00    -0.292 OA
BRANCH  24  26
ATOM     26  N   UNL     1      43.678 135.879  14.898  1.00  0.00    -0.022 NA
BRANCH  26  27
ATOM     27  N   UNL     1      42.819 136.760  14.859  1.00  0.00     0.008 N 
ATOM     28  N   UNL     1      41.960 137.641  14.820  1.00  0.00    -0.003 NA
ENDBRANCH  26  27
ENDBRANCH  24  26
ENDBRANCH  11  24
BRANCH  12  29
ATOM     29  N   UNL     1      45.046 132.806  20.212  1.00  0.00    -0.060 NA
BRANCH  29  30
ATOM     30  N   UNL     1      45.783 133.314  21.059  1.00  0.00     0.005 N 
ATOM     31  N   UNL     1      46.518 133.818  21.906  1.00  0.00    -0.003 NA
ENDBRANCH  29  30
ENDBRANCH  12  29
BRANCH  21  32
ATOM     32  O   UNL     1      37.595 134.155  18.076  1.00  0.00    -0.278 OA
ATOM     33  H   UNL     1      37.264 133.268  18.371  1.00  0.00     0.247 HD
ENDBRANCH  21  32
ENDBRANCH   1   9
TORSDOF 12
ENDMDL
MODEL 4
REMARK VINA RESULT:      -6.2      1.741      2.405
REMARK SMILES C#CCO/C(O)=C/[C@@H]1c2c(N=[N+]=[N-])ccc3c2[C@@H](C[C@H]1C(=O)N=[N+]=[N-])C(=O)N(O)C3=O
REMARK SMILES IDX 7 1 5 2 4 3 3 4 2 5 1 6 6 7 8 9 9 10 20 11 10 12 17 13 19 14
REMARK SMILES IDX 14 15 16 16 18 17 15 18 30 19 26 20 28 21 31 22 27 23 21 24
REMARK SMILES IDX 22 25 23 26 24 27 25 28 11 29 12 30 13 31 29 32
REMARK H PARENT 6 8 29 33
ROOT
ATOM      1  C   UNL     1      44.854 133.208  15.917  1.00  0.00     0.070 C 
ENDROOT
BRANCH   1   2
ATOM      2  C   UNL     1      45.100 132.054  15.290  1.00  0.00     0.274 C 
BRANCH   2   3
ATOM      3  O   UNL     1      46.345 131.442  15.479  1.00  0.00    -0.453 OA
BRANCH   3   4
ATOM      4  C   UNL     1      46.714 130.206  14.879  1.00  0.00     0.322 C 
BRANCH   4   5
ATOM      5  C   UNL     1      46.993 130.425  13.460  1.00  0.00    -0.065 C 
ATOM      6  C   UNL     1      47.224 130.605  12.290  1.00  0.00     0.007 C 
ENDBRANCH   4   5
ENDBRANCH   3   4
ENDBRANCH   2   3
BRANCH   2   7
ATOM      7  O   UNL     1      44.126 131.483  14.467  1.00  0.00    -0.481 OA
ATOM      8  H   UNL     1      43.296 131.985  14.178  1.00  0.00     0.296 HD
ENDBRANCH   2   7
ENDBRANCH   1   2
BRANCH   1   9
ATOM      9  C   UNL     1      43.626 133.430  16.775  1.00  0.00     0.060 C 
ATOM     10  C   UNL     1      43.928 134.523  17.795  1.00  0.00    -0.026 A 
ATOM     11  C   UNL     1      43.173 132.097  17.420  1.00  0.00     0.076 C 
ATOM     12  C   UNL     1      43.974 135.871  17.364  1.00  0.00     0.042 A 
ATOM     13  C   UNL     1      44.288 134.202  19.134  1.00  0.00    -0.018 A 
ATOM     14  C   UNL     1      44.083 131.726  18.599  1.00  0.00     0.031 C 
ATOM     15  C   UNL     1      44.361 136.877  18.262  1.00  0.00     0.011 A 
ATOM     16  C   UNL     1      44.715 135.232  20.006  1.00  0.00     0.047 A 
ATOM     17  C   UNL     1      44.051 132.804  19.695  1.00  0.00     0.113 C 
ATOM     18  C   UNL     1      44.737 136.559  19.563  1.00  0.00     0.015 A 
ATOM     19  C   UNL     1      45.198 134.893  21.361  1.00  0.00     0.284 C 
ATOM     20  C   UNL     1      45.003 132.482  20.825  1.00  0.00     0.261 C 
ATOM     21  N   UNL     1      45.433 133.525  21.707  1.00  0.00    -0.151 N 
ATOM     22  O   UNL     1      45.447 135.801  22.201  1.00  0.00    -0.266 OA
ATOM     23  O   UNL     1      45.336 131.290  21.064  1.00  0.00    -0.271 OA
BRANCH  11  24
ATOM     24  C   UNL     1      41.719 132.118  17.832  1.00  0.00     0.222 C 
ATOM     25  O   UNL     1      41.130 131.053  18.171  1.00  0.00    -0.292 OA
BRANCH  24  26
ATOM     26  N   UNL     1      40.997 133.351  17.786  1.00  0.00    -0.022 NA
BRANCH  26  27
ATOM     27  N   UNL     1      40.062 133.516  17.002  1.00  0.00     0.008 N 
ATOM     28  N   UNL     1      39.127 133.682  16.219  1.00  0.00    -0.003 NA
ENDBRANCH  26  27
ENDBRANCH  24  26
ENDBRANCH  11  24
BRANCH  12  29
ATOM     29  N   UNL     1      43.634 136.194  16.004  1.00  0.00    -0.060 NA
BRANCH  29  30
ATOM     30  N   UNL     1      42.483 136.452  15.651  1.00  0.00     0.005 N 
ATOM     31  N   UNL     1      41.332 136.707  15.298  1.00  0.00    -0.003 NA
ENDBRANCH  29  30
ENDBRANCH  12  29
BRANCH  21  32
ATOM     32  O   UNL     1      46.052 133.215  22.873  1.00  0.00    -0.278 OA
ATOM     33  H   UNL     1      46.993 133.503  22.749  1.00  0.00     0.247 HD
ENDBRANCH  21  32
ENDBRANCH   1   9
TORSDOF 12
ENDMDL
MODEL 5
REMARK VINA RESULT:      -6.1      1.840      2.182
REMARK SMILES C#CCO/C(O)=C/[C@@H]1c2c(N=[N+]=[N-])ccc3c2[C@@H](C[C@H]1C(=O)N=[N+]=[N-])C(=O)N(O)C3=O
REMARK SMILES IDX 7 1 5 2 4 3 3 4 2 5 1 6 6 7 8 9 9 10 20 11 10 12 17 13 19 14
REMARK SMILES IDX 14 15 16 16 18 17 15 18 30 19 26 20 28 21 31 22 27 23 21 24
REMARK SMILES IDX 22 25 23 26 24 27 25 28 11 29 12 30 13 31 29 32
REMARK H PARENT 6 8 29 33
ROOT
ATOM      1  C   UNL     1      45.588 131.292  17.610  1.00  0.00     0.070 C 
ENDROOT
BRANCH   1   2
ATOM      2  C   UNL     1      45.618 130.805  16.365  1.00  0.00     0.274 C 
BRANCH   2   3
ATOM      3  O   UNL     1      46.467 131.409  15.430  1.00  0.00    -0.453 OA
BRANCH   3   4
ATOM      4  C   UNL     1      46.405 131.157  14.032  1.00  0.00     0.322 C 
BRANCH   4   5
ATOM      5  C   UNL     1      47.427 130.173  13.675  1.00  0.00    -0.065 C 
ATOM      6  C   UNL     1      48.268 129.361  13.380  1.00  0.00     0.007 C 
ENDBRANCH   4   5
ENDBRANCH   3   4
ENDBRANCH   2   3
BRANCH   2   7
ATOM      7  O   UNL     1      44.814 129.715  16.021  1.00  0.00    -0.481 OA
ATOM      8  H   UNL     1      45.123 128.991  15.386  1.00  0.00     0.296 HD
ENDBRANCH   2   7
ENDBRANCH   1   2
BRANCH   1   9
ATOM      9  C   UNL     1      44.306 131.728  18.288  1.00  0.00     0.060 C 
ATOM     10  C   UNL     1      44.006 133.172  17.896  1.00  0.00    -0.026 A 
ATOM     11  C   UNL     1      44.410 131.518  19.820  1.00  0.00     0.076 C 
ATOM     12  C   UNL     1      43.509 133.440  16.598  1.00  0.00     0.042 A 
ATOM     13  C   UNL     1      44.336 134.253  18.759  1.00  0.00    -0.018 A 
ATOM     14  C   UNL     1      45.271 132.614  20.462  1.00  0.00     0.031 C 
ATOM     15  C   UNL     1      43.336 134.769  16.180  1.00  0.00     0.011 A 
ATOM     16  C   UNL     1      44.190 135.582  18.297  1.00  0.00     0.047 A 
ATOM     17  C   UNL     1      44.670 134.010  20.228  1.00  0.00     0.113 C 
ATOM     18  C   UNL     1      43.682 135.825  17.015  1.00  0.00     0.015 A 
ATOM     19  C   UNL     1      44.637 136.708  19.145  1.00  0.00     0.284 C 
ATOM     20  C   UNL     1      45.551 135.100  20.792  1.00  0.00     0.261 C 
ATOM     21  N   UNL     1      45.402 136.445  20.324  1.00  0.00    -0.151 N 
ATOM     22  O   UNL     1      44.387 137.900  18.815  1.00  0.00    -0.266 OA
ATOM     23  O   UNL     1      46.340 134.859  21.746  1.00  0.00    -0.271 OA
BRANCH  11  24
ATOM     24  C   UNL     1      43.055 131.419  20.483  1.00  0.00     0.222 C 
ATOM     25  O   UNL     1      41.998 131.433  19.792  1.00  0.00    -0.292 OA
BRANCH  24  26
ATOM     26  N   UNL     1      42.978 131.361  21.909  1.00  0.00    -0.022 NA
BRANCH  26  27
ATOM     27  N   UNL     1      42.712 130.309  22.493  1.00  0.00     0.008 N 
ATOM     28  N   UNL     1      42.446 129.259  23.076  1.00  0.00    -0.003 NA
ENDBRANCH  26  27
ENDBRANCH  24  26
ENDBRANCH  11  24
BRANCH  12  29
ATOM     29  N   UNL     1      43.199 132.348  15.714  1.00  0.00    -0.060 NA
BRANCH  29  30
ATOM     30  N   UNL     1      42.386 132.450  14.795  1.00  0.00     0.005 N 
ATOM     31  N   UNL     1      41.571 132.549  13.879  1.00  0.00    -0.003 NA
ENDBRANCH  29  30
ENDBRANCH  12  29
BRANCH  21  32
ATOM     32  O   UNL     1      45.976 137.468  21.004  1.00  0.00    -0.278 OA
ATOM     33  H   UNL     1      45.892 138.254  20.405  1.00  0.00     0.247 HD
ENDBRANCH  21  32
ENDBRANCH   1   9
TORSDOF 12
ENDMDL
MODEL 6
REMARK VINA RESULT:      -6.1      3.143      5.461
REMARK SMILES C#CCO/C(O)=C/[C@@H]1c2c(N=[N+]=[N-])ccc3c2[C@@H](C[C@H]1C(=O)N=[N+]=[N-])C(=O)N(O)C3=O
REMARK SMILES IDX 7 1 5 2 4 3 3 4 2 5 1 6 6 7 8 9 9 10 20 11 10 12 17 13 19 14
REMARK SMILES IDX 14 15 16 16 18 17 15 18 30 19 26 20 28 21 31 22 27 23 21 24
REMARK SMILES IDX 22 25 23 26 24 27 25 28 11 29 12 30 13 31 29 32
REMARK H PARENT 6 8 29 33
ROOT
ATOM      1  C   UNL     1      42.234 132.974  15.002  1.00  0.00     0.070 C 
ENDROOT
BRANCH   1   2
ATOM      2  C   UNL     1      41.187 133.494  14.356  1.00  0.00     0.274 C 
BRANCH   2   3
ATOM      3  O   UNL     1      39.907 133.305  14.893  1.00  0.00    -0.453 OA
BRANCH   3   4
ATOM      4  C   UNL     1      38.798 134.145  14.598  1.00  0.00     0.322 C 
BRANCH   4   5
ATOM      5  C   UNL     1      38.962 135.421  15.294  1.00  0.00    -0.065 C 
ATOM      6  C   UNL     1      39.098 136.473  15.869  1.00  0.00     0.007 C 
ENDBRANCH   4   5
ENDBRANCH   3   4
ENDBRANCH   2   3
BRANCH   2   7
ATOM      7  O   UNL     1      41.381 134.211  13.172  1.00  0.00    -0.481 OA
ATOM      8  H   UNL     1      42.095 134.921  13.077  1.00  0.00     0.296 HD
ENDBRANCH   2   7
ENDBRANCH   1   2
BRANCH   1   9
ATOM      9  C   UNL     1      43.218 133.818  15.784  1.00  0.00     0.060 C 
ATOM     10  C   UNL     1      43.978 132.919  16.755  1.00  0.00    -0.026 A 
ATOM     11  C   UNL     1      42.485 134.991  16.481  1.00  0.00     0.076 C 
ATOM     12  C   UNL     1      44.985 132.061  16.250  1.00  0.00     0.042 A 
ATOM     13  C   UNL     1      43.606 132.834  18.126  1.00  0.00    -0.018 A 
ATOM     14  C   UNL     1      41.728 134.500  17.723  1.00  0.00     0.031 C 
ATOM     15  C   UNL     1      45.615 131.147  17.108  1.00  0.00     0.011 A 
ATOM     16  C   UNL     1      44.228 131.874  18.958  1.00  0.00     0.047 A 
ATOM     17  C   UNL     1      42.684 133.875  18.753  1.00  0.00     0.113 C 
ATOM     18  C   UNL     1      45.233 131.047  18.442  1.00  0.00     0.015 A 
ATOM     19  C   UNL     1      43.768 131.703  20.352  1.00  0.00     0.284 C 
ATOM     20  C   UNL     1      41.938 133.321  19.944  1.00  0.00     0.261 C 
ATOM     21  N   UNL     1      42.569 132.349  20.786  1.00  0.00    -0.151 N 
ATOM     22  O   UNL     1      44.400 130.957  21.150  1.00  0.00    -0.266 OA
ATOM     23  O   UNL     1      40.809 133.782  20.267  1.00  0.00    -0.271 OA
BRANCH  11  24
ATOM     24  C   UNL     1      43.414 136.135  16.818  1.00  0.00     0.222 C 
ATOM     25  O   UNL     1      44.613 135.914  17.147  1.00  0.00    -0.292 OA
BRANCH  24  26
ATOM     26  N   UNL     1      42.908 137.472  16.810  1.00  0.00    -0.022 NA
BRANCH  26  27
ATOM     27  N   UNL     1      42.678 138.063  15.754  1.00  0.00     0.008 N 
ATOM     28  N   UNL     1      42.448 138.652  14.699  1.00  0.00    -0.003 NA
ENDBRANCH  26  27
ENDBRANCH  24  26
ENDBRANCH  11  24
BRANCH  12  29
ATOM     29  N   UNL     1      45.345 132.128  14.859  1.00  0.00    -0.060 NA
BRANCH  29  30
ATOM     30  N   UNL     1      45.593 131.125  14.190  1.00  0.00     0.005 N 
ATOM     31  N   UNL     1      45.837 130.121  13.521  1.00  0.00    -0.003 NA
ENDBRANCH  29  30
ENDBRANCH  12  29
BRANCH  21  32
ATOM     32  O   UNL     1      42.036 132.052  21.997  1.00  0.00    -0.278 OA
ATOM     33  H   UNL     1      42.643 131.370  22.384  1.00  0.00     0.247 HD
ENDBRANCH  21  32
ENDBRANCH   1   9
TORSDOF 12
ENDMDL
MODEL 7
REMARK VINA RESULT:      -6.1      1.597      1.798
REMARK SMILES C#CCO/C(O)=C/[C@@H]1c2c(N=[N+]=[N-])ccc3c2[C@@H](C[C@H]1C(=O)N=[N+]=[N-])C(=O)N(O)C3=O
REMARK SMILES IDX 7 1 5 2 4 3 3 4 2 5 1 6 6 7 8 9 9 10 20 11 10 12 17 13 19 14
REMARK SMILES IDX 14 15 16 16 18 17 15 18 30 19 26 20 28 21 31 22 27 23 21 24
REMARK SMILES IDX 22 25 23 26 24 27 25 28 11 29 12 30 13 31 29 32
REMARK H PARENT 6 8 29 33
ROOT
ATOM      1  C   UNL     1      44.687 133.081  16.024  1.00  0.00     0.070 C 
ENDROOT
BRANCH   1   2
ATOM      2  C   UNL     1      45.031 131.825  15.721  1.00  0.00     0.274 C 
BRANCH   2   3
ATOM      3  O   UNL     1      44.472 131.235  14.581  1.00  0.00    -0.453 OA
BRANCH   3   4
ATOM      4  C   UNL     1      44.983 130.053  13.977  1.00  0.00     0.322 C 
BRANCH   4   5
ATOM      5  C   UNL     1      46.129 130.399  13.137  1.00  0.00    -0.065 C 
ATOM      6  C   UNL     1      47.074 130.684  12.444  1.00  0.00     0.007 C 
ENDBRANCH   4   5
ENDBRANCH   3   4
ENDBRANCH   2   3
BRANCH   2   7
ATOM      7  O   UNL     1      45.931 131.131  16.534  1.00  0.00    -0.481 OA
ATOM      8  H   UNL     1      45.629 130.485  17.251  1.00  0.00     0.296 HD
ENDBRANCH   2   7
ENDBRANCH   1   2
BRANCH   1   9
ATOM      9  C   UNL     1      43.418 133.425  16.775  1.00  0.00     0.060 C 
ATOM     10  C   UNL     1      43.081 134.892  16.528  1.00  0.00    -0.026 A 
ATOM     11  C   UNL     1      43.570 133.075  18.277  1.00  0.00     0.076 C 
ATOM     12  C   UNL     1      42.542 135.270  15.275  1.00  0.00     0.042 A 
ATOM     13  C   UNL     1      43.416 135.895  17.480  1.00  0.00    -0.018 A 
ATOM     14  C   UNL     1      44.428 134.124  18.996  1.00  0.00     0.031 C 
ATOM     15  C   UNL     1      42.332 136.628  14.988  1.00  0.00     0.011 A 
ATOM     16  C   UNL     1      43.232 137.258  17.148  1.00  0.00     0.047 A 
ATOM     17  C   UNL     1      43.796 135.523  18.909  1.00  0.00     0.113 C 
ATOM     18  C   UNL     1      42.683 137.609  15.909  1.00  0.00     0.015 A 
ATOM     19  C   UNL     1      43.683 138.309  18.085  1.00  0.00     0.284 C 
ATOM     20  C   UNL     1      44.673 136.574  19.549  1.00  0.00     0.261 C 
ATOM     21  N   UNL     1      44.487 137.954  19.213  1.00  0.00    -0.151 N 
ATOM     22  O   UNL     1      43.402 139.521  17.875  1.00  0.00    -0.266 OA
ATOM     23  O   UNL     1      45.494 136.261  20.455  1.00  0.00    -0.271 OA
BRANCH  11  24
ATOM     24  C   UNL     1      42.237 132.887  18.964  1.00  0.00     0.222 C 
ATOM     25  O   UNL     1      41.173 132.788  18.290  1.00  0.00    -0.292 OA
BRANCH  24  26
ATOM     26  N   UNL     1      42.183 132.872  20.393  1.00  0.00    -0.022 NA
BRANCH  26  27
ATOM     27  N   UNL     1      41.422 133.617  21.012  1.00  0.00     0.008 N 
ATOM     28  N   UNL     1      40.663 134.362  21.631  1.00  0.00    -0.003 NA
ENDBRANCH  26  27
ENDBRANCH  24  26
ENDBRANCH  11  24
BRANCH  12  29
ATOM     29  N   UNL     1      42.226 134.259  14.302  1.00  0.00    -0.060 NA
BRANCH  29  30
ATOM     30  N   UNL     1      41.092 133.799  14.167  1.00  0.00     0.005 N 
ATOM     31  N   UNL     1      39.957 133.342  14.035  1.00  0.00    -0.003 NA
ENDBRANCH  29  30
ENDBRANCH  12  29
BRANCH  21  32
ATOM     32  O   UNL     1      45.061 138.921  19.970  1.00  0.00    -0.278 OA
ATOM     33  H   UNL     1      45.977 139.024  19.604  1.00  0.00     0.247 HD
ENDBRANCH  21  32
ENDBRANCH   1   9
TORSDOF 12
ENDMDL
MODEL 8
REMARK VINA RESULT:      -6.1      1.473      1.726
REMARK SMILES C#CCO/C(O)=C/[C@@H]1c2c(N=[N+]=[N-])ccc3c2[C@@H](C[C@H]1C(=O)N=[N+]=[N-])C(=O)N(O)C3=O
REMARK SMILES IDX 7 1 5 2 4 3 3 4 2 5 1 6 6 7 8 9 9 10 20 11 10 12 17 13 19 14
REMARK SMILES IDX 14 15 16 16 18 17 15 18 30 19 26 20 28 21 31 22 27 23 21 24
REMARK SMILES IDX 22 25 23 26 24 27 25 28 11 29 12 30 13 31 29 32
REMARK H PARENT 6 8 29 33
ROOT
ATOM      1  C   UNL     1      44.979 132.944  16.090  1.00  0.00     0.070 C 
ENDROOT
BRANCH   1   2
ATOM      2  C   UNL     1      45.297 131.778  15.518  1.00  0.00     0.274 C 
BRANCH   2   3
ATOM      3  O   UNL     1      46.649 131.434  15.408  1.00  0.00    -0.453 OA
BRANCH   3   4
ATOM      4  C   UNL     1      47.109 130.250  14.768  1.00  0.00     0.322 C 
BRANCH   4   5
ATOM      5  C   UNL     1      47.086 130.445  13.319  1.00  0.00    -0.065 C 
ATOM      6  C   UNL     1      47.068 130.606  12.124  1.00  0.00     0.007 C 
ENDBRANCH   4   5
ENDBRANCH   3   4
ENDBRANCH   2   3
BRANCH   2   7
ATOM      7  O   UNL     1      44.289 130.933  15.047  1.00  0.00    -0.481 OA
ATOM      8  H   UNL     1      43.398 131.280  14.716  1.00  0.00     0.296 HD
ENDBRANCH   2   7
ENDBRANCH   1   2
BRANCH   1   9
ATOM      9  C   UNL     1      43.680 133.164  16.837  1.00  0.00     0.060 C 
ATOM     10  C   UNL     1      43.368 134.657  16.853  1.00  0.00    -0.026 A 
ATOM     11  C   UNL     1      43.759 132.538  18.251  1.00  0.00     0.076 C 
ATOM     12  C   UNL     1      42.891 135.272  15.670  1.00  0.00     0.042 A 
ATOM     13  C   UNL     1      43.668 135.460  17.989  1.00  0.00    -0.018 A 
ATOM     14  C   UNL     1      44.594 133.420  19.190  1.00  0.00     0.031 C 
ATOM     15  C   UNL     1      42.706 136.663  15.634  1.00  0.00     0.011 A 
ATOM     16  C   UNL     1      43.512 136.864  17.910  1.00  0.00     0.047 A 
ATOM     17  C   UNL     1      43.979 134.822  19.339  1.00  0.00     0.113 C 
ATOM     18  C   UNL     1      43.024 137.449  16.736  1.00  0.00     0.015 A 
ATOM     19  C   UNL     1      43.929 137.714  19.046  1.00  0.00     0.284 C 
ATOM     20  C   UNL     1      44.835 135.719  20.202  1.00  0.00     0.261 C 
ATOM     21  N   UNL     1      44.677 137.140  20.122  1.00  0.00    -0.151 N 
ATOM     22  O   UNL     1      43.669 138.948  19.055  1.00  0.00    -0.266 OA
ATOM     23  O   UNL     1      45.610 135.229  21.068  1.00  0.00    -0.271 OA
BRANCH  11  24
ATOM     24  C   UNL     1      42.395 132.249  18.833  1.00  0.00     0.222 C 
ATOM     25  O   UNL     1      41.350 132.676  18.266  1.00  0.00    -0.292 OA
BRANCH  24  26
ATOM     26  N   UNL     1      42.298 131.527  20.063  1.00  0.00    -0.022 NA
BRANCH  26  27
ATOM     27  N   UNL     1      42.433 132.092  21.149  1.00  0.00     0.008 N 
ATOM     28  N   UNL     1      42.568 132.657  22.234  1.00  0.00    -0.003 NA
ENDBRANCH  26  27
ENDBRANCH  24  26
ENDBRANCH  11  24
BRANCH  12  29
ATOM     29  N   UNL     1      42.611 134.465  14.513  1.00  0.00    -0.060 NA
BRANCH  29  30
ATOM     30  N   UNL     1      41.528 133.904  14.342  1.00  0.00     0.005 N 
ATOM     31  N   UNL     1      40.446 133.345  14.169  1.00  0.00    -0.003 NA
ENDBRANCH  29  30
ENDBRANCH  12  29
BRANCH  21  32
ATOM     32  O   UNL     1      45.225 137.939  21.070  1.00  0.00    -0.278 OA
ATOM     33  H   UNL     1      45.093 138.863  20.736  1.00  0.00     0.247 HD
ENDBRANCH  21  32
ENDBRANCH   1   9
TORSDOF 12
ENDMDL
MODEL 9
REMARK VINA RESULT:      -6.0      2.999      5.230
REMARK SMILES C#CCO/C(O)=C/[C@@H]1c2c(N=[N+]=[N-])ccc3c2[C@@H](C[C@H]1C(=O)N=[N+]=[N-])C(=O)N(O)C3=O
REMARK SMILES IDX 7 1 5 2 4 3 3 4 2 5 1 6 6 7 8 9 9 10 20 11 10 12 17 13 19 14
REMARK SMILES IDX 14 15 16 16 18 17 15 18 30 19 26 20 28 21 31 22 27 23 21 24
REMARK SMILES IDX 22 25 23 26 24 27 25 28 11 29 12 30 13 31 29 32
REMARK H PARENT 6 8 29 33
ROOT
ATOM      1  C   UNL     1      44.232 131.577  17.538  1.00  0.00     0.070 C 
ENDROOT
BRANCH   1   2
ATOM      2  C   UNL     1      45.410 130.949  17.599  1.00  0.00     0.274 C 
BRANCH   2   3
ATOM      3  O   UNL     1      46.110 130.724  16.407  1.00  0.00    -0.453 OA
BRANCH   3   4
ATOM      4  C   UNL     1      45.500 130.732  15.123  1.00  0.00     0.322 C 
BRANCH   4   5
ATOM      5  C   UNL     1      46.528 130.941  14.103  1.00  0.00    -0.065 C 
ATOM      6  C   UNL     1      47.376 131.112  13.262  1.00  0.00     0.007 C 
ENDBRANCH   4   5
ENDBRANCH   3   4
ENDBRANCH   2   3
BRANCH   2   7
ATOM      7  O   UNL     1      45.919 130.534  18.832  1.00  0.00    -0.481 OA
ATOM      8  H   UNL     1      45.631 130.952  19.707  1.00  0.00     0.296 HD
ENDBRANCH   2   7
ENDBRANCH   1   2
BRANCH   1   9
ATOM      9  C   UNL     1      44.104 133.086  17.572  1.00  0.00     0.060 C 
ATOM     10  C   UNL     1      43.115 133.473  18.667  1.00  0.00    -0.026 A 
ATOM     11  C   UNL     1      43.712 133.624  16.173  1.00  0.00     0.076 C 
ATOM     12  C   UNL     1      43.523 133.392  20.020  1.00  0.00     0.042 A 
ATOM     13  C   UNL     1      41.761 133.786  18.360  1.00  0.00    -0.018 A 
ATOM     14  C   UNL     1      42.223 133.379  15.893  1.00  0.00     0.031 C 
ATOM     15  C   UNL     1      42.594 133.634  21.044  1.00  0.00     0.011 A 
ATOM     16  C   UNL     1      40.836 133.984  19.412  1.00  0.00     0.047 A 
ATOM     17  C   UNL     1      41.332 134.088  16.927  1.00  0.00     0.113 C 
ATOM     18  C   UNL     1      41.265 133.915  20.743  1.00  0.00     0.015 A 
ATOM     19  C   UNL     1      39.407 134.197  19.102  1.00  0.00     0.284 C 
ATOM     20  C   UNL     1      39.868 133.790  16.703  1.00  0.00     0.261 C 
ATOM     21  N   UNL     1      38.933 133.991  17.769  1.00  0.00    -0.151 N 
ATOM     22  O   UNL     1      38.593 134.516  20.012  1.00  0.00    -0.266 OA
ATOM     23  O   UNL     1      39.446 133.469  15.559  1.00  0.00    -0.271 OA
BRANCH  11  24
ATOM     24  C   UNL     1      44.076 135.080  15.991  1.00  0.00     0.222 C 
ATOM     25  O   UNL     1      44.118 135.593  14.838  1.00  0.00    -0.292 OA
BRANCH  24  26
ATOM     26  N   UNL     1      44.422 135.863  17.136  1.00  0.00    -0.022 NA
BRANCH  26  27
ATOM     27  N   UNL     1      43.720 136.805  17.503  1.00  0.00     0.008 N 
ATOM     28  N   UNL     1      43.018 137.747  17.869  1.00  0.00    -0.003 NA
ENDBRANCH  26  27
ENDBRANCH  24  26
ENDBRANCH  11  24
BRANCH  12  29
ATOM     29  N   UNL     1      44.885 133.051  20.333  1.00  0.00    -0.060 NA
BRANCH  29  30
ATOM     30  N   UNL     1      45.289 132.931  21.490  1.00  0.00     0.005 N 
ATOM     31  N   UNL     1      45.690 132.808  22.646  1.00  0.00    -0.003 NA
ENDBRANCH  29  30
ENDBRANCH  12  29
BRANCH  21  32
ATOM     32  O   UNL     1      37.602 133.998  17.511  1.00  0.00    -0.278 OA
ATOM     33  H   UNL     1      37.251 134.791  17.992  1.00  0.00     0.247 HD
ENDBRANCH  21  32
ENDBRANCH   1   9
TORSDOF 12
ENDMDL


