REMARK SMILES C#CCOC(=O)C[C@@H]1CC[C@H]2C(=O)[N-]c3c(N=[N+]=[N-])cc(Cl)c1c32
REMARK SMILES IDX 5 1 6 2 4 3 3 4 2 5 1 6 7 7 8 8 23 9 9 10 21 11 24 12 10 13
REMARK SMILES IDX 20 14 15 15 11 16 16 17 14 18 12 19 22 20 13 21 17 22 18 23
REMARK SMILES IDX 19 24
REMARK H PARENT
ROOT
ATOM      1  C   UNL     1       0.559   2.913   0.742  1.00  0.00     0.307 C 
ATOM      2  O   UNL     1       1.778   3.189   0.576  1.00  0.00    -0.252 OA
ENDROOT
BRANCH   1   3
ATOM      3  O   UNL     1      -0.199   3.581   1.708  1.00  0.00    -0.452 OA
BRANCH   3   4
ATOM      4  C   UNL     1       0.348   4.590   2.549  1.00  0.00     0.322 C 
BRANCH   4   5
ATOM      5  C   UNL     1      -0.693   5.083   3.451  1.00  0.00    -0.065 C 
ATOM      6  C   UNL     1      -1.552   5.489   4.193  1.00  0.00     0.007 C 
ENDBRANCH   4   5
ENDBRANCH   3   4
ENDBRANCH   1   3
BRANCH   1   7
ATOM      7  C   UNL     1      -0.084   1.841  -0.083  1.00  0.00     0.131 C 
BRANCH   7   8
ATOM      8  C   UNL     1      -0.333   0.564   0.749  1.00  0.00     0.032 C 
ATOM      9  C   UNL     1      -1.244  -0.384  -0.027  1.00  0.00    -0.023 A 
ATOM     10  C   UNL     1       1.029  -0.086   1.201  1.00  0.00     0.010 C 
ATOM     11  C   UNL     1      -2.650  -0.213  -0.109  1.00  0.00     0.045 A 
ATOM     12  C   UNL     1      -0.704  -1.547  -0.571  1.00  0.00    -0.048 A 
ATOM     13  C   UNL     1       1.112  -1.619   1.038  1.00  0.00     0.015 C 
ATOM     14  C   UNL     1      -3.454  -1.231  -0.665  1.00  0.00     0.029 A 
ATOM     15  C   UNL     1      -1.495  -2.586  -1.005  1.00  0.00    -0.120 A 
ATOM     16  C   UNL     1       0.696  -1.986  -0.385  1.00  0.00     0.066 C 
ATOM     17  C   UNL     1      -2.881  -2.453  -1.086  1.00  0.00     0.025 A 
ATOM     18  N   UNL     1      -0.775  -3.808  -1.099  1.00  0.00    -0.626 NA
ATOM     19  C   UNL     1       0.537  -3.451  -0.660  1.00  0.00     0.062 C 
ATOM     20  Cl  UNL     1      -3.449   1.209   0.552  1.00  0.00    -0.084 Cl
ATOM     21  O   UNL     1       1.470  -4.290  -0.562  1.00  0.00    -0.320 OA
BRANCH  17  22
ATOM     22  N   UNL     1      -3.677  -3.558  -1.534  1.00  0.00    -0.062 NA
BRANCH  22  23
ATOM     23  N   UNL     1      -4.905  -3.496  -1.606  1.00  0.00     0.005 N 
ATOM     24  N   UNL     1      -6.131  -3.435  -1.678  1.00  0.00    -0.003 NA
ENDBRANCH  22  23
ENDBRANCH  17  22
ENDBRANCH   7   8
ENDBRANCH   1   7
TORSDOF 7


