MODEL 1
REMARK VINA RESULT:      -8.4      0.000      0.000
REMARK SMILES Cc1nnn([C@@H]2O[C@@]2(O)Nc2cccc(C#N)c2C)c1-c1cc2ccccc2c2c1C[N+](C)(C)C2
REMARK SMILES IDX 6 1 7 2 8 3 5 4 2 5 3 6 20 7 4 8 1 9 21 10 22 11 30 12 23 13
REMARK SMILES IDX 29 14 31 15 24 16 28 17 35 18 32 19 25 20 27 21 26 22 33 23
REMARK SMILES IDX 34 24 9 25 10 27 11 29 12 30 18 31 13 32 15 33 14 34 19 35
REMARK SMILES IDX 16 36 17 37
REMARK H PARENT 9 26 10 28
ROOT
ATOM      1  C   UNL     1      42.909 133.763  15.649  1.00  0.00     0.327 C 
ATOM      2  O   UNL     1      42.984 134.056  14.271  1.00  0.00    -0.295 OA
ATOM      3  C   UNL     1      42.391 132.829  14.625  1.00  0.00     0.298 C 
ENDROOT
BRANCH   1   4
ATOM      4  N   UNL     1      41.894 134.570  16.319  1.00  0.00    -0.208 N 
ATOM      5  C   UNL     1      40.716 135.662  17.797  1.00  0.00     0.088 A 
ATOM      6  N   UNL     1      40.179 135.885  16.581  1.00  0.00    -0.135 NA
ATOM      7  C   UNL     1      41.801 134.821  17.637  1.00  0.00     0.095 A 
ATOM      8  N   UNL     1      40.914 135.214  15.703  1.00  0.00    -0.064 NA
ATOM      9  C   UNL     1      40.216 136.290  19.058  1.00  0.00     0.071 C 
BRANCH   7  10
ATOM     10  C   UNL     1      42.741 134.338  18.666  1.00  0.00     0.012 A 
ATOM     11  C   UNL     1      42.594 133.044  19.197  1.00  0.00     0.019 A 
ATOM     12  C   UNL     1      43.763 135.156  19.172  1.00  0.00     0.025 A 
ATOM     13  C   UNL     1      43.465 132.581  20.204  1.00  0.00    -0.017 A 
ATOM     14  C   UNL     1      44.608 134.718  20.153  1.00  0.00     0.024 A 
ATOM     15  C   UNL     1      44.068 136.566  18.827  1.00  0.00     0.301 C 
ATOM     16  C   UNL     1      43.308 131.296  20.746  1.00  0.00     0.009 A 
ATOM     17  C   UNL     1      44.500 133.424  20.688  1.00  0.00    -0.009 A 
ATOM     18  C   UNL     1      45.547 135.800  20.540  1.00  0.00     0.301 C 
ATOM     19  N   UNL     1      45.053 137.031  19.851  1.00  0.00    -0.321 N 
ATOM     20  C   UNL     1      44.168 130.849  21.752  1.00  0.00     0.001 A 
ATOM     21  C   UNL     1      45.361 132.958  21.695  1.00  0.00     0.009 A 
ATOM     22  C   UNL     1      45.192 131.676  22.224  1.00  0.00     0.001 A 
ATOM     23  C   UNL     1      44.384 137.926  20.827  1.00  0.00     0.334 C 
ATOM     24  C   UNL     1      46.171 137.763  19.214  1.00  0.00     0.334 C 
ENDBRANCH   7  10
ENDBRANCH   1   4
BRANCH   3  25
ATOM     25  O   UNL     1      41.039 132.811  14.268  1.00  0.00    -0.345 OA
ATOM     26  H   UNL     1      40.539 132.924  15.115  1.00  0.00     0.216 HD
ENDBRANCH   3  25
BRANCH   3  27
ATOM     27  N   UNL     1      43.216 131.703  14.206  1.00  0.00    -0.330 N 
ATOM     28  H   UNL     1      42.950 131.212  13.323  1.00  0.00     0.166 HD
BRANCH  27  29
ATOM     29  C   UNL     1      44.357 131.253  14.961  1.00  0.00     0.042 A 
ATOM     30  C   UNL     1      44.326 131.291  16.366  1.00  0.00     0.026 A 
ATOM     31  C   UNL     1      45.505 130.740  14.303  1.00  0.00    -0.010 A 
ATOM     32  C   UNL     1      45.391 130.795  17.113  1.00  0.00     0.004 A 
ATOM     33  C   UNL     1      46.578 130.233  15.078  1.00  0.00     0.057 A 
ATOM     34  C   UNL     1      46.512 130.271  16.476  1.00  0.00     0.020 A 
ATOM     35  C   UNL     1      45.557 130.717  12.791  1.00  0.00     0.048 C 
BRANCH  33  36
ATOM     36  C   UNL     1      47.757 129.662  14.471  1.00  0.00     0.099 C 
ATOM     37  N   UNL     1      48.703 129.205  13.984  1.00  0.00    -0.192 NA
ENDBRANCH  33  36
ENDBRANCH  27  29
ENDBRANCH   3  27
TORSDOF 6
ENDMDL
MODEL 2
REMARK VINA RESULT:      -8.2      1.313      3.214
REMARK SMILES Cc1nnn([C@@H]2O[C@@]2(O)Nc2cccc(C#N)c2C)c1-c1cc2ccccc2c2c1C[N+](C)(C)C2
REMARK SMILES IDX 6 1 7 2 8 3 5 4 2 5 3 6 20 7 4 8 1 9 21 10 22 11 30 12 23 13
REMARK SMILES IDX 29 14 31 15 24 16 28 17 35 18 32 19 25 20 27 21 26 22 33 23
REMARK SMILES IDX 34 24 9 25 10 27 11 29 12 30 18 31 13 32 15 33 14 34 19 35
REMARK SMILES IDX 16 36 17 37
REMARK H PARENT 9 26 10 28
ROOT
ATOM      1  C   UNL     1      42.396 132.804  16.249  1.00  0.00     0.327 C 
ATOM      2  O   UNL     1      43.348 133.501  15.476  1.00  0.00    -0.295 OA
ATOM      3  C   UNL     1      42.540 132.569  14.795  1.00  0.00     0.298 C 
ENDROOT
BRANCH   1   4
ATOM      4  N   UNL     1      41.275 133.659  16.628  1.00  0.00    -0.208 N 
ATOM      5  C   UNL     1      40.016 135.193  17.538  1.00  0.00     0.088 A 
ATOM      6  N   UNL     1      39.288 134.548  16.603  1.00  0.00    -0.135 NA
ATOM      7  C   UNL     1      41.277 134.626  17.563  1.00  0.00     0.095 A 
ATOM      8  N   UNL     1      40.076 133.626  16.065  1.00  0.00    -0.064 NA
ATOM      9  C   UNL     1      39.510 136.349  18.337  1.00  0.00     0.071 C 
BRANCH   7  10
ATOM     10  C   UNL     1      42.440 135.025  18.376  1.00  0.00     0.012 A 
ATOM     11  C   UNL     1      43.185 136.164  18.022  1.00  0.00     0.019 A 
ATOM     12  C   UNL     1      42.862 134.267  19.479  1.00  0.00     0.025 A 
ATOM     13  C   UNL     1      44.319 136.539  18.771  1.00  0.00    -0.017 A 
ATOM     14  C   UNL     1      43.964 134.619  20.207  1.00  0.00     0.024 A 
ATOM     15  C   UNL     1      42.290 133.000  19.998  1.00  0.00     0.301 C 
ATOM     16  C   UNL     1      45.071 137.667  18.409  1.00  0.00     0.009 A 
ATOM     17  C   UNL     1      44.715 135.762  19.892  1.00  0.00    -0.009 A 
ATOM     18  C   UNL     1      44.216 133.616  21.272  1.00  0.00     0.301 C 
ATOM     19  N   UNL     1      43.282 132.483  20.990  1.00  0.00    -0.321 N 
ATOM     20  C   UNL     1      46.201 138.025  19.149  1.00  0.00     0.001 A 
ATOM     21  C   UNL     1      45.849 136.140  20.631  1.00  0.00     0.009 A 
ATOM     22  C   UNL     1      46.587 137.265  20.257  1.00  0.00     0.001 A 
ATOM     23  C   UNL     1      44.029 131.340  20.410  1.00  0.00     0.334 C 
ATOM     24  C   UNL     1      42.605 132.038  22.229  1.00  0.00     0.334 C 
ENDBRANCH   7  10
ENDBRANCH   1   4
BRANCH   3  25
ATOM     25  O   UNL     1      41.719 133.213  13.865  1.00  0.00    -0.345 OA
ATOM     26  H   UNL     1      41.380 134.022  14.324  1.00  0.00     0.216 HD
ENDBRANCH   3  25
BRANCH   3  27
ATOM     27  N   UNL     1      43.324 131.431  14.332  1.00  0.00    -0.330 N 
ATOM     28  H   UNL     1      42.978 130.916  13.492  1.00  0.00     0.166 HD
BRANCH  27  29
ATOM     29  C   UNL     1      44.530 130.999  14.991  1.00  0.00     0.042 A 
ATOM     30  C   UNL     1      44.583 130.952  16.395  1.00  0.00     0.026 A 
ATOM     31  C   UNL     1      45.660 130.589  14.237  1.00  0.00    -0.010 A 
ATOM     32  C   UNL     1      45.714 130.471  17.048  1.00  0.00     0.004 A 
ATOM     33  C   UNL     1      46.802 130.095  14.917  1.00  0.00     0.057 A 
ATOM     34  C   UNL     1      46.820 130.046  16.315  1.00  0.00     0.020 A 
ATOM     35  C   UNL     1      45.621 130.657  12.727  1.00  0.00     0.048 C 
BRANCH  33  36
ATOM     36  C   UNL     1      47.969 129.626  14.208  1.00  0.00     0.099 C 
ATOM     37  N   UNL     1      48.905 129.250  13.640  1.00  0.00    -0.192 NA
ENDBRANCH  33  36
ENDBRANCH  27  29
ENDBRANCH   3  27
TORSDOF 6
ENDMDL
MODEL 3
REMARK VINA RESULT:      -8.1      1.956      6.497
REMARK SMILES Cc1nnn([C@@H]2O[C@@]2(O)Nc2cccc(C#N)c2C)c1-c1cc2ccccc2c2c1C[N+](C)(C)C2
REMARK SMILES IDX 6 1 7 2 8 3 5 4 2 5 3 6 20 7 4 8 1 9 21 10 22 11 30 12 23 13
REMARK SMILES IDX 29 14 31 15 24 16 28 17 35 18 32 19 25 20 27 21 26 22 33 23
REMARK SMILES IDX 34 24 9 25 10 27 11 29 12 30 18 31 13 32 15 33 14 34 19 35
REMARK SMILES IDX 16 36 17 37
REMARK H PARENT 9 26 10 28
ROOT
ATOM      1  C   UNL     1      41.117 133.392  15.753  1.00  0.00     0.327 C 
ATOM      2  O   UNL     1      40.268 133.595  14.645  1.00  0.00    -0.295 OA
ATOM      3  C   UNL     1      40.856 134.744  15.209  1.00  0.00     0.298 C 
ENDROOT
BRANCH   1   4
ATOM      4  N   UNL     1      42.392 132.802  15.357  1.00  0.00    -0.208 N 
ATOM      5  C   UNL     1      44.490 132.207  15.252  1.00  0.00     0.088 A 
ATOM      6  N   UNL     1      43.817 131.559  14.280  1.00  0.00    -0.135 NA
ATOM      7  C   UNL     1      43.590 133.005  15.934  1.00  0.00     0.095 A 
ATOM      8  N   UNL     1      42.548 131.934  14.368  1.00  0.00    -0.064 NA
ATOM      9  C   UNL     1      45.944 132.013  15.532  1.00  0.00     0.071 C 
BRANCH   7  10
ATOM     10  C   UNL     1      43.836 133.857  17.112  1.00  0.00     0.012 A 
ATOM     11  C   UNL     1      44.024 135.241  16.948  1.00  0.00     0.019 A 
ATOM     12  C   UNL     1      43.938 133.318  18.403  1.00  0.00     0.025 A 
ATOM     13  C   UNL     1      44.293 136.063  18.061  1.00  0.00    -0.017 A 
ATOM     14  C   UNL     1      44.205 134.106  19.487  1.00  0.00     0.024 A 
ATOM     15  C   UNL     1      43.851 131.894  18.815  1.00  0.00     0.301 C 
ATOM     16  C   UNL     1      44.496 137.443  17.895  1.00  0.00     0.009 A 
ATOM     17  C   UNL     1      44.376 135.494  19.359  1.00  0.00    -0.009 A 
ATOM     18  C   UNL     1      44.316 133.273  20.711  1.00  0.00     0.301 C 
ATOM     19  N   UNL     1      44.310 131.856  20.237  1.00  0.00    -0.321 N 
ATOM     20  C   UNL     1      44.774 138.248  19.002  1.00  0.00     0.001 A 
ATOM     21  C   UNL     1      44.648 136.319  20.463  1.00  0.00     0.009 A 
ATOM     22  C   UNL     1      44.848 137.689  20.281  1.00  0.00     0.001 A 
ATOM     23  C   UNL     1      45.678 131.288  20.313  1.00  0.00     0.334 C 
ATOM     24  C   UNL     1      43.399 131.029  21.062  1.00  0.00     0.334 C 
ENDBRANCH   7  10
ENDBRANCH   1   4
BRANCH   3  25
ATOM     25  O   UNL     1      41.732 135.348  14.302  1.00  0.00    -0.345 OA
ATOM     26  H   UNL     1      42.176 134.603  13.825  1.00  0.00     0.216 HD
ENDBRANCH   3  25
BRANCH   3  27
ATOM     27  N   UNL     1      39.856 135.588  15.851  1.00  0.00    -0.330 N 
ATOM     28  H   UNL     1      38.852 135.342  15.705  1.00  0.00     0.166 HD
BRANCH  27  29
ATOM     29  C   UNL     1      40.205 136.732  16.654  1.00  0.00     0.042 A 
ATOM     30  C   UNL     1      40.190 138.018  16.085  1.00  0.00     0.026 A 
ATOM     31  C   UNL     1      40.535 136.580  18.025  1.00  0.00    -0.010 A 
ATOM     32  C   UNL     1      40.455 139.141  16.862  1.00  0.00     0.004 A 
ATOM     33  C   UNL     1      40.797 137.735  18.805  1.00  0.00     0.057 A 
ATOM     34  C   UNL     1      40.759 139.003  18.214  1.00  0.00     0.020 A 
ATOM     35  C   UNL     1      40.577 135.199  18.640  1.00  0.00     0.048 C 
BRANCH  33  36
ATOM     36  C   UNL     1      41.100 137.653  20.214  1.00  0.00     0.099 C 
ATOM     37  N   UNL     1      41.344 137.586  21.344  1.00  0.00    -0.192 NA
ENDBRANCH  33  36
ENDBRANCH  27  29
ENDBRANCH   3  27
TORSDOF 6
ENDMDL
MODEL 4
REMARK VINA RESULT:      -8.1      2.461      3.174
REMARK SMILES Cc1nnn([C@@H]2O[C@@]2(O)Nc2cccc(C#N)c2C)c1-c1cc2ccccc2c2c1C[N+](C)(C)C2
REMARK SMILES IDX 6 1 7 2 8 3 5 4 2 5 3 6 20 7 4 8 1 9 21 10 22 11 30 12 23 13
REMARK SMILES IDX 29 14 31 15 24 16 28 17 35 18 32 19 25 20 27 21 26 22 33 23
REMARK SMILES IDX 34 24 9 25 10 27 11 29 12 30 18 31 13 32 15 33 14 34 19 35
REMARK SMILES IDX 16 36 17 37
REMARK H PARENT 9 26 10 28
ROOT
ATOM      1  C   UNL     1      41.650 134.404  15.446  1.00  0.00     0.327 C 
ATOM      2  O   UNL     1      41.854 134.572  14.061  1.00  0.00    -0.295 OA
ATOM      3  C   UNL     1      42.173 133.310  14.598  1.00  0.00     0.298 C 
ENDROOT
BRANCH   1   4
ATOM      4  N   UNL     1      40.231 134.304  15.775  1.00  0.00    -0.208 N 
ATOM      5  C   UNL     1      38.323 134.151  16.825  1.00  0.00     0.088 A 
ATOM      6  N   UNL     1      38.071 134.300  15.510  1.00  0.00    -0.135 NA
ATOM      7  C   UNL     1      39.695 134.144  16.999  1.00  0.00     0.095 A 
ATOM      8  N   UNL     1      39.244 134.394  14.897  1.00  0.00    -0.064 NA
ATOM      9  C   UNL     1      37.263 134.068  17.874  1.00  0.00     0.071 C 
BRANCH   7  10
ATOM     10  C   UNL     1      40.455 134.064  18.260  1.00  0.00     0.012 A 
ATOM     11  C   UNL     1      41.096 132.864  18.616  1.00  0.00     0.019 A 
ATOM     12  C   UNL     1      40.521 135.146  19.151  1.00  0.00     0.025 A 
ATOM     13  C   UNL     1      41.798 132.762  19.834  1.00  0.00    -0.017 A 
ATOM     14  C   UNL     1      41.194 135.054  20.337  1.00  0.00     0.024 A 
ATOM     15  C   UNL     1      39.872 136.476  19.032  1.00  0.00     0.301 C 
ATOM     16  C   UNL     1      42.425 131.559  20.196  1.00  0.00     0.009 A 
ATOM     17  C   UNL     1      41.862 133.877  20.710  1.00  0.00    -0.009 A 
ATOM     18  C   UNL     1      41.052 136.317  21.105  1.00  0.00     0.301 C 
ATOM     19  N   UNL     1      40.032 137.125  20.369  1.00  0.00    -0.321 N 
ATOM     20  C   UNL     1      43.109 131.463  21.410  1.00  0.00     0.001 A 
ATOM     21  C   UNL     1      42.560 133.767  21.924  1.00  0.00     0.009 A 
ATOM     22  C   UNL     1      43.178 132.562  22.270  1.00  0.00     0.001 A 
ATOM     23  C   UNL     1      38.742 137.103  21.100  1.00  0.00     0.334 C 
ATOM     24  C   UNL     1      40.479 138.529  20.223  1.00  0.00     0.334 C 
ENDBRANCH   7  10
ENDBRANCH   1   4
BRANCH   3  25
ATOM     25  O   UNL     1      41.332 132.322  14.076  1.00  0.00    -0.345 OA
ATOM     26  H   UNL     1      40.422 132.710  14.100  1.00  0.00     0.216 HD
ENDBRANCH   3  25
BRANCH   3  27
ATOM     27  N   UNL     1      43.610 133.067  14.557  1.00  0.00    -0.330 N 
ATOM     28  H   UNL     1      44.205 133.772  14.068  1.00  0.00     0.166 HD
BRANCH  27  29
ATOM     29  C   UNL     1      44.218 131.903  15.150  1.00  0.00     0.042 A 
ATOM     30  C   UNL     1      44.470 130.766  14.362  1.00  0.00     0.026 A 
ATOM     31  C   UNL     1      44.597 131.901  16.517  1.00  0.00    -0.010 A 
ATOM     32  C   UNL     1      45.120 129.659  14.900  1.00  0.00     0.004 A 
ATOM     33  C   UNL     1      45.265 130.768  17.048  1.00  0.00     0.057 A 
ATOM     34  C   UNL     1      45.514 129.657  16.235  1.00  0.00     0.020 A 
ATOM     35  C   UNL     1      44.310 133.111  17.378  1.00  0.00     0.048 C 
BRANCH  33  36
ATOM     36  C   UNL     1      45.711 130.718  18.420  1.00  0.00     0.099 C 
ATOM     37  N   UNL     1      46.069 130.677  19.520  1.00  0.00    -0.192 NA
ENDBRANCH  33  36
ENDBRANCH  27  29
ENDBRANCH   3  27
TORSDOF 6
ENDMDL
MODEL 5
REMARK VINA RESULT:      -8.0      2.629      5.116
REMARK SMILES Cc1nnn([C@@H]2O[C@@]2(O)Nc2cccc(C#N)c2C)c1-c1cc2ccccc2c2c1C[N+](C)(C)C2
REMARK SMILES IDX 6 1 7 2 8 3 5 4 2 5 3 6 20 7 4 8 1 9 21 10 22 11 30 12 23 13
REMARK SMILES IDX 29 14 31 15 24 16 28 17 35 18 32 19 25 20 27 21 26 22 33 23
REMARK SMILES IDX 34 24 9 25 10 27 11 29 12 30 18 31 13 32 15 33 14 34 19 35
REMARK SMILES IDX 16 36 17 37
REMARK H PARENT 9 26 10 28
ROOT
ATOM      1  C   UNL     1      42.583 133.627  15.343  1.00  0.00     0.327 C 
ATOM      2  O   UNL     1      43.175 132.415  14.931  1.00  0.00    -0.295 OA
ATOM      3  C   UNL     1      42.998 132.593  16.317  1.00  0.00     0.298 C 
ENDROOT
BRANCH   1   4
ATOM      4  N   UNL     1      41.154 133.659  15.049  1.00  0.00    -0.208 N 
ATOM      5  C   UNL     1      39.006 134.052  15.096  1.00  0.00     0.088 A 
ATOM      6  N   UNL     1      39.286 133.364  13.971  1.00  0.00    -0.135 NA
ATOM      7  C   UNL     1      40.189 134.235  15.789  1.00  0.00     0.095 A 
ATOM      8  N   UNL     1      40.593 133.142  13.966  1.00  0.00    -0.064 NA
ATOM      9  C   UNL     1      37.644 134.553  15.451  1.00  0.00     0.071 C 
BRANCH   7  10
ATOM     10  C   UNL     1      40.405 134.977  17.045  1.00  0.00     0.012 A 
ATOM     11  C   UNL     1      40.408 134.289  18.272  1.00  0.00     0.019 A 
ATOM     12  C   UNL     1      40.562 136.371  17.060  1.00  0.00     0.025 A 
ATOM     13  C   UNL     1      40.580 134.989  19.483  1.00  0.00    -0.017 A 
ATOM     14  C   UNL     1      40.723 137.059  18.231  1.00  0.00     0.024 A 
ATOM     15  C   UNL     1      40.520 137.314  15.915  1.00  0.00     0.301 C 
ATOM     16  C   UNL     1      40.568 134.305  20.709  1.00  0.00     0.009 A 
ATOM     17  C   UNL     1      40.752 136.398  19.469  1.00  0.00    -0.009 A 
ATOM     18  C   UNL     1      40.805 138.516  17.960  1.00  0.00     0.301 C 
ATOM     19  N   UNL     1      40.454 138.680  16.517  1.00  0.00    -0.321 N 
ATOM     20  C   UNL     1      40.728 135.007  21.906  1.00  0.00     0.001 A 
ATOM     21  C   UNL     1      40.919 137.089  20.681  1.00  0.00     0.009 A 
ATOM     22  C   UNL     1      40.904 136.394  21.892  1.00  0.00     0.001 A 
ATOM     23  C   UNL     1      39.081 139.225  16.386  1.00  0.00     0.334 C 
ATOM     24  C   UNL     1      41.403 139.598  15.846  1.00  0.00     0.334 C 
ENDBRANCH   7  10
ENDBRANCH   1   4
BRANCH   3  25
ATOM     25  O   UNL     1      42.089 131.659  16.825  1.00  0.00    -0.345 OA
ATOM     26  H   UNL     1      42.330 130.798  16.401  1.00  0.00     0.216 HD
ENDBRANCH   3  25
BRANCH   3  27
ATOM     27  N   UNL     1      44.279 132.731  16.999  1.00  0.00    -0.330 N 
ATOM     28  H   UNL     1      45.137 132.786  16.407  1.00  0.00     0.166 HD
BRANCH  27  29
ATOM     29  C   UNL     1      44.393 132.783  18.434  1.00  0.00     0.042 A 
ATOM     30  C   UNL     1      44.624 131.602  19.161  1.00  0.00     0.026 A 
ATOM     31  C   UNL     1      44.308 134.020  19.123  1.00  0.00    -0.010 A 
ATOM     32  C   UNL     1      44.807 131.641  20.541  1.00  0.00     0.004 A 
ATOM     33  C   UNL     1      44.503 134.045  20.527  1.00  0.00     0.057 A 
ATOM     34  C   UNL     1      44.745 132.854  21.222  1.00  0.00     0.020 A 
ATOM     35  C   UNL     1      44.037 135.293  18.352  1.00  0.00     0.048 C 
BRANCH  33  36
ATOM     36  C   UNL     1      44.468 135.275  21.282  1.00  0.00     0.099 C 
ATOM     37  N   UNL     1      44.439 136.261  21.887  1.00  0.00    -0.192 NA
ENDBRANCH  33  36
ENDBRANCH  27  29
ENDBRANCH   3  27
TORSDOF 6
ENDMDL
MODEL 6
REMARK VINA RESULT:      -7.7      2.982      6.278
REMARK SMILES Cc1nnn([C@@H]2O[C@@]2(O)Nc2cccc(C#N)c2C)c1-c1cc2ccccc2c2c1C[N+](C)(C)C2
REMARK SMILES IDX 6 1 7 2 8 3 5 4 2 5 3 6 20 7 4 8 1 9 21 10 22 11 30 12 23 13
REMARK SMILES IDX 29 14 31 15 24 16 28 17 35 18 32 19 25 20 27 21 26 22 33 23
REMARK SMILES IDX 34 24 9 25 10 27 11 29 12 30 18 31 13 32 15 33 14 34 19 35
REMARK SMILES IDX 16 36 17 37
REMARK H PARENT 9 26 10 28
ROOT
ATOM      1  C   UNL     1      41.529 136.726  19.193  1.00  0.00     0.327 C 
ATOM      2  O   UNL     1      41.527 137.368  20.449  1.00  0.00    -0.295 OA
ATOM      3  C   UNL     1      42.664 136.598  20.135  1.00  0.00     0.298 C 
ENDROOT
BRANCH   1   4
ATOM      4  N   UNL     1      41.736 137.672  18.102  1.00  0.00    -0.208 N 
ATOM      5  C   UNL     1      42.113 138.584  16.154  1.00  0.00     0.088 A 
ATOM      6  N   UNL     1      41.806 139.563  17.027  1.00  0.00    -0.135 NA
ATOM      7  C   UNL     1      42.078 137.380  16.834  1.00  0.00     0.095 A 
ATOM      8  N   UNL     1      41.578 138.983  18.198  1.00  0.00    -0.064 NA
ATOM      9  C   UNL     1      42.380 138.813  14.702  1.00  0.00     0.071 C 
BRANCH   7  10
ATOM     10  C   UNL     1      42.287 136.022  16.297  1.00  0.00     0.012 A 
ATOM     11  C   UNL     1      43.534 135.392  16.453  1.00  0.00     0.019 A 
ATOM     12  C   UNL     1      41.283 135.349  15.584  1.00  0.00     0.025 A 
ATOM     13  C   UNL     1      43.759 134.108  15.916  1.00  0.00    -0.017 A 
ATOM     14  C   UNL     1      41.493 134.107  15.055  1.00  0.00     0.024 A 
ATOM     15  C   UNL     1      39.925 135.833  15.230  1.00  0.00     0.301 C 
ATOM     16  C   UNL     1      45.008 133.485  16.058  1.00  0.00     0.009 A 
ATOM     17  C   UNL     1      42.720 133.443  15.212  1.00  0.00    -0.009 A 
ATOM     18  C   UNL     1      40.292 133.660  14.306  1.00  0.00     0.301 C 
ATOM     19  N   UNL     1      39.391 134.850  14.239  1.00  0.00    -0.321 N 
ATOM     20  C   UNL     1      45.227 132.217  15.513  1.00  0.00     0.001 A 
ATOM     21  C   UNL     1      42.952 132.165  14.677  1.00  0.00     0.009 A 
ATOM     22  C   UNL     1      44.202 131.559  14.826  1.00  0.00     0.001 A 
ATOM     23  C   UNL     1      39.424 135.436  12.876  1.00  0.00     0.334 C 
ATOM     24  C   UNL     1      37.997 134.474  14.567  1.00  0.00     0.334 C 
ENDBRANCH   7  10
ENDBRANCH   1   4
BRANCH   3  25
ATOM     25  O   UNL     1      43.798 137.410  20.028  1.00  0.00    -0.345 OA
ATOM     26  H   UNL     1      43.598 138.050  19.300  1.00  0.00     0.216 HD
ENDBRANCH   3  25
BRANCH   3  27
ATOM     27  N   UNL     1      42.754 135.419  20.986  1.00  0.00    -0.330 N 
ATOM     28  H   UNL     1      41.929 135.191  21.584  1.00  0.00     0.166 HD
BRANCH  27  29
ATOM     29  C   UNL     1      43.926 134.581  21.032  1.00  0.00     0.042 A 
ATOM     30  C   UNL     1      44.951 134.862  21.952  1.00  0.00     0.026 A 
ATOM     31  C   UNL     1      44.044 133.454  20.179  1.00  0.00    -0.010 A 
ATOM     32  C   UNL     1      46.058 134.025  22.059  1.00  0.00     0.004 A 
ATOM     33  C   UNL     1      45.174 132.607  20.305  1.00  0.00     0.057 A 
ATOM     34  C   UNL     1      46.172 132.904  21.240  1.00  0.00     0.020 A 
ATOM     35  C   UNL     1      42.957 133.158  19.170  1.00  0.00     0.048 C 
BRANCH  33  36
ATOM     36  C   UNL     1      45.336 131.423  19.494  1.00  0.00     0.099 C 
ATOM     37  N   UNL     1      45.466 130.475  18.844  1.00  0.00    -0.192 NA
ENDBRANCH  33  36
ENDBRANCH  27  29
ENDBRANCH   3  27
TORSDOF 6
ENDMDL
MODEL 7
REMARK VINA RESULT:      -7.6      2.415      5.923
REMARK SMILES Cc1nnn([C@@H]2O[C@@]2(O)Nc2cccc(C#N)c2C)c1-c1cc2ccccc2c2c1C[N+](C)(C)C2
REMARK SMILES IDX 6 1 7 2 8 3 5 4 2 5 3 6 20 7 4 8 1 9 21 10 22 11 30 12 23 13
REMARK SMILES IDX 29 14 31 15 24 16 28 17 35 18 32 19 25 20 27 21 26 22 33 23
REMARK SMILES IDX 34 24 9 25 10 27 11 29 12 30 18 31 13 32 15 33 14 34 19 35
REMARK SMILES IDX 16 36 17 37
REMARK H PARENT 9 26 10 28
ROOT
ATOM      1  C   UNL     1      43.434 132.199  15.810  1.00  0.00     0.327 C 
ATOM      2  O   UNL     1      44.450 132.489  14.875  1.00  0.00    -0.295 OA
ATOM      3  C   UNL     1      43.686 133.579  15.337  1.00  0.00     0.298 C 
ENDROOT
BRANCH   1   4
ATOM      4  N   UNL     1      43.983 131.888  17.126  1.00  0.00    -0.208 N 
ATOM      5  C   UNL     1      44.333 131.743  19.276  1.00  0.00     0.088 A 
ATOM      6  N   UNL     1      45.241 130.970  18.647  1.00  0.00    -0.135 NA
ATOM      7  C   UNL     1      43.536 132.335  18.314  1.00  0.00     0.095 A 
ATOM      8  N   UNL     1      45.004 131.074  17.346  1.00  0.00    -0.064 NA
ATOM      9  C   UNL     1      44.219 131.855  20.762  1.00  0.00     0.071 C 
BRANCH   7  10
ATOM     10  C   UNL     1      42.371 133.218  18.510  1.00  0.00     0.012 A 
ATOM     11  C   UNL     1      41.085 132.770  18.160  1.00  0.00     0.019 A 
ATOM     12  C   UNL     1      42.513 134.526  18.997  1.00  0.00     0.025 A 
ATOM     13  C   UNL     1      39.967 133.615  18.312  1.00  0.00    -0.017 A 
ATOM     14  C   UNL     1      41.435 135.355  19.141  1.00  0.00     0.024 A 
ATOM     15  C   UNL     1      43.761 135.243  19.361  1.00  0.00     0.301 C 
ATOM     16  C   UNL     1      38.686 133.172  17.948  1.00  0.00     0.009 A 
ATOM     17  C   UNL     1      40.137 134.929  18.821  1.00  0.00    -0.009 A 
ATOM     18  C   UNL     1      41.877 136.691  19.615  1.00  0.00     0.301 C 
ATOM     19  N   UNL     1      43.370 136.674  19.539  1.00  0.00    -0.321 N 
ATOM     20  C   UNL     1      37.584 134.020  18.089  1.00  0.00     0.001 A 
ATOM     21  C   UNL     1      39.018 135.767  18.965  1.00  0.00     0.009 A 
ATOM     22  C   UNL     1      37.749 135.312  18.598  1.00  0.00     0.001 A 
ATOM     23  C   UNL     1      43.828 137.472  18.376  1.00  0.00     0.334 C 
ATOM     24  C   UNL     1      43.966 137.234  20.773  1.00  0.00     0.334 C 
ENDBRANCH   7  10
ENDBRANCH   1   4
BRANCH   3  25
ATOM     25  O   UNL     1      44.482 134.468  16.065  1.00  0.00    -0.345 OA
ATOM     26  H   UNL     1      45.414 134.266  15.803  1.00  0.00     0.216 HD
ENDBRANCH   3  25
BRANCH   3  27
ATOM     27  N   UNL     1      42.855 134.129  14.273  1.00  0.00    -0.330 N 
ATOM     28  H   UNL     1      43.271 134.187  13.317  1.00  0.00     0.166 HD
BRANCH  27  29
ATOM     29  C   UNL     1      41.510 134.592  14.499  1.00  0.00     0.042 A 
ATOM     30  C   UNL     1      40.425 133.724  14.284  1.00  0.00     0.026 A 
ATOM     31  C   UNL     1      41.267 135.909  14.967  1.00  0.00    -0.010 A 
ATOM     32  C   UNL     1      39.123 134.131  14.564  1.00  0.00     0.004 A 
ATOM     33  C   UNL     1      39.936 136.306  15.253  1.00  0.00     0.057 A 
ATOM     34  C   UNL     1      38.878 135.415  15.044  1.00  0.00     0.020 A 
ATOM     35  C   UNL     1      42.425 136.858  15.179  1.00  0.00     0.048 C 
BRANCH  33  36
ATOM     36  C   UNL     1      39.624 137.618  15.769  1.00  0.00     0.099 C 
ATOM     37  N   UNL     1      39.375 138.670  16.183  1.00  0.00    -0.192 NA
ENDBRANCH  33  36
ENDBRANCH  27  29
ENDBRANCH   3  27
TORSDOF 6
ENDMDL
MODEL 8
REMARK VINA RESULT:      -7.6      1.938      3.350
REMARK SMILES Cc1nnn([C@@H]2O[C@@]2(O)Nc2cccc(C#N)c2C)c1-c1cc2ccccc2c2c1C[N+](C)(C)C2
REMARK SMILES IDX 6 1 7 2 8 3 5 4 2 5 3 6 20 7 4 8 1 9 21 10 22 11 30 12 23 13
REMARK SMILES IDX 29 14 31 15 24 16 28 17 35 18 32 19 25 20 27 21 26 22 33 23
REMARK SMILES IDX 34 24 9 25 10 27 11 29 12 30 18 31 13 32 15 33 14 34 19 35
REMARK SMILES IDX 16 36 17 37
REMARK H PARENT 9 26 10 28
ROOT
ATOM      1  C   UNL     1      43.143 135.055  15.599  1.00  0.00     0.327 C 
ATOM      2  O   UNL     1      42.456 134.607  14.452  1.00  0.00    -0.295 OA
ATOM      3  C   UNL     1      41.954 134.179  15.697  1.00  0.00     0.298 C 
ENDROOT
BRANCH   1   4
ATOM      4  N   UNL     1      42.891 136.469  15.862  1.00  0.00    -0.208 N 
ATOM      5  C   UNL     1      42.570 138.403  16.822  1.00  0.00     0.088 A 
ATOM      6  N   UNL     1      42.606 138.594  15.488  1.00  0.00    -0.135 NA
ATOM      7  C   UNL     1      42.742 137.053  17.065  1.00  0.00     0.095 A 
ATOM      8  N   UNL     1      42.806 137.407  14.931  1.00  0.00    -0.064 NA
ATOM      9  C   UNL     1      42.423 139.506  17.820  1.00  0.00     0.071 C 
BRANCH   7  10
ATOM     10  C   UNL     1      42.832 136.363  18.365  1.00  0.00     0.012 A 
ATOM     11  C   UNL     1      44.081 135.926  18.842  1.00  0.00     0.019 A 
ATOM     12  C   UNL     1      41.690 136.084  19.132  1.00  0.00     0.025 A 
ATOM     13  C   UNL     1      44.177 135.237  20.067  1.00  0.00    -0.017 A 
ATOM     14  C   UNL     1      41.773 135.411  20.318  1.00  0.00     0.024 A 
ATOM     15  C   UNL     1      40.271 136.376  18.808  1.00  0.00     0.301 C 
ATOM     16  C   UNL     1      45.422 134.786  20.535  1.00  0.00     0.009 A 
ATOM     17  C   UNL     1      43.007 134.980  20.830  1.00  0.00    -0.009 A 
ATOM     18  C   UNL     1      40.417 135.201  20.883  1.00  0.00     0.301 C 
ATOM     19  N   UNL     1      39.462 135.621  19.813  1.00  0.00    -0.321 N 
ATOM     20  C   UNL     1      45.508 134.093  21.744  1.00  0.00     0.001 A 
ATOM     21  C   UNL     1      43.111 134.289  22.048  1.00  0.00     0.009 A 
ATOM     22  C   UNL     1      44.357 133.847  22.500  1.00  0.00     0.001 A 
ATOM     23  C   UNL     1      38.853 134.427  19.178  1.00  0.00     0.334 C 
ATOM     24  C   UNL     1      38.386 136.472  20.371  1.00  0.00     0.334 C 
ENDBRANCH   7  10
ENDBRANCH   1   4
BRANCH   3  25
ATOM     25  O   UNL     1      40.677 134.702  15.921  1.00  0.00    -0.345 OA
ATOM     26  H   UNL     1      40.158 134.496  15.104  1.00  0.00     0.216 HD
ENDBRANCH   3  25
BRANCH   3  27
ATOM     27  N   UNL     1      42.140 132.745  15.876  1.00  0.00    -0.330 N 
ATOM     28  H   UNL     1      41.453 132.108  15.414  1.00  0.00     0.166 HD
BRANCH  27  29
ATOM     29  C   UNL     1      43.213 132.193  16.662  1.00  0.00     0.042 A 
ATOM     30  C   UNL     1      43.154 132.248  18.066  1.00  0.00     0.026 A 
ATOM     31  C   UNL     1      44.320 131.564  16.036  1.00  0.00    -0.010 A 
ATOM     32  C   UNL     1      44.147 131.659  18.843  1.00  0.00     0.004 A 
ATOM     33  C   UNL     1      45.320 130.962  16.841  1.00  0.00     0.057 A 
ATOM     34  C   UNL     1      45.226 131.021  18.236  1.00  0.00     0.020 A 
ATOM     35  C   UNL     1      44.404 131.520  14.527  1.00  0.00     0.048 C 
BRANCH  33  36
ATOM     36  C   UNL     1      46.451 130.273  16.266  1.00  0.00     0.099 C 
ATOM     37  N   UNL     1      47.358 129.720  15.806  1.00  0.00    -0.192 NA
ENDBRANCH  33  36
ENDBRANCH  27  29
ENDBRANCH   3  27
TORSDOF 6
ENDMDL
MODEL 9
REMARK VINA RESULT:      -7.4      2.870      5.577
REMARK SMILES Cc1nnn([C@@H]2O[C@@]2(O)Nc2cccc(C#N)c2C)c1-c1cc2ccccc2c2c1C[N+](C)(C)C2
REMARK SMILES IDX 6 1 7 2 8 3 5 4 2 5 3 6 20 7 4 8 1 9 21 10 22 11 30 12 23 13
REMARK SMILES IDX 29 14 31 15 24 16 28 17 35 18 32 19 25 20 27 21 26 22 33 23
REMARK SMILES IDX 34 24 9 25 10 27 11 29 12 30 18 31 13 32 15 33 14 34 19 35
REMARK SMILES IDX 16 36 17 37
REMARK H PARENT 9 26 10 28
ROOT
ATOM      1  C   UNL     1      44.336 131.982  20.518  1.00  0.00     0.327 C 
ATOM      2  O   UNL     1      44.901 130.802  21.047  1.00  0.00    -0.295 OA
ATOM      3  C   UNL     1      45.447 131.278  19.839  1.00  0.00     0.298 C 
ENDROOT
BRANCH   1   4
ATOM      4  N   UNL     1      44.728 133.160  21.283  1.00  0.00    -0.208 N 
ATOM      5  C   UNL     1      44.988 135.202  22.013  1.00  0.00     0.088 A 
ATOM      6  N   UNL     1      45.563 134.361  22.896  1.00  0.00    -0.135 NA
ATOM      7  C   UNL     1      44.463 134.445  20.982  1.00  0.00     0.095 A 
ATOM      8  N   UNL     1      45.388 133.131  22.432  1.00  0.00    -0.064 NA
ATOM      9  C   UNL     1      44.913 136.682  22.199  1.00  0.00     0.071 C 
BRANCH   7  10
ATOM     10  C   UNL     1      43.691 134.905  19.813  1.00  0.00     0.012 A 
ATOM     11  C   UNL     1      44.292 134.928  18.542  1.00  0.00     0.019 A 
ATOM     12  C   UNL     1      42.374 135.373  19.938  1.00  0.00     0.025 A 
ATOM     13  C   UNL     1      43.577 135.396  17.421  1.00  0.00    -0.017 A 
ATOM     14  C   UNL     1      41.676 135.835  18.858  1.00  0.00     0.024 A 
ATOM     15  C   UNL     1      41.561 135.514  21.172  1.00  0.00     0.301 C 
ATOM     16  C   UNL     1      44.182 135.433  16.155  1.00  0.00     0.009 A 
ATOM     17  C   UNL     1      42.240 135.850  17.573  1.00  0.00    -0.009 A 
ATOM     18  C   UNL     1      40.339 136.320  19.283  1.00  0.00     0.301 C 
ATOM     19  N   UNL     1      40.363 136.316  20.778  1.00  0.00    -0.321 N 
ATOM     20  C   UNL     1      43.471 135.910  15.051  1.00  0.00     0.001 A 
ATOM     21  C   UNL     1      41.536 136.320  16.452  1.00  0.00     0.009 A 
ATOM     22  C   UNL     1      42.152 136.350  15.199  1.00  0.00     0.001 A 
ATOM     23  C   UNL     1      40.492 137.703  21.288  1.00  0.00     0.334 C 
ATOM     24  C   UNL     1      39.124 135.715  21.323  1.00  0.00     0.334 C 
ENDBRANCH   7  10
ENDBRANCH   1   4
BRANCH   3  25
ATOM     25  O   UNL     1      46.778 131.669  20.017  1.00  0.00    -0.345 OA
ATOM     26  H   UNL     1      47.281 130.833  20.178  1.00  0.00     0.216 HD
ENDBRANCH   3  25
BRANCH   3  27
ATOM     27  N   UNL     1      45.149 130.376  18.733  1.00  0.00    -0.330 N 
ATOM     28  H   UNL     1      44.941 129.380  18.967  1.00  0.00     0.166 HD
BRANCH  27  29
ATOM     29  C   UNL     1      45.142 130.808  17.359  1.00  0.00     0.042 A 
ATOM     30  C   UNL     1      46.286 130.626  16.562  1.00  0.00     0.026 A 
ATOM     31  C   UNL     1      43.980 131.387  16.788  1.00  0.00    -0.010 A 
ATOM     32  C   UNL     1      46.275 130.972  15.214  1.00  0.00     0.004 A 
ATOM     33  C   UNL     1      43.982 131.728  15.411  1.00  0.00     0.057 A 
ATOM     34  C   UNL     1      45.131 131.522  14.640  1.00  0.00     0.020 A 
ATOM     35  C   UNL     1      42.752 131.607  17.643  1.00  0.00     0.048 C 
BRANCH  33  36
ATOM     36  C   UNL     1      42.820 132.284  14.760  1.00  0.00     0.099 C 
ATOM     37  N   UNL     1      41.887 132.730  14.239  1.00  0.00    -0.192 NA
ENDBRANCH  33  36
ENDBRANCH  27  29
ENDBRANCH   3  27
TORSDOF 6
ENDMDL


