REMARK SMILES COC[C@@H](C)[NH2+]Cc1c(C)nnn1-c1cc2ccccc2c2ccccc12
REMARK SMILES IDX 4 1 5 2 3 3 2 4 1 5 6 6 7 9 8 10 9 11 13 12 11 13 12 14
REMARK SMILES IDX 10 15 14 16 15 17 27 18 16 19 26 20 22 21 17 22 21 23 25 24
REMARK SMILES IDX 23 25 18 26 20 27 24 28 19 29
REMARK H PARENT 6 7 6 8
ROOT
ATOM      1  C   UNL     1       0.681   1.414   2.819  1.00  0.00     0.205 C 
ATOM      2  C   UNL     1       2.097   1.917   3.154  1.00  0.00     0.078 C 
ENDROOT
BRANCH   1   3
ATOM      3  C   UNL     1       0.584  -0.129   2.866  1.00  0.00     0.224 C 
BRANCH   3   4
ATOM      4  O   UNL     1       1.509  -0.726   1.982  1.00  0.00    -0.379 OA
ATOM      5  C   UNL     1       1.451  -2.128   2.119  1.00  0.00     0.195 C 
ENDBRANCH   3   4
ENDBRANCH   1   3
BRANCH   1   6
ATOM      6  N   UNL     1       0.134   1.991   1.565  1.00  0.00    -0.337 N 
ATOM      7  H   UNL     1      -0.754   1.492   1.325  1.00  0.00     0.346 HD
ATOM      8  H   UNL     1      -0.123   2.989   1.750  1.00  0.00     0.346 HD
BRANCH   6   9
ATOM      9  C   UNL     1       1.054   1.968   0.411  1.00  0.00     0.320 C 
BRANCH   9  10
ATOM     10  C   UNL     1       0.300   2.224  -0.866  1.00  0.00     0.122 A 
ATOM     11  C   UNL     1       0.001   3.442  -1.443  1.00  0.00     0.089 A 
ATOM     12  N   UNL     1      -0.375   1.299  -1.573  1.00  0.00    -0.211 N 
ATOM     13  N   UNL     1      -0.829   3.221  -2.484  1.00  0.00    -0.135 NA
ATOM     14  N   UNL     1      -1.038   1.913  -2.540  1.00  0.00    -0.062 NA
ATOM     15  C   UNL     1       0.433   4.794  -0.978  1.00  0.00     0.071 C 
BRANCH  12  16
ATOM     16  C   UNL     1      -0.415  -0.114  -1.333  1.00  0.00     0.075 A 
ATOM     17  C   UNL     1       0.704  -0.876  -1.659  1.00  0.00     0.037 A 
ATOM     18  C   UNL     1      -1.543  -0.727  -0.749  1.00  0.00     0.008 A 
ATOM     19  C   UNL     1       0.730  -2.252  -1.427  1.00  0.00    -0.016 A 
ATOM     20  C   UNL     1      -2.665   0.046  -0.388  1.00  0.00     0.011 A 
ATOM     21  C   UNL     1      -1.543  -2.133  -0.500  1.00  0.00    -0.008 A 
ATOM     22  C   UNL     1       1.883  -2.981  -1.763  1.00  0.00     0.009 A 
ATOM     23  C   UNL     1      -0.392  -2.906  -0.848  1.00  0.00    -0.010 A 
ATOM     24  C   UNL     1      -3.778  -0.547   0.201  1.00  0.00     0.001 A 
ATOM     25  C   UNL     1      -2.694  -2.704   0.100  1.00  0.00     0.009 A 
ATOM     26  C   UNL     1       1.941  -4.353  -1.534  1.00  0.00     0.001 A 
ATOM     27  C   UNL     1      -0.303  -4.304  -0.630  1.00  0.00     0.009 A 
ATOM     28  C   UNL     1      -3.792  -1.915   0.442  1.00  0.00     0.001 A 
ATOM     29  C   UNL     1       0.852  -5.011  -0.971  1.00  0.00     0.001 A 
ENDBRANCH  12  16
ENDBRANCH   9  10
ENDBRANCH   6   9
ENDBRANCH   1   6
TORSDOF 6


