REMARK SMILES [N-]=[N+]=NC(=O)c1cc2ccccc2cc1OC(=O)[C@]1(N=[N+]=[N-])C[C@H](CO)C1
REMARK SMILES IDX 16 1 17 2 18 3 19 4 24 5 27 6 23 7 25 8 26 9 20 11 21 12
REMARK SMILES IDX 22 13 15 14 6 15 14 16 7 17 13 18 8 19 12 20 9 21 11 22
REMARK SMILES IDX 10 23 4 24 5 25 3 26 2 27 1 28
REMARK H PARENT 26 10
ROOT
ATOM      1  O   UNL     1       0.157  -0.287  -0.435  1.00  0.00    -0.425 OA
ENDROOT
BRANCH   1   2
ATOM      2  C   UNL     1       0.895  -0.592   0.717  1.00  0.00     0.323 C 
ATOM      3  O   UNL     1       0.356  -0.518   1.856  1.00  0.00    -0.251 OA
BRANCH   2   4
ATOM      4  C   UNL     1       2.367  -0.906   0.604  1.00  0.00     0.147 C 
ATOM      5  C   UNL     1       3.578  -0.567  -1.155  1.00  0.00     0.017 C 
ATOM      6  C   UNL     1       3.190   0.272   0.067  1.00  0.00     0.031 C 
ATOM      7  C   UNL     1       2.742  -1.738  -0.632  1.00  0.00     0.031 C 
BRANCH   5   8
ATOM      8  C   UNL     1       3.071   0.002  -2.487  1.00  0.00     0.159 C 
BRANCH   8   9
ATOM      9  O   UNL     1       3.795   1.157  -2.808  1.00  0.00    -0.396 OA
ATOM     10  H   UNL     1       3.431   1.478  -3.673  1.00  0.00     0.210 HD
ENDBRANCH   8   9
ENDBRANCH   5   8
BRANCH   4  11
ATOM     11  N   UNL     1       2.901  -1.464   1.853  1.00  0.00    -0.075 NA
BRANCH  11  12
ATOM     12  N   UNL     1       4.087  -1.774   1.985  1.00  0.00     0.002 N 
ATOM     13  N   UNL     1       5.270  -2.083   2.117  1.00  0.00    -0.003 NA
ENDBRANCH  11  12
ENDBRANCH   4  11
ENDBRANCH   2   4
ENDBRANCH   1   2
BRANCH   1  14
ATOM     14  C   UNL     1      -1.222  -0.040  -0.434  1.00  0.00     0.142 A 
ATOM     15  C   UNL     1      -2.153  -0.960   0.105  1.00  0.00     0.068 A 
ATOM     16  C   UNL     1      -1.674   1.161  -0.991  1.00  0.00     0.056 A 
ATOM     17  C   UNL     1      -3.513  -0.615   0.157  1.00  0.00     0.024 A 
ATOM     18  C   UNL     1      -3.034   1.495  -0.961  1.00  0.00    -0.015 A 
ATOM     19  C   UNL     1      -3.961   0.603  -0.371  1.00  0.00    -0.017 A 
ATOM     20  C   UNL     1      -3.486   2.709  -1.501  1.00  0.00     0.009 A 
ATOM     21  C   UNL     1      -5.323   0.942  -0.334  1.00  0.00     0.009 A 
ATOM     22  C   UNL     1      -4.844   3.035  -1.457  1.00  0.00     0.001 A 
ATOM     23  C   UNL     1      -5.760   2.155  -0.875  1.00  0.00     0.001 A 
BRANCH  15  24
ATOM     24  C   UNL     1      -1.740  -2.298   0.583  1.00  0.00     0.252 C 
ATOM     25  O   UNL     1      -2.114  -2.687   1.721  1.00  0.00    -0.287 OA
BRANCH  24  26
ATOM     26  N   UNL     1      -0.954  -3.179  -0.226  1.00  0.00    -0.017 NA
BRANCH  26  27
ATOM     27  N   UNL     1      -0.753  -2.959  -1.421  1.00  0.00     0.009 N 
ATOM     28  N   UNL     1      -0.555  -2.740  -2.615  1.00  0.00    -0.003 NA
ENDBRANCH  26  27
ENDBRANCH  24  26
ENDBRANCH  15  24
ENDBRANCH   1  14
TORSDOF 10


