MODEL 1
REMARK VINA RESULT:      -6.8      0.000      0.000
REMARK SMILES [N-]=[N+]=Nc1c(Cl)c(Cl)c(OC(=O)[C@]2(N)C[C@H](CO)C2)ccccc([O-])c1[NH2+]C1(CF)COC1
REMARK SMILES IDX 10 1 11 2 12 3 13 4 16 5 15 6 19 7 17 8 18 9 14 11 9 14
REMARK SMILES IDX 20 15 7 16 21 17 5 18 22 19 4 20 23 21 26 22 24 23 8 24 6 25
REMARK SMILES IDX 25 26 3 27 2 28 1 29 27 30 28 33 31 34 33 35 32 36 29 37
REMARK SMILES IDX 30 38
REMARK H PARENT 18 10 14 12 14 13 27 31 27 32
ROOT
ATOM      1  O   UNL     1      43.402 132.529  16.019  1.00  0.00    -0.424 OA
ENDROOT
BRANCH   1   2
ATOM      2  C   UNL     1      44.539 132.188  15.273  1.00  0.00     0.331 C 
ATOM      3  O   UNL     1      45.558 132.930  15.261  1.00  0.00    -0.250 OA
BRANCH   2   4
ATOM      4  C   UNL     1      44.482 130.989  14.357  1.00  0.00     0.116 C 
ATOM      5  C   UNL     1      46.079 129.564  14.035  1.00  0.00     0.019 C 
ATOM      6  C   UNL     1      45.659 130.879  13.379  1.00  0.00     0.040 C 
ATOM      7  C   UNL     1      44.910 129.672  15.016  1.00  0.00     0.040 C 
BRANCH   5   8
ATOM      8  C   UNL     1      47.456 129.629  14.704  1.00  0.00     0.159 C 
BRANCH   8   9
ATOM      9  O   UNL     1      48.374 128.884  13.954  1.00  0.00    -0.396 OA
ATOM     10  H   UNL     1      49.204 128.842  14.498  1.00  0.00     0.210 HD
ENDBRANCH   8   9
ENDBRANCH   5   8
BRANCH   4  11
ATOM     11  N   UNL     1      43.189 130.866  13.680  1.00  0.00    -0.316 NA
ATOM     12  H   UNL     1      42.625 130.137  14.173  1.00  0.00     0.119 HD
ATOM     13  H   UNL     1      42.675 131.772  13.777  1.00  0.00     0.119 HD
ENDBRANCH   4  11
ENDBRANCH   2   4
ENDBRANCH   1   2
BRANCH   1  14
ATOM     14  C   UNL     1      43.294 132.527  17.420  1.00  0.00     0.151 A 
ATOM     15  C   UNL     1      44.435 132.549  18.252  1.00  0.00     0.049 A 
ATOM     16  C   UNL     1      42.003 132.482  17.969  1.00  0.00     0.103 A 
ATOM     17  C   UNL     1      44.489 133.153  19.527  1.00  0.00     0.004 A 
ATOM     18  C   UNL     1      40.940 133.274  17.479  1.00  0.00     0.079 A 
ATOM     19  C   UNL     1      43.590 134.122  20.021  1.00  0.00    -0.000 A 
ATOM     20  C   UNL     1      41.097 134.477  16.727  1.00  0.00     0.118 A 
ATOM     21  C   UNL     1      42.762 134.923  19.221  1.00  0.00    -0.002 A 
ATOM     22  C   UNL     1      42.207 135.378  16.855  1.00  0.00     0.133 A 
ATOM     23  C   UNL     1      43.126 135.316  17.929  1.00  0.00    -0.045 A 
ATOM     24  Cl  UNL     1      41.719 131.394  19.333  1.00  0.00    -0.079 Cl
ATOM     25  Cl  UNL     1      39.298 132.810  17.946  1.00  0.00    -0.082 Cl
ATOM     26  O   UNL     1      44.464 135.623  17.693  1.00  0.00    -0.868 OA
BRANCH  20  27
ATOM     27  N   UNL     1      40.085 134.830  15.768  1.00  0.00    -0.053 NA
BRANCH  27  28
ATOM     28  N   UNL     1      39.723 134.073  14.865  1.00  0.00     0.006 N 
ATOM     29  N   UNL     1      39.366 133.316  13.964  1.00  0.00    -0.003 NA
ENDBRANCH  27  28
ENDBRANCH  20  27
BRANCH  22  30
ATOM     30  N   UNL     1      42.463 136.342  15.793  1.00  0.00    -0.303 N 
ATOM     31  H   UNL     1      43.495 136.415  15.630  1.00  0.00     0.353 HD
ATOM     32  H   UNL     1      42.076 136.001  14.884  1.00  0.00     0.353 HD
BRANCH  30  33
ATOM     33  C   UNL     1      41.887 137.683  16.078  1.00  0.00     0.176 C 
ATOM     34  C   UNL     1      41.494 137.913  17.532  1.00  0.00     0.234 C 
ATOM     35  C   UNL     1      42.961 138.711  16.403  1.00  0.00     0.234 C 
ATOM     36  O   UNL     1      42.508 138.872  17.726  1.00  0.00    -0.368 OA
BRANCH  33  37
ATOM     37  C   UNL     1      40.857 138.190  15.041  1.00  0.00     0.288 C 
ATOM     38  F   UNL     1      40.717 137.304  13.986  1.00  0.00    -0.244 F 
ENDBRANCH  33  37
ENDBRANCH  30  33
ENDBRANCH  22  30
ENDBRANCH   1  14
TORSDOF 11
ENDMDL
MODEL 2
REMARK VINA RESULT:      -6.7      0.885      1.122
REMARK SMILES [N-]=[N+]=Nc1c(Cl)c(Cl)c(OC(=O)[C@]2(N)C[C@H](CO)C2)ccccc([O-])c1[NH2+]C1(CF)COC1
REMARK SMILES IDX 10 1 11 2 12 3 13 4 16 5 15 6 19 7 17 8 18 9 14 11 9 14
REMARK SMILES IDX 20 15 7 16 21 17 5 18 22 19 4 20 23 21 26 22 24 23 8 24 6 25
REMARK SMILES IDX 25 26 3 27 2 28 1 29 27 30 28 33 31 34 33 35 32 36 29 37
REMARK SMILES IDX 30 38
REMARK H PARENT 18 10 14 12 14 13 27 31 27 32
ROOT
ATOM      1  O   UNL     1      43.353 132.472  16.062  1.00  0.00    -0.424 OA
ENDROOT
BRANCH   1   2
ATOM      2  C   UNL     1      44.499 132.213  15.297  1.00  0.00     0.331 C 
ATOM      3  O   UNL     1      45.475 133.011  15.292  1.00  0.00    -0.250 OA
BRANCH   2   4
ATOM      4  C   UNL     1      44.499 131.034  14.353  1.00  0.00     0.116 C 
ATOM      5  C   UNL     1      46.098 129.595  14.123  1.00  0.00     0.019 C 
ATOM      6  C   UNL     1      45.746 130.929  13.466  1.00  0.00     0.040 C 
ATOM      7  C   UNL     1      44.859 129.698  15.014  1.00  0.00     0.040 C 
BRANCH   5   8
ATOM      8  C   UNL     1      47.420 129.626  14.898  1.00  0.00     0.159 C 
BRANCH   8   9
ATOM      9  O   UNL     1      48.443 129.107  14.095  1.00  0.00    -0.396 OA
ATOM     10  H   UNL     1      48.387 129.593  13.231  1.00  0.00     0.210 HD
ENDBRANCH   8   9
ENDBRANCH   5   8
BRANCH   4  11
ATOM     11  N   UNL     1      43.260 130.943  13.575  1.00  0.00    -0.316 NA
ATOM     12  H   UNL     1      42.807 131.886  13.563  1.00  0.00     0.119 HD
ATOM     13  H   UNL     1      43.505 130.706  12.587  1.00  0.00     0.119 HD
ENDBRANCH   4  11
ENDBRANCH   2   4
ENDBRANCH   1   2
BRANCH   1  14
ATOM     14  C   UNL     1      43.296 132.594  17.460  1.00  0.00     0.151 A 
ATOM     15  C   UNL     1      44.465 132.715  18.243  1.00  0.00     0.049 A 
ATOM     16  C   UNL     1      42.027 132.569  18.060  1.00  0.00     0.103 A 
ATOM     17  C   UNL     1      44.549 133.432  19.457  1.00  0.00     0.004 A 
ATOM     18  C   UNL     1      40.927 133.289  17.542  1.00  0.00     0.079 A 
ATOM     19  C   UNL     1      43.644 134.421  19.897  1.00  0.00    -0.000 A 
ATOM     20  C   UNL     1      41.025 134.423  16.682  1.00  0.00     0.118 A 
ATOM     21  C   UNL     1      42.767 135.128  19.062  1.00  0.00    -0.002 A 
ATOM     22  C   UNL     1      42.116 135.358  16.687  1.00  0.00     0.133 A 
ATOM     23  C   UNL     1      43.074 135.412  17.727  1.00  0.00    -0.045 A 
ATOM     24  Cl  UNL     1      41.821 131.600  19.525  1.00  0.00    -0.079 Cl
ATOM     25  Cl  UNL     1      39.315 132.832  18.111  1.00  0.00    -0.082 Cl
ATOM     26  O   UNL     1      44.395 135.727  17.414  1.00  0.00    -0.868 OA
BRANCH  20  27
ATOM     27  N   UNL     1      39.971 134.666  15.734  1.00  0.00    -0.053 NA
BRANCH  27  28
ATOM     28  N   UNL     1      39.713 133.899  14.806  1.00  0.00     0.006 N 
ATOM     29  N   UNL     1      39.460 133.131  13.879  1.00  0.00    -0.003 NA
ENDBRANCH  27  28
ENDBRANCH  20  27
BRANCH  22  30
ATOM     30  N   UNL     1      42.309 136.228  15.536  1.00  0.00    -0.303 N 
ATOM     31  H   UNL     1      43.315 136.210  15.250  1.00  0.00     0.353 HD
ATOM     32  H   UNL     1      41.792 135.860  14.705  1.00  0.00     0.353 HD
BRANCH  30  33
ATOM     33  C   UNL     1      41.864 137.625  15.786  1.00  0.00     0.176 C 
ATOM     34  C   UNL     1      42.940 138.683  15.578  1.00  0.00     0.234 C 
ATOM     35  C   UNL     1      41.261 138.266  14.544  1.00  0.00     0.234 C 
ATOM     36  O   UNL     1      42.291 139.221  14.449  1.00  0.00    -0.368 OA
BRANCH  33  37
ATOM     37  C   UNL     1      40.997 137.822  17.052  1.00  0.00     0.288 C 
ATOM     38  F   UNL     1      40.296 139.015  17.008  1.00  0.00    -0.244 F 
ENDBRANCH  33  37
ENDBRANCH  30  33
ENDBRANCH  22  30
ENDBRANCH   1  14
TORSDOF 11
ENDMDL
MODEL 3
REMARK VINA RESULT:      -6.6      1.410      1.766
REMARK SMILES [N-]=[N+]=Nc1c(Cl)c(Cl)c(OC(=O)[C@]2(N)C[C@H](CO)C2)ccccc([O-])c1[NH2+]C1(CF)COC1
REMARK SMILES IDX 10 1 11 2 12 3 13 4 16 5 15 6 19 7 17 8 18 9 14 11 9 14
REMARK SMILES IDX 20 15 7 16 21 17 5 18 22 19 4 20 23 21 26 22 24 23 8 24 6 25
REMARK SMILES IDX 25 26 3 27 2 28 1 29 27 30 28 33 31 34 33 35 32 36 29 37
REMARK SMILES IDX 30 38
REMARK H PARENT 18 10 14 12 14 13 27 31 27 32
ROOT
ATOM      1  O   UNL     1      43.521 133.088  15.816  1.00  0.00    -0.424 OA
ENDROOT
BRANCH   1   2
ATOM      2  C   UNL     1      44.641 132.422  15.298  1.00  0.00     0.331 C 
ATOM      3  O   UNL     1      45.792 132.932  15.369  1.00  0.00    -0.250 OA
BRANCH   2   4
ATOM      4  C   UNL     1      44.439 131.147  14.516  1.00  0.00     0.116 C 
ATOM      5  C   UNL     1      45.919 129.598  14.215  1.00  0.00     0.019 C 
ATOM      6  C   UNL     1      45.520 130.868  13.464  1.00  0.00     0.040 C 
ATOM      7  C   UNL     1      44.846 129.875  15.269  1.00  0.00     0.040 C 
BRANCH   5   8
ATOM      8  C   UNL     1      47.350 129.637  14.763  1.00  0.00     0.159 C 
BRANCH   8   9
ATOM      9  O   UNL     1      48.184 128.863  13.947  1.00  0.00    -0.396 OA
ATOM     10  H   UNL     1      48.757 129.505  13.454  1.00  0.00     0.210 HD
ENDBRANCH   8   9
ENDBRANCH   5   8
BRANCH   4  11
ATOM     11  N   UNL     1      43.088 131.043  13.959  1.00  0.00    -0.316 NA
ATOM     12  H   UNL     1      43.152 130.590  13.019  1.00  0.00     0.119 HD
ATOM     13  H   UNL     1      42.524 130.409  14.569  1.00  0.00     0.119 HD
ENDBRANCH   4  11
ENDBRANCH   2   4
ENDBRANCH   1   2
BRANCH   1  14
ATOM     14  C   UNL     1      43.288 133.401  17.166  1.00  0.00     0.151 A 
ATOM     15  C   UNL     1      44.281 134.004  17.969  1.00  0.00     0.049 A 
ATOM     16  C   UNL     1      42.032 133.072  17.699  1.00  0.00     0.103 A 
ATOM     17  C   UNL     1      44.022 134.890  19.037  1.00  0.00     0.004 A 
ATOM     18  C   UNL     1      40.824 133.320  17.008  1.00  0.00     0.079 A 
ATOM     19  C   UNL     1      42.821 135.601  19.249  1.00  0.00    -0.000 A 
ATOM     20  C   UNL     1      40.663 134.280  15.964  1.00  0.00     0.118 A 
ATOM     21  C   UNL     1      41.861 135.857  18.260  1.00  0.00    -0.002 A 
ATOM     22  C   UNL     1      41.415 135.499  15.854  1.00  0.00     0.133 A 
ATOM     23  C   UNL     1      42.201 136.012  16.912  1.00  0.00    -0.045 A 
ATOM     24  Cl  UNL     1      41.981 132.328  19.302  1.00  0.00    -0.079 Cl
ATOM     25  Cl  UNL     1      39.377 132.474  17.572  1.00  0.00    -0.082 Cl
ATOM     26  O   UNL     1      43.390 136.674  16.611  1.00  0.00    -0.868 OA
BRANCH  20  27
ATOM     27  N   UNL     1      39.686 134.028  14.939  1.00  0.00    -0.053 NA
BRANCH  27  28
ATOM     28  N   UNL     1      38.488 134.280  15.078  1.00  0.00     0.006 N 
ATOM     29  N   UNL     1      37.292 134.530  15.222  1.00  0.00    -0.003 NA
ENDBRANCH  27  28
ENDBRANCH  20  27
BRANCH  22  30
ATOM     30  N   UNL     1      41.451 136.195  14.576  1.00  0.00    -0.303 N 
ATOM     31  H   UNL     1      42.447 136.339  14.286  1.00  0.00     0.353 HD
ATOM     32  H   UNL     1      41.040 135.601  13.820  1.00  0.00     0.353 HD
BRANCH  30  33
ATOM     33  C   UNL     1      40.725 137.493  14.603  1.00  0.00     0.176 C 
ATOM     34  C   UNL     1      39.462 137.535  13.754  1.00  0.00     0.234 C 
ATOM     35  C   UNL     1      39.730 137.568  15.751  1.00  0.00     0.234 C 
ATOM     36  O   UNL     1      38.623 137.625  14.883  1.00  0.00    -0.368 OA
BRANCH  33  37
ATOM     37  C   UNL     1      41.621 138.750  14.495  1.00  0.00     0.288 C 
ATOM     38  F   UNL     1      42.934 138.417  14.206  1.00  0.00    -0.244 F 
ENDBRANCH  33  37
ENDBRANCH  30  33
ENDBRANCH  22  30
ENDBRANCH   1  14
TORSDOF 11
ENDMDL
MODEL 4
REMARK VINA RESULT:      -6.6      2.710      3.481
REMARK SMILES [N-]=[N+]=Nc1c(Cl)c(Cl)c(OC(=O)[C@]2(N)C[C@H](CO)C2)ccccc([O-])c1[NH2+]C1(CF)COC1
REMARK SMILES IDX 10 1 11 2 12 3 13 4 16 5 15 6 19 7 17 8 18 9 14 11 9 14
REMARK SMILES IDX 20 15 7 16 21 17 5 18 22 19 4 20 23 21 26 22 24 23 8 24 6 25
REMARK SMILES IDX 25 26 3 27 2 28 1 29 27 30 28 33 31 34 33 35 32 36 29 37
REMARK SMILES IDX 30 38
REMARK H PARENT 18 10 14 12 14 13 27 31 27 32
ROOT
ATOM      1  O   UNL     1      42.985 132.419  16.030  1.00  0.00    -0.424 OA
ENDROOT
BRANCH   1   2
ATOM      2  C   UNL     1      43.722 131.685  15.089  1.00  0.00     0.331 C 
ATOM      3  O   UNL     1      43.301 131.526  13.912  1.00  0.00    -0.250 OA
BRANCH   2   4
ATOM      4  C   UNL     1      44.963 130.954  15.540  1.00  0.00     0.116 C 
ATOM      5  C   UNL     1      46.589 130.312  14.264  1.00  0.00     0.019 C 
ATOM      6  C   UNL     1      45.280 129.684  14.740  1.00  0.00     0.040 C 
ATOM      7  C   UNL     1      46.276 131.583  15.056  1.00  0.00     0.040 C 
BRANCH   5   8
ATOM      8  C   UNL     1      46.647 130.528  12.747  1.00  0.00     0.159 C 
BRANCH   8   9
ATOM      9  O   UNL     1      47.753 129.849  12.222  1.00  0.00    -0.396 OA
ATOM     10  H   UNL     1      48.159 129.356  12.982  1.00  0.00     0.210 HD
ENDBRANCH   8   9
ENDBRANCH   5   8
BRANCH   4  11
ATOM     11  N   UNL     1      44.974 130.711  16.985  1.00  0.00    -0.316 NA
ATOM     12  H   UNL     1      45.482 131.499  17.449  1.00  0.00     0.119 HD
ATOM     13  H   UNL     1      43.988 130.733  17.333  1.00  0.00     0.119 HD
ENDBRANCH   4  11
ENDBRANCH   2   4
ENDBRANCH   1   2
BRANCH   1  14
ATOM     14  C   UNL     1      43.416 133.568  16.712  1.00  0.00     0.151 A 
ATOM     15  C   UNL     1      44.357 134.456  16.147  1.00  0.00     0.049 A 
ATOM     16  C   UNL     1      42.891 133.795  17.994  1.00  0.00     0.103 A 
ATOM     17  C   UNL     1      44.395 135.848  16.388  1.00  0.00     0.004 A 
ATOM     18  C   UNL     1      41.519 133.633  18.294  1.00  0.00     0.079 A 
ATOM     19  C   UNL     1      43.335 136.628  16.898  1.00  0.00    -0.000 A 
ATOM     20  C   UNL     1      40.464 133.666  17.333  1.00  0.00     0.118 A 
ATOM     21  C   UNL     1      41.984 136.250  16.875  1.00  0.00    -0.002 A 
ATOM     22  C   UNL     1      40.495 134.428  16.116  1.00  0.00     0.133 A 
ATOM     23  C   UNL     1      41.453 135.438  15.867  1.00  0.00    -0.045 A 
ATOM     24  Cl  UNL     1      44.004 134.312  19.267  1.00  0.00    -0.079 Cl
ATOM     25  Cl  UNL     1      41.068 133.514  20.000  1.00  0.00    -0.082 Cl
ATOM     26  O   UNL     1      41.924 135.619  14.569  1.00  0.00    -0.868 OA
BRANCH  20  27
ATOM     27  N   UNL     1      39.279 132.890  17.581  1.00  0.00    -0.053 NA
BRANCH  27  28
ATOM     28  N   UNL     1      38.248 133.372  18.053  1.00  0.00     0.006 N 
ATOM     29  N   UNL     1      37.221 133.857  18.525  1.00  0.00    -0.003 NA
ENDBRANCH  27  28
ENDBRANCH  20  27
BRANCH  22  30
ATOM     30  N   UNL     1      39.563 134.093  15.048  1.00  0.00    -0.303 N 
ATOM     31  H   UNL     1      40.097 133.897  14.169  1.00  0.00     0.353 HD
ATOM     32  H   UNL     1      39.067 133.197  15.259  1.00  0.00     0.353 HD
BRANCH  30  33
ATOM     33  C   UNL     1      38.546 135.151  14.813  1.00  0.00     0.176 C 
ATOM     34  C   UNL     1      38.494 135.681  13.386  1.00  0.00     0.234 C 
ATOM     35  C   UNL     1      37.188 134.571  14.447  1.00  0.00     0.234 C 
ATOM     36  O   UNL     1      37.221 135.122  13.152  1.00  0.00    -0.368 OA
BRANCH  33  37
ATOM     37  C   UNL     1      38.464 136.238  15.912  1.00  0.00     0.288 C 
ATOM     38  F   UNL     1      37.688 137.313  15.509  1.00  0.00    -0.244 F 
ENDBRANCH  33  37
ENDBRANCH  30  33
ENDBRANCH  22  30
ENDBRANCH   1  14
TORSDOF 11
ENDMDL
MODEL 5
REMARK VINA RESULT:      -6.5      1.409      1.650
REMARK SMILES [N-]=[N+]=Nc1c(Cl)c(Cl)c(OC(=O)[C@]2(N)C[C@H](CO)C2)ccccc([O-])c1[NH2+]C1(CF)COC1
REMARK SMILES IDX 10 1 11 2 12 3 13 4 16 5 15 6 19 7 17 8 18 9 14 11 9 14
REMARK SMILES IDX 20 15 7 16 21 17 5 18 22 19 4 20 23 21 26 22 24 23 8 24 6 25
REMARK SMILES IDX 25 26 3 27 2 28 1 29 27 30 28 33 31 34 33 35 32 36 29 37
REMARK SMILES IDX 30 38
REMARK H PARENT 18 10 14 12 14 13 27 31 27 32
ROOT
ATOM      1  O   UNL     1      44.891 132.655  17.582  1.00  0.00    -0.424 OA
ENDROOT
BRANCH   1   2
ATOM      2  C   UNL     1      45.224 131.502  16.856  1.00  0.00     0.331 C 
ATOM      3  O   UNL     1      45.688 130.480  17.432  1.00  0.00    -0.250 OA
BRANCH   2   4
ATOM      4  C   UNL     1      45.164 131.542  15.348  1.00  0.00     0.116 C 
ATOM      5  C   UNL     1      46.356 130.339  14.000  1.00  0.00     0.019 C 
ATOM      6  C   UNL     1      46.526 131.707  14.661  1.00  0.00     0.040 C 
ATOM      7  C   UNL     1      45.001 130.167  14.688  1.00  0.00     0.040 C 
BRANCH   5   8
ATOM      8  C   UNL     1      47.408 129.314  14.441  1.00  0.00     0.159 C 
BRANCH   8   9
ATOM      9  O   UNL     1      48.246 129.013  13.362  1.00  0.00    -0.396 OA
ATOM     10  H   UNL     1      49.164 128.952  13.735  1.00  0.00     0.210 HD
ENDBRANCH   8   9
ENDBRANCH   5   8
BRANCH   4  11
ATOM     11  N   UNL     1      44.177 132.506  14.855  1.00  0.00    -0.316 NA
ATOM     12  H   UNL     1      43.668 132.075  14.049  1.00  0.00     0.119 HD
ATOM     13  H   UNL     1      43.473 132.676  15.609  1.00  0.00     0.119 HD
ENDBRANCH   4  11
ENDBRANCH   2   4
ENDBRANCH   1   2
BRANCH   1  14
ATOM     14  C   UNL     1      44.313 132.696  18.861  1.00  0.00     0.151 A 
ATOM     15  C   UNL     1      45.052 133.094  19.996  1.00  0.00     0.049 A 
ATOM     16  C   UNL     1      42.971 132.304  18.977  1.00  0.00     0.103 A 
ATOM     17  C   UNL     1      44.507 133.753  21.120  1.00  0.00     0.004 A 
ATOM     18  C   UNL     1      41.975 132.722  18.065  1.00  0.00     0.079 A 
ATOM     19  C   UNL     1      43.276 134.442  21.157  1.00  0.00    -0.000 A 
ATOM     20  C   UNL     1      42.064 133.877  17.231  1.00  0.00     0.118 A 
ATOM     21  C   UNL     1      42.597 134.922  20.028  1.00  0.00    -0.002 A 
ATOM     22  C   UNL     1      42.791 135.070  17.568  1.00  0.00     0.133 A 
ATOM     23  C   UNL     1      43.267 135.335  18.873  1.00  0.00    -0.045 A 
ATOM     24  Cl  UNL     1      42.527 131.253  20.328  1.00  0.00    -0.079 Cl
ATOM     25  Cl  UNL     1      40.451 131.823  18.056  1.00  0.00    -0.082 Cl
ATOM     26  O   UNL     1      44.478 136.008  19.027  1.00  0.00    -0.868 OA
BRANCH  20  27
ATOM     27  N   UNL     1      41.389 133.867  15.962  1.00  0.00    -0.053 NA
BRANCH  27  28
ATOM     28  N   UNL     1      40.173 134.025  15.848  1.00  0.00     0.006 N 
ATOM     29  N   UNL     1      38.959 134.185  15.732  1.00  0.00    -0.003 NA
ENDBRANCH  27  28
ENDBRANCH  20  27
BRANCH  22  30
ATOM     30  N   UNL     1      43.138 136.009  16.510  1.00  0.00    -0.303 N 
ATOM     31  H   UNL     1      44.159 136.233  16.564  1.00  0.00     0.353 HD
ATOM     32  H   UNL     1      43.015 135.568  15.570  1.00  0.00     0.353 HD
BRANCH  30  33
ATOM     33  C   UNL     1      42.329 137.256  16.555  1.00  0.00     0.176 C 
ATOM     34  C   UNL     1      43.129 138.526  16.811  1.00  0.00     0.234 C 
ATOM     35  C   UNL     1      42.149 137.873  15.176  1.00  0.00     0.234 C 
ATOM     36  O   UNL     1      42.886 139.023  15.515  1.00  0.00    -0.368 OA
BRANCH  33  37
ATOM     37  C   UNL     1      41.005 137.152  17.350  1.00  0.00     0.288 C 
ATOM     38  F   UNL     1      39.902 137.239  16.517  1.00  0.00    -0.244 F 
ENDBRANCH  33  37
ENDBRANCH  30  33
ENDBRANCH  22  30
ENDBRANCH   1  14
TORSDOF 11
ENDMDL
MODEL 6
REMARK VINA RESULT:      -6.5      2.429      3.065
REMARK SMILES [N-]=[N+]=Nc1c(Cl)c(Cl)c(OC(=O)[C@]2(N)C[C@H](CO)C2)ccccc([O-])c1[NH2+]C1(CF)COC1
REMARK SMILES IDX 10 1 11 2 12 3 13 4 16 5 15 6 19 7 17 8 18 9 14 11 9 14
REMARK SMILES IDX 20 15 7 16 21 17 5 18 22 19 4 20 23 21 26 22 24 23 8 24 6 25
REMARK SMILES IDX 25 26 3 27 2 28 1 29 27 30 28 33 31 34 33 35 32 36 29 37
REMARK SMILES IDX 30 38
REMARK H PARENT 18 10 14 12 14 13 27 31 27 32
ROOT
ATOM      1  O   UNL     1      43.029 132.663  17.264  1.00  0.00    -0.424 OA
ENDROOT
BRANCH   1   2
ATOM      2  C   UNL     1      44.020 131.795  16.780  1.00  0.00     0.331 C 
ATOM      3  O   UNL     1      44.635 131.013  17.553  1.00  0.00    -0.250 OA
BRANCH   2   4
ATOM      4  C   UNL     1      44.454 131.910  15.339  1.00  0.00     0.116 C 
ATOM      5  C   UNL     1      46.129 130.881  14.435  1.00  0.00     0.019 C 
ATOM      6  C   UNL     1      45.943 132.221  15.146  1.00  0.00     0.040 C 
ATOM      7  C   UNL     1      44.645 130.564  14.630  1.00  0.00     0.040 C 
BRANCH   5   8
ATOM      8  C   UNL     1      47.069 129.922  15.175  1.00  0.00     0.159 C 
BRANCH   8   9
ATOM      9  O   UNL     1      47.689 129.072  14.252  1.00  0.00    -0.396 OA
ATOM     10  H   UNL     1      47.896 128.236  14.745  1.00  0.00     0.210 HD
ENDBRANCH   8   9
ENDBRANCH   5   8
BRANCH   4  11
ATOM     11  N   UNL     1      43.598 132.816  14.569  1.00  0.00    -0.316 NA
ATOM     12  H   UNL     1      44.186 133.295  13.849  1.00  0.00     0.119 HD
ATOM     13  H   UNL     1      42.886 132.246  14.056  1.00  0.00     0.119 HD
ENDBRANCH   4  11
ENDBRANCH   2   4
ENDBRANCH   1   2
BRANCH   1  14
ATOM     14  C   UNL     1      43.242 133.894  17.906  1.00  0.00     0.151 A 
ATOM     15  C   UNL     1      44.341 134.719  17.582  1.00  0.00     0.049 A 
ATOM     16  C   UNL     1      42.328 134.270  18.903  1.00  0.00     0.103 A 
ATOM     17  C   UNL     1      44.335 136.129  17.651  1.00  0.00     0.004 A 
ATOM     18  C   UNL     1      40.931 134.126  18.748  1.00  0.00     0.079 A 
ATOM     19  C   UNL     1      43.188 136.951  17.682  1.00  0.00    -0.000 A 
ATOM     20  C   UNL     1      40.255 134.026  17.494  1.00  0.00     0.118 A 
ATOM     21  C   UNL     1      41.912 136.554  17.258  1.00  0.00    -0.002 A 
ATOM     22  C   UNL     1      40.708 134.632  16.274  1.00  0.00     0.133 A 
ATOM     23  C   UNL     1      41.722 135.617  16.237  1.00  0.00    -0.045 A 
ATOM     24  Cl  UNL     1      42.971 134.955  20.401  1.00  0.00    -0.079 Cl
ATOM     25  Cl  UNL     1      39.937 134.212  20.208  1.00  0.00    -0.082 Cl
ATOM     26  O   UNL     1      42.602 135.643  15.157  1.00  0.00    -0.868 OA
BRANCH  20  27
ATOM     27  N   UNL     1      39.033 133.270  17.427  1.00  0.00    -0.053 NA
BRANCH  27  28
ATOM     28  N   UNL     1      37.949 133.712  17.808  1.00  0.00     0.006 N 
ATOM     29  N   UNL     1      36.868 134.157  18.190  1.00  0.00    -0.003 NA
ENDBRANCH  27  28
ENDBRANCH  20  27
BRANCH  22  30
ATOM     30  N   UNL     1      40.174 134.154  15.006  1.00  0.00    -0.303 N 
ATOM     31  H   UNL     1      40.946 134.102  14.300  1.00  0.00     0.353 HD
ATOM     32  H   UNL     1      39.833 133.170  15.096  1.00  0.00     0.353 HD
BRANCH  30  33
ATOM     33  C   UNL     1      39.059 134.994  14.494  1.00  0.00     0.176 C 
ATOM     34  C   UNL     1      38.852 136.304  15.243  1.00  0.00     0.234 C 
ATOM     35  C   UNL     1      39.508 135.923  13.376  1.00  0.00     0.234 C 
ATOM     36  O   UNL     1      39.263 137.080  14.140  1.00  0.00    -0.368 OA
BRANCH  33  37
ATOM     37  C   UNL     1      37.758 134.227  14.159  1.00  0.00     0.288 C 
ATOM     38  F   UNL     1      37.836 133.606  12.924  1.00  0.00    -0.244 F 
ENDBRANCH  33  37
ENDBRANCH  30  33
ENDBRANCH  22  30
ENDBRANCH   1  14
TORSDOF 11
ENDMDL
MODEL 7
REMARK VINA RESULT:      -6.4      1.326      1.537
REMARK SMILES [N-]=[N+]=Nc1c(Cl)c(Cl)c(OC(=O)[C@]2(N)C[C@H](CO)C2)ccccc([O-])c1[NH2+]C1(CF)COC1
REMARK SMILES IDX 10 1 11 2 12 3 13 4 16 5 15 6 19 7 17 8 18 9 14 11 9 14
REMARK SMILES IDX 20 15 7 16 21 17 5 18 22 19 4 20 23 21 26 22 24 23 8 24 6 25
REMARK SMILES IDX 25 26 3 27 2 28 1 29 27 30 28 33 31 34 33 35 32 36 29 37
REMARK SMILES IDX 30 38
REMARK H PARENT 18 10 14 12 14 13 27 31 27 32
ROOT
ATOM      1  O   UNL     1      44.879 132.605  17.609  1.00  0.00    -0.424 OA
ENDROOT
BRANCH   1   2
ATOM      2  C   UNL     1      45.155 131.463  16.844  1.00  0.00     0.331 C 
ATOM      3  O   UNL     1      45.556 130.397  17.385  1.00  0.00    -0.250 OA
BRANCH   2   4
ATOM      4  C   UNL     1      45.112 131.562  15.338  1.00  0.00     0.116 C 
ATOM      5  C   UNL     1      46.325 130.418  13.959  1.00  0.00     0.019 C 
ATOM      6  C   UNL     1      46.480 131.760  14.674  1.00  0.00     0.040 C 
ATOM      7  C   UNL     1      44.963 130.213  14.623  1.00  0.00     0.040 C 
BRANCH   5   8
ATOM      8  C   UNL     1      47.377 129.381  14.372  1.00  0.00     0.159 C 
BRANCH   8   9
ATOM      9  O   UNL     1      48.163 129.049  13.263  1.00  0.00    -0.396 OA
ATOM     10  H   UNL     1      48.831 129.778  13.171  1.00  0.00     0.210 HD
ENDBRANCH   8   9
ENDBRANCH   5   8
BRANCH   4  11
ATOM     11  N   UNL     1      44.126 132.540  14.872  1.00  0.00    -0.316 NA
ATOM     12  H   UNL     1      43.630 132.140  14.042  1.00  0.00     0.119 HD
ATOM     13  H   UNL     1      43.411 132.676  15.622  1.00  0.00     0.119 HD
ENDBRANCH   4  11
ENDBRANCH   2   4
ENDBRANCH   1   2
BRANCH   1  14
ATOM     14  C   UNL     1      44.256 132.634  18.868  1.00  0.00     0.151 A 
ATOM     15  C   UNL     1      44.990 132.857  20.053  1.00  0.00     0.049 A 
ATOM     16  C   UNL     1      42.871 132.409  18.910  1.00  0.00     0.103 A 
ATOM     17  C   UNL     1      44.484 133.504  21.203  1.00  0.00     0.004 A 
ATOM     18  C   UNL     1      41.975 133.011  17.998  1.00  0.00     0.079 A 
ATOM     19  C   UNL     1      43.348 134.340  21.248  1.00  0.00    -0.000 A 
ATOM     20  C   UNL     1      42.244 134.199  17.253  1.00  0.00     0.118 A 
ATOM     21  C   UNL     1      42.783 134.977  20.134  1.00  0.00    -0.002 A 
ATOM     22  C   UNL     1      43.098 135.264  17.698  1.00  0.00     0.133 A 
ATOM     23  C   UNL     1      43.548 135.378  19.035  1.00  0.00    -0.045 A 
ATOM     24  Cl  UNL     1      42.243 131.335  20.167  1.00  0.00    -0.079 Cl
ATOM     25  Cl  UNL     1      40.353 132.317  17.873  1.00  0.00    -0.082 Cl
ATOM     26  O   UNL     1      44.825 135.879  19.278  1.00  0.00    -0.868 OA
BRANCH  20  27
ATOM     27  N   UNL     1      41.627 134.360  15.964  1.00  0.00    -0.053 NA
BRANCH  27  28
ATOM     28  N   UNL     1      40.516 134.870  15.811  1.00  0.00     0.006 N 
ATOM     29  N   UNL     1      39.408 135.380  15.654  1.00  0.00    -0.003 NA
ENDBRANCH  27  28
ENDBRANCH  20  27
BRANCH  22  30
ATOM     30  N   UNL     1      43.604 136.220  16.723  1.00  0.00    -0.303 N 
ATOM     31  H   UNL     1      44.607 136.434  16.933  1.00  0.00     0.353 HD
ATOM     32  H   UNL     1      43.619 135.798  15.767  1.00  0.00     0.353 HD
BRANCH  30  33
ATOM     33  C   UNL     1      42.805 137.473  16.673  1.00  0.00     0.176 C 
ATOM     34  C   UNL     1      41.764 137.610  17.776  1.00  0.00     0.234 C 
ATOM     35  C   UNL     1      43.478 138.612  17.427  1.00  0.00     0.234 C 
ATOM     36  O   UNL     1      42.451 138.677  18.388  1.00  0.00    -0.368 OA
BRANCH  33  37
ATOM     37  C   UNL     1      42.315 137.885  15.265  1.00  0.00     0.288 C 
ATOM     38  F   UNL     1      40.982 138.258  15.277  1.00  0.00    -0.244 F 
ENDBRANCH  33  37
ENDBRANCH  30  33
ENDBRANCH  22  30
ENDBRANCH   1  14
TORSDOF 11
ENDMDL
MODEL 8
REMARK VINA RESULT:      -6.3      2.433      2.890
REMARK SMILES [N-]=[N+]=Nc1c(Cl)c(Cl)c(OC(=O)[C@]2(N)C[C@H](CO)C2)ccccc([O-])c1[NH2+]C1(CF)COC1
REMARK SMILES IDX 10 1 11 2 12 3 13 4 16 5 15 6 19 7 17 8 18 9 14 11 9 14
REMARK SMILES IDX 20 15 7 16 21 17 5 18 22 19 4 20 23 21 26 22 24 23 8 24 6 25
REMARK SMILES IDX 25 26 3 27 2 28 1 29 27 30 28 33 31 34 33 35 32 36 29 37
REMARK SMILES IDX 30 38
REMARK H PARENT 18 10 14 12 14 13 27 31 27 32
ROOT
ATOM      1  O   UNL     1      44.690 132.341  17.514  1.00  0.00    -0.424 OA
ENDROOT
BRANCH   1   2
ATOM      2  C   UNL     1      45.355 131.374  16.746  1.00  0.00     0.331 C 
ATOM      3  O   UNL     1      46.084 130.500  17.288  1.00  0.00    -0.250 OA
BRANCH   2   4
ATOM      4  C   UNL     1      45.313 131.478  15.241  1.00  0.00     0.116 C 
ATOM      5  C   UNL     1      46.617 130.438  13.862  1.00  0.00     0.019 C 
ATOM      6  C   UNL     1      46.665 131.784  14.585  1.00  0.00     0.040 C 
ATOM      7  C   UNL     1      45.270 130.126  14.518  1.00  0.00     0.040 C 
BRANCH   5   8
ATOM      8  C   UNL     1      47.742 129.482  14.275  1.00  0.00     0.159 C 
BRANCH   8   9
ATOM      9  O   UNL     1      48.420 129.038  13.133  1.00  0.00    -0.396 OA
ATOM     10  H   UNL     1      47.825 129.243  12.365  1.00  0.00     0.210 HD
ENDBRANCH   8   9
ENDBRANCH   5   8
BRANCH   4  11
ATOM     11  N   UNL     1      44.258 132.380  14.773  1.00  0.00    -0.316 NA
ATOM     12  H   UNL     1      44.370 133.300  15.258  1.00  0.00     0.119 HD
ATOM     13  H   UNL     1      44.395 132.552  13.751  1.00  0.00     0.119 HD
ENDBRANCH   4  11
ENDBRANCH   2   4
ENDBRANCH   1   2
BRANCH   1  14
ATOM     14  C   UNL     1      43.619 132.113  18.394  1.00  0.00     0.151 A 
ATOM     15  C   UNL     1      43.819 131.560  19.677  1.00  0.00     0.049 A 
ATOM     16  C   UNL     1      42.330 132.436  17.941  1.00  0.00     0.103 A 
ATOM     17  C   UNL     1      43.025 131.848  20.810  1.00  0.00     0.004 A 
ATOM     18  C   UNL     1      42.044 133.637  17.254  1.00  0.00     0.079 A 
ATOM     19  C   UNL     1      42.176 132.965  20.961  1.00  0.00    -0.000 A 
ATOM     20  C   UNL     1      42.841 134.821  17.312  1.00  0.00     0.118 A 
ATOM     21  C   UNL     1      42.274 134.148  20.214  1.00  0.00    -0.002 A 
ATOM     22  C   UNL     1      43.632 135.215  18.444  1.00  0.00     0.133 A 
ATOM     23  C   UNL     1      43.494 134.620  19.720  1.00  0.00    -0.045 A 
ATOM     24  Cl  UNL     1      41.025 131.287  18.263  1.00  0.00    -0.079 Cl
ATOM     25  Cl  UNL     1      40.518 133.722  16.364  1.00  0.00    -0.082 Cl
ATOM     26  O   UNL     1      44.626 134.459  20.516  1.00  0.00    -0.868 OA
BRANCH  20  27
ATOM     27  N   UNL     1      42.868 135.692  16.169  1.00  0.00    -0.053 NA
BRANCH  27  28
ATOM     28  N   UNL     1      42.007 136.546  15.955  1.00  0.00     0.006 N 
ATOM     29  N   UNL     1      41.143 137.396  15.744  1.00  0.00    -0.003 NA
ENDBRANCH  27  28
ENDBRANCH  20  27
BRANCH  22  30
ATOM     30  N   UNL     1      44.686 136.203  18.261  1.00  0.00    -0.303 N 
ATOM     31  H   UNL     1      45.596 135.806  18.592  1.00  0.00     0.353 HD
ATOM     32  H   UNL     1      44.837 136.397  17.245  1.00  0.00     0.353 HD
BRANCH  30  33
ATOM     33  C   UNL     1      44.399 137.490  18.949  1.00  0.00     0.176 C 
ATOM     34  C   UNL     1      44.182 138.676  18.019  1.00  0.00     0.234 C 
ATOM     35  C   UNL     1      42.913 137.674  19.223  1.00  0.00     0.234 C 
ATOM     36  O   UNL     1      42.818 138.780  18.356  1.00  0.00    -0.368 OA
BRANCH  33  37
ATOM     37  C   UNL     1      45.284 137.787  20.183  1.00  0.00     0.288 C 
ATOM     38  F   UNL     1      45.210 139.118  20.555  1.00  0.00    -0.244 F 
ENDBRANCH  33  37
ENDBRANCH  30  33
ENDBRANCH  22  30
ENDBRANCH   1  14
TORSDOF 11
ENDMDL
MODEL 9
REMARK VINA RESULT:      -6.3      4.206      6.016
REMARK SMILES [N-]=[N+]=Nc1c(Cl)c(Cl)c(OC(=O)[C@]2(N)C[C@H](CO)C2)ccccc([O-])c1[NH2+]C1(CF)COC1
REMARK SMILES IDX 10 1 11 2 12 3 13 4 16 5 15 6 19 7 17 8 18 9 14 11 9 14
REMARK SMILES IDX 20 15 7 16 21 17 5 18 22 19 4 20 23 21 26 22 24 23 8 24 6 25
REMARK SMILES IDX 25 26 3 27 2 28 1 29 27 30 28 33 31 34 33 35 32 36 29 37
REMARK SMILES IDX 30 38
REMARK H PARENT 18 10 14 12 14 13 27 31 27 32
ROOT
ATOM      1  O   UNL     1      44.610 132.416  17.163  1.00  0.00    -0.424 OA
ENDROOT
BRANCH   1   2
ATOM      2  C   UNL     1      45.450 132.084  16.090  1.00  0.00     0.331 C 
ATOM      3  O   UNL     1      45.867 132.966  15.292  1.00  0.00    -0.250 OA
BRANCH   2   4
ATOM      4  C   UNL     1      45.737 130.629  15.807  1.00  0.00     0.116 C 
ATOM      5  C   UNL     1      46.300 129.799  13.889  1.00  0.00     0.019 C 
ATOM      6  C   UNL     1      44.974 130.053  14.607  1.00  0.00     0.040 C 
ATOM      7  C   UNL     1      47.064 130.379  15.081  1.00  0.00     0.040 C 
BRANCH   5   8
ATOM      8  C   UNL     1      46.461 130.611  12.599  1.00  0.00     0.159 C 
BRANCH   8   9
ATOM      9  O   UNL     1      47.539 130.106  11.862  1.00  0.00    -0.396 OA
ATOM     10  H   UNL     1      48.125 130.883  11.667  1.00  0.00     0.210 HD
ENDBRANCH   8   9
ENDBRANCH   5   8
BRANCH   4  11
ATOM     11  N   UNL     1      45.600 129.791  17.001  1.00  0.00    -0.316 NA
ATOM     12  H   UNL     1      45.692 128.790  16.715  1.00  0.00     0.119 HD
ATOM     13  H   UNL     1      46.394 130.002  17.648  1.00  0.00     0.119 HD
ENDBRANCH   4  11
ENDBRANCH   2   4
ENDBRANCH   1   2
BRANCH   1  14
ATOM     14  C   UNL     1      43.520 133.302  17.123  1.00  0.00     0.151 A 
ATOM     15  C   UNL     1      42.315 132.966  16.469  1.00  0.00     0.049 A 
ATOM     16  C   UNL     1      43.679 134.552  17.743  1.00  0.00     0.103 A 
ATOM     17  C   UNL     1      41.035 133.419  16.859  1.00  0.00     0.004 A 
ATOM     18  C   UNL     1      44.279 134.699  19.014  1.00  0.00     0.079 A 
ATOM     19  C   UNL     1      40.694 133.946  18.123  1.00  0.00    -0.000 A 
ATOM     20  C   UNL     1      44.386 133.664  19.992  1.00  0.00     0.118 A 
ATOM     21  C   UNL     1      41.435 133.744  19.296  1.00  0.00    -0.002 A 
ATOM     22  C   UNL     1      43.449 132.585  20.141  1.00  0.00     0.133 A 
ATOM     23  C   UNL     1      42.179 132.581  19.519  1.00  0.00    -0.045 A 
ATOM     24  Cl  UNL     1      43.091 135.983  16.887  1.00  0.00    -0.079 Cl
ATOM     25  Cl  UNL     1      44.816 136.319  19.477  1.00  0.00    -0.082 Cl
ATOM     26  O   UNL     1      41.649 131.373  19.072  1.00  0.00    -0.868 OA
BRANCH  20  27
ATOM     27  N   UNL     1      45.501 133.683  20.899  1.00  0.00    -0.053 NA
BRANCH  27  28
ATOM     28  N   UNL     1      45.484 134.291  21.971  1.00  0.00     0.006 N 
ATOM     29  N   UNL     1      45.468 134.901  23.038  1.00  0.00    -0.003 NA
ENDBRANCH  27  28
ENDBRANCH  20  27
BRANCH  22  30
ATOM     30  N   UNL     1      43.849 131.399  20.886  1.00  0.00    -0.303 N 
ATOM     31  H   UNL     1      43.541 130.543  20.368  1.00  0.00     0.353 HD
ATOM     32  H   UNL     1      44.891 131.323  20.926  1.00  0.00     0.353 HD
BRANCH  30  33
ATOM     33  C   UNL     1      43.321 131.384  22.276  1.00  0.00     0.176 C 
ATOM     34  C   UNL     1      42.771 130.040  22.734  1.00  0.00     0.234 C 
ATOM     35  C   UNL     1      44.406 131.075  23.297  1.00  0.00     0.234 C 
ATOM     36  O   UNL     1      43.808 129.856  23.671  1.00  0.00    -0.368 OA
BRANCH  33  37
ATOM     37  C   UNL     1      42.455 132.606  22.664  1.00  0.00     0.288 C 
ATOM     38  F   UNL     1      41.769 132.390  23.847  1.00  0.00    -0.244 F 
ENDBRANCH  33  37
ENDBRANCH  30  33
ENDBRANCH  22  30
ENDBRANCH   1  14
TORSDOF 11
ENDMDL


