REMARK SMILES CC[C@H]1C[C@]1(N)C(=O)Oc1ccccc(O)c(NC2(CF)COC2)c(N=[N+]=[N-])c(Cl)c1Cl
REMARK SMILES IDX 15 1 14 2 13 3 12 4 11 5 10 6 31 7 32 8 29 9 30 10 25 11
REMARK SMILES IDX 17 12 16 13 18 15 19 17 22 18 24 19 23 20 20 21 21 22 26 23
REMARK SMILES IDX 27 24 28 25 9 26 7 27 8 28 5 29 4 30 3 31 6 32 2 35 1 36
REMARK H PARENT 16 14 18 16 6 33 6 34
ROOT
ATOM      1  C   UNL     1      -3.882  -0.680  -0.531  1.00  0.00     0.139 A 
ATOM      2  C   UNL     1      -3.626  -1.279   0.720  1.00  0.00     0.048 A 
ATOM      3  C   UNL     1      -2.360  -1.589   1.226  1.00  0.00     0.004 A 
ATOM      4  C   UNL     1      -1.269  -1.883   0.408  1.00  0.00     0.004 A 
ATOM      5  C   UNL     1       0.004  -1.349   0.624  1.00  0.00     0.049 A 
ATOM      6  C   UNL     1       0.274  -0.128   1.289  1.00  0.00     0.151 A 
ATOM      7  C   UNL     1      -0.658   0.934   1.400  1.00  0.00     0.102 A 
ATOM      8  Cl  UNL     1      -0.404   2.088   2.710  1.00  0.00    -0.079 Cl
ATOM      9  C   UNL     1      -1.762   1.135   0.536  1.00  0.00     0.075 A 
ATOM     10  Cl  UNL     1      -3.149   2.063   1.112  1.00  0.00    -0.082 Cl
ATOM     11  C   UNL     1      -1.789   0.667  -0.797  1.00  0.00     0.085 A 
ATOM     12  C   UNL     1      -2.905  -0.028  -1.331  1.00  0.00     0.088 A 
ENDROOT
BRANCH   1  13
ATOM     13  O   UNL     1      -5.207  -0.695  -0.967  1.00  0.00    -0.506 OA
ATOM     14  H   UNL     1      -5.508  -0.189  -1.790  1.00  0.00     0.293 HD
ENDBRANCH   1  13
BRANCH  12  15
ATOM     15  N   UNL     1      -3.066  -0.032  -2.760  1.00  0.00    -0.369 N 
ATOM     16  H   UNL     1      -3.081   0.899  -3.236  1.00  0.00     0.161 HD
BRANCH  15  17
ATOM     17  C   UNL     1      -2.924  -1.248  -3.580  1.00  0.00     0.113 C 
ATOM     18  C   UNL     1      -2.371  -0.969  -4.969  1.00  0.00     0.193 C 
ATOM     19  C   UNL     1      -1.599  -1.968  -3.399  1.00  0.00     0.193 C 
ATOM     20  O   UNL     1      -1.177  -1.668  -4.708  1.00  0.00    -0.376 OA
BRANCH  17  21
ATOM     21  C   UNL     1      -4.156  -2.165  -3.576  1.00  0.00     0.247 C 
ATOM     22  F   UNL     1      -5.267  -1.468  -4.013  1.00  0.00    -0.248 F 
ENDBRANCH  17  21
ENDBRANCH  15  17
ENDBRANCH  12  15
BRANCH  11  23
ATOM     23  N   UNL     1      -0.681   0.926  -1.677  1.00  0.00    -0.057 NA
BRANCH  23  24
ATOM     24  N   UNL     1       0.266   1.649  -1.361  1.00  0.00     0.005 N 
ATOM     25  N   UNL     1       1.213   2.369  -1.048  1.00  0.00    -0.003 NA
ENDBRANCH  23  24
ENDBRANCH  11  23
BRANCH   6  26
ATOM     26  O   UNL     1       1.551   0.102   1.829  1.00  0.00    -0.424 OA
BRANCH  26  27
ATOM     27  C   UNL     1       2.462  -0.884   2.230  1.00  0.00     0.331 C 
ATOM     28  O   UNL     1       2.099  -2.077   2.411  1.00  0.00    -0.250 OA
BRANCH  27  29
ATOM     29  C   UNL     1       3.874  -0.490   2.534  1.00  0.00     0.118 C 
ATOM     30  C   UNL     1       4.965  -1.134   1.688  1.00  0.00     0.040 C 
ATOM     31  C   UNL     1       4.611   0.342   1.486  1.00  0.00     0.022 C 
BRANCH  29  32
ATOM     32  N   UNL     1       4.238  -0.261   3.929  1.00  0.00    -0.316 NA
ATOM     33  H   UNL     1       4.016  -1.131   4.465  1.00  0.00     0.119 HD
ATOM     34  H   UNL     1       3.618   0.496   4.298  1.00  0.00     0.119 HD
ENDBRANCH  29  32
BRANCH  31  35
ATOM     35  C   UNL     1       5.661   1.343   1.995  1.00  0.00     0.003 C 
ATOM     36  C   UNL     1       6.614   1.729   0.870  1.00  0.00     0.004 C 
ENDBRANCH  31  35
ENDBRANCH  27  29
ENDBRANCH  26  27
ENDBRANCH   6  26
TORSDOF 11


