REMARK SMILES C#Cc1ccc(-n2cc(CCCCN(C)[C@@H](C)C#N)[nH+]n2)cc(N=[N+]=[N-])ccc2ccccc12
REMARK SMILES IDX 11 1 10 2 9 3 7 4 21 5 8 6 20 7 6 9 3 10 4 11 34 12 5 13
REMARK SMILES IDX 33 14 29 15 32 16 28 17 30 18 22 19 31 20 27 21 23 22 2 23
REMARK SMILES IDX 1 24 24 25 25 26 26 27 12 28 13 29 14 30 15 31 16 32 17 33
REMARK SMILES IDX 18 34 19 35
REMARK H PARENT 20 8
ROOT
ATOM      1  C   UNL     1      -2.386  -0.272   2.380  1.00  0.00     0.010 C 
ENDROOT
BRANCH   1   2
ATOM      2  C   UNL     1      -2.171  -1.716   1.899  1.00  0.00     0.086 C 
BRANCH   2   3
ATOM      3  C   UNL     1      -1.582  -1.829   0.516  1.00  0.00     0.165 A 
ATOM      4  N   UNL     1      -0.915  -1.451  -1.538  1.00  0.00    -0.102 N 
ATOM      5  N   UNL     1      -0.738  -2.733  -1.255  1.00  0.00     0.093 NA
ATOM      6  C   UNL     1      -1.457  -0.853  -0.456  1.00  0.00     0.281 A 
ATOM      7  N   UNL     1      -1.137  -2.981  -0.018  1.00  0.00    -0.147 N 
ATOM      8  H   UNL     1      -1.108  -3.918   0.440  1.00  0.00     0.342 HD
BRANCH   4   9
ATOM      9  C   UNL     1      -0.543  -0.830  -2.787  1.00  0.00     0.156 A 
ATOM     10  C   UNL     1       2.169  -2.169  -2.313  1.00  0.00     0.032 A 
ATOM     11  C   UNL     1       1.329  -2.333  -3.438  1.00  0.00     0.022 A 
ATOM     12  C   UNL     1       2.229  -0.986  -1.524  1.00  0.00    -0.003 A 
ATOM     13  C   UNL     1       0.200  -1.554  -3.738  1.00  0.00     0.056 A 
ATOM     14  C   UNL     1       2.421  -1.106  -0.129  1.00  0.00     0.010 A 
ATOM     15  C   UNL     1       1.990   0.315  -2.063  1.00  0.00    -0.017 A 
ATOM     16  C   UNL     1       2.260  -0.005   0.713  1.00  0.00     0.001 A 
ATOM     17  C   UNL     1       2.085   0.570  -3.443  1.00  0.00     0.009 A 
ATOM     18  C   UNL     1       1.761   1.395  -1.190  1.00  0.00     0.009 A 
ATOM     19  C   UNL     1      -0.944   0.494  -3.061  1.00  0.00     0.064 A 
ATOM     20  C   UNL     1       1.906   1.234   0.187  1.00  0.00     0.001 A 
ATOM     21  C   UNL     1       1.140   1.302  -4.179  1.00  0.00     0.011 A 
ATOM     22  C   UNL     1      -0.234   1.415  -3.876  1.00  0.00     0.042 A 
BRANCH  10  23
ATOM     23  C   UNL     1       3.020  -3.288  -1.977  1.00  0.00    -0.070 C 
ATOM     24  C   UNL     1       3.729  -4.222  -1.696  1.00  0.00     0.010 C 
ENDBRANCH  10  23
BRANCH  22  25
ATOM     25  N   UNL     1      -0.923   2.536  -4.450  1.00  0.00    -0.061 NA
BRANCH  25  26
ATOM     26  N   UNL     1      -2.129   2.728  -4.289  1.00  0.00     0.005 N 
ATOM     27  N   UNL     1      -3.333   2.921  -4.129  1.00  0.00    -0.003 NA
ENDBRANCH  25  26
ENDBRANCH  22  25
ENDBRANCH   4   9
ENDBRANCH   2   3
ENDBRANCH   1   2
BRANCH   1  28
ATOM     28  C   UNL     1      -1.060   0.468   2.623  1.00  0.00     0.016 C 
BRANCH  28  29
ATOM     29  C   UNL     1      -1.285   1.916   3.077  1.00  0.00     0.085 C 
BRANCH  29  30
ATOM     30  N   UNL     1      -2.104   2.669   2.093  1.00  0.00    -0.291 NA
ATOM     31  C   UNL     1      -1.268   3.219   1.009  1.00  0.00     0.106 C 
BRANCH  30  32
ATOM     32  C   UNL     1      -2.959   3.725   2.696  1.00  0.00     0.157 C 
ATOM     33  C   UNL     1      -4.185   3.109   3.377  1.00  0.00     0.041 C 
BRANCH  32  34
ATOM     34  C   UNL     1      -2.218   4.592   3.636  1.00  0.00     0.081 C 
ATOM     35  N   UNL     1      -1.637   5.270   4.372  1.00  0.00    -0.197 NA
ENDBRANCH  32  34
ENDBRANCH  30  32
ENDBRANCH  29  30
ENDBRANCH  28  29
ENDBRANCH   1  28
TORSDOF 11


