MODEL 1
REMARK VINA RESULT:      -6.4      0.000      0.000
REMARK SMILES Cc1[nH+]nn(/C=C(/O)Nc2cccc(C#N)c2C)c1-c1cc2ccccc2c2ccccc12
REMARK SMILES IDX 7 1 8 2 6 4 5 5 4 6 19 7 3 8 2 9 1 11 20 12 21 13 33 14
REMARK SMILES IDX 22 15 32 16 28 17 23 18 27 19 31 20 29 21 24 22 26 23 30 24
REMARK SMILES IDX 25 25 9 26 10 28 11 29 17 30 12 31 14 32 13 33 18 34 15 35
REMARK SMILES IDX 16 36
REMARK H PARENT 8 3 3 10 9 27
ROOT
ATOM      1  C   UNL     1      45.077 132.532  15.771  1.00  0.00     0.232 C 
ENDROOT
BRANCH   1   2
ATOM      2  O   UNL     1      46.255 132.246  15.079  1.00  0.00    -0.492 OA
ATOM      3  H   UNL     1      46.596 131.298  14.964  1.00  0.00     0.295 HD
ENDBRANCH   1   2
BRANCH   1   4
ATOM      4  C   UNL     1      44.532 131.595  16.565  1.00  0.00     0.298 C 
BRANCH   4   5
ATOM      5  N   UNL     1      44.614 131.616  18.000  1.00  0.00    -0.096 N 
ATOM      6  N   UNL     1      45.434 130.825  18.675  1.00  0.00     0.094 NA
ATOM      7  C   UNL     1      43.867 132.307  18.899  1.00  0.00     0.207 A 
ATOM      8  N   UNL     1      45.269 131.002  19.976  1.00  0.00    -0.147 N 
ATOM      9  C   UNL     1      44.297 131.915  20.153  1.00  0.00     0.170 A 
ATOM     10  H   UNL     1      45.806 130.501  20.718  1.00  0.00     0.342 HD
ATOM     11  C   UNL     1      43.818 132.406  21.481  1.00  0.00     0.100 C 
BRANCH   7  12
ATOM     12  C   UNL     1      42.785 133.277  18.603  1.00  0.00     0.036 A 
ATOM     13  C   UNL     1      41.550 132.760  18.206  1.00  0.00     0.022 A 
ATOM     14  C   UNL     1      42.950 134.675  18.738  1.00  0.00    -0.006 A 
ATOM     15  C   UNL     1      40.446 133.591  18.012  1.00  0.00    -0.017 A 
ATOM     16  C   UNL     1      44.213 135.224  19.049  1.00  0.00     0.009 A 
ATOM     17  C   UNL     1      41.835 135.548  18.539  1.00  0.00    -0.010 A 
ATOM     18  C   UNL     1      39.209 133.016  17.677  1.00  0.00     0.009 A 
ATOM     19  C   UNL     1      40.566 134.996  18.185  1.00  0.00    -0.010 A 
ATOM     20  C   UNL     1      44.376 136.597  19.208  1.00  0.00     0.001 A 
ATOM     21  C   UNL     1      42.038 136.940  18.710  1.00  0.00     0.009 A 
ATOM     22  C   UNL     1      38.081 133.816  17.516  1.00  0.00     0.001 A 
ATOM     23  C   UNL     1      39.399 135.783  18.010  1.00  0.00     0.009 A 
ATOM     24  C   UNL     1      43.291 137.450  19.046  1.00  0.00     0.001 A 
ATOM     25  C   UNL     1      38.176 135.193  17.683  1.00  0.00     0.001 A 
ENDBRANCH   7  12
ENDBRANCH   4   5
ENDBRANCH   1   4
BRANCH   1  26
ATOM     26  N   UNL     1      44.502 133.842  15.656  1.00  0.00    -0.323 N 
ATOM     27  H   UNL     1      45.058 134.646  16.022  1.00  0.00     0.170 HD
BRANCH  26  28
ATOM     28  C   UNL     1      43.183 134.086  15.118  1.00  0.00     0.045 A 
ATOM     29  C   UNL     1      42.358 133.003  14.758  1.00  0.00     0.026 A 
ATOM     30  C   UNL     1      42.663 135.406  15.045  1.00  0.00    -0.010 A 
ATOM     31  C   UNL     1      41.045 133.211  14.345  1.00  0.00     0.004 A 
ATOM     32  C   UNL     1      41.311 135.597  14.660  1.00  0.00     0.057 A 
ATOM     33  C   UNL     1      40.521 134.498  14.304  1.00  0.00     0.020 A 
ATOM     34  C   UNL     1      43.529 136.584  15.431  1.00  0.00     0.048 C 
BRANCH  32  35
ATOM     35  C   UNL     1      40.698 136.903  14.646  1.00  0.00     0.099 C 
ATOM     36  N   UNL     1      40.205 137.950  14.637  1.00  0.00    -0.192 NA
ENDBRANCH  32  35
ENDBRANCH  26  28
ENDBRANCH   1  26
TORSDOF 7
ENDMDL
MODEL 2
REMARK VINA RESULT:      -6.3      0.735      1.467
REMARK SMILES Cc1[nH+]nn(/C=C(/O)Nc2cccc(C#N)c2C)c1-c1cc2ccccc2c2ccccc12
REMARK SMILES IDX 7 1 8 2 6 4 5 5 4 6 19 7 3 8 2 9 1 11 20 12 21 13 33 14
REMARK SMILES IDX 22 15 32 16 28 17 23 18 27 19 31 20 29 21 24 22 26 23 30 24
REMARK SMILES IDX 25 25 9 26 10 28 11 29 17 30 12 31 14 32 13 33 18 34 15 35
REMARK SMILES IDX 16 36
REMARK H PARENT 8 3 3 10 9 27
ROOT
ATOM      1  C   UNL     1      44.301 132.500  15.460  1.00  0.00     0.232 C 
ENDROOT
BRANCH   1   2
ATOM      2  O   UNL     1      45.610 132.969  15.342  1.00  0.00    -0.492 OA
ATOM      3  H   UNL     1      46.198 133.136  16.151  1.00  0.00     0.295 HD
ENDBRANCH   1   2
BRANCH   1   4
ATOM      4  C   UNL     1      44.021 131.541  16.358  1.00  0.00     0.298 C 
BRANCH   4   5
ATOM      5  N   UNL     1      44.303 131.654  17.763  1.00  0.00    -0.096 N 
ATOM      6  N   UNL     1      45.184 130.877  18.374  1.00  0.00     0.094 NA
ATOM      7  C   UNL     1      43.710 132.432  18.704  1.00  0.00     0.207 A 
ATOM      8  N   UNL     1      45.208 131.146  19.669  1.00  0.00    -0.147 N 
ATOM      9  C   UNL     1      44.299 132.107  19.913  1.00  0.00     0.170 A 
ATOM     10  H   UNL     1      45.828 130.674  20.364  1.00  0.00     0.342 HD
ATOM     11  C   UNL     1      44.025 132.704  21.255  1.00  0.00     0.100 C 
BRANCH   7  12
ATOM     12  C   UNL     1      42.627 133.422  18.491  1.00  0.00     0.036 A 
ATOM     13  C   UNL     1      41.356 132.930  18.191  1.00  0.00     0.022 A 
ATOM     14  C   UNL     1      42.829 134.817  18.613  1.00  0.00    -0.006 A 
ATOM     15  C   UNL     1      40.256 133.781  18.081  1.00  0.00    -0.017 A 
ATOM     16  C   UNL     1      44.122 135.342  18.825  1.00  0.00     0.009 A 
ATOM     17  C   UNL     1      41.719 135.711  18.498  1.00  0.00    -0.010 A 
ATOM     18  C   UNL     1      38.986 133.231  17.843  1.00  0.00     0.009 A 
ATOM     19  C   UNL     1      40.415 135.184  18.243  1.00  0.00    -0.010 A 
ATOM     20  C   UNL     1      44.323 136.711  18.969  1.00  0.00     0.001 A 
ATOM     21  C   UNL     1      41.961 137.099  18.652  1.00  0.00     0.009 A 
ATOM     22  C   UNL     1      37.865 134.052  17.768  1.00  0.00     0.001 A 
ATOM     23  C   UNL     1      39.254 135.994  18.158  1.00  0.00     0.009 A 
ATOM     24  C   UNL     1      43.246 137.585  18.891  1.00  0.00     0.001 A 
ATOM     25  C   UNL     1      37.999 135.427  17.926  1.00  0.00     0.001 A 
ENDBRANCH   7  12
ENDBRANCH   4   5
ENDBRANCH   1   4
BRANCH   1  26
ATOM     26  N   UNL     1      43.273 133.091  14.651  1.00  0.00    -0.323 N 
ATOM     27  H   UNL     1      42.913 132.531  13.847  1.00  0.00     0.170 HD
BRANCH  26  28
ATOM     28  C   UNL     1      42.766 134.427  14.862  1.00  0.00     0.045 A 
ATOM     29  C   UNL     1      43.654 135.480  15.153  1.00  0.00     0.026 A 
ATOM     30  C   UNL     1      41.387 134.716  14.675  1.00  0.00    -0.010 A 
ATOM     31  C   UNL     1      43.200 136.793  15.247  1.00  0.00     0.004 A 
ATOM     32  C   UNL     1      40.948 136.064  14.736  1.00  0.00     0.057 A 
ATOM     33  C   UNL     1      41.858 137.085  15.032  1.00  0.00     0.020 A 
ATOM     34  C   UNL     1      40.415 133.601  14.357  1.00  0.00     0.048 C 
BRANCH  32  35
ATOM     35  C   UNL     1      39.578 136.433  14.473  1.00  0.00     0.099 C 
ATOM     36  N   UNL     1      38.480 136.732  14.263  1.00  0.00    -0.192 NA
ENDBRANCH  32  35
ENDBRANCH  26  28
ENDBRANCH   1  26
TORSDOF 7
ENDMDL
MODEL 3
REMARK VINA RESULT:      -5.8      2.566      5.644
REMARK SMILES Cc1[nH+]nn(/C=C(/O)Nc2cccc(C#N)c2C)c1-c1cc2ccccc2c2ccccc12
REMARK SMILES IDX 7 1 8 2 6 4 5 5 4 6 19 7 3 8 2 9 1 11 20 12 21 13 33 14
REMARK SMILES IDX 22 15 32 16 28 17 23 18 27 19 31 20 29 21 24 22 26 23 30 24
REMARK SMILES IDX 25 25 9 26 10 28 11 29 17 30 12 31 14 32 13 33 18 34 15 35
REMARK SMILES IDX 16 36
REMARK H PARENT 8 3 3 10 9 27
ROOT
ATOM      1  C   UNL     1      40.808 134.223  15.355  1.00  0.00     0.232 C 
ENDROOT
BRANCH   1   2
ATOM      2  O   UNL     1      41.316 132.930  15.219  1.00  0.00    -0.492 OA
ATOM      3  H   UNL     1      42.162 132.630  15.691  1.00  0.00     0.295 HD
ENDBRANCH   1   2
BRANCH   1   4
ATOM      4  C   UNL     1      41.573 135.273  15.011  1.00  0.00     0.298 C 
BRANCH   4   5
ATOM      5  N   UNL     1      42.342 136.044  15.950  1.00  0.00    -0.096 N 
ATOM      6  N   UNL     1      42.234 137.360  16.044  1.00  0.00     0.094 NA
ATOM      7  C   UNL     1      43.331 135.645  16.791  1.00  0.00     0.207 A 
ATOM      8  N   UNL     1      43.091 137.825  16.938  1.00  0.00    -0.147 N 
ATOM      9  C   UNL     1      43.796 136.785  17.421  1.00  0.00     0.170 A 
ATOM     10  H   UNL     1      43.192 138.830  17.201  1.00  0.00     0.342 HD
ATOM     11  C   UNL     1      44.860 136.885  18.466  1.00  0.00     0.100 C 
BRANCH   7  12
ATOM     12  C   UNL     1      43.835 134.264  16.984  1.00  0.00     0.036 A 
ATOM     13  C   UNL     1      44.616 133.716  15.965  1.00  0.00     0.022 A 
ATOM     14  C   UNL     1      43.585 133.514  18.157  1.00  0.00    -0.006 A 
ATOM     15  C   UNL     1      45.221 132.467  16.108  1.00  0.00    -0.017 A 
ATOM     16  C   UNL     1      42.725 134.011  19.160  1.00  0.00     0.009 A 
ATOM     17  C   UNL     1      44.189 132.229  18.325  1.00  0.00    -0.010 A 
ATOM     18  C   UNL     1      46.050 131.988  15.080  1.00  0.00     0.009 A 
ATOM     19  C   UNL     1      45.028 131.707  17.293  1.00  0.00    -0.010 A 
ATOM     20  C   UNL     1      42.493 133.289  20.326  1.00  0.00     0.001 A 
ATOM     21  C   UNL     1      43.932 131.522  19.526  1.00  0.00     0.009 A 
ATOM     22  C   UNL     1      46.699 130.764  15.212  1.00  0.00     0.001 A 
ATOM     23  C   UNL     1      45.699 130.462  17.394  1.00  0.00     0.009 A 
ATOM     24  C   UNL     1      43.101 132.053  20.511  1.00  0.00     0.001 A 
ATOM     25  C   UNL     1      46.525 130.005  16.365  1.00  0.00     0.001 A 
ENDBRANCH   7  12
ENDBRANCH   4   5
ENDBRANCH   1   4
BRANCH   1  26
ATOM     26  N   UNL     1      39.460 134.398  15.815  1.00  0.00    -0.323 N 
ATOM     27  H   UNL     1      38.692 134.235  15.126  1.00  0.00     0.170 HD
BRANCH  26  28
ATOM     28  C   UNL     1      39.127 134.839  17.149  1.00  0.00     0.045 A 
ATOM     29  C   UNL     1      39.226 133.943  18.232  1.00  0.00     0.026 A 
ATOM     30  C   UNL     1      38.801 136.198  17.404  1.00  0.00    -0.010 A 
ATOM     31  C   UNL     1      39.021 134.376  19.539  1.00  0.00     0.004 A 
ATOM     32  C   UNL     1      38.633 136.630  18.744  1.00  0.00     0.057 A 
ATOM     33  C   UNL     1      38.735 135.713  19.796  1.00  0.00     0.020 A 
ATOM     34  C   UNL     1      38.693 137.179  16.257  1.00  0.00     0.048 C 
BRANCH  32  35
ATOM     35  C   UNL     1      38.384 138.013  19.075  1.00  0.00     0.099 C 
ATOM     36  N   UNL     1      38.186 139.122  19.339  1.00  0.00    -0.192 NA
ENDBRANCH  32  35
ENDBRANCH  26  28
ENDBRANCH   1  26
TORSDOF 7
ENDMDL
MODEL 4
REMARK VINA RESULT:      -5.7      2.113      4.307
REMARK SMILES Cc1[nH+]nn(/C=C(/O)Nc2cccc(C#N)c2C)c1-c1cc2ccccc2c2ccccc12
REMARK SMILES IDX 7 1 8 2 6 4 5 5 4 6 19 7 3 8 2 9 1 11 20 12 21 13 33 14
REMARK SMILES IDX 22 15 32 16 28 17 23 18 27 19 31 20 29 21 24 22 26 23 30 24
REMARK SMILES IDX 25 25 9 26 10 28 11 29 17 30 12 31 14 32 13 33 18 34 15 35
REMARK SMILES IDX 16 36
REMARK H PARENT 8 3 3 10 9 27
ROOT
ATOM      1  C   UNL     1      45.518 131.231  19.900  1.00  0.00     0.232 C 
ENDROOT
BRANCH   1   2
ATOM      2  O   UNL     1      46.824 131.100  20.374  1.00  0.00    -0.492 OA
ATOM      3  H   UNL     1      47.227 131.757  21.033  1.00  0.00     0.295 HD
ENDBRANCH   1   2
BRANCH   1   4
ATOM      4  C   UNL     1      44.689 132.114  20.482  1.00  0.00     0.298 C 
BRANCH   4   5
ATOM      5  N   UNL     1      45.100 133.409  20.950  1.00  0.00    -0.096 N 
ATOM      6  N   UNL     1      45.950 133.562  21.954  1.00  0.00     0.094 NA
ATOM      7  C   UNL     1      44.669 134.640  20.576  1.00  0.00     0.207 A 
ATOM      8  N   UNL     1      46.112 134.849  22.221  1.00  0.00    -0.147 N 
ATOM      9  C   UNL     1      45.325 135.550  21.385  1.00  0.00     0.170 A 
ATOM     10  H   UNL     1      46.740 135.229  22.963  1.00  0.00     0.342 HD
ATOM     11  C   UNL     1      45.227 137.041  21.353  1.00  0.00     0.100 C 
BRANCH   7  12
ATOM     12  C   UNL     1      43.674 134.956  19.523  1.00  0.00     0.036 A 
ATOM     13  C   UNL     1      44.159 135.278  18.255  1.00  0.00     0.022 A 
ATOM     14  C   UNL     1      42.278 134.911  19.750  1.00  0.00    -0.006 A 
ATOM     15  C   UNL     1      43.295 135.483  17.179  1.00  0.00    -0.017 A 
ATOM     16  C   UNL     1      41.766 134.679  21.045  1.00  0.00     0.009 A 
ATOM     17  C   UNL     1      41.372 135.124  18.665  1.00  0.00    -0.010 A 
ATOM     18  C   UNL     1      43.835 135.739  15.908  1.00  0.00     0.009 A 
ATOM     19  C   UNL     1      41.888 135.399  17.361  1.00  0.00    -0.010 A 
ATOM     20  C   UNL     1      40.395 134.609  21.269  1.00  0.00     0.001 A 
ATOM     21  C   UNL     1      39.981 135.044  18.930  1.00  0.00     0.009 A 
ATOM     22  C   UNL     1      42.999 135.909  14.808  1.00  0.00     0.001 A 
ATOM     23  C   UNL     1      41.064 135.580  16.222  1.00  0.00     0.009 A 
ATOM     24  C   UNL     1      39.507 134.783  20.215  1.00  0.00     0.001 A 
ATOM     25  C   UNL     1      41.619 135.828  14.965  1.00  0.00     0.001 A 
ENDBRANCH   7  12
ENDBRANCH   4   5
ENDBRANCH   1   4
BRANCH   1  26
ATOM     26  N   UNL     1      45.106 130.452  18.767  1.00  0.00    -0.323 N 
ATOM     27  H   UNL     1      44.823 129.462  18.942  1.00  0.00     0.170 HD
BRANCH  26  28
ATOM     28  C   UNL     1      45.120 130.952  17.412  1.00  0.00     0.045 A 
ATOM     29  C   UNL     1      46.286 130.835  16.631  1.00  0.00     0.026 A 
ATOM     30  C   UNL     1      43.937 131.465  16.816  1.00  0.00    -0.010 A 
ATOM     31  C   UNL     1      46.288 131.206  15.289  1.00  0.00     0.004 A 
ATOM     32  C   UNL     1      43.946 131.802  15.438  1.00  0.00     0.057 A 
ATOM     33  C   UNL     1      45.123 131.678  14.693  1.00  0.00     0.020 A 
ATOM     34  C   UNL     1      42.672 131.595  17.635  1.00  0.00     0.048 C 
BRANCH  32  35
ATOM     35  C   UNL     1      42.757 132.249  14.754  1.00  0.00     0.099 C 
ATOM     36  N   UNL     1      41.804 132.608  14.203  1.00  0.00    -0.192 NA
ENDBRANCH  32  35
ENDBRANCH  26  28
ENDBRANCH   1  26
TORSDOF 7
ENDMDL
MODEL 5
REMARK VINA RESULT:      -5.5      1.205      3.427
REMARK SMILES Cc1[nH+]nn(/C=C(/O)Nc2cccc(C#N)c2C)c1-c1cc2ccccc2c2ccccc12
REMARK SMILES IDX 7 1 8 2 6 4 5 5 4 6 19 7 3 8 2 9 1 11 20 12 21 13 33 14
REMARK SMILES IDX 22 15 32 16 28 17 23 18 27 19 31 20 29 21 24 22 26 23 30 24
REMARK SMILES IDX 25 25 9 26 10 28 11 29 17 30 12 31 14 32 13 33 18 34 15 35
REMARK SMILES IDX 16 36
REMARK H PARENT 8 3 3 10 9 27
ROOT
ATOM      1  C   UNL     1      43.950 133.029  15.669  1.00  0.00     0.232 C 
ENDROOT
BRANCH   1   2
ATOM      2  O   UNL     1      45.318 133.262  15.513  1.00  0.00    -0.492 OA
ATOM      3  H   UNL     1      45.856 132.835  14.767  1.00  0.00     0.295 HD
ENDBRANCH   1   2
BRANCH   1   4
ATOM      4  C   UNL     1      43.518 132.295  16.708  1.00  0.00     0.298 C 
BRANCH   4   5
ATOM      5  N   UNL     1      44.116 132.330  18.014  1.00  0.00    -0.096 N 
ATOM      6  N   UNL     1      44.745 131.287  18.535  1.00  0.00     0.094 NA
ATOM      7  C   UNL     1      44.079 133.307  18.956  1.00  0.00     0.207 A 
ATOM      8  N   UNL     1      45.146 131.564  19.765  1.00  0.00    -0.147 N 
ATOM      9  C   UNL     1      44.743 132.813  20.064  1.00  0.00     0.170 A 
ATOM     10  H   UNL     1      45.673 130.908  20.382  1.00  0.00     0.342 HD
ATOM     11  C   UNL     1      45.011 133.511  21.358  1.00  0.00     0.100 C 
BRANCH   7  12
ATOM     12  C   UNL     1      43.434 134.637  18.837  1.00  0.00     0.036 A 
ATOM     13  C   UNL     1      44.267 135.757  18.824  1.00  0.00     0.022 A 
ATOM     14  C   UNL     1      42.034 134.802  18.707  1.00  0.00    -0.006 A 
ATOM     15  C   UNL     1      43.757 137.037  18.607  1.00  0.00    -0.017 A 
ATOM     16  C   UNL     1      41.167 133.694  18.810  1.00  0.00     0.009 A 
ATOM     17  C   UNL     1      41.487 136.104  18.491  1.00  0.00    -0.010 A 
ATOM     18  C   UNL     1      44.644 138.124  18.537  1.00  0.00     0.009 A 
ATOM     19  C   UNL     1      42.361 137.233  18.426  1.00  0.00    -0.010 A 
ATOM     20  C   UNL     1      39.792 133.846  18.658  1.00  0.00     0.001 A 
ATOM     21  C   UNL     1      40.082 136.222  18.339  1.00  0.00     0.009 A 
ATOM     22  C   UNL     1      44.168 139.407  18.283  1.00  0.00     0.001 A 
ATOM     23  C   UNL     1      41.907 138.552  18.173  1.00  0.00     0.009 A 
ATOM     24  C   UNL     1      39.253 135.103  18.417  1.00  0.00     0.001 A 
ATOM     25  C   UNL     1      42.805 139.620  18.101  1.00  0.00     0.001 A 
ENDBRANCH   7  12
ENDBRANCH   4   5
ENDBRANCH   1   4
BRANCH   1  26
ATOM     26  N   UNL     1      43.032 133.623  14.739  1.00  0.00    -0.323 N 
ATOM     27  H   UNL     1      42.758 133.057  13.906  1.00  0.00     0.170 HD
BRANCH  26  28
ATOM     28  C   UNL     1      42.524 134.969  14.874  1.00  0.00     0.045 A 
ATOM     29  C   UNL     1      43.419 136.054  14.955  1.00  0.00     0.026 A 
ATOM     30  C   UNL     1      41.128 135.226  14.819  1.00  0.00    -0.010 A 
ATOM     31  C   UNL     1      42.952 137.365  14.971  1.00  0.00     0.004 A 
ATOM     32  C   UNL     1      40.672 136.569  14.797  1.00  0.00     0.057 A 
ATOM     33  C   UNL     1      41.588 137.623  14.883  1.00  0.00     0.020 A 
ATOM     34  C   UNL     1      40.149 134.076  14.727  1.00  0.00     0.048 C 
BRANCH  32  35
ATOM     35  C   UNL     1      39.274 136.898  14.658  1.00  0.00     0.099 C 
ATOM     36  N   UNL     1      38.153 137.165  14.547  1.00  0.00    -0.192 NA
ENDBRANCH  32  35
ENDBRANCH  26  28
ENDBRANCH   1  26
TORSDOF 7
ENDMDL
MODEL 6
REMARK VINA RESULT:      -5.4      1.110      1.256
REMARK SMILES Cc1[nH+]nn(/C=C(/O)Nc2cccc(C#N)c2C)c1-c1cc2ccccc2c2ccccc12
REMARK SMILES IDX 7 1 8 2 6 4 5 5 4 6 19 7 3 8 2 9 1 11 20 12 21 13 33 14
REMARK SMILES IDX 22 15 32 16 28 17 23 18 27 19 31 20 29 21 24 22 26 23 30 24
REMARK SMILES IDX 25 25 9 26 10 28 11 29 17 30 12 31 14 32 13 33 18 34 15 35
REMARK SMILES IDX 16 36
REMARK H PARENT 8 3 3 10 9 27
ROOT
ATOM      1  C   UNL     1      43.465 132.710  15.330  1.00  0.00     0.232 C 
ENDROOT
BRANCH   1   2
ATOM      2  O   UNL     1      42.750 131.516  15.220  1.00  0.00    -0.492 OA
ATOM      3  H   UNL     1      41.761 131.499  14.999  1.00  0.00     0.295 HD
ENDBRANCH   1   2
BRANCH   1   4
ATOM      4  C   UNL     1      44.517 132.777  16.162  1.00  0.00     0.298 C 
BRANCH   4   5
ATOM      5  N   UNL     1      44.507 132.268  17.506  1.00  0.00    -0.096 N 
ATOM      6  N   UNL     1      45.344 131.326  17.914  1.00  0.00     0.094 NA
ATOM      7  C   UNL     1      43.651 132.535  18.525  1.00  0.00     0.207 A 
ATOM      8  N   UNL     1      45.084 130.998  19.170  1.00  0.00    -0.147 N 
ATOM      9  C   UNL     1      44.031 131.728  19.582  1.00  0.00     0.170 A 
ATOM     10  H   UNL     1      45.611 130.286  19.721  1.00  0.00     0.342 HD
ATOM     11  C   UNL     1      43.431 131.665  20.949  1.00  0.00     0.100 C 
BRANCH   7  12
ATOM     12  C   UNL     1      42.514 133.487  18.510  1.00  0.00     0.036 A 
ATOM     13  C   UNL     1      41.253 132.978  18.197  1.00  0.00     0.022 A 
ATOM     14  C   UNL     1      42.658 134.859  18.828  1.00  0.00    -0.006 A 
ATOM     15  C   UNL     1      40.112 133.777  18.264  1.00  0.00    -0.017 A 
ATOM     16  C   UNL     1      43.935 135.414  19.059  1.00  0.00     0.009 A 
ATOM     17  C   UNL     1      41.504 135.699  18.897  1.00  0.00    -0.010 A 
ATOM     18  C   UNL     1      38.857 133.201  18.002  1.00  0.00     0.009 A 
ATOM     19  C   UNL     1      40.215 135.148  18.625  1.00  0.00    -0.010 A 
ATOM     20  C   UNL     1      44.081 136.756  19.396  1.00  0.00     0.001 A 
ATOM     21  C   UNL     1      41.690 137.061  19.245  1.00  0.00     0.009 A 
ATOM     22  C   UNL     1      37.697 133.964  18.100  1.00  0.00     0.001 A 
ATOM     23  C   UNL     1      39.015 135.899  18.712  1.00  0.00     0.009 A 
ATOM     24  C   UNL     1      42.962 137.574  19.496  1.00  0.00     0.001 A 
ATOM     25  C   UNL     1      37.776 135.307  18.455  1.00  0.00     0.001 A 
ENDBRANCH   7  12
ENDBRANCH   4   5
ENDBRANCH   1   4
BRANCH   1  26
ATOM     26  N   UNL     1      43.087 133.827  14.510  1.00  0.00    -0.323 N 
ATOM     27  H   UNL     1      43.792 134.183  13.828  1.00  0.00     0.170 HD
BRANCH  26  28
ATOM     28  C   UNL     1      41.817 134.504  14.629  1.00  0.00     0.045 A 
ATOM     29  C   UNL     1      40.620 133.808  14.368  1.00  0.00     0.026 A 
ATOM     30  C   UNL     1      41.749 135.839  15.110  1.00  0.00    -0.010 A 
ATOM     31  C   UNL     1      39.383 134.407  14.586  1.00  0.00     0.004 A 
ATOM     32  C   UNL     1      40.480 136.420  15.363  1.00  0.00     0.057 A 
ATOM     33  C   UNL     1      39.312 135.702  15.089  1.00  0.00     0.020 A 
ATOM     34  C   UNL     1      43.021 136.605  15.402  1.00  0.00     0.048 C 
BRANCH  32  35
ATOM     35  C   UNL     1      40.344 137.740  15.931  1.00  0.00     0.099 C 
ATOM     36  N   UNL     1      40.234 138.800  16.384  1.00  0.00    -0.192 NA
ENDBRANCH  32  35
ENDBRANCH  26  28
ENDBRANCH   1  26
TORSDOF 7
ENDMDL
MODEL 7
REMARK VINA RESULT:      -5.4      2.202      6.360
REMARK SMILES Cc1[nH+]nn(/C=C(/O)Nc2cccc(C#N)c2C)c1-c1cc2ccccc2c2ccccc12
REMARK SMILES IDX 7 1 8 2 6 4 5 5 4 6 19 7 3 8 2 9 1 11 20 12 21 13 33 14
REMARK SMILES IDX 22 15 32 16 28 17 23 18 27 19 31 20 29 21 24 22 26 23 30 24
REMARK SMILES IDX 25 25 9 26 10 28 11 29 17 30 12 31 14 32 13 33 18 34 15 35
REMARK SMILES IDX 16 36
REMARK H PARENT 8 3 3 10 9 27
ROOT
ATOM      1  C   UNL     1      38.641 134.258  17.221  1.00  0.00     0.232 C 
ENDROOT
BRANCH   1   2
ATOM      2  O   UNL     1      38.353 133.601  16.024  1.00  0.00    -0.492 OA
ATOM      3  H   UNL     1      38.768 132.708  15.785  1.00  0.00     0.295 HD
ENDBRANCH   1   2
BRANCH   1   4
ATOM      4  C   UNL     1      38.356 135.565  17.344  1.00  0.00     0.298 C 
BRANCH   4   5
ATOM      5  N   UNL     1      38.780 136.567  16.405  1.00  0.00    -0.096 N 
ATOM      6  N   UNL     1      37.940 137.444  15.876  1.00  0.00     0.094 NA
ATOM      7  C   UNL     1      39.995 136.752  15.828  1.00  0.00     0.207 A 
ATOM      8  N   UNL     1      38.573 138.211  15.002  1.00  0.00    -0.147 N 
ATOM      9  C   UNL     1      39.855 137.805  14.942  1.00  0.00     0.170 A 
ATOM     10  H   UNL     1      38.132 138.985  14.459  1.00  0.00     0.342 HD
ATOM     11  C   UNL     1      40.908 138.424  14.082  1.00  0.00     0.100 C 
BRANCH   7  12
ATOM     12  C   UNL     1      41.229 135.968  16.075  1.00  0.00     0.036 A 
ATOM     13  C   UNL     1      41.364 134.752  15.402  1.00  0.00     0.022 A 
ATOM     14  C   UNL     1      42.266 136.418  16.926  1.00  0.00    -0.006 A 
ATOM     15  C   UNL     1      42.537 134.002  15.490  1.00  0.00    -0.017 A 
ATOM     16  C   UNL     1      42.113 137.597  17.686  1.00  0.00     0.009 A 
ATOM     17  C   UNL     1      43.475 135.663  17.037  1.00  0.00    -0.010 A 
ATOM     18  C   UNL     1      42.648 132.818  14.742  1.00  0.00     0.009 A 
ATOM     19  C   UNL     1      43.616 134.448  16.299  1.00  0.00    -0.010 A 
ATOM     20  C   UNL     1      43.138 138.057  18.505  1.00  0.00     0.001 A 
ATOM     21  C   UNL     1      44.499 136.163  17.881  1.00  0.00     0.009 A 
ATOM     22  C   UNL     1      43.821 132.069  14.779  1.00  0.00     0.001 A 
ATOM     23  C   UNL     1      44.795 133.661  16.318  1.00  0.00     0.009 A 
ATOM     24  C   UNL     1      44.329 137.347  18.597  1.00  0.00     0.001 A 
ATOM     25  C   UNL     1      44.890 132.490  15.563  1.00  0.00     0.001 A 
ENDBRANCH   7  12
ENDBRANCH   4   5
ENDBRANCH   1   4
BRANCH   1  26
ATOM     26  N   UNL     1      39.191 133.506  18.314  1.00  0.00    -0.323 N 
ATOM     27  H   UNL     1      38.646 132.684  18.654  1.00  0.00     0.170 HD
BRANCH  26  28
ATOM     28  C   UNL     1      40.416 133.867  18.988  1.00  0.00     0.045 A 
ATOM     29  C   UNL     1      40.456 135.007  19.815  1.00  0.00     0.026 A 
ATOM     30  C   UNL     1      41.559 133.025  18.915  1.00  0.00    -0.010 A 
ATOM     31  C   UNL     1      41.591 135.308  20.562  1.00  0.00     0.004 A 
ATOM     32  C   UNL     1      42.692 133.326  19.713  1.00  0.00     0.057 A 
ATOM     33  C   UNL     1      42.699 134.469  20.520  1.00  0.00     0.020 A 
ATOM     34  C   UNL     1      41.537 131.794  18.037  1.00  0.00     0.048 C 
BRANCH  32  35
ATOM     35  C   UNL     1      43.851 132.467  19.748  1.00  0.00     0.099 C 
ATOM     36  N   UNL     1      44.780 131.777  19.778  1.00  0.00    -0.192 NA
ENDBRANCH  32  35
ENDBRANCH  26  28
ENDBRANCH   1  26
TORSDOF 7
ENDMDL
MODEL 8
REMARK VINA RESULT:      -5.3      2.309      5.446
REMARK SMILES Cc1[nH+]nn(/C=C(/O)Nc2cccc(C#N)c2C)c1-c1cc2ccccc2c2ccccc12
REMARK SMILES IDX 7 1 8 2 6 4 5 5 4 6 19 7 3 8 2 9 1 11 20 12 21 13 33 14
REMARK SMILES IDX 22 15 32 16 28 17 23 18 27 19 31 20 29 21 24 22 26 23 30 24
REMARK SMILES IDX 25 25 9 26 10 28 11 29 17 30 12 31 14 32 13 33 18 34 15 35
REMARK SMILES IDX 16 36
REMARK H PARENT 8 3 3 10 9 27
ROOT
ATOM      1  C   UNL     1      41.929 133.665  14.737  1.00  0.00     0.232 C 
ENDROOT
BRANCH   1   2
ATOM      2  O   UNL     1      41.421 133.895  13.457  1.00  0.00    -0.492 OA
ATOM      3  H   UNL     1      41.861 133.516  12.626  1.00  0.00     0.295 HD
ENDBRANCH   1   2
BRANCH   1   4
ATOM      4  C   UNL     1      41.083 133.392  15.745  1.00  0.00     0.298 C 
BRANCH   4   5
ATOM      5  N   UNL     1      40.213 134.367  16.344  1.00  0.00    -0.096 N 
ATOM      6  N   UNL     1      39.118 134.805  15.742  1.00  0.00     0.094 NA
ATOM      7  C   UNL     1      40.362 135.065  17.499  1.00  0.00     0.207 A 
ATOM      8  N   UNL     1      38.534 135.736  16.479  1.00  0.00    -0.147 N 
ATOM      9  C   UNL     1      39.284 135.928  17.579  1.00  0.00     0.170 A 
ATOM     10  H   UNL     1      37.650 136.229  16.226  1.00  0.00     0.342 HD
ATOM     11  C   UNL     1      38.962 136.890  18.677  1.00  0.00     0.100 C 
BRANCH   7  12
ATOM     12  C   UNL     1      41.471 134.948  18.476  1.00  0.00     0.036 A 
ATOM     13  C   UNL     1      41.429 133.877  19.371  1.00  0.00     0.022 A 
ATOM     14  C   UNL     1      42.563 135.848  18.508  1.00  0.00    -0.006 A 
ATOM     15  C   UNL     1      42.482 133.628  20.252  1.00  0.00    -0.017 A 
ATOM     16  C   UNL     1      42.580 136.987  17.676  1.00  0.00     0.009 A 
ATOM     17  C   UNL     1      43.651 135.617  19.406  1.00  0.00    -0.010 A 
ATOM     18  C   UNL     1      42.422 132.500  21.087  1.00  0.00     0.009 A 
ATOM     19  C   UNL     1      43.615 134.486  20.278  1.00  0.00    -0.010 A 
ATOM     20  C   UNL     1      43.662 137.862  17.685  1.00  0.00     0.001 A 
ATOM     21  C   UNL     1      44.737 136.528  19.387  1.00  0.00     0.009 A 
ATOM     22  C   UNL     1      43.475 132.204  21.948  1.00  0.00     0.001 A 
ATOM     23  C   UNL     1      44.669 134.158  21.168  1.00  0.00     0.009 A 
ATOM     24  C   UNL     1      44.739 137.629  18.532  1.00  0.00     0.001 A 
ATOM     25  C   UNL     1      44.595 133.029  21.986  1.00  0.00     0.001 A 
ENDBRANCH   7  12
ENDBRANCH   4   5
ENDBRANCH   1   4
BRANCH   1  26
ATOM     26  N   UNL     1      43.350 133.678  14.935  1.00  0.00    -0.323 N 
ATOM     27  H   UNL     1      43.900 134.404  14.426  1.00  0.00     0.170 HD
BRANCH  26  28
ATOM     28  C   UNL     1      44.047 132.709  15.750  1.00  0.00     0.045 A 
ATOM     29  C   UNL     1      44.357 133.008  17.090  1.00  0.00     0.026 A 
ATOM     30  C   UNL     1      44.330 131.410  15.248  1.00  0.00    -0.010 A 
ATOM     31  C   UNL     1      44.925 132.049  17.924  1.00  0.00     0.004 A 
ATOM     32  C   UNL     1      44.872 130.433  16.122  1.00  0.00     0.057 A 
ATOM     33  C   UNL     1      45.173 130.767  17.447  1.00  0.00     0.020 A 
ATOM     34  C   UNL     1      44.001 131.064  13.813  1.00  0.00     0.048 C 
BRANCH  32  35
ATOM     35  C   UNL     1      45.105 129.074  15.697  1.00  0.00     0.099 C 
ATOM     36  N   UNL     1      45.294 127.984  15.356  1.00  0.00    -0.192 NA
ENDBRANCH  32  35
ENDBRANCH  26  28
ENDBRANCH   1  26
TORSDOF 7
ENDMDL
MODEL 9
REMARK VINA RESULT:      -5.3      3.658      6.872
REMARK SMILES Cc1[nH+]nn(/C=C(/O)Nc2cccc(C#N)c2C)c1-c1cc2ccccc2c2ccccc12
REMARK SMILES IDX 7 1 8 2 6 4 5 5 4 6 19 7 3 8 2 9 1 11 20 12 21 13 33 14
REMARK SMILES IDX 22 15 32 16 28 17 23 18 27 19 31 20 29 21 24 22 26 23 30 24
REMARK SMILES IDX 25 25 9 26 10 28 11 29 17 30 12 31 14 32 13 33 18 34 15 35
REMARK SMILES IDX 16 36
REMARK H PARENT 8 3 3 10 9 27
ROOT
ATOM      1  C   UNL     1      39.326 133.612  17.940  1.00  0.00     0.232 C 
ENDROOT
BRANCH   1   2
ATOM      2  O   UNL     1      38.380 132.599  17.771  1.00  0.00    -0.492 OA
ATOM      3  H   UNL     1      37.823 132.517  16.929  1.00  0.00     0.295 HD
ENDBRANCH   1   2
BRANCH   1   4
ATOM      4  C   UNL     1      40.435 133.614  17.183  1.00  0.00     0.298 C 
BRANCH   4   5
ATOM      5  N   UNL     1      41.448 134.632  17.251  1.00  0.00    -0.096 N 
ATOM      6  N   UNL     1      41.154 135.920  17.335  1.00  0.00     0.094 NA
ATOM      7  C   UNL     1      42.797 134.518  17.145  1.00  0.00     0.207 A 
ATOM      8  N   UNL     1      42.262 136.642  17.323  1.00  0.00    -0.147 N 
ATOM      9  C   UNL     1      43.306 135.802  17.199  1.00  0.00     0.170 A 
ATOM     10  H   UNL     1      42.296 137.683  17.389  1.00  0.00     0.342 HD
ATOM     11  C   UNL     1      44.740 136.221  17.160  1.00  0.00     0.100 C 
BRANCH   7  12
ATOM     12  C   UNL     1      43.577 133.268  16.979  1.00  0.00     0.036 A 
ATOM     13  C   UNL     1      43.759 132.792  15.679  1.00  0.00     0.022 A 
ATOM     14  C   UNL     1      44.157 132.576  18.068  1.00  0.00    -0.006 A 
ATOM     15  C   UNL     1      44.569 131.685  15.420  1.00  0.00    -0.017 A 
ATOM     16  C   UNL     1      43.910 132.987  19.395  1.00  0.00     0.009 A 
ATOM     17  C   UNL     1      44.986 131.436  17.829  1.00  0.00    -0.010 A 
ATOM     18  C   UNL     1      44.773 131.284  14.090  1.00  0.00     0.009 A 
ATOM     19  C   UNL     1      45.204 130.995  16.487  1.00  0.00    -0.010 A 
ATOM     20  C   UNL     1      44.498 132.325  20.469  1.00  0.00     0.001 A 
ATOM     21  C   UNL     1      45.569 130.788  18.947  1.00  0.00     0.009 A 
ATOM     22  C   UNL     1      45.607 130.209  13.798  1.00  0.00     0.001 A 
ATOM     23  C   UNL     1      46.044 129.901  16.157  1.00  0.00     0.009 A 
ATOM     24  C   UNL     1      45.329 131.235  20.245  1.00  0.00     0.001 A 
ATOM     25  C   UNL     1      46.240 129.521  14.828  1.00  0.00     0.001 A 
ENDBRANCH   7  12
ENDBRANCH   4   5
ENDBRANCH   1   4
BRANCH   1  26
ATOM     26  N   UNL     1      39.065 134.658  18.888  1.00  0.00    -0.323 N 
ATOM     27  H   UNL     1      38.769 135.585  18.511  1.00  0.00     0.170 HD
BRANCH  26  28
ATOM     28  C   UNL     1      39.248 134.502  20.313  1.00  0.00     0.045 A 
ATOM     29  C   UNL     1      40.546 134.498  20.860  1.00  0.00     0.026 A 
ATOM     30  C   UNL     1      38.129 134.460  21.187  1.00  0.00    -0.010 A 
ATOM     31  C   UNL     1      40.741 134.464  22.237  1.00  0.00     0.004 A 
ATOM     32  C   UNL     1      38.345 134.465  22.589  1.00  0.00     0.057 A 
ATOM     33  C   UNL     1      39.648 134.456  23.098  1.00  0.00     0.020 A 
ATOM     34  C   UNL     1      36.726 134.468  20.622  1.00  0.00     0.048 C 
BRANCH  32  35
ATOM     35  C   UNL     1      37.252 134.507  23.530  1.00  0.00     0.099 C 
ATOM     36  N   UNL     1      36.376 134.539  24.285  1.00  0.00    -0.192 NA
ENDBRANCH  32  35
ENDBRANCH  26  28
ENDBRANCH   1  26
TORSDOF 7
ENDMDL


