MODEL 1
REMARK VINA RESULT:      -8.4      0.000      0.000
REMARK SMILES C[C@H](Cl)[C@@H]1[C@H](C)N(C(=O)OCC(F)F)NN1c1ccc2c3c(ccc(N)c13)CC2
REMARK SMILES IDX 8 1 9 2 7 3 4 4 5 5 16 6 15 7 6 8 2 10 1 11 3 12 17 13 18 14
REMARK SMILES IDX 27 15 19 16 25 17 21 18 20 19 24 20 22 21 29 22 23 23 28 24
REMARK SMILES IDX 26 25 10 28 11 29 12 30 13 31 14 32
REMARK H PARENT 15 9 26 26 26 27
ROOT
ATOM      1  C   UNL     1      46.231 130.367  15.567  1.00  0.00     0.426 C 
ATOM      2  O   UNL     1      47.355 130.055  16.049  1.00  0.00    -0.223 OA
ENDROOT
BRANCH   1   3
ATOM      3  N   UNL     1      45.396 131.315  16.245  1.00  0.00    -0.220 N 
ATOM      4  C   UNL     1      43.635 132.208  17.484  1.00  0.00     0.144 C 
ATOM      5  C   UNL     1      44.601 131.009  17.431  1.00  0.00     0.131 C 
ATOM      6  N   UNL     1      44.284 133.199  16.621  1.00  0.00    -0.283 N 
ATOM      7  N   UNL     1      45.253 132.630  15.775  1.00  0.00    -0.139 NA
ATOM      8  C   UNL     1      45.547 130.837  18.626  1.00  0.00     0.035 C 
ATOM      9  H   UNL     1      44.833 132.574  14.818  1.00  0.00     0.175 HD
BRANCH   4  10
ATOM     10  C   UNL     1      43.135 132.773  18.848  1.00  0.00     0.104 C 
ATOM     11  C   UNL     1      41.790 133.510  18.840  1.00  0.00     0.027 C 
ATOM     12  Cl  UNL     1      44.394 133.766  19.638  1.00  0.00    -0.121 Cl
ENDBRANCH   4  10
BRANCH   6  13
ATOM     13  C   UNL     1      43.762 134.511  16.347  1.00  0.00     0.064 A 
ATOM     14  C   UNL     1      44.275 135.618  17.079  1.00  0.00     0.028 A 
ATOM     15  C   UNL     1      42.663 134.719  15.451  1.00  0.00     0.030 A 
ATOM     16  C   UNL     1      43.717 136.900  16.955  1.00  0.00     0.006 A 
ATOM     17  C   UNL     1      42.033 133.751  14.603  1.00  0.00     0.042 A 
ATOM     18  C   UNL     1      42.135 136.017  15.405  1.00  0.00    -0.008 A 
ATOM     19  C   UNL     1      42.629 137.071  16.109  1.00  0.00    -0.039 A 
ATOM     20  C   UNL     1      40.885 134.124  13.856  1.00  0.00     0.026 A 
ATOM     21  C   UNL     1      41.053 136.379  14.663  1.00  0.00    -0.039 A 
ATOM     22  C   UNL     1      41.835 138.309  15.842  1.00  0.00     0.041 C 
ATOM     23  C   UNL     1      40.391 135.439  13.883  1.00  0.00     0.006 A 
ATOM     24  C   UNL     1      40.744 137.830  14.847  1.00  0.00     0.041 C 
BRANCH  17  25
ATOM     25  N   UNL     1      42.547 132.428  14.409  1.00  0.00    -0.398 N 
ATOM     26  H   UNL     1      42.204 131.615  14.959  1.00  0.00     0.156 HD
ATOM     27  H   UNL     1      43.423 132.281  13.860  1.00  0.00     0.156 HD
ENDBRANCH  17  25
ENDBRANCH   6  13
ENDBRANCH   1   3
BRANCH   1  28
ATOM     28  O   UNL     1      45.788 129.791  14.371  1.00  0.00    -0.442 OA
BRANCH  28  29
ATOM     29  C   UNL     1      45.814 130.467  13.115  1.00  0.00     0.308 C 
BRANCH  29  30
ATOM     30  C   UNL     1      47.231 130.498  12.548  1.00  0.00     0.379 C 
ATOM     31  F   UNL     1      47.883 129.314  12.845  1.00  0.00    -0.207 F 
ATOM     32  F   UNL     1      47.178 130.653  11.175  1.00  0.00    -0.207 F 
ENDBRANCH  29  30
ENDBRANCH  28  29
ENDBRANCH   1  28
TORSDOF 7
ENDMDL
MODEL 2
REMARK VINA RESULT:      -8.2      0.818      1.036
REMARK SMILES C[C@H](Cl)[C@@H]1[C@H](C)N(C(=O)OCC(F)F)NN1c1ccc2c3c(ccc(N)c13)CC2
REMARK SMILES IDX 8 1 9 2 7 3 4 4 5 5 16 6 15 7 6 8 2 10 1 11 3 12 17 13 18 14
REMARK SMILES IDX 27 15 19 16 25 17 21 18 20 19 24 20 22 21 29 22 23 23 28 24
REMARK SMILES IDX 26 25 10 28 11 29 12 30 13 31 14 32
REMARK H PARENT 15 9 26 26 26 27
ROOT
ATOM      1  C   UNL     1      46.021 130.337  15.427  1.00  0.00     0.426 C 
ATOM      2  O   UNL     1      45.542 129.187  15.228  1.00  0.00    -0.223 OA
ENDROOT
BRANCH   1   3
ATOM      3  N   UNL     1      45.265 131.316  16.152  1.00  0.00    -0.220 N 
ATOM      4  C   UNL     1      43.631 132.271  17.513  1.00  0.00     0.144 C 
ATOM      5  C   UNL     1      44.565 131.050  17.405  1.00  0.00     0.131 C 
ATOM      6  N   UNL     1      44.227 133.230  16.579  1.00  0.00    -0.283 N 
ATOM      7  N   UNL     1      45.110 132.625  15.668  1.00  0.00    -0.139 NA
ATOM      8  C   UNL     1      45.603 130.880  18.522  1.00  0.00     0.035 C 
ATOM      9  H   UNL     1      44.611 132.560  14.750  1.00  0.00     0.175 HD
BRANCH   4  10
ATOM     10  C   UNL     1      43.257 132.873  18.902  1.00  0.00     0.104 C 
ATOM     11  C   UNL     1      44.389 133.539  19.693  1.00  0.00     0.027 C 
ATOM     12  Cl  UNL     1      42.398 131.677  19.915  1.00  0.00    -0.121 Cl
ENDBRANCH   4  10
BRANCH   6  13
ATOM     13  C   UNL     1      43.710 134.548  16.322  1.00  0.00     0.064 A 
ATOM     14  C   UNL     1      44.243 135.647  17.053  1.00  0.00     0.028 A 
ATOM     15  C   UNL     1      42.599 134.771  15.444  1.00  0.00     0.030 A 
ATOM     16  C   UNL     1      43.693 136.934  16.947  1.00  0.00     0.006 A 
ATOM     17  C   UNL     1      41.949 133.813  14.600  1.00  0.00     0.042 A 
ATOM     18  C   UNL     1      42.081 136.073  15.415  1.00  0.00    -0.008 A 
ATOM     19  C   UNL     1      42.593 137.118  16.119  1.00  0.00    -0.039 A 
ATOM     20  C   UNL     1      40.793 134.201  13.873  1.00  0.00     0.026 A 
ATOM     21  C   UNL     1      40.991 136.448  14.693  1.00  0.00    -0.039 A 
ATOM     22  C   UNL     1      41.805 138.364  15.872  1.00  0.00     0.041 C 
ATOM     23  C   UNL     1      40.309 135.518  13.916  1.00  0.00     0.006 A 
ATOM     24  C   UNL     1      40.695 137.900  14.891  1.00  0.00     0.041 C 
BRANCH  17  25
ATOM     25  N   UNL     1      42.450 132.488  14.389  1.00  0.00    -0.398 N 
ATOM     26  H   UNL     1      43.438 132.307  14.117  1.00  0.00     0.156 HD
ATOM     27  H   UNL     1      41.789 131.685  14.298  1.00  0.00     0.156 HD
ENDBRANCH  17  25
ENDBRANCH   6  13
ENDBRANCH   1   3
BRANCH   1  28
ATOM     28  O   UNL     1      47.291 130.670  14.942  1.00  0.00    -0.442 OA
BRANCH  28  29
ATOM     29  C   UNL     1      47.506 131.416  13.745  1.00  0.00     0.308 C 
BRANCH  29  30
ATOM     30  C   UNL     1      47.270 130.543  12.516  1.00  0.00     0.379 C 
ATOM     31  F   UNL     1      47.670 129.244  12.775  1.00  0.00    -0.207 F 
ATOM     32  F   UNL     1      45.925 130.546  12.196  1.00  0.00    -0.207 F 
ENDBRANCH  29  30
ENDBRANCH  28  29
ENDBRANCH   1  28
TORSDOF 7
ENDMDL
MODEL 3
REMARK VINA RESULT:      -8.0      1.306      2.565
REMARK SMILES C[C@H](Cl)[C@@H]1[C@H](C)N(C(=O)OCC(F)F)NN1c1ccc2c3c(ccc(N)c13)CC2
REMARK SMILES IDX 8 1 9 2 7 3 4 4 5 5 16 6 15 7 6 8 2 10 1 11 3 12 17 13 18 14
REMARK SMILES IDX 27 15 19 16 25 17 21 18 20 19 24 20 22 21 29 22 23 23 28 24
REMARK SMILES IDX 26 25 10 28 11 29 12 30 13 31 14 32
REMARK H PARENT 15 9 26 26 26 27
ROOT
ATOM      1  C   UNL     1      46.125 131.500  15.512  1.00  0.00     0.426 C 
ATOM      2  O   UNL     1      46.673 130.558  16.148  1.00  0.00    -0.223 OA
ENDROOT
BRANCH   1   3
ATOM      3  N   UNL     1      44.869 132.031  15.954  1.00  0.00    -0.220 N 
ATOM      4  C   UNL     1      42.714 132.145  16.835  1.00  0.00     0.144 C 
ATOM      5  C   UNL     1      44.087 131.481  17.057  1.00  0.00     0.131 C 
ATOM      6  N   UNL     1      43.025 133.267  15.946  1.00  0.00    -0.283 N 
ATOM      7  N   UNL     1      44.271 133.125  15.308  1.00  0.00    -0.139 NA
ATOM      8  C   UNL     1      44.801 131.806  18.376  1.00  0.00     0.035 C 
ATOM      9  H   UNL     1      44.081 132.837  14.320  1.00  0.00     0.175 HD
BRANCH   4  10
ATOM     10  C   UNL     1      41.801 132.516  18.043  1.00  0.00     0.104 C 
ATOM     11  C   UNL     1      40.307 132.700  17.749  1.00  0.00     0.027 C 
ATOM     12  Cl  UNL     1      42.447 133.926  18.934  1.00  0.00    -0.121 Cl
ENDBRANCH   4  10
BRANCH   6  13
ATOM     13  C   UNL     1      42.056 134.205  15.444  1.00  0.00     0.064 A 
ATOM     14  C   UNL     1      40.972 133.715  14.662  1.00  0.00     0.028 A 
ATOM     15  C   UNL     1      42.213 135.620  15.605  1.00  0.00     0.030 A 
ATOM     16  C   UNL     1      40.069 134.588  14.034  1.00  0.00     0.006 A 
ATOM     17  C   UNL     1      43.208 136.304  16.377  1.00  0.00     0.042 A 
ATOM     18  C   UNL     1      41.297 136.430  14.921  1.00  0.00    -0.008 A 
ATOM     19  C   UNL     1      40.264 135.956  14.174  1.00  0.00    -0.039 A 
ATOM     20  C   UNL     1      43.266 137.722  16.333  1.00  0.00     0.026 A 
ATOM     21  C   UNL     1      41.337 137.790  14.907  1.00  0.00    -0.039 A 
ATOM     22  C   UNL     1      39.481 137.080  13.573  1.00  0.00     0.041 C 
ATOM     23  C   UNL     1      42.332 138.470  15.599  1.00  0.00     0.006 A 
ATOM     24  C   UNL     1      40.225 138.346  14.076  1.00  0.00     0.041 C 
BRANCH  17  25
ATOM     25  N   UNL     1      44.114 135.632  17.260  1.00  0.00    -0.398 N 
ATOM     26  H   UNL     1      44.983 136.083  17.609  1.00  0.00     0.156 HD
ATOM     27  H   UNL     1      44.033 134.602  17.409  1.00  0.00     0.156 HD
ENDBRANCH  17  25
ENDBRANCH   6  13
ENDBRANCH   1   3
BRANCH   1  28
ATOM     28  O   UNL     1      46.735 132.034  14.371  1.00  0.00    -0.442 OA
BRANCH  28  29
ATOM     29  C   UNL     1      47.593 131.284  13.513  1.00  0.00     0.308 C 
BRANCH  29  30
ATOM     30  C   UNL     1      46.779 130.389  12.583  1.00  0.00     0.379 C 
ATOM     31  F   UNL     1      45.429 130.650  12.741  1.00  0.00    -0.207 F 
ATOM     32  F   UNL     1      47.137 130.636  11.271  1.00  0.00    -0.207 F 
ENDBRANCH  29  30
ENDBRANCH  28  29
ENDBRANCH   1  28
TORSDOF 7
ENDMDL
MODEL 4
REMARK VINA RESULT:      -7.6      1.373      2.605
REMARK SMILES C[C@H](Cl)[C@@H]1[C@H](C)N(C(=O)OCC(F)F)NN1c1ccc2c3c(ccc(N)c13)CC2
REMARK SMILES IDX 8 1 9 2 7 3 4 4 5 5 16 6 15 7 6 8 2 10 1 11 3 12 17 13 18 14
REMARK SMILES IDX 27 15 19 16 25 17 21 18 20 19 24 20 22 21 29 22 23 23 28 24
REMARK SMILES IDX 26 25 10 28 11 29 12 30 13 31 14 32
REMARK H PARENT 15 9 26 26 26 27
ROOT
ATOM      1  C   UNL     1      46.245 131.240  15.529  1.00  0.00     0.426 C 
ATOM      2  O   UNL     1      46.830 130.373  16.234  1.00  0.00    -0.223 OA
ENDROOT
BRANCH   1   3
ATOM      3  N   UNL     1      45.035 131.850  15.997  1.00  0.00    -0.220 N 
ATOM      4  C   UNL     1      42.938 132.111  16.981  1.00  0.00     0.144 C 
ATOM      5  C   UNL     1      44.297 131.411  17.177  1.00  0.00     0.131 C 
ATOM      6  N   UNL     1      43.239 133.155  15.997  1.00  0.00    -0.283 N 
ATOM      7  N   UNL     1      44.442 132.920  15.307  1.00  0.00    -0.139 NA
ATOM      8  C   UNL     1      45.094 131.798  18.429  1.00  0.00     0.035 C 
ATOM      9  H   UNL     1      44.187 132.571  14.353  1.00  0.00     0.175 HD
BRANCH   4  10
ATOM     10  C   UNL     1      42.107 132.603  18.205  1.00  0.00     0.104 C 
ATOM     11  C   UNL     1      42.271 131.818  19.511  1.00  0.00     0.027 C 
ATOM     12  Cl  UNL     1      40.377 132.777  17.786  1.00  0.00    -0.121 Cl
ENDBRANCH   4  10
BRANCH   6  13
ATOM     13  C   UNL     1      42.278 134.094  15.482  1.00  0.00     0.064 A 
ATOM     14  C   UNL     1      41.291 133.628  14.568  1.00  0.00     0.028 A 
ATOM     15  C   UNL     1      42.358 135.496  15.764  1.00  0.00     0.030 A 
ATOM     16  C   UNL     1      40.411 134.514  13.927  1.00  0.00     0.006 A 
ATOM     17  C   UNL     1      43.249 136.153  16.675  1.00  0.00     0.042 A 
ATOM     18  C   UNL     1      41.471 136.324  15.062  1.00  0.00    -0.008 A 
ATOM     19  C   UNL     1      40.532 135.873  14.188  1.00  0.00    -0.039 A 
ATOM     20  C   UNL     1      43.248 137.571  16.745  1.00  0.00     0.026 A 
ATOM     21  C   UNL     1      41.452 137.681  15.156  1.00  0.00    -0.039 A 
ATOM     22  C   UNL     1      39.757 137.012  13.605  1.00  0.00     0.041 C 
ATOM     23  C   UNL     1      42.350 138.340  15.987  1.00  0.00     0.006 A 
ATOM     24  C   UNL     1      40.396 138.261  14.270  1.00  0.00     0.041 C 
BRANCH  17  25
ATOM     25  N   UNL     1      44.101 135.446  17.584  1.00  0.00    -0.398 N 
ATOM     26  H   UNL     1      43.818 134.545  18.020  1.00  0.00     0.156 HD
ATOM     27  H   UNL     1      44.937 135.918  17.993  1.00  0.00     0.156 HD
ENDBRANCH  17  25
ENDBRANCH   6  13
ENDBRANCH   1   3
BRANCH   1  28
ATOM     28  O   UNL     1      46.768 131.613  14.285  1.00  0.00    -0.442 OA
BRANCH  28  29
ATOM     29  C   UNL     1      46.600 130.842  13.097  1.00  0.00     0.308 C 
BRANCH  29  30
ATOM     30  C   UNL     1      47.673 129.761  13.000  1.00  0.00     0.379 C 
ATOM     31  F   UNL     1      47.963 129.503  11.672  1.00  0.00    -0.207 F 
ATOM     32  F   UNL     1      48.822 130.190  13.638  1.00  0.00    -0.207 F 
ENDBRANCH  29  30
ENDBRANCH  28  29
ENDBRANCH   1  28
TORSDOF 7
ENDMDL
MODEL 5
REMARK VINA RESULT:      -7.5      1.246      1.392
REMARK SMILES C[C@H](Cl)[C@@H]1[C@H](C)N(C(=O)OCC(F)F)NN1c1ccc2c3c(ccc(N)c13)CC2
REMARK SMILES IDX 8 1 9 2 7 3 4 4 5 5 16 6 15 7 6 8 2 10 1 11 3 12 17 13 18 14
REMARK SMILES IDX 27 15 19 16 25 17 21 18 20 19 24 20 22 21 29 22 23 23 28 24
REMARK SMILES IDX 26 25 10 28 11 29 12 30 13 31 14 32
REMARK H PARENT 15 9 26 26 26 27
ROOT
ATOM      1  C   UNL     1      46.579 131.434  15.002  1.00  0.00     0.426 C 
ATOM      2  O   UNL     1      47.112 132.176  14.131  1.00  0.00    -0.223 OA
ENDROOT
BRANCH   1   3
ATOM      3  N   UNL     1      45.508 131.932  15.815  1.00  0.00    -0.220 N 
ATOM      4  C   UNL     1      43.526 132.013  17.038  1.00  0.00     0.144 C 
ATOM      5  C   UNL     1      44.755 131.122  16.767  1.00  0.00     0.131 C 
ATOM      6  N   UNL     1      43.959 133.331  16.568  1.00  0.00    -0.283 N 
ATOM      7  N   UNL     1      45.076 133.264  15.716  1.00  0.00    -0.139 NA
ATOM      8  C   UNL     1      45.655 130.811  17.969  1.00  0.00     0.035 C 
ATOM      9  H   UNL     1      44.729 133.406  14.738  1.00  0.00     0.175 HD
BRANCH   4  10
ATOM     10  C   UNL     1      42.839 132.023  18.437  1.00  0.00     0.104 C 
ATOM     11  C   UNL     1      41.350 132.385  18.474  1.00  0.00     0.027 C 
ATOM     12  Cl  UNL     1      43.759 133.019  19.603  1.00  0.00    -0.121 Cl
ENDBRANCH   4  10
BRANCH   6  13
ATOM     13  C   UNL     1      43.149 134.520  16.610  1.00  0.00     0.064 A 
ATOM     14  C   UNL     1      43.485 135.543  17.540  1.00  0.00     0.028 A 
ATOM     15  C   UNL     1      41.952 134.652  15.833  1.00  0.00     0.030 A 
ATOM     16  C   UNL     1      42.661 136.664  17.725  1.00  0.00     0.006 A 
ATOM     17  C   UNL     1      41.463 133.758  14.825  1.00  0.00     0.042 A 
ATOM     18  C   UNL     1      41.161 135.779  16.095  1.00  0.00    -0.008 A 
ATOM     19  C   UNL     1      41.487 136.753  16.988  1.00  0.00    -0.039 A 
ATOM     20  C   UNL     1      40.197 134.007  14.232  1.00  0.00     0.026 A 
ATOM     21  C   UNL     1      39.963 136.031  15.502  1.00  0.00    -0.039 A 
ATOM     22  C   UNL     1      40.429 137.808  17.034  1.00  0.00     0.041 C 
ATOM     23  C   UNL     1      39.443 135.143  14.567  1.00  0.00     0.006 A 
ATOM     24  C   UNL     1      39.375 137.307  16.011  1.00  0.00     0.041 C 
BRANCH  17  25
ATOM     25  N   UNL     1      42.223 132.652  14.324  1.00  0.00    -0.398 N 
ATOM     26  H   UNL     1      43.251 132.578  14.465  1.00  0.00     0.156 HD
ATOM     27  H   UNL     1      41.801 131.999  13.627  1.00  0.00     0.156 HD
ENDBRANCH  17  25
ENDBRANCH   6  13
ENDBRANCH   1   3
BRANCH   1  28
ATOM     28  O   UNL     1      47.029 130.121  15.184  1.00  0.00    -0.442 OA
BRANCH  28  29
ATOM     29  C   UNL     1      46.901 129.100  14.196  1.00  0.00     0.308 C 
BRANCH  29  30
ATOM     30  C   UNL     1      48.021 129.206  13.164  1.00  0.00     0.379 C 
ATOM     31  F   UNL     1      47.617 130.006  12.111  1.00  0.00    -0.207 F 
ATOM     32  F   UNL     1      49.142 129.763  13.752  1.00  0.00    -0.207 F 
ENDBRANCH  29  30
ENDBRANCH  28  29
ENDBRANCH   1  28
TORSDOF 7
ENDMDL
MODEL 6
REMARK VINA RESULT:      -7.4      1.174      1.348
REMARK SMILES C[C@H](Cl)[C@@H]1[C@H](C)N(C(=O)OCC(F)F)NN1c1ccc2c3c(ccc(N)c13)CC2
REMARK SMILES IDX 8 1 9 2 7 3 4 4 5 5 16 6 15 7 6 8 2 10 1 11 3 12 17 13 18 14
REMARK SMILES IDX 27 15 19 16 25 17 21 18 20 19 24 20 22 21 29 22 23 23 28 24
REMARK SMILES IDX 26 25 10 28 11 29 12 30 13 31 14 32
REMARK H PARENT 15 9 26 26 26 27
ROOT
ATOM      1  C   UNL     1      45.261 130.285  14.479  1.00  0.00     0.426 C 
ATOM      2  O   UNL     1      45.480 129.109  14.879  1.00  0.00    -0.223 OA
ENDROOT
BRANCH   1   3
ATOM      3  N   UNL     1      44.736 131.266  15.383  1.00  0.00    -0.220 N 
ATOM      4  C   UNL     1      43.477 132.244  17.084  1.00  0.00     0.144 C 
ATOM      5  C   UNL     1      44.277 130.973  16.737  1.00  0.00     0.131 C 
ATOM      6  N   UNL     1      43.950 133.216  16.095  1.00  0.00    -0.283 N 
ATOM      7  N   UNL     1      44.590 132.609  14.999  1.00  0.00    -0.139 NA
ATOM      8  C   UNL     1      45.497 130.670  17.616  1.00  0.00     0.035 C 
ATOM      9  H   UNL     1      43.918 132.631  14.197  1.00  0.00     0.175 HD
BRANCH   4  10
ATOM     10  C   UNL     1      43.428 132.786  18.544  1.00  0.00     0.104 C 
ATOM     11  C   UNL     1      43.562 131.753  19.669  1.00  0.00     0.027 C 
ATOM     12  Cl  UNL     1      41.993 133.820  18.804  1.00  0.00    -0.121 Cl
ENDBRANCH   4  10
BRANCH   6  13
ATOM     13  C   UNL     1      43.494 134.578  16.005  1.00  0.00     0.064 A 
ATOM     14  C   UNL     1      44.175 135.578  16.754  1.00  0.00     0.028 A 
ATOM     15  C   UNL     1      42.310 134.937  15.283  1.00  0.00     0.030 A 
ATOM     16  C   UNL     1      43.702 136.898  16.815  1.00  0.00     0.006 A 
ATOM     17  C   UNL     1      41.509 134.093  14.446  1.00  0.00     0.042 A 
ATOM     18  C   UNL     1      41.876 136.263  15.418  1.00  0.00    -0.008 A 
ATOM     19  C   UNL     1      42.531 137.214  16.138  1.00  0.00    -0.039 A 
ATOM     20  C   UNL     1      40.306 134.605  13.891  1.00  0.00     0.026 A 
ATOM     21  C   UNL     1      40.739 136.759  14.859  1.00  0.00    -0.039 A 
ATOM     22  C   UNL     1      41.802 138.518  16.085  1.00  0.00     0.041 C 
ATOM     23  C   UNL     1      39.917 135.939  14.095  1.00  0.00     0.006 A 
ATOM     24  C   UNL     1      40.562 138.203  15.205  1.00  0.00     0.041 C 
BRANCH  17  25
ATOM     25  N   UNL     1      41.896 132.765  14.073  1.00  0.00    -0.398 N 
ATOM     26  H   UNL     1      41.207 132.059  13.745  1.00  0.00     0.156 HD
ATOM     27  H   UNL     1      42.846 132.408  14.319  1.00  0.00     0.156 HD
ENDBRANCH  17  25
ENDBRANCH   6  13
ENDBRANCH   1   3
BRANCH   1  28
ATOM     28  O   UNL     1      45.523 130.643  13.151  1.00  0.00    -0.442 OA
BRANCH  28  29
ATOM     29  C   UNL     1      46.729 130.306  12.469  1.00  0.00     0.308 C 
BRANCH  29  30
ATOM     30  C   UNL     1      47.938 130.908  13.181  1.00  0.00     0.379 C 
ATOM     31  F   UNL     1      47.538 131.971  13.971  1.00  0.00    -0.207 F 
ATOM     32  F   UNL     1      48.530 129.948  13.981  1.00  0.00    -0.207 F 
ENDBRANCH  29  30
ENDBRANCH  28  29
ENDBRANCH   1  28
TORSDOF 7
ENDMDL
MODEL 7
REMARK VINA RESULT:      -7.3      1.653      2.954
REMARK SMILES C[C@H](Cl)[C@@H]1[C@H](C)N(C(=O)OCC(F)F)NN1c1ccc2c3c(ccc(N)c13)CC2
REMARK SMILES IDX 8 1 9 2 7 3 4 4 5 5 16 6 15 7 6 8 2 10 1 11 3 12 17 13 18 14
REMARK SMILES IDX 27 15 19 16 25 17 21 18 20 19 24 20 22 21 29 22 23 23 28 24
REMARK SMILES IDX 26 25 10 28 11 29 12 30 13 31 14 32
REMARK H PARENT 15 9 26 26 26 27
ROOT
ATOM      1  C   UNL     1      45.400 131.789  15.042  1.00  0.00     0.426 C 
ATOM      2  O   UNL     1      46.441 132.496  14.950  1.00  0.00    -0.223 OA
ENDROOT
BRANCH   1   3
ATOM      3  N   UNL     1      44.187 132.357  15.554  1.00  0.00    -0.220 N 
ATOM      4  C   UNL     1      42.111 132.544  16.598  1.00  0.00     0.144 C 
ATOM      5  C   UNL     1      43.493 131.877  16.745  1.00  0.00     0.131 C 
ATOM      6  N   UNL     1      42.358 133.613  15.627  1.00  0.00    -0.283 N 
ATOM      7  N   UNL     1      43.547 133.422  14.900  1.00  0.00    -0.139 NA
ATOM      8  C   UNL     1      44.314 132.263  17.983  1.00  0.00     0.035 C 
ATOM      9  H   UNL     1      43.276 133.084  13.947  1.00  0.00     0.175 HD
BRANCH   4  10
ATOM     10  C   UNL     1      41.302 132.991  17.853  1.00  0.00     0.104 C 
ATOM     11  C   UNL     1      39.773 132.950  17.740  1.00  0.00     0.027 C 
ATOM     12  Cl  UNL     1      41.849 134.588  18.443  1.00  0.00    -0.121 Cl
ENDBRANCH   4  10
BRANCH   6  13
ATOM     13  C   UNL     1      41.359 134.534  15.155  1.00  0.00     0.064 A 
ATOM     14  C   UNL     1      40.155 134.013  14.604  1.00  0.00     0.028 A 
ATOM     15  C   UNL     1      41.588 135.948  15.113  1.00  0.00     0.030 A 
ATOM     16  C   UNL     1      39.200 134.851  14.006  1.00  0.00     0.006 A 
ATOM     17  C   UNL     1      42.709 136.666  15.642  1.00  0.00     0.042 A 
ATOM     18  C   UNL     1      40.609 136.718  14.470  1.00  0.00    -0.008 A 
ATOM     19  C   UNL     1      39.461 136.214  13.942  1.00  0.00    -0.039 A 
ATOM     20  C   UNL     1      42.810 138.064  15.412  1.00  0.00     0.026 A 
ATOM     21  C   UNL     1      40.694 138.062  14.278  1.00  0.00    -0.039 A 
ATOM     22  C   UNL     1      38.638 137.297  13.323  1.00  0.00     0.041 C 
ATOM     23  C   UNL     1      41.804 138.767  14.730  1.00  0.00     0.006 A 
ATOM     24  C   UNL     1      39.492 138.574  13.551  1.00  0.00     0.041 C 
BRANCH  17  25
ATOM     25  N   UNL     1      43.712 136.057  16.464  1.00  0.00    -0.398 N 
ATOM     26  H   UNL     1      44.074 136.514  17.326  1.00  0.00     0.156 HD
ATOM     27  H   UNL     1      44.254 135.238  16.110  1.00  0.00     0.156 HD
ENDBRANCH  17  25
ENDBRANCH   6  13
ENDBRANCH   1   3
BRANCH   1  28
ATOM     28  O   UNL     1      45.418 130.445  14.650  1.00  0.00    -0.442 OA
BRANCH  28  29
ATOM     29  C   UNL     1      46.174 129.958  13.543  1.00  0.00     0.308 C 
BRANCH  29  30
ATOM     30  C   UNL     1      47.559 129.501  13.995  1.00  0.00     0.379 C 
ATOM     31  F   UNL     1      48.532 130.273  13.386  1.00  0.00    -0.207 F 
ATOM     32  F   UNL     1      47.667 129.636  15.366  1.00  0.00    -0.207 F 
ENDBRANCH  29  30
ENDBRANCH  28  29
ENDBRANCH   1  28
TORSDOF 7
ENDMDL
MODEL 8
REMARK VINA RESULT:      -7.3      1.145      1.561
REMARK SMILES C[C@H](Cl)[C@@H]1[C@H](C)N(C(=O)OCC(F)F)NN1c1ccc2c3c(ccc(N)c13)CC2
REMARK SMILES IDX 8 1 9 2 7 3 4 4 5 5 16 6 15 7 6 8 2 10 1 11 3 12 17 13 18 14
REMARK SMILES IDX 27 15 19 16 25 17 21 18 20 19 24 20 22 21 29 22 23 23 28 24
REMARK SMILES IDX 26 25 10 28 11 29 12 30 13 31 14 32
REMARK H PARENT 15 9 26 26 26 27
ROOT
ATOM      1  C   UNL     1      45.083 131.077  14.816  1.00  0.00     0.426 C 
ATOM      2  O   UNL     1      44.441 130.202  14.172  1.00  0.00    -0.223 OA
ENDROOT
BRANCH   1   3
ATOM      3  N   UNL     1      44.381 132.047  15.606  1.00  0.00    -0.220 N 
ATOM      4  C   UNL     1      42.809 132.996  17.042  1.00  0.00     0.144 C 
ATOM      5  C   UNL     1      43.685 131.742  16.852  1.00  0.00     0.131 C 
ATOM      6  N   UNL     1      43.438 133.979  16.156  1.00  0.00    -0.283 N 
ATOM      7  N   UNL     1      44.282 133.387  15.199  1.00  0.00    -0.139 NA
ATOM      8  C   UNL     1      44.727 131.461  17.943  1.00  0.00     0.035 C 
ATOM      9  H   UNL     1      43.770 133.397  14.286  1.00  0.00     0.175 HD
BRANCH   4  10
ATOM     10  C   UNL     1      42.481 133.534  18.468  1.00  0.00     0.104 C 
ATOM     11  C   UNL     1      41.219 134.393  18.608  1.00  0.00     0.027 C 
ATOM     12  Cl  UNL     1      43.892 134.362  19.189  1.00  0.00    -0.121 Cl
ENDBRANCH   4  10
BRANCH   6  13
ATOM     13  C   UNL     1      42.980 135.332  15.981  1.00  0.00     0.064 A 
ATOM     14  C   UNL     1      43.576 136.362  16.762  1.00  0.00     0.028 A 
ATOM     15  C   UNL     1      41.868 135.654  15.137  1.00  0.00     0.030 A 
ATOM     16  C   UNL     1      43.085 137.677  16.736  1.00  0.00     0.006 A 
ATOM     17  C   UNL     1      41.160 134.776  14.253  1.00  0.00     0.042 A 
ATOM     18  C   UNL     1      41.410 136.978  15.189  1.00  0.00    -0.008 A 
ATOM     19  C   UNL     1      41.982 137.958  15.939  1.00  0.00    -0.039 A 
ATOM     20  C   UNL     1      40.012 135.256  13.569  1.00  0.00     0.026 A 
ATOM     21  C   UNL     1      40.328 137.443  14.508  1.00  0.00    -0.039 A 
ATOM     22  C   UNL     1      41.250 139.251  15.776  1.00  0.00     0.041 C 
ATOM     23  C   UNL     1      39.591 136.591  13.694  1.00  0.00     0.006 A 
ATOM     24  C   UNL     1      40.104 138.894  14.791  1.00  0.00     0.041 C 
BRANCH  17  25
ATOM     25  N   UNL     1      41.595 133.443  13.960  1.00  0.00    -0.398 N 
ATOM     26  H   UNL     1      42.308 132.954  14.539  1.00  0.00     0.156 HD
ATOM     27  H   UNL     1      41.363 133.006  13.041  1.00  0.00     0.156 HD
ENDBRANCH  17  25
ENDBRANCH   6  13
ENDBRANCH   1   3
BRANCH   1  28
ATOM     28  O   UNL     1      46.481 131.113  14.766  1.00  0.00    -0.442 OA
BRANCH  28  29
ATOM     29  C   UNL     1      47.303 129.956  14.910  1.00  0.00     0.308 C 
BRANCH  29  30
ATOM     30  C   UNL     1      47.760 129.446  13.546  1.00  0.00     0.379 C 
ATOM     31  F   UNL     1      47.248 130.252  12.545  1.00  0.00    -0.207 F 
ATOM     32  F   UNL     1      49.141 129.467  13.482  1.00  0.00    -0.207 F 
ENDBRANCH  29  30
ENDBRANCH  28  29
ENDBRANCH   1  28
TORSDOF 7
ENDMDL
MODEL 9
REMARK VINA RESULT:      -7.2      2.402      3.219
REMARK SMILES C[C@H](Cl)[C@@H]1[C@H](C)N(C(=O)OCC(F)F)NN1c1ccc2c3c(ccc(N)c13)CC2
REMARK SMILES IDX 8 1 9 2 7 3 4 4 5 5 16 6 15 7 6 8 2 10 1 11 3 12 17 13 18 14
REMARK SMILES IDX 27 15 19 16 25 17 21 18 20 19 24 20 22 21 29 22 23 23 28 24
REMARK SMILES IDX 26 25 10 28 11 29 12 30 13 31 14 32
REMARK H PARENT 15 9 26 26 26 27
ROOT
ATOM      1  C   UNL     1      44.592 130.392  15.933  1.00  0.00     0.426 C 
ATOM      2  O   UNL     1      45.208 129.690  16.781  1.00  0.00    -0.223 OA
ENDROOT
BRANCH   1   3
ATOM      3  N   UNL     1      44.024 131.652  16.317  1.00  0.00    -0.220 N 
ATOM      4  C   UNL     1      43.717 133.686  17.413  1.00  0.00     0.144 C 
ATOM      5  C   UNL     1      44.803 132.797  16.775  1.00  0.00     0.131 C 
ATOM      6  N   UNL     1      42.475 133.148  16.852  1.00  0.00    -0.283 N 
ATOM      7  N   UNL     1      42.635 131.859  16.313  1.00  0.00    -0.139 NA
ATOM      8  C   UNL     1      45.559 133.390  15.579  1.00  0.00     0.035 C 
ATOM      9  H   UNL     1      42.219 131.183  16.996  1.00  0.00     0.175 HD
BRANCH   4  10
ATOM     10  C   UNL     1      43.823 135.240  17.363  1.00  0.00     0.104 C 
ATOM     11  C   UNL     1      43.292 136.008  18.578  1.00  0.00     0.027 C 
ATOM     12  Cl  UNL     1      43.125 135.889  15.851  1.00  0.00    -0.121 Cl
ENDBRANCH   4  10
BRANCH   6  13
ATOM     13  C   UNL     1      41.159 133.651  17.147  1.00  0.00     0.064 A 
ATOM     14  C   UNL     1      40.757 133.757  18.508  1.00  0.00     0.028 A 
ATOM     15  C   UNL     1      40.205 133.935  16.116  1.00  0.00     0.030 A 
ATOM     16  C   UNL     1      39.446 134.113  18.859  1.00  0.00     0.006 A 
ATOM     17  C   UNL     1      40.422 133.923  14.699  1.00  0.00     0.042 A 
ATOM     18  C   UNL     1      38.907 134.250  16.539  1.00  0.00    -0.008 A 
ATOM     19  C   UNL     1      38.528 134.347  17.842  1.00  0.00    -0.039 A 
ATOM     20  C   UNL     1      39.322 134.134  13.827  1.00  0.00     0.026 A 
ATOM     21  C   UNL     1      37.861 134.482  15.700  1.00  0.00    -0.039 A 
ATOM     22  C   UNL     1      37.077 134.690  17.951  1.00  0.00     0.041 C 
ATOM     23  C   UNL     1      38.038 134.413  14.323  1.00  0.00     0.006 A 
ATOM     24  C   UNL     1      36.615 134.779  16.472  1.00  0.00     0.041 C 
BRANCH  17  25
ATOM     25  N   UNL     1      41.719 133.782  14.107  1.00  0.00    -0.398 N 
ATOM     26  H   UNL     1      41.847 133.643  13.084  1.00  0.00     0.156 HD
ATOM     27  H   UNL     1      42.553 133.605  14.709  1.00  0.00     0.156 HD
ENDBRANCH  17  25
ENDBRANCH   6  13
ENDBRANCH   1   3
BRANCH   1  28
ATOM     28  O   UNL     1      44.454 129.949  14.612  1.00  0.00    -0.442 OA
BRANCH  28  29
ATOM     29  C   UNL     1      44.876 130.706  13.480  1.00  0.00     0.308 C 
BRANCH  29  30
ATOM     30  C   UNL     1      46.309 130.347  13.094  1.00  0.00     0.379 C 
ATOM     31  F   UNL     1      46.541 130.686  11.773  1.00  0.00    -0.207 F 
ATOM     32  F   UNL     1      47.193 131.038  13.901  1.00  0.00    -0.207 F 
ENDBRANCH  29  30
ENDBRANCH  28  29
ENDBRANCH   1  28
TORSDOF 7
ENDMDL


