REMARK SMILES [N-]=[N+]=NC(=O)c1cc2ccccc2cc1OC(=O)[C@]1(N=[N+]=[N-])C[C@@H](CO)C1
REMARK SMILES IDX 16 1 17 2 18 3 19 4 24 5 27 6 23 7 25 8 26 9 20 11 21 12
REMARK SMILES IDX 22 13 15 14 6 15 14 16 7 17 13 18 8 19 12 20 9 21 11 22
REMARK SMILES IDX 10 23 4 24 5 25 3 26 2 27 1 28
REMARK H PARENT 26 10
ROOT
ATOM      1  O   UNL     1       0.289  -0.687  -0.060  1.00  0.00    -0.425 OA
ENDROOT
BRANCH   1   2
ATOM      2  C   UNL     1       1.146  -0.366   1.001  1.00  0.00     0.323 C 
ATOM      3  O   UNL     1       0.688  -0.172   2.160  1.00  0.00    -0.251 OA
BRANCH   2   4
ATOM      4  C   UNL     1       2.638  -0.396   0.785  1.00  0.00     0.147 C 
ATOM      5  C   UNL     1       3.862   1.246   0.087  1.00  0.00     0.017 C 
ATOM      6  C   UNL     1       3.099   0.105  -0.590  1.00  0.00     0.031 C 
ATOM      7  C   UNL     1       3.391   0.757   1.457  1.00  0.00     0.031 C 
BRANCH   5   8
ATOM      8  C   UNL     1       5.383   1.170  -0.100  1.00  0.00     0.159 C 
BRANCH   8   9
ATOM      9  O   UNL     1       5.707   1.483  -1.425  1.00  0.00    -0.396 OA
ATOM     10  H   UNL     1       6.696   1.423  -1.487  1.00  0.00     0.210 HD
ENDBRANCH   8   9
ENDBRANCH   5   8
BRANCH   4  11
ATOM     11  N   UNL     1       3.217  -1.692   1.133  1.00  0.00    -0.075 NA
BRANCH  11  12
ATOM     12  N   UNL     1       2.894  -2.718   0.532  1.00  0.00     0.002 N 
ATOM     13  N   UNL     1       2.572  -3.742  -0.069  1.00  0.00    -0.003 NA
ENDBRANCH  11  12
ENDBRANCH   4  11
ENDBRANCH   2   4
ENDBRANCH   1   2
BRANCH   1  14
ATOM     14  C   UNL     1      -1.093  -0.439  -0.089  1.00  0.00     0.142 A 
ATOM     15  C   UNL     1      -1.927  -1.282  -0.853  1.00  0.00     0.068 A 
ATOM     16  C   UNL     1      -1.650   0.667   0.582  1.00  0.00     0.056 A 
ATOM     17  C   UNL     1      -3.310  -1.038  -0.897  1.00  0.00     0.024 A 
ATOM     18  C   UNL     1      -3.027   0.916   0.525  1.00  0.00    -0.015 A 
ATOM     19  C   UNL     1      -3.865   0.053  -0.217  1.00  0.00    -0.017 A 
ATOM     20  C   UNL     1      -3.584   2.016   1.198  1.00  0.00     0.009 A 
ATOM     21  C   UNL     1      -5.247   0.300  -0.268  1.00  0.00     0.009 A 
ATOM     22  C   UNL     1      -4.960   2.252   1.138  1.00  0.00     0.001 A 
ATOM     23  C   UNL     1      -5.789   1.397   0.408  1.00  0.00     0.001 A 
BRANCH  15  24
ATOM     24  C   UNL     1      -1.362  -2.453  -1.567  1.00  0.00     0.252 C 
ATOM     25  O   UNL     1      -0.513  -3.179  -0.986  1.00  0.00    -0.287 OA
BRANCH  24  26
ATOM     26  N   UNL     1      -1.750  -2.789  -2.905  1.00  0.00    -0.017 NA
BRANCH  26  27
ATOM     27  N   UNL     1      -2.413  -2.025  -3.608  1.00  0.00     0.009 N 
ATOM     28  N   UNL     1      -3.074  -1.262  -4.311  1.00  0.00    -0.003 NA
ENDBRANCH  26  27
ENDBRANCH  24  26
ENDBRANCH  15  24
ENDBRANCH   1  14
TORSDOF 10


