REMARK SMILES C#CCO[C@@]1(O)O[C@@H]1[C@H]1CC[C@@H]2C(=O)N(O)C(=O)c3ccc(N=[N+]=[N-])c1c32
REMARK SMILES IDX 5 1 7 2 8 3 4 4 3 5 2 6 1 7 6 8 9 10 26 11 10 12 22 13 27 14
REMARK SMILES IDX 11 15 21 16 19 17 12 18 20 19 17 20 13 21 15 22 18 23 14 24
REMARK SMILES IDX 23 25 24 26 25 27 16 28
REMARK H PARENT 6 9 16 29
ROOT
ATOM      1  C   UNL     1       0.959  -2.321   0.709  1.00  0.00     0.310 C 
ATOM      2  O   UNL     1       0.545  -1.919   1.991  1.00  0.00    -0.313 OA
ATOM      3  C   UNL     1       0.578  -0.911   1.001  1.00  0.00     0.222 C 
ENDROOT
BRANCH   1   4
ATOM      4  O   UNL     1       2.322  -2.687   0.717  1.00  0.00    -0.312 OA
BRANCH   4   5
ATOM      5  C   UNL     1       2.841  -2.608  -0.594  1.00  0.00     0.255 C 
BRANCH   5   6
ATOM      6  C   UNL     1       3.208  -1.225  -0.927  1.00  0.00    -0.078 C 
ATOM      7  C   UNL     1       3.501  -0.088  -1.203  1.00  0.00     0.006 C 
ENDBRANCH   5   6
ENDBRANCH   4   5
ENDBRANCH   1   4
BRANCH   1   8
ATOM      8  O   UNL     1       0.041  -3.220   0.148  1.00  0.00    -0.341 OA
ATOM      9  H   UNL     1       0.183  -4.079   0.622  1.00  0.00     0.216 HD
ENDBRANCH   1   8
BRANCH   3  10
ATOM     10  C   UNL     1      -0.846  -0.415   0.656  1.00  0.00     0.058 C 
ATOM     11  C   UNL     1      -0.761   0.652  -0.443  1.00  0.00    -0.028 A 
ATOM     12  C   UNL     1      -1.540   0.051   1.962  1.00  0.00     0.012 C 
ATOM     13  C   UNL     1      -0.274   0.291  -1.724  1.00  0.00     0.041 A 
ATOM     14  C   UNL     1      -1.212   1.985  -0.224  1.00  0.00    -0.019 A 
ATOM     15  C   UNL     1      -2.525   1.192   1.740  1.00  0.00     0.019 C 
ATOM     16  C   UNL     1      -0.134   1.270  -2.720  1.00  0.00     0.011 A 
ATOM     17  C   UNL     1      -1.081   2.947  -1.253  1.00  0.00     0.047 A 
ATOM     18  C   UNL     1      -1.776   2.384   1.131  1.00  0.00     0.112 C 
ATOM     19  C   UNL     1      -0.520   2.582  -2.482  1.00  0.00     0.015 A 
ATOM     20  C   UNL     1      -1.599   4.316  -1.058  1.00  0.00     0.284 C 
ATOM     21  C   UNL     1      -2.658   3.613   1.069  1.00  0.00     0.261 C 
ATOM     22  N   UNL     1      -2.447   4.601   0.055  1.00  0.00    -0.151 N 
ATOM     23  O   UNL     1      -1.332   5.228  -1.888  1.00  0.00    -0.266 OA
ATOM     24  O   UNL     1      -3.507   3.830   1.975  1.00  0.00    -0.271 OA
BRANCH  13  25
ATOM     25  N   UNL     1       0.049  -1.080  -2.004  1.00  0.00    -0.060 NA
BRANCH  25  26
ATOM     26  N   UNL     1       0.460  -1.456  -3.103  1.00  0.00     0.005 N 
ATOM     27  N   UNL     1       0.872  -1.833  -4.199  1.00  0.00    -0.003 NA
ENDBRANCH  25  26
ENDBRANCH  13  25
BRANCH  22  28
ATOM     28  O   UNL     1      -3.051   5.811   0.154  1.00  0.00    -0.278 OA
ATOM     29  H   UNL     1      -3.918   5.705  -0.315  1.00  0.00     0.247 HD
ENDBRANCH  22  28
ENDBRANCH   3  10
TORSDOF 8


