REMARK SMILES CC/C=C(\[O-])OC1=NC(=O)c2ccc(-n3cc(CCc4ccc(F)cc4C)nn3)c3cccc1c23
REMARK SMILES IDX 7 1 8 2 9 3 10 4 11 5 12 6 13 7 14 8 30 9 31 10 32 11 33 12
REMARK SMILES IDX 34 13 35 14 6 15 4 16 5 17 3 18 2 19 1 20 15 21 29 22 16 23
REMARK SMILES IDX 28 24 17 25 18 26 19 27 20 28 21 29 26 30 22 31 25 32 23 33
REMARK SMILES IDX 27 34 24 35
REMARK H PARENT
ROOT
ATOM      1  C   UNL     1       0.584   3.878   1.344  1.00  0.00     0.116 C 
ATOM      2  N   UNL     1       1.023   4.224   2.521  1.00  0.00    -0.201 NA
ATOM      3  C   UNL     1       1.059   3.313   3.624  1.00  0.00     0.278 C 
ATOM      4  O   UNL     1       1.489   3.705   4.742  1.00  0.00    -0.267 OA
ATOM      5  C   UNL     1       0.591   1.926   3.431  1.00  0.00     0.050 A 
ATOM      6  C   UNL     1       0.596   0.998   4.480  1.00  0.00     0.017 A 
ATOM      7  C   UNL     1       0.160  -0.309   4.264  1.00  0.00     0.030 A 
ATOM      8  C   UNL     1      -0.282  -0.721   2.999  1.00  0.00     0.074 A 
ATOM      9  C   UNL     1      -0.334   0.219   1.938  1.00  0.00     0.009 A 
ATOM     10  C   UNL     1      -0.859  -0.115   0.675  1.00  0.00     0.011 A 
ATOM     11  C   UNL     1      -0.884   0.824  -0.356  1.00  0.00     0.001 A 
ATOM     12  C   UNL     1      -0.404   2.116  -0.147  1.00  0.00     0.012 A 
ATOM     13  C   UNL     1       0.094   2.492   1.109  1.00  0.00     0.017 A 
ATOM     14  C   UNL     1       0.121   1.546   2.160  1.00  0.00     0.007 A 
ENDROOT
BRANCH   1  15
ATOM     15  O   UNL     1       0.560   4.800   0.287  1.00  0.00    -0.564 OA
BRANCH  15  16
ATOM     16  C   UNL     1       1.024   6.121   0.345  1.00  0.00     0.053 C 
ATOM     17  O   UNL     1       1.602   6.631   1.506  1.00  0.00    -0.547 OA
BRANCH  16  18
ATOM     18  C   UNL     1       0.907   6.892  -0.738  1.00  0.00    -0.003 C 
BRANCH  18  19
ATOM     19  C   UNL     1       1.390   8.316  -0.754  1.00  0.00     0.026 C 
ATOM     20  C   UNL     1       1.141   8.971  -2.109  1.00  0.00     0.008 C 
ENDBRANCH  18  19
ENDBRANCH  16  18
ENDBRANCH  15  16
ENDBRANCH   1  15
BRANCH   8  21
ATOM     21  N   UNL     1      -0.646  -2.098   2.817  1.00  0.00    -0.220 N 
ATOM     22  N   UNL     1      -1.468  -2.764   3.613  1.00  0.00    -0.062 NA
ATOM     23  C   UNL     1      -0.141  -2.955   1.912  1.00  0.00     0.140 A 
ATOM     24  N   UNL     1      -1.543  -4.035   3.239  1.00  0.00    -0.135 NA
ATOM     25  C   UNL     1      -0.717  -4.176   2.183  1.00  0.00     0.083 A 
BRANCH  25  26
ATOM     26  C   UNL     1      -0.527  -5.446   1.413  1.00  0.00     0.065 C 
BRANCH  26  27
ATOM     27  C   UNL     1      -1.548  -5.583   0.274  1.00  0.00     0.042 C 
BRANCH  27  28
ATOM     28  C   UNL     1      -1.366  -4.518  -0.790  1.00  0.00    -0.044 A 
ATOM     29  C   UNL     1      -0.249  -4.611  -1.640  1.00  0.00     0.007 A 
ATOM     30  C   UNL     1      -2.262  -3.425  -0.944  1.00  0.00    -0.045 A 
ATOM     31  C   UNL     1      -0.016  -3.646  -2.621  1.00  0.00     0.039 A 
ATOM     32  C   UNL     1      -2.017  -2.471  -1.948  1.00  0.00     0.043 A 
ATOM     33  C   UNL     1      -0.898  -2.578  -2.775  1.00  0.00     0.123 A 
ATOM     34  C   UNL     1      -3.479  -3.264  -0.072  1.00  0.00     0.045 C 
ATOM     35  F   UNL     1      -0.669  -1.642  -3.729  1.00  0.00    -0.207 F 
ENDBRANCH  27  28
ENDBRANCH  26  27
ENDBRANCH  25  26
ENDBRANCH   8  21
TORSDOF 8


