REMARK SMILES C[N+]1(C)Cc2cc3ccc(-n4cc(CCn5cc(CN)cn5)n[nH+]4)cc3cc2C1
REMARK SMILES IDX 15 1 14 2 13 3 11 4 12 5 24 6 23 7 10 9 2 10 4 11 29 12 5 13
REMARK SMILES IDX 28 14 6 15 27 16 7 17 26 18 8 19 25 20 9 21 1 22 3 23 16 24
REMARK SMILES IDX 17 25 22 26 18 27 21 28 19 29 20 30
REMARK H PARENT 24 8 20 31 20 32
ROOT
ATOM      1  C   UNL     1      -0.314  -1.958  -5.995  1.00  0.00     0.151 C 
ENDROOT
BRANCH   1   2
ATOM      2  C   UNL     1      -1.573  -2.456  -5.277  1.00  0.00     0.088 C 
BRANCH   2   3
ATOM      3  C   UNL     1      -1.283  -2.799  -3.849  1.00  0.00     0.134 A 
ATOM      4  N   UNL     1      -0.916  -2.626  -1.704  1.00  0.00    -0.104 N 
ATOM      5  C   UNL     1      -1.411  -1.958  -2.764  1.00  0.00     0.190 A 
ATOM      6  N   UNL     1      -0.506  -3.811  -2.137  1.00  0.00    -0.012 N 
ATOM      7  N   UNL     1      -0.703  -3.944  -3.440  1.00  0.00     0.020 NA
ATOM      8  H   UNL     1      -0.039  -4.537  -1.551  1.00  0.00     0.527 HD
BRANCH   4   9
ATOM      9  C   UNL     1      -0.781  -2.139  -0.354  1.00  0.00     0.107 A 
ATOM     10  N   UNL     1      -0.125   2.822   4.763  1.00  0.00    -0.321 N 
ATOM     11  C   UNL     1      -0.019   1.365   5.094  1.00  0.00     0.301 C 
ATOM     12  C   UNL     1      -0.128   2.919   3.268  1.00  0.00     0.301 C 
ATOM     13  C   UNL     1      -0.218   0.650   3.814  1.00  0.00     0.016 A 
ATOM     14  C   UNL     1      -0.280   1.532   2.779  1.00  0.00     0.016 A 
ATOM     15  C   UNL     1      -0.308  -0.727   3.608  1.00  0.00     0.018 A 
ATOM     16  C   UNL     1      -0.437   1.102   1.461  1.00  0.00     0.019 A 
ATOM     17  C   UNL     1      -0.473  -1.202   2.292  1.00  0.00    -0.018 A 
ATOM     18  C   UNL     1      -0.539  -0.280   1.210  1.00  0.00    -0.016 A 
ATOM     19  C   UNL     1      -0.568  -2.575   2.035  1.00  0.00     0.011 A 
ATOM     20  C   UNL     1      -0.698  -0.757  -0.099  1.00  0.00     0.041 A 
ATOM     21  C   UNL     1      -0.720  -3.038   0.726  1.00  0.00     0.033 A 
ATOM     22  C   UNL     1       1.018   3.571   5.333  1.00  0.00     0.334 C 
ATOM     23  C   UNL     1      -1.386   3.376   5.310  1.00  0.00     0.334 C 
ENDBRANCH   4   9
ENDBRANCH   2   3
ENDBRANCH   1   2
BRANCH   1  24
ATOM     24  N   UNL     1       0.207  -0.749  -5.360  1.00  0.00    -0.272 N 
ATOM     25  C   UNL     1       1.234  -0.692  -4.491  1.00  0.00     0.113 A 
ATOM     26  N   UNL     1      -0.338   0.451  -5.500  1.00  0.00    -0.181 NA
ATOM     27  C   UNL     1       1.364   0.615  -4.077  1.00  0.00     0.004 A 
ATOM     28  C   UNL     1       0.356   1.306  -4.722  1.00  0.00     0.140 A 
BRANCH  27  29
ATOM     29  C   UNL     1       2.318   1.150  -3.057  1.00  0.00     0.116 C 
BRANCH  29  30
ATOM     30  N   UNL     1       1.718   1.082  -1.729  1.00  0.00    -0.326 NA
ATOM     31  H   UNL     1       0.950   1.790  -1.681  1.00  0.00     0.119 HD
ATOM     32  H   UNL     1       2.442   1.381  -1.036  1.00  0.00     0.119 HD
ENDBRANCH  29  30
ENDBRANCH  27  29
ENDBRANCH   1  24
TORSDOF 6


