REMARK SMILES C#C/C(=N\[C@H](c1c(C)nnn1-c1c2ccccc2c(C=O)c2ccccc12)C(C)C)OC(=O)C=C
REMARK SMILES IDX 4 1 3 2 2 3 1 4 31 5 32 6 33 7 34 8 35 9 5 10 6 11 7 12
REMARK SMILES IDX 11 13 9 14 10 15 8 16 12 17 13 18 27 19 14 20 18 21 26 22
REMARK SMILES IDX 22 23 15 24 17 25 19 26 25 27 23 28 16 29 24 30 20 31 21 32
REMARK SMILES IDX 28 33 29 34 30 35
REMARK H PARENT
ROOT
ATOM      1  N   UNL     1      -0.496  -0.130   2.389  1.00  0.00    -0.233 NA
ENDROOT
BRANCH   1   2
ATOM      2  C   UNL     1      -1.099  -1.020   3.130  1.00  0.00     0.272 C 
BRANCH   2   3
ATOM      3  C   UNL     1      -2.334  -1.636   2.714  1.00  0.00    -0.011 C 
ATOM      4  C   UNL     1      -3.365  -2.152   2.362  1.00  0.00     0.015 C 
ENDBRANCH   2   3
BRANCH   2   5
ATOM      5  O   UNL     1      -0.563  -1.407   4.366  1.00  0.00    -0.396 OA
BRANCH   5   6
ATOM      6  C   UNL     1       0.706  -1.060   4.849  1.00  0.00     0.337 C 
ATOM      7  O   UNL     1       1.541  -0.462   4.115  1.00  0.00    -0.246 OA
BRANCH   6   8
ATOM      8  C   UNL     1       1.061  -1.433   6.227  1.00  0.00     0.086 C 
ATOM      9  C   UNL     1       2.245  -1.149   6.766  1.00  0.00     0.016 C 
ENDBRANCH   6   8
ENDBRANCH   5   6
ENDBRANCH   2   5
ENDBRANCH   1   2
BRANCH   1  10
ATOM     10  C   UNL     1      -0.952   0.367   1.087  1.00  0.00     0.163 C 
BRANCH  10  11
ATOM     11  C   UNL     1       0.239   0.872   0.284  1.00  0.00     0.092 A 
ATOM     12  C   UNL     1       1.311   1.666   0.687  1.00  0.00     0.086 A 
ATOM     13  N   UNL     1       0.492   0.550  -1.006  1.00  0.00    -0.214 N 
ATOM     14  N   UNL     1       2.145   1.807  -0.363  1.00  0.00    -0.135 NA
ATOM     15  N   UNL     1       1.629   1.119  -1.369  1.00  0.00    -0.062 NA
ATOM     16  C   UNL     1       1.592   2.285   2.021  1.00  0.00     0.071 C 
BRANCH  13  17
ATOM     17  C   UNL     1      -0.266  -0.321  -1.866  1.00  0.00     0.082 A 
ATOM     18  C   UNL     1      -1.016   0.221  -2.933  1.00  0.00     0.009 A 
ATOM     19  C   UNL     1      -0.268  -1.715  -1.637  1.00  0.00     0.009 A 
ATOM     20  C   UNL     1      -0.993   1.608  -3.194  1.00  0.00     0.011 A 
ATOM     21  C   UNL     1      -1.826  -0.625  -3.738  1.00  0.00    -0.005 A 
ATOM     22  C   UNL     1       0.532  -2.278  -0.618  1.00  0.00     0.011 A 
ATOM     23  C   UNL     1      -1.068  -2.570  -2.443  1.00  0.00    -0.005 A 
ATOM     24  C   UNL     1      -1.774   2.157  -4.208  1.00  0.00     0.001 A 
ATOM     25  C   UNL     1      -2.631  -0.034  -4.742  1.00  0.00     0.009 A 
ATOM     26  C   UNL     1      -1.845  -2.026  -3.499  1.00  0.00     0.030 A 
ATOM     27  C   UNL     1       0.524  -3.650  -0.378  1.00  0.00     0.001 A 
ATOM     28  C   UNL     1      -1.045  -3.962  -2.185  1.00  0.00     0.009 A 
ATOM     29  C   UNL     1      -2.596   1.340  -4.974  1.00  0.00     0.001 A 
ATOM     30  C   UNL     1      -0.263  -4.489  -1.158  1.00  0.00     0.001 A 
BRANCH  26  31
ATOM     31  C   UNL     1      -2.658  -2.928  -4.351  1.00  0.00     0.261 C 
ATOM     32  O   UNL     1      -2.524  -2.925  -5.604  1.00  0.00    -0.298 OA
ENDBRANCH  26  31
ENDBRANCH  13  17
ENDBRANCH  10  11
BRANCH  10  33
ATOM     33  C   UNL     1      -2.106   1.401   1.240  1.00  0.00     0.014 C 
ATOM     34  C   UNL     1      -2.672   1.826  -0.121  1.00  0.00     0.010 C 
ATOM     35  C   UNL     1      -1.731   2.637   2.066  1.00  0.00     0.010 C 
ENDBRANCH  10  33
ENDBRANCH   1  10
TORSDOF 10


