REMARK SMILES [N-]=[N+]=Nc1c(Cl)c(Cl)c(OC(=O)[C@]2([NH3+])C[C@H](CO)C2)ccccc(O)c1NC1(CF)COC1
REMARK SMILES IDX 10 1 9 2 24 3 23 4 26 5 22 6 4 7 21 8 5 9 20 10 7 11 6 12
REMARK SMILES IDX 8 13 25 14 27 16 28 18 31 19 33 20 32 21 29 22 30 23 3 24
REMARK SMILES IDX 2 25 1 26 11 27 12 28 13 29 15 30 19 31 16 32 14 33 17 37
REMARK SMILES IDX 18 38
REMARK H PARENT 25 15 27 17 14 34 14 35 14 36 18 39
ROOT
ATOM      1  O   UNL     1      -0.345   0.630   1.091  1.00  0.00    -0.420 OA
ENDROOT
BRANCH   1   2
ATOM      2  C   UNL     1      -1.576   0.086   0.684  1.00  0.00     0.151 A 
ATOM      3  C   UNL     1      -2.338  -3.462  -0.552  1.00  0.00     0.139 A 
ATOM      4  C   UNL     1      -3.311  -3.657   0.453  1.00  0.00     0.048 A 
ATOM      5  C   UNL     1      -2.153  -2.244  -1.255  1.00  0.00     0.088 A 
ATOM      6  C   UNL     1      -3.945  -2.651   1.208  1.00  0.00     0.004 A 
ATOM      7  C   UNL     1      -3.228  -1.359  -1.483  1.00  0.00     0.085 A 
ATOM      8  C   UNL     1      -3.458  -1.351   1.368  1.00  0.00     0.004 A 
ATOM      9  C   UNL     1      -3.097   0.048  -1.334  1.00  0.00     0.075 A 
ATOM     10  C   UNL     1      -2.094  -1.054   1.322  1.00  0.00     0.049 A 
ATOM     11  C   UNL     1      -2.194   0.688  -0.438  1.00  0.00     0.102 A 
ATOM     12  Cl  UNL     1      -4.078   1.077  -2.385  1.00  0.00    -0.082 Cl
ATOM     13  Cl  UNL     1      -1.740   2.363  -0.765  1.00  0.00    -0.079 Cl
BRANCH   3  14
ATOM     14  O   UNL     1      -1.517  -4.550  -0.852  1.00  0.00    -0.506 OA
ATOM     15  H   UNL     1      -0.824  -4.518  -1.589  1.00  0.00     0.293 HD
ENDBRANCH   3  14
BRANCH   5  16
ATOM     16  N   UNL     1      -0.830  -1.921  -1.718  1.00  0.00    -0.369 N 
ATOM     17  H   UNL     1      -0.037  -2.141  -1.074  1.00  0.00     0.161 HD
BRANCH  16  18
ATOM     18  C   UNL     1      -0.496  -1.536  -3.099  1.00  0.00     0.113 C 
ATOM     19  C   UNL     1      -1.340  -2.199  -4.177  1.00  0.00     0.193 C 
ATOM     20  C   UNL     1       0.600  -2.415  -3.679  1.00  0.00     0.193 C 
ATOM     21  O   UNL     1      -0.256  -2.960  -4.654  1.00  0.00    -0.376 OA
BRANCH  18  22
ATOM     22  C   UNL     1      -0.259  -0.026  -3.275  1.00  0.00     0.247 C 
ATOM     23  F   UNL     1       0.238   0.269  -4.534  1.00  0.00    -0.248 F 
ENDBRANCH  18  22
ENDBRANCH  16  18
ENDBRANCH   5  16
BRANCH   7  24
ATOM     24  N   UNL     1      -4.491  -1.948  -1.841  1.00  0.00    -0.057 NA
BRANCH  24  25
ATOM     25  N   UNL     1      -5.570  -1.387  -1.641  1.00  0.00     0.005 N 
ATOM     26  N   UNL     1      -6.649  -0.832  -1.439  1.00  0.00    -0.003 NA
ENDBRANCH  24  25
ENDBRANCH   7  24
ENDBRANCH   1   2
BRANCH   1  27
ATOM     27  C   UNL     1       0.285   0.444   2.332  1.00  0.00     0.373 C 
ATOM     28  O   UNL     1      -0.315  -0.129   3.282  1.00  0.00    -0.244 OA
BRANCH  27  29
ATOM     29  C   UNL     1       1.692   0.957   2.557  1.00  0.00     0.194 C 
ATOM     30  C   UNL     1       2.748  -0.157   2.486  1.00  0.00     0.087 C 
ATOM     31  C   UNL     1       2.349   1.653   1.350  1.00  0.00     0.087 C 
ATOM     32  C   UNL     1       3.416   0.557   1.307  1.00  0.00     0.028 C 
BRANCH  29  33
ATOM     33  N   UNL     1       1.800   1.757   3.788  1.00  0.00    -0.343 N 
ATOM     34  H   UNL     1       1.538   1.176   4.617  1.00  0.00     0.345 HD
ATOM     35  H   UNL     1       1.155   2.578   3.729  1.00  0.00     0.345 HD
ATOM     36  H   UNL     1       2.776   2.107   3.926  1.00  0.00     0.345 HD
ENDBRANCH  29  33
BRANCH  32  37
ATOM     37  C   UNL     1       3.453  -0.253   0.000  1.00  0.00     0.160 C 
BRANCH  37  38
ATOM     38  O   UNL     1       2.182  -0.735  -0.339  1.00  0.00    -0.396 OA
ATOM     39  H   UNL     1       2.294  -1.220  -1.198  1.00  0.00     0.210 HD
ENDBRANCH  37  38
ENDBRANCH  32  37
ENDBRANCH  27  29
ENDBRANCH   1  27
TORSDOF 12


