MODEL 1
REMARK VINA RESULT:      -6.4      0.000      0.000
REMARK SMILES C=CC[C@](C)(CC)Oc1cc2nc(Cn3nnc(C)c3-c3nnc([C@@H]4C[C@@H]4C)o3)[n-]c2cc1C#N
REMARK SMILES IDX 9 1 10 2 11 3 12 4 13 5 30 6 31 7 32 8 33 9 8 10 4 11 5 12
REMARK SMILES IDX 3 13 2 14 1 15 6 16 7 17 34 18 35 19 14 20 15 21 16 22 20 23
REMARK SMILES IDX 17 24 18 25 19 26 21 27 22 28 29 29 23 30 24 31 25 32 26 33
REMARK SMILES IDX 27 34 28 35
REMARK H PARENT
ROOT
ATOM      1  C   UNL     1      43.447 132.642  16.694  1.00  0.00     0.138 A 
ATOM      2  C   UNL     1      43.842 133.362  17.842  1.00  0.00     0.051 A 
ATOM      3  C   UNL     1      43.352 134.653  18.002  1.00  0.00    -0.035 A 
ATOM      4  N   UNL     1      43.572 135.490  19.023  1.00  0.00    -0.438 NA
ATOM      5  C   UNL     1      42.845 136.583  18.672  1.00  0.00    -0.060 A 
ATOM      6  N   UNL     1      42.179 136.463  17.493  1.00  0.00    -0.438 NA
ATOM      7  C   UNL     1      42.527 135.231  17.090  1.00  0.00    -0.037 A 
ATOM      8  C   UNL     1      42.139 134.574  15.927  1.00  0.00     0.027 A 
ATOM      9  C   UNL     1      42.617 133.263  15.721  1.00  0.00     0.094 A 
ENDROOT
BRANCH   1  10
ATOM     10  O   UNL     1      43.897 131.329  16.494  1.00  0.00    -0.486 OA
BRANCH  10  11
ATOM     11  C   UNL     1      45.208 130.973  16.019  1.00  0.00     0.109 C 
ATOM     12  C   UNL     1      45.900 132.223  15.434  1.00  0.00     0.057 C 
BRANCH  11  13
ATOM     13  C   UNL     1      45.017 129.942  14.875  1.00  0.00     0.075 C 
BRANCH  13  14
ATOM     14  C   UNL     1      45.261 130.524  13.504  1.00  0.00    -0.031 C 
ATOM     15  C   UNL     1      46.442 130.410  12.887  1.00  0.00     0.004 C 
ENDBRANCH  13  14
ENDBRANCH  11  13
BRANCH  11  16
ATOM     16  C   UNL     1      46.045 130.385  17.199  1.00  0.00     0.045 C 
ATOM     17  C   UNL     1      45.473 130.640  18.597  1.00  0.00     0.008 C 
ENDBRANCH  11  16
ENDBRANCH  10  11
ENDBRANCH   1  10
BRANCH   9  18
ATOM     18  C   UNL     1      42.253 132.562  14.517  1.00  0.00     0.103 C 
ATOM     19  N   UNL     1      41.960 131.998  13.550  1.00  0.00    -0.192 NA
ENDBRANCH   9  18
BRANCH   5  20
ATOM     20  C   UNL     1      42.714 137.781  19.559  1.00  0.00     0.173 C 
BRANCH  20  21
ATOM     21  N   UNL     1      44.039 138.246  19.969  1.00  0.00    -0.236 N 
ATOM     22  N   UNL     1      44.602 139.343  19.485  1.00  0.00    -0.066 NA
ATOM     23  C   UNL     1      44.813 137.794  20.980  1.00  0.00     0.149 A 
ATOM     24  N   UNL     1      45.726 139.618  20.131  1.00  0.00    -0.135 NA
ATOM     25  C   UNL     1      45.880 138.666  21.072  1.00  0.00     0.093 A 
ATOM     26  C   UNL     1      46.996 138.638  22.064  1.00  0.00     0.071 C 
BRANCH  23  27
ATOM     27  C   UNL     1      44.526 136.653  21.871  1.00  0.00     0.267 A 
ATOM     28  N   UNL     1      43.611 136.664  22.860  1.00  0.00    -0.106 NA
ATOM     29  O   UNL     1      45.140 135.496  21.808  1.00  0.00    -0.419 OA
ATOM     30  N   UNL     1      43.669 135.474  23.437  1.00  0.00    -0.112 NA
ATOM     31  C   UNL     1      44.620 134.785  22.778  1.00  0.00     0.220 A 
BRANCH  31  32
ATOM     32  C   UNL     1      45.023 133.379  23.102  1.00  0.00     0.081 C 
ATOM     33  C   UNL     1      45.729 132.647  21.963  1.00  0.00     0.017 C 
ATOM     34  C   UNL     1      44.310 132.251  22.353  1.00  0.00    -0.001 C 
ATOM     35  C   UNL     1      43.238 132.610  21.314  1.00  0.00     0.008 C 
ENDBRANCH  31  32
ENDBRANCH  23  27
ENDBRANCH  20  21
ENDBRANCH   5  20
TORSDOF 10
ENDMDL
MODEL 2
REMARK VINA RESULT:      -6.3      2.470      4.378
REMARK SMILES C=CC[C@](C)(CC)Oc1cc2nc(Cn3nnc(C)c3-c3nnc([C@@H]4C[C@@H]4C)o3)[n-]c2cc1C#N
REMARK SMILES IDX 9 1 10 2 11 3 12 4 13 5 30 6 31 7 32 8 33 9 8 10 4 11 5 12
REMARK SMILES IDX 3 13 2 14 1 15 6 16 7 17 34 18 35 19 14 20 15 21 16 22 20 23
REMARK SMILES IDX 17 24 18 25 19 26 21 27 22 28 29 29 23 30 24 31 25 32 26 33
REMARK SMILES IDX 27 34 28 35
REMARK H PARENT
ROOT
ATOM      1  C   UNL     1      44.685 130.895  16.593  1.00  0.00     0.138 A 
ATOM      2  C   UNL     1      45.411 130.649  17.778  1.00  0.00     0.051 A 
ATOM      3  C   UNL     1      45.001 131.293  18.939  1.00  0.00    -0.035 A 
ATOM      4  N   UNL     1      45.524 131.178  20.166  1.00  0.00    -0.438 NA
ATOM      5  C   UNL     1      44.732 132.000  20.903  1.00  0.00    -0.060 A 
ATOM      6  N   UNL     1      43.742 132.611  20.200  1.00  0.00    -0.438 NA
ATOM      7  C   UNL     1      43.944 132.148  18.957  1.00  0.00    -0.037 A 
ATOM      8  C   UNL     1      43.220 132.448  17.808  1.00  0.00     0.027 A 
ATOM      9  C   UNL     1      43.605 131.820  16.605  1.00  0.00     0.094 A 
ENDROOT
BRANCH   1  10
ATOM     10  O   UNL     1      45.044 130.255  15.398  1.00  0.00    -0.486 OA
BRANCH  10  11
ATOM     11  C   UNL     1      46.246 130.523  14.652  1.00  0.00     0.109 C 
ATOM     12  C   UNL     1      46.628 132.010  14.809  1.00  0.00     0.057 C 
BRANCH  11  13
ATOM     13  C   UNL     1      45.926 130.258  13.157  1.00  0.00     0.075 C 
BRANCH  13  14
ATOM     14  C   UNL     1      46.881 130.947  12.214  1.00  0.00    -0.031 C 
ATOM     15  C   UNL     1      47.440 130.309  11.180  1.00  0.00     0.004 C 
ENDBRANCH  13  14
ENDBRANCH  11  13
BRANCH  11  16
ATOM     16  C   UNL     1      47.395 129.604  15.174  1.00  0.00     0.045 C 
ATOM     17  C   UNL     1      48.603 129.475  14.240  1.00  0.00     0.008 C 
ENDBRANCH  11  16
ENDBRANCH  10  11
ENDBRANCH   1  10
BRANCH   9  18
ATOM     18  C   UNL     1      42.891 132.125  15.392  1.00  0.00     0.103 C 
ATOM     19  N   UNL     1      42.317 132.370  14.417  1.00  0.00    -0.192 NA
ENDBRANCH   9  18
BRANCH   5  20
ATOM     20  C   UNL     1      44.883 132.145  22.386  1.00  0.00     0.173 C 
BRANCH  20  21
ATOM     21  N   UNL     1      43.740 132.874  22.934  1.00  0.00    -0.236 N 
ATOM     22  N   UNL     1      42.599 132.287  23.265  1.00  0.00    -0.066 NA
ATOM     23  C   UNL     1      43.686 134.155  23.360  1.00  0.00     0.149 A 
ATOM     24  N   UNL     1      41.792 133.141  23.878  1.00  0.00    -0.135 NA
ATOM     25  C   UNL     1      42.447 134.316  23.951  1.00  0.00     0.093 A 
ATOM     26  C   UNL     1      41.911 135.537  24.624  1.00  0.00     0.071 C 
BRANCH  23  27
ATOM     27  C   UNL     1      44.769 135.155  23.292  1.00  0.00     0.267 A 
ATOM     28  N   UNL     1      45.591 135.465  24.313  1.00  0.00    -0.106 NA
ATOM     29  O   UNL     1      45.048 135.868  22.228  1.00  0.00    -0.419 OA
ATOM     30  N   UNL     1      46.401 136.412  23.868  1.00  0.00    -0.112 NA
ATOM     31  C   UNL     1      46.038 136.644  22.592  1.00  0.00     0.220 A 
BRANCH  31  32
ATOM     32  C   UNL     1      46.694 137.651  21.698  1.00  0.00     0.081 C 
ATOM     33  C   UNL     1      46.697 137.273  20.218  1.00  0.00     0.017 C 
ATOM     34  C   UNL     1      47.999 137.241  21.010  1.00  0.00    -0.001 C 
ATOM     35  C   UNL     1      48.560 135.834  21.261  1.00  0.00     0.008 C 
ENDBRANCH  31  32
ENDBRANCH  23  27
ENDBRANCH  20  21
ENDBRANCH   5  20
TORSDOF 10
ENDMDL
MODEL 3
REMARK VINA RESULT:      -6.2      2.585      5.281
REMARK SMILES C=CC[C@](C)(CC)Oc1cc2nc(Cn3nnc(C)c3-c3nnc([C@@H]4C[C@@H]4C)o3)[n-]c2cc1C#N
REMARK SMILES IDX 9 1 10 2 11 3 12 4 13 5 30 6 31 7 32 8 33 9 8 10 4 11 5 12
REMARK SMILES IDX 3 13 2 14 1 15 6 16 7 17 34 18 35 19 14 20 15 21 16 22 20 23
REMARK SMILES IDX 17 24 18 25 19 26 21 27 22 28 29 29 23 30 24 31 25 32 26 33
REMARK SMILES IDX 27 34 28 35
REMARK H PARENT
ROOT
ATOM      1  C   UNL     1      44.497 131.293  17.577  1.00  0.00     0.138 A 
ATOM      2  C   UNL     1      43.431 131.649  16.723  1.00  0.00     0.051 A 
ATOM      3  C   UNL     1      42.430 132.465  17.236  1.00  0.00    -0.035 A 
ATOM      4  N   UNL     1      41.356 132.943  16.595  1.00  0.00    -0.438 NA
ATOM      5  C   UNL     1      40.743 133.684  17.555  1.00  0.00    -0.060 A 
ATOM      6  N   UNL     1      41.385 133.697  18.753  1.00  0.00    -0.438 NA
ATOM      7  C   UNL     1      42.446 132.909  18.521  1.00  0.00    -0.037 A 
ATOM      8  C   UNL     1      43.457 132.557  19.409  1.00  0.00     0.027 A 
ATOM      9  C   UNL     1      44.492 131.725  18.932  1.00  0.00     0.094 A 
ENDROOT
BRANCH   1  10
ATOM     10  O   UNL     1      45.544 130.489  17.104  1.00  0.00    -0.486 OA
BRANCH  10  11
ATOM     11  C   UNL     1      45.749 130.137  15.723  1.00  0.00     0.109 C 
ATOM     12  C   UNL     1      44.931 128.872  15.387  1.00  0.00     0.057 C 
BRANCH  11  13
ATOM     13  C   UNL     1      47.256 129.802  15.556  1.00  0.00     0.075 C 
BRANCH  13  14
ATOM     14  C   UNL     1      47.578 129.165  14.226  1.00  0.00    -0.031 C 
ATOM     15  C   UNL     1      48.550 129.632  13.435  1.00  0.00     0.004 C 
ENDBRANCH  13  14
ENDBRANCH  11  13
BRANCH  11  16
ATOM     16  C   UNL     1      45.314 131.329  14.814  1.00  0.00     0.045 C 
ATOM     17  C   UNL     1      46.186 132.584  14.919  1.00  0.00     0.008 C 
ENDBRANCH  11  16
ENDBRANCH  10  11
ENDBRANCH   1  10
BRANCH   9  18
ATOM     18  C   UNL     1      45.542 131.323  19.831  1.00  0.00     0.103 C 
ATOM     19  N   UNL     1      46.387 130.999  20.554  1.00  0.00    -0.192 NA
ENDBRANCH   9  18
BRANCH   5  20
ATOM     20  C   UNL     1      39.514 134.493  17.284  1.00  0.00     0.173 C 
BRANCH  20  21
ATOM     21  N   UNL     1      39.790 135.490  16.250  1.00  0.00    -0.236 N 
ATOM     22  N   UNL     1      39.036 135.641  15.171  1.00  0.00    -0.066 NA
ATOM     23  C   UNL     1      40.686 136.502  16.275  1.00  0.00     0.149 A 
ATOM     24  N   UNL     1      39.413 136.706  14.480  1.00  0.00    -0.135 NA
ATOM     25  C   UNL     1      40.442 137.263  15.148  1.00  0.00     0.093 A 
ATOM     26  C   UNL     1      41.127 138.525  14.737  1.00  0.00     0.071 C 
BRANCH  23  27
ATOM     27  C   UNL     1      41.663 136.790  17.342  1.00  0.00     0.267 A 
ATOM     28  N   UNL     1      41.350 137.282  18.556  1.00  0.00    -0.106 NA
ATOM     29  O   UNL     1      42.957 136.612  17.224  1.00  0.00    -0.419 OA
ATOM     30  N   UNL     1      42.492 137.421  19.210  1.00  0.00    -0.112 NA
ATOM     31  C   UNL     1      43.458 137.013  18.366  1.00  0.00     0.220 A 
BRANCH  31  32
ATOM     32  C   UNL     1      44.919 137.003  18.695  1.00  0.00     0.081 C 
ATOM     33  C   UNL     1      45.272 137.680  20.018  1.00  0.00     0.017 C 
ATOM     34  C   UNL     1      45.650 138.349  18.701  1.00  0.00    -0.001 C 
ATOM     35  C   UNL     1      44.858 139.625  18.382  1.00  0.00     0.008 C 
ENDBRANCH  31  32
ENDBRANCH  23  27
ENDBRANCH  20  21
ENDBRANCH   5  20
TORSDOF 10
ENDMDL
MODEL 4
REMARK VINA RESULT:      -6.0      1.923      4.328
REMARK SMILES C=CC[C@](C)(CC)Oc1cc2nc(Cn3nnc(C)c3-c3nnc([C@@H]4C[C@@H]4C)o3)[n-]c2cc1C#N
REMARK SMILES IDX 9 1 10 2 11 3 12 4 13 5 30 6 31 7 32 8 33 9 8 10 4 11 5 12
REMARK SMILES IDX 3 13 2 14 1 15 6 16 7 17 34 18 35 19 14 20 15 21 16 22 20 23
REMARK SMILES IDX 17 24 18 25 19 26 21 27 22 28 29 29 23 30 24 31 25 32 26 33
REMARK SMILES IDX 27 34 28 35
REMARK H PARENT
ROOT
ATOM      1  C   UNL     1      44.485 131.048  16.244  1.00  0.00     0.138 A 
ATOM      2  C   UNL     1      45.211 130.813  17.431  1.00  0.00     0.051 A 
ATOM      3  C   UNL     1      44.790 131.456  18.590  1.00  0.00    -0.035 A 
ATOM      4  N   UNL     1      45.312 131.350  19.818  1.00  0.00    -0.438 NA
ATOM      5  C   UNL     1      44.509 132.165  20.552  1.00  0.00    -0.060 A 
ATOM      6  N   UNL     1      43.515 132.763  19.845  1.00  0.00    -0.438 NA
ATOM      7  C   UNL     1      43.725 132.299  18.603  1.00  0.00    -0.037 A 
ATOM      8  C   UNL     1      43.000 132.588  17.452  1.00  0.00     0.027 A 
ATOM      9  C   UNL     1      43.395 131.962  16.251  1.00  0.00     0.094 A 
ENDROOT
BRANCH   1  10
ATOM     10  O   UNL     1      44.854 130.409  15.051  1.00  0.00    -0.486 OA
BRANCH  10  11
ATOM     11  C   UNL     1      46.137 130.541  14.413  1.00  0.00     0.109 C 
ATOM     12  C   UNL     1      46.751 131.912  14.767  1.00  0.00     0.057 C 
BRANCH  11  13
ATOM     13  C   UNL     1      45.894 130.498  12.881  1.00  0.00     0.075 C 
BRANCH  13  14
ATOM     14  C   UNL     1      47.147 130.728  12.073  1.00  0.00    -0.031 C 
ATOM     15  C   UNL     1      47.244 130.350  10.794  1.00  0.00     0.004 C 
ENDBRANCH  13  14
ENDBRANCH  11  13
BRANCH  11  16
ATOM     16  C   UNL     1      47.073 129.383  14.886  1.00  0.00     0.045 C 
ATOM     17  C   UNL     1      48.516 129.460  14.376  1.00  0.00     0.008 C 
ENDBRANCH  11  16
ENDBRANCH  10  11
ENDBRANCH   1  10
BRANCH   9  18
ATOM     18  C   UNL     1      42.680 132.256  15.035  1.00  0.00     0.103 C 
ATOM     19  N   UNL     1      42.106 132.491  14.059  1.00  0.00    -0.192 NA
ENDBRANCH   9  18
BRANCH   5  20
ATOM     20  C   UNL     1      44.655 132.315  22.034  1.00  0.00     0.173 C 
BRANCH  20  21
ATOM     21  N   UNL     1      43.507 133.041  22.577  1.00  0.00    -0.236 N 
ATOM     22  N   UNL     1      42.492 132.441  23.181  1.00  0.00    -0.066 NA
ATOM     23  C   UNL     1      43.351 134.375  22.730  1.00  0.00     0.149 A 
ATOM     24  N   UNL     1      41.668 133.333  23.712  1.00  0.00    -0.135 NA
ATOM     25  C   UNL     1      42.182 134.549  23.445  1.00  0.00     0.093 A 
ATOM     26  C   UNL     1      41.589 135.836  23.920  1.00  0.00     0.071 C 
BRANCH  23  27
ATOM     27  C   UNL     1      44.291 135.429  22.303  1.00  0.00     0.267 A 
ATOM     28  N   UNL     1      44.918 136.281  23.136  1.00  0.00    -0.106 NA
ATOM     29  O   UNL     1      44.615 135.665  21.054  1.00  0.00    -0.419 OA
ATOM     30  N   UNL     1      45.649 137.080  22.376  1.00  0.00    -0.112 NA
ATOM     31  C   UNL     1      45.436 136.684  21.106  1.00  0.00     0.220 A 
BRANCH  31  32
ATOM     32  C   UNL     1      46.068 137.320  19.906  1.00  0.00     0.081 C 
ATOM     33  C   UNL     1      46.414 138.797  20.084  1.00  0.00     0.017 C 
ATOM     34  C   UNL     1      45.262 138.394  19.170  1.00  0.00    -0.001 C 
ATOM     35  C   UNL     1      43.869 138.768  19.696  1.00  0.00     0.008 C 
ENDBRANCH  31  32
ENDBRANCH  23  27
ENDBRANCH  20  21
ENDBRANCH   5  20
TORSDOF 10
ENDMDL
MODEL 5
REMARK VINA RESULT:      -5.9      2.692      8.444
REMARK SMILES C=CC[C@](C)(CC)Oc1cc2nc(Cn3nnc(C)c3-c3nnc([C@@H]4C[C@@H]4C)o3)[n-]c2cc1C#N
REMARK SMILES IDX 9 1 10 2 11 3 12 4 13 5 30 6 31 7 32 8 33 9 8 10 4 11 5 12
REMARK SMILES IDX 3 13 2 14 1 15 6 16 7 17 34 18 35 19 14 20 15 21 16 22 20 23
REMARK SMILES IDX 17 24 18 25 19 26 21 27 22 28 29 29 23 30 24 31 25 32 26 33
REMARK SMILES IDX 27 34 28 35
REMARK H PARENT
ROOT
ATOM      1  C   UNL     1      44.039 135.010  20.412  1.00  0.00     0.138 A 
ATOM      2  C   UNL     1      43.819 134.387  19.165  1.00  0.00     0.051 A 
ATOM      3  C   UNL     1      44.361 133.123  18.964  1.00  0.00    -0.035 A 
ATOM      4  N   UNL     1      44.247 132.348  17.879  1.00  0.00    -0.438 NA
ATOM      5  C   UNL     1      44.944 131.237  18.234  1.00  0.00    -0.060 A 
ATOM      6  N   UNL     1      45.476 131.280  19.484  1.00  0.00    -0.438 NA
ATOM      7  C   UNL     1      45.095 132.491  19.918  1.00  0.00    -0.037 A 
ATOM      8  C   UNL     1      45.367 133.079  21.148  1.00  0.00     0.027 A 
ATOM      9  C   UNL     1      44.841 134.365  21.393  1.00  0.00     0.094 A 
ENDROOT
BRANCH   1  10
ATOM     10  O   UNL     1      43.497 136.277  20.674  1.00  0.00    -0.486 OA
BRANCH  10  11
ATOM     11  C   UNL     1      42.112 136.533  20.968  1.00  0.00     0.109 C 
ATOM     12  C   UNL     1      42.010 137.578  22.099  1.00  0.00     0.057 C 
BRANCH  11  13
ATOM     13  C   UNL     1      41.498 135.201  21.478  1.00  0.00     0.075 C 
BRANCH  13  14
ATOM     14  C   UNL     1      40.150 134.898  20.872  1.00  0.00    -0.031 C 
ATOM     15  C   UNL     1      39.015 135.035  21.565  1.00  0.00     0.004 C 
ENDBRANCH  13  14
ENDBRANCH  11  13
BRANCH  11  16
ATOM     16  C   UNL     1      41.395 137.048  19.680  1.00  0.00     0.045 C 
ATOM     17  C   UNL     1      40.493 138.270  19.879  1.00  0.00     0.008 C 
ENDBRANCH  11  16
ENDBRANCH  10  11
ENDBRANCH   1  10
BRANCH   9  18
ATOM     18  C   UNL     1      45.122 135.013  22.648  1.00  0.00     0.103 C 
ATOM     19  N   UNL     1      45.348 135.534  23.657  1.00  0.00    -0.192 NA
ENDBRANCH   9  18
BRANCH   5  20
ATOM     20  C   UNL     1      45.036 130.029  17.354  1.00  0.00     0.173 C 
BRANCH  20  21
ATOM     21  N   UNL     1      45.947 130.292  16.240  1.00  0.00    -0.236 N 
ATOM     22  N   UNL     1      47.175 129.798  16.179  1.00  0.00    -0.066 NA
ATOM     23  C   UNL     1      45.678 130.884  15.056  1.00  0.00     0.149 A 
ATOM     24  N   UNL     1      47.727 130.059  15.002  1.00  0.00    -0.135 NA
ATOM     25  C   UNL     1      46.812 130.736  14.281  1.00  0.00     0.093 A 
ATOM     26  C   UNL     1      47.012 131.173  12.867  1.00  0.00     0.071 C 
BRANCH  23  27
ATOM     27  C   UNL     1      44.396 131.484  14.639  1.00  0.00     0.267 A 
ATOM     28  N   UNL     1      43.414 130.825  13.995  1.00  0.00    -0.106 NA
ATOM     29  O   UNL     1      44.071 132.739  14.838  1.00  0.00    -0.419 OA
ATOM     30  N   UNL     1      42.450 131.706  13.779  1.00  0.00    -0.112 NA
ATOM     31  C   UNL     1      42.885 132.869  14.298  1.00  0.00     0.220 A 
BRANCH  31  32
ATOM     32  C   UNL     1      42.105 134.149  14.273  1.00  0.00     0.081 C 
ATOM     33  C   UNL     1      42.550 135.178  15.310  1.00  0.00     0.017 C 
ATOM     34  C   UNL     1      41.218 134.458  15.482  1.00  0.00    -0.001 C 
ATOM     35  C   UNL     1      41.177 133.460  16.647  1.00  0.00     0.008 C 
ENDBRANCH  31  32
ENDBRANCH  23  27
ENDBRANCH  20  21
ENDBRANCH   5  20
TORSDOF 10
ENDMDL
MODEL 6
REMARK VINA RESULT:      -5.5      1.844      3.814
REMARK SMILES C=CC[C@](C)(CC)Oc1cc2nc(Cn3nnc(C)c3-c3nnc([C@@H]4C[C@@H]4C)o3)[n-]c2cc1C#N
REMARK SMILES IDX 9 1 10 2 11 3 12 4 13 5 30 6 31 7 32 8 33 9 8 10 4 11 5 12
REMARK SMILES IDX 3 13 2 14 1 15 6 16 7 17 34 18 35 19 14 20 15 21 16 22 20 23
REMARK SMILES IDX 17 24 18 25 19 26 21 27 22 28 29 29 23 30 24 31 25 32 26 33
REMARK SMILES IDX 27 34 28 35
REMARK H PARENT
ROOT
ATOM      1  C   UNL     1      43.584 131.641  16.960  1.00  0.00     0.138 A 
ATOM      2  C   UNL     1      44.320 131.630  18.164  1.00  0.00     0.051 A 
ATOM      3  C   UNL     1      44.017 132.591  19.121  1.00  0.00    -0.035 A 
ATOM      4  N   UNL     1      44.567 132.738  20.334  1.00  0.00    -0.438 NA
ATOM      5  C   UNL     1      43.889 133.802  20.838  1.00  0.00    -0.060 A 
ATOM      6  N   UNL     1      42.944 134.315  20.007  1.00  0.00    -0.438 NA
ATOM      7  C   UNL     1      43.055 133.530  18.925  1.00  0.00    -0.037 A 
ATOM      8  C   UNL     1      42.328 133.602  17.742  1.00  0.00     0.027 A 
ATOM      9  C   UNL     1      42.606 132.649  16.739  1.00  0.00     0.094 A 
ENDROOT
BRANCH   1  10
ATOM     10  O   UNL     1      43.836 130.681  15.969  1.00  0.00    -0.486 OA
BRANCH  10  11
ATOM     11  C   UNL     1      44.978 130.685  15.093  1.00  0.00     0.109 C 
ATOM     12  C   UNL     1      44.512 130.915  13.640  1.00  0.00     0.057 C 
BRANCH  11  13
ATOM     13  C   UNL     1      45.627 129.278  15.180  1.00  0.00     0.075 C 
BRANCH  13  14
ATOM     14  C   UNL     1      46.763 129.087  14.205  1.00  0.00    -0.031 C 
ATOM     15  C   UNL     1      47.938 129.705  14.358  1.00  0.00     0.004 C 
ENDBRANCH  13  14
ENDBRANCH  11  13
BRANCH  11  16
ATOM     16  C   UNL     1      45.967 131.810  15.536  1.00  0.00     0.045 C 
ATOM     17  C   UNL     1      45.517 133.239  15.214  1.00  0.00     0.008 C 
ENDBRANCH  11  16
ENDBRANCH  10  11
ENDBRANCH   1  10
BRANCH   9  18
ATOM     18  C   UNL     1      41.886 132.708  15.492  1.00  0.00     0.103 C 
ATOM     19  N   UNL     1      41.309 132.756  14.491  1.00  0.00    -0.192 NA
ENDBRANCH   9  18
BRANCH   5  20
ATOM     20  C   UNL     1      44.103 134.305  22.232  1.00  0.00     0.173 C 
BRANCH  20  21
ATOM     21  N   UNL     1      45.473 134.795  22.380  1.00  0.00    -0.236 N 
ATOM     22  N   UNL     1      46.433 134.092  22.964  1.00  0.00    -0.066 NA
ATOM     23  C   UNL     1      46.038 135.891  21.828  1.00  0.00     0.149 A 
ATOM     24  N   UNL     1      47.605 134.696  22.829  1.00  0.00    -0.135 NA
ATOM     25  C   UNL     1      47.386 135.823  22.122  1.00  0.00     0.093 A 
ATOM     26  C   UNL     1      48.460 136.770  21.696  1.00  0.00     0.071 C 
BRANCH  23  27
ATOM     27  C   UNL     1      45.365 136.908  20.997  1.00  0.00     0.267 A 
ATOM     28  N   UNL     1      44.730 137.994  21.478  1.00  0.00    -0.106 NA
ATOM     29  O   UNL     1      45.299 136.862  19.688  1.00  0.00    -0.419 OA
ATOM     30  N   UNL     1      44.245 138.639  20.429  1.00  0.00    -0.112 NA
ATOM     31  C   UNL     1      44.600 137.918  19.349  1.00  0.00     0.220 A 
BRANCH  31  32
ATOM     32  C   UNL     1      44.254 138.282  17.938  1.00  0.00     0.081 C 
ATOM     33  C   UNL     1      43.183 139.364  17.811  1.00  0.00     0.017 C 
ATOM     34  C   UNL     1      42.852 137.923  17.440  1.00  0.00    -0.001 C 
ATOM     35  C   UNL     1      41.880 137.223  18.401  1.00  0.00     0.008 C 
ENDBRANCH  31  32
ENDBRANCH  23  27
ENDBRANCH  20  21
ENDBRANCH   5  20
TORSDOF 10
ENDMDL
MODEL 7
REMARK VINA RESULT:      -5.5      2.315      4.615
REMARK SMILES C=CC[C@](C)(CC)Oc1cc2nc(Cn3nnc(C)c3-c3nnc([C@@H]4C[C@@H]4C)o3)[n-]c2cc1C#N
REMARK SMILES IDX 9 1 10 2 11 3 12 4 13 5 30 6 31 7 32 8 33 9 8 10 4 11 5 12
REMARK SMILES IDX 3 13 2 14 1 15 6 16 7 17 34 18 35 19 14 20 15 21 16 22 20 23
REMARK SMILES IDX 17 24 18 25 19 26 21 27 22 28 29 29 23 30 24 31 25 32 26 33
REMARK SMILES IDX 27 34 28 35
REMARK H PARENT
ROOT
ATOM      1  C   UNL     1      44.009 131.776  18.092  1.00  0.00     0.138 A 
ATOM      2  C   UNL     1      43.400 132.533  19.116  1.00  0.00     0.051 A 
ATOM      3  C   UNL     1      44.017 132.560  20.361  1.00  0.00    -0.035 A 
ATOM      4  N   UNL     1      43.629 133.233  21.451  1.00  0.00    -0.438 NA
ATOM      5  C   UNL     1      44.595 132.918  22.353  1.00  0.00    -0.060 A 
ATOM      6  N   UNL     1      45.564 132.092  21.877  1.00  0.00    -0.438 NA
ATOM      7  C   UNL     1      45.165 131.878  20.615  1.00  0.00    -0.037 A 
ATOM      8  C   UNL     1      45.783 131.092  19.648  1.00  0.00     0.027 A 
ATOM      9  C   UNL     1      45.188 131.030  18.370  1.00  0.00     0.094 A 
ENDROOT
BRANCH   1  10
ATOM     10  O   UNL     1      43.439 131.731  16.812  1.00  0.00    -0.486 OA
BRANCH  10  11
ATOM     11  C   UNL     1      43.776 132.619  15.731  1.00  0.00     0.109 C 
ATOM     12  C   UNL     1      45.296 132.885  15.738  1.00  0.00     0.057 C 
BRANCH  11  13
ATOM     13  C   UNL     1      43.045 133.963  15.998  1.00  0.00     0.075 C 
BRANCH  13  14
ATOM     14  C   UNL     1      43.987 135.098  16.315  1.00  0.00    -0.031 C 
ATOM     15  C   UNL     1      43.880 135.813  17.440  1.00  0.00     0.004 C 
ENDBRANCH  13  14
ENDBRANCH  11  13
BRANCH  11  16
ATOM     16  C   UNL     1      43.338 131.978  14.376  1.00  0.00     0.045 C 
ATOM     17  C   UNL     1      44.244 130.855  13.862  1.00  0.00     0.008 C 
ENDBRANCH  11  16
ENDBRANCH  10  11
ENDBRANCH   1  10
BRANCH   9  18
ATOM     18  C   UNL     1      45.789 130.208  17.352  1.00  0.00     0.103 C 
ATOM     19  N   UNL     1      46.272 129.547  16.534  1.00  0.00    -0.192 NA
ENDBRANCH   9  18
BRANCH   5  20
ATOM     20  C   UNL     1      44.635 133.509  23.728  1.00  0.00     0.173 C 
BRANCH  20  21
ATOM     21  N   UNL     1      45.582 134.623  23.765  1.00  0.00    -0.236 N 
ATOM     22  N   UNL     1      46.868 134.470  24.044  1.00  0.00    -0.066 NA
ATOM     23  C   UNL     1      45.393 135.900  23.367  1.00  0.00     0.149 A 
ATOM     24  N   UNL     1      47.527 135.605  23.858  1.00  0.00    -0.135 NA
ATOM     25  C   UNL     1      46.628 136.515  23.435  1.00  0.00     0.093 A 
ATOM     26  C   UNL     1      46.969 137.918  23.052  1.00  0.00     0.071 C 
BRANCH  23  27
ATOM     27  C   UNL     1      44.137 136.494  22.869  1.00  0.00     0.267 A 
ATOM     28  N   UNL     1      43.123 136.911  23.650  1.00  0.00    -0.106 NA
ATOM     29  O   UNL     1      43.860 136.672  21.599  1.00  0.00    -0.419 OA
ATOM     30  N   UNL     1      42.179 137.355  22.835  1.00  0.00    -0.112 NA
ATOM     31  C   UNL     1      42.655 137.186  21.587  1.00  0.00     0.220 A 
BRANCH  31  32
ATOM     32  C   UNL     1      41.908 137.554  20.341  1.00  0.00     0.081 C 
ATOM     33  C   UNL     1      40.391 137.603  20.508  1.00  0.00     0.017 C 
ATOM     34  C   UNL     1      41.028 136.476  19.702  1.00  0.00    -0.001 C 
ATOM     35  C   UNL     1      40.949 135.094  20.365  1.00  0.00     0.008 C 
ENDBRANCH  31  32
ENDBRANCH  23  27
ENDBRANCH  20  21
ENDBRANCH   5  20
TORSDOF 10
ENDMDL
MODEL 8
REMARK VINA RESULT:      -5.2      2.784      8.523
REMARK SMILES C=CC[C@](C)(CC)Oc1cc2nc(Cn3nnc(C)c3-c3nnc([C@@H]4C[C@@H]4C)o3)[n-]c2cc1C#N
REMARK SMILES IDX 9 1 10 2 11 3 12 4 13 5 30 6 31 7 32 8 33 9 8 10 4 11 5 12
REMARK SMILES IDX 3 13 2 14 1 15 6 16 7 17 34 18 35 19 14 20 15 21 16 22 20 23
REMARK SMILES IDX 17 24 18 25 19 26 21 27 22 28 29 29 23 30 24 31 25 32 26 33
REMARK SMILES IDX 27 34 28 35
REMARK H PARENT
ROOT
ATOM      1  C   UNL     1      47.083 135.696  22.917  1.00  0.00     0.138 A 
ATOM      2  C   UNL     1      47.129 134.437  22.280  1.00  0.00     0.051 A 
ATOM      3  C   UNL     1      45.962 133.959  21.697  1.00  0.00    -0.035 A 
ATOM      4  N   UNL     1      45.795 132.815  21.022  1.00  0.00    -0.438 NA
ATOM      5  C   UNL     1      44.485 132.869  20.667  1.00  0.00    -0.060 A 
ATOM      6  N   UNL     1      43.834 133.988  21.080  1.00  0.00    -0.438 NA
ATOM      7  C   UNL     1      44.796 134.655  21.736  1.00  0.00    -0.037 A 
ATOM      8  C   UNL     1      44.693 135.883  22.381  1.00  0.00     0.027 A 
ATOM      9  C   UNL     1      45.852 136.405  22.992  1.00  0.00     0.094 A 
ENDROOT
BRANCH   1  10
ATOM     10  O   UNL     1      48.237 136.234  23.504  1.00  0.00    -0.486 OA
BRANCH  10  11
ATOM     11  C   UNL     1      49.526 136.304  22.867  1.00  0.00     0.109 C 
ATOM     12  C   UNL     1      50.379 135.093  23.297  1.00  0.00     0.057 C 
BRANCH  11  13
ATOM     13  C   UNL     1      50.220 137.595  23.378  1.00  0.00     0.075 C 
BRANCH  13  14
ATOM     14  C   UNL     1      49.414 138.331  24.420  1.00  0.00    -0.031 C 
ATOM     15  C   UNL     1      49.079 139.617  24.277  1.00  0.00     0.004 C 
ENDBRANCH  13  14
ENDBRANCH  11  13
BRANCH  11  16
ATOM     16  C   UNL     1      49.338 136.320  21.317  1.00  0.00     0.045 C 
ATOM     17  C   UNL     1      49.234 137.712  20.685  1.00  0.00     0.008 C 
ENDBRANCH  11  16
ENDBRANCH  10  11
ENDBRANCH   1  10
BRANCH   9  18
ATOM     18  C   UNL     1      45.776 137.664  23.688  1.00  0.00     0.103 C 
ATOM     19  N   UNL     1      45.715 138.675  24.247  1.00  0.00    -0.192 NA
ENDBRANCH   9  18
BRANCH   5  20
ATOM     20  C   UNL     1      43.839 131.823  19.812  1.00  0.00     0.173 C 
BRANCH  20  21
ATOM     21  N   UNL     1      44.618 131.627  18.590  1.00  0.00    -0.236 N 
ATOM     22  N   UNL     1      45.402 130.577  18.393  1.00  0.00    -0.066 NA
ATOM     23  C   UNL     1      44.555 132.321  17.432  1.00  0.00     0.149 A 
ATOM     24  N   UNL     1      45.867 130.565  17.152  1.00  0.00    -0.135 NA
ATOM     25  C   UNL     1      45.353 131.644  16.530  1.00  0.00     0.093 A 
ATOM     26  C   UNL     1      45.582 131.974  15.091  1.00  0.00     0.071 C 
BRANCH  23  27
ATOM     27  C   UNL     1      43.724 133.509  17.158  1.00  0.00     0.267 A 
ATOM     28  N   UNL     1      44.035 134.765  17.532  1.00  0.00    -0.106 NA
ATOM     29  O   UNL     1      42.576 133.475  16.526  1.00  0.00    -0.419 OA
ATOM     30  N   UNL     1      43.038 135.535  17.126  1.00  0.00    -0.112 NA
ATOM     31  C   UNL     1      42.156 134.716  16.523  1.00  0.00     0.220 A 
BRANCH  31  32
ATOM     32  C   UNL     1      40.865 135.168  15.911  1.00  0.00     0.081 C 
ATOM     33  C   UNL     1      39.847 134.052  15.690  1.00  0.00     0.017 C 
ATOM     34  C   UNL     1      40.548 134.685  14.494  1.00  0.00    -0.001 C 
ATOM     35  C   UNL     1      41.550 133.766  13.781  1.00  0.00     0.008 C 
ENDBRANCH  31  32
ENDBRANCH  23  27
ENDBRANCH  20  21
ENDBRANCH   5  20
TORSDOF 10
ENDMDL
MODEL 9
REMARK VINA RESULT:      -5.1      3.410      6.516
REMARK SMILES C=CC[C@](C)(CC)Oc1cc2nc(Cn3nnc(C)c3-c3nnc([C@@H]4C[C@@H]4C)o3)[n-]c2cc1C#N
REMARK SMILES IDX 9 1 10 2 11 3 12 4 13 5 30 6 31 7 32 8 33 9 8 10 4 11 5 12
REMARK SMILES IDX 3 13 2 14 1 15 6 16 7 17 34 18 35 19 14 20 15 21 16 22 20 23
REMARK SMILES IDX 17 24 18 25 19 26 21 27 22 28 29 29 23 30 24 31 25 32 26 33
REMARK SMILES IDX 27 34 28 35
REMARK H PARENT
ROOT
ATOM      1  C   UNL     1      41.895 133.289  20.532  1.00  0.00     0.138 A 
ATOM      2  C   UNL     1      42.098 132.887  19.195  1.00  0.00     0.051 A 
ATOM      3  C   UNL     1      41.258 133.415  18.222  1.00  0.00    -0.035 A 
ATOM      4  N   UNL     1      41.296 133.195  16.902  1.00  0.00    -0.438 NA
ATOM      5  C   UNL     1      40.277 133.967  16.443  1.00  0.00    -0.060 A 
ATOM      6  N   UNL     1      39.615 134.660  17.408  1.00  0.00    -0.438 NA
ATOM      7  C   UNL     1      40.256 134.283  18.524  1.00  0.00    -0.037 A 
ATOM      8  C   UNL     1      39.996 134.680  19.832  1.00  0.00     0.027 A 
ATOM      9  C   UNL     1      40.822 134.164  20.853  1.00  0.00     0.094 A 
ENDROOT
BRANCH   1  10
ATOM     10  O   UNL     1      42.728 132.802  21.551  1.00  0.00    -0.486 OA
BRANCH  10  11
ATOM     11  C   UNL     1      43.809 131.872  21.354  1.00  0.00     0.109 C 
ATOM     12  C   UNL     1      43.478 130.541  22.062  1.00  0.00     0.057 C 
BRANCH  11  13
ATOM     13  C   UNL     1      45.067 132.482  22.027  1.00  0.00     0.075 C 
BRANCH  13  14
ATOM     14  C   UNL     1      45.195 133.970  21.809  1.00  0.00    -0.031 C 
ATOM     15  C   UNL     1      46.377 134.553  21.586  1.00  0.00     0.004 C 
ENDBRANCH  13  14
ENDBRANCH  11  13
BRANCH  11  16
ATOM     16  C   UNL     1      44.021 131.641  19.824  1.00  0.00     0.045 C 
ATOM     17  C   UNL     1      45.379 131.047  19.435  1.00  0.00     0.008 C 
ENDBRANCH  11  16
ENDBRANCH  10  11
ENDBRANCH   1  10
BRANCH   9  18
ATOM     18  C   UNL     1      40.566 134.538  22.220  1.00  0.00     0.103 C 
ATOM     19  N   UNL     1      40.361 134.837  23.319  1.00  0.00    -0.192 NA
ENDBRANCH   9  18
BRANCH   5  20
ATOM     20  C   UNL     1      39.971 134.113  14.985  1.00  0.00     0.173 C 
BRANCH  20  21
ATOM     21  N   UNL     1      40.124 135.510  14.581  1.00  0.00    -0.236 N 
ATOM     22  N   UNL     1      39.145 136.216  14.033  1.00  0.00    -0.066 NA
ATOM     23  C   UNL     1      41.149 136.352  14.838  1.00  0.00     0.149 A 
ATOM     24  N   UNL     1      39.497 137.487  13.907  1.00  0.00    -0.135 NA
ATOM     25  C   UNL     1      40.745 137.600  14.403  1.00  0.00     0.093 A 
ATOM     26  C   UNL     1      41.496 138.887  14.505  1.00  0.00     0.071 C 
BRANCH  23  27
ATOM     27  C   UNL     1      42.409 136.025  15.532  1.00  0.00     0.267 A 
ATOM     28  N   UNL     1      43.484 135.464  14.945  1.00  0.00    -0.106 NA
ATOM     29  O   UNL     1      42.622 136.231  16.809  1.00  0.00    -0.419 OA
ATOM     30  N   UNL     1      44.392 135.309  15.896  1.00  0.00    -0.112 NA
ATOM     31  C   UNL     1      43.832 135.779  17.027  1.00  0.00     0.220 A 
BRANCH  31  32
ATOM     32  C   UNL     1      44.511 135.796  18.362  1.00  0.00     0.081 C 
ATOM     33  C   UNL     1      43.685 136.424  19.482  1.00  0.00     0.017 C 
ATOM     34  C   UNL     1      44.904 137.159  18.937  1.00  0.00    -0.001 C 
ATOM     35  C   UNL     1      44.579 138.426  18.132  1.00  0.00     0.008 C 
ENDBRANCH  31  32
ENDBRANCH  23  27
ENDBRANCH  20  21
ENDBRANCH   5  20
TORSDOF 10
ENDMDL


