REMARK SMILES C#Cc1ccc(-n2cc(CCCCN(C)[C@@H](C)C#N)[nH+]n2)cc(N)ccc2ccccc12
REMARK SMILES IDX 11 1 10 2 9 3 7 4 8 5 21 6 20 7 6 9 3 10 4 11 32 12 5 13
REMARK SMILES IDX 31 14 27 15 30 16 26 17 28 18 22 19 29 20 25 21 23 22 2 23
REMARK SMILES IDX 1 24 24 25 12 28 13 29 14 30 15 31 16 32 17 33 18 34 19 35
REMARK H PARENT 20 8 24 26 24 27
ROOT
ATOM      1  C   UNL     1       1.094  -1.162  -1.889  1.00  0.00     0.010 C 
ENDROOT
BRANCH   1   2
ATOM      2  C   UNL     1      -0.329  -0.666  -1.601  1.00  0.00     0.086 C 
BRANCH   2   3
ATOM      3  C   UNL     1      -0.333   0.451  -0.603  1.00  0.00     0.165 A 
ATOM      4  N   UNL     1      -0.511   1.619   1.235  1.00  0.00    -0.102 N 
ATOM      5  C   UNL     1      -0.715   0.387   0.720  1.00  0.00     0.281 A 
ATOM      6  N   UNL     1      -0.013   2.391   0.280  1.00  0.00     0.093 NA
ATOM      7  N   UNL     1       0.103   1.700  -0.842  1.00  0.00    -0.147 N 
ATOM      8  H   UNL     1       0.474   2.080  -1.742  1.00  0.00     0.342 HD
BRANCH   4   9
ATOM      9  C   UNL     1      -0.788   2.069   2.575  1.00  0.00     0.157 A 
ATOM     10  C   UNL     1      -3.674   1.296   1.907  1.00  0.00     0.032 A 
ATOM     11  C   UNL     1      -2.910   0.836   3.002  1.00  0.00     0.022 A 
ATOM     12  C   UNL     1      -3.497   2.565   1.288  1.00  0.00    -0.003 A 
ATOM     13  C   UNL     1      -1.667   1.350   3.408  1.00  0.00     0.056 A 
ATOM     14  C   UNL     1      -3.626   2.662  -0.115  1.00  0.00     0.010 A 
ATOM     15  C   UNL     1      -3.059   3.719   2.008  1.00  0.00    -0.017 A 
ATOM     16  C   UNL     1      -3.206   3.806  -0.794  1.00  0.00     0.001 A 
ATOM     17  C   UNL     1      -3.161   3.797   3.410  1.00  0.00     0.011 A 
ATOM     18  C   UNL     1      -2.585   4.838   1.298  1.00  0.00     0.009 A 
ATOM     19  C   UNL     1      -0.183   3.255   3.032  1.00  0.00     0.079 A 
ATOM     20  C   UNL     1      -2.659   4.878  -0.093  1.00  0.00     0.001 A 
ATOM     21  C   UNL     1      -2.127   4.236   4.252  1.00  0.00     0.026 A 
ATOM     22  C   UNL     1      -0.746   4.152   3.967  1.00  0.00     0.036 A 
BRANCH  10  23
ATOM     23  C   UNL     1      -4.685   0.395   1.403  1.00  0.00    -0.070 C 
ATOM     24  C   UNL     1      -5.526  -0.359   0.983  1.00  0.00     0.010 C 
ENDBRANCH  10  23
BRANCH  22  25
ATOM     25  N   UNL     1       0.139   5.033   4.668  1.00  0.00    -0.399 N 
ATOM     26  H   UNL     1      -0.229   5.731   5.351  1.00  0.00     0.156 HD
ATOM     27  H   UNL     1       1.169   5.005   4.499  1.00  0.00     0.156 HD
ENDBRANCH  22  25
ENDBRANCH   4   9
ENDBRANCH   2   3
ENDBRANCH   1   2
BRANCH   1  28
ATOM     28  C   UNL     1       1.701  -1.913  -0.693  1.00  0.00     0.016 C 
BRANCH  28  29
ATOM     29  C   UNL     1       3.143  -2.353  -0.972  1.00  0.00     0.085 C 
BRANCH  29  30
ATOM     30  N   UNL     1       3.191  -3.308  -2.108  1.00  0.00    -0.291 NA
ATOM     31  C   UNL     1       3.064  -4.700  -1.638  1.00  0.00     0.106 C 
BRANCH  30  32
ATOM     32  C   UNL     1       4.377  -3.149  -2.990  1.00  0.00     0.157 C 
ATOM     33  C   UNL     1       4.218  -1.927  -3.900  1.00  0.00     0.041 C 
BRANCH  32  34
ATOM     34  C   UNL     1       5.645  -3.077  -2.235  1.00  0.00     0.081 C 
ATOM     35  N   UNL     1       6.639  -3.021  -1.644  1.00  0.00    -0.197 NA
ENDBRANCH  32  34
ENDBRANCH  30  32
ENDBRANCH  29  30
ENDBRANCH  28  29
ENDBRANCH   1  28
TORSDOF 10


