REMARK SMILES C#CC[N+](C)(C)Cc1c(C)cc(N2C[C@@H](C)[C@@H](C)[C@@H]2C)c2ccccc12
REMARK SMILES IDX 4 1 5 2 6 3 3 4 2 5 1 6 7 7 8 8 9 9 26 10 11 11 25 12 21 13
REMARK SMILES IDX 12 14 24 15 22 16 23 17 10 18 13 19 14 20 19 21 15 22 17 23
REMARK SMILES IDX 20 24 16 25 18 26
REMARK H PARENT
ROOT
ATOM      1  N   UNL     1      -4.085   1.771   0.607  1.00  0.00    -0.315 N 
ATOM      2  C   UNL     1      -4.600   0.382   0.497  1.00  0.00     0.335 C 
ATOM      3  C   UNL     1      -3.515   1.935   1.968  1.00  0.00     0.335 C 
ENDROOT
BRANCH   1   4
ATOM      4  C   UNL     1      -5.223   2.735   0.490  1.00  0.00     0.355 C 
BRANCH   4   5
ATOM      5  C   UNL     1      -5.942   2.651  -0.798  1.00  0.00    -0.047 C 
ATOM      6  C   UNL     1      -6.528   2.583  -1.849  1.00  0.00     0.010 C 
ENDBRANCH   4   5
ENDBRANCH   1   4
BRANCH   1   7
ATOM      7  C   UNL     1      -3.045   2.087  -0.435  1.00  0.00     0.302 C 
BRANCH   7   8
ATOM      8  C   UNL     1      -1.808   1.164  -0.440  1.00  0.00     0.017 A 
ATOM      9  C   UNL     1      -0.622   1.554   0.250  1.00  0.00    -0.040 A 
ATOM     10  C   UNL     1      -1.812  -0.100  -1.115  1.00  0.00    -0.007 A 
ATOM     11  C   UNL     1       0.411   0.629   0.442  1.00  0.00     0.030 A 
ATOM     12  C   UNL     1      -2.838  -0.476  -2.018  1.00  0.00     0.009 A 
ATOM     13  C   UNL     1      -0.746  -1.021  -0.900  1.00  0.00     0.006 A 
ATOM     14  C   UNL     1       0.345  -0.653  -0.093  1.00  0.00     0.045 A 
ATOM     15  C   UNL     1      -2.849  -1.736  -2.615  1.00  0.00     0.001 A 
ATOM     16  C   UNL     1      -0.789  -2.297  -1.499  1.00  0.00     0.011 A 
ATOM     17  C   UNL     1      -1.837  -2.649  -2.344  1.00  0.00     0.001 A 
ATOM     18  C   UNL     1      -0.394   2.959   0.760  1.00  0.00     0.045 C 
BRANCH  14  19
ATOM     19  N   UNL     1       1.439  -1.553   0.137  1.00  0.00    -0.368 N 
ATOM     20  C   UNL     1       2.558  -1.657  -0.782  1.00  0.00     0.120 C 
ATOM     21  C   UNL     1       1.714  -2.141   1.442  1.00  0.00     0.082 C 
ATOM     22  C   UNL     1       3.528  -2.623  -0.108  1.00  0.00     0.010 C 
ATOM     23  C   UNL     1       3.208  -2.527   1.403  1.00  0.00     0.013 C 
ATOM     24  C   UNL     1       0.815  -3.362   1.660  1.00  0.00     0.031 C 
ATOM     25  C   UNL     1       4.990  -2.377  -0.508  1.00  0.00     0.010 C 
ATOM     26  C   UNL     1       4.049  -1.473   2.147  1.00  0.00     0.010 C 
ENDBRANCH  14  19
ENDBRANCH   7   8
ENDBRANCH   1   7
TORSDOF 5


