MODEL 1
REMARK VINA RESULT:      -8.2      0.000      0.000
REMARK SMILES CCc1nnn(CC2(C#N)CCCC2)c1C[N+](C)(C)Cc1cccc2ccccc12
REMARK SMILES IDX 3 1 4 2 5 3 6 4 15 5 2 6 1 7 16 8 17 9 18 10 19 11 20 12
REMARK SMILES IDX 21 13 22 14 30 15 23 16 29 17 25 18 24 19 28 20 26 21 27 22
REMARK SMILES IDX 7 23 8 24 11 25 14 26 12 27 13 28 9 29 10 30
REMARK H PARENT
ROOT
ATOM      1  C   UNL     1      44.038 131.497  18.284  1.00  0.00     0.091 A 
ATOM      2  N   UNL     1      45.204 130.947  18.676  1.00  0.00    -0.135 NA
ATOM      3  N   UNL     1      45.981 130.878  17.607  1.00  0.00    -0.067 NA
ATOM      4  N   UNL     1      45.367 131.376  16.544  1.00  0.00    -0.242 N 
ATOM      5  C   UNL     1      44.123 131.760  16.921  1.00  0.00     0.116 A 
ENDROOT
BRANCH   1   6
ATOM      6  C   UNL     1      42.959 131.901  19.251  1.00  0.00     0.057 C 
ATOM      7  C   UNL     1      43.526 132.745  20.388  1.00  0.00     0.011 C 
ENDBRANCH   1   6
BRANCH   5   8
ATOM      8  C   UNL     1      43.072 132.411  16.031  1.00  0.00     0.322 C 
BRANCH   8   9
ATOM      9  N   UNL     1      43.004 133.910  16.096  1.00  0.00    -0.320 N 
ATOM     10  C   UNL     1      44.310 134.468  16.521  1.00  0.00     0.334 C 
ATOM     11  C   UNL     1      41.967 134.334  17.070  1.00  0.00     0.334 C 
BRANCH   9  12
ATOM     12  C   UNL     1      42.650 134.394  14.719  1.00  0.00     0.301 C 
BRANCH  12  13
ATOM     13  C   UNL     1      41.184 134.785  14.514  1.00  0.00     0.014 A 
ATOM     14  C   UNL     1      40.270 133.750  14.231  1.00  0.00     0.010 A 
ATOM     15  C   UNL     1      40.705 136.130  14.556  1.00  0.00    -0.010 A 
ATOM     16  C   UNL     1      38.914 134.010  14.054  1.00  0.00     0.001 A 
ATOM     17  C   UNL     1      41.557 137.240  14.756  1.00  0.00     0.009 A 
ATOM     18  C   UNL     1      39.314 136.376  14.377  1.00  0.00    -0.018 A 
ATOM     19  C   UNL     1      38.434 135.314  14.136  1.00  0.00     0.009 A 
ATOM     20  C   UNL     1      41.042 138.537  14.807  1.00  0.00     0.001 A 
ATOM     21  C   UNL     1      38.815 137.688  14.431  1.00  0.00     0.009 A 
ATOM     22  C   UNL     1      39.677 138.761  14.650  1.00  0.00     0.001 A 
ENDBRANCH  12  13
ENDBRANCH   9  12
ENDBRANCH   8   9
ENDBRANCH   5   8
BRANCH   4  23
ATOM     23  C   UNL     1      46.031 131.539  15.244  1.00  0.00     0.169 C 
BRANCH  23  24
ATOM     24  C   UNL     1      46.240 130.186  14.505  1.00  0.00     0.077 C 
ATOM     25  C   UNL     1      47.718 129.775  14.449  1.00  0.00     0.024 C 
ATOM     26  C   UNL     1      45.852 130.326  13.028  1.00  0.00     0.024 C 
ATOM     27  C   UNL     1      48.293 130.411  13.185  1.00  0.00     0.002 C 
ATOM     28  C   UNL     1      47.105 130.815  12.313  1.00  0.00     0.002 C 
BRANCH  24  29
ATOM     29  C   UNL     1      45.422 129.130  15.139  1.00  0.00     0.071 C 
ATOM     30  N   UNL     1      44.782 128.303  15.635  1.00  0.00    -0.198 NA
ENDBRANCH  24  29
ENDBRANCH  23  24
ENDBRANCH   4  23
TORSDOF 8
ENDMDL
MODEL 2
REMARK VINA RESULT:      -8.1      2.012      3.306
REMARK SMILES CCc1nnn(CC2(C#N)CCCC2)c1C[N+](C)(C)Cc1cccc2ccccc12
REMARK SMILES IDX 3 1 4 2 5 3 6 4 15 5 2 6 1 7 16 8 17 9 18 10 19 11 20 12
REMARK SMILES IDX 21 13 22 14 30 15 23 16 29 17 25 18 24 19 28 20 26 21 27 22
REMARK SMILES IDX 7 23 8 24 11 25 14 26 12 27 13 28 9 29 10 30
REMARK H PARENT
ROOT
ATOM      1  C   UNL     1      44.648 131.838  18.277  1.00  0.00     0.091 A 
ATOM      2  N   UNL     1      45.328 130.675  18.273  1.00  0.00    -0.135 NA
ATOM      3  N   UNL     1      45.902 130.562  17.085  1.00  0.00    -0.067 NA
ATOM      4  N   UNL     1      45.629 131.615  16.328  1.00  0.00    -0.242 N 
ATOM      5  C   UNL     1      44.818 132.440  17.035  1.00  0.00     0.116 A 
ENDROOT
BRANCH   1   6
ATOM      6  C   UNL     1      44.006 132.404  19.513  1.00  0.00     0.057 C 
ATOM      7  C   UNL     1      45.032 133.113  20.392  1.00  0.00     0.011 C 
ENDBRANCH   1   6
BRANCH   5   8
ATOM      8  C   UNL     1      44.273 133.784  16.570  1.00  0.00     0.322 C 
BRANCH   8   9
ATOM      9  N   UNL     1      42.822 133.797  16.180  1.00  0.00    -0.320 N 
ATOM     10  C   UNL     1      42.248 132.434  16.284  1.00  0.00     0.334 C 
ATOM     11  C   UNL     1      42.672 134.270  14.781  1.00  0.00     0.334 C 
BRANCH   9  12
ATOM     12  C   UNL     1      42.122 134.734  17.122  1.00  0.00     0.301 C 
BRANCH  12  13
ATOM     13  C   UNL     1      42.288 136.225  16.814  1.00  0.00     0.014 A 
ATOM     14  C   UNL     1      41.436 136.785  15.841  1.00  0.00     0.010 A 
ATOM     15  C   UNL     1      43.274 137.059  17.425  1.00  0.00    -0.010 A 
ATOM     16  C   UNL     1      41.501 138.136  15.515  1.00  0.00     0.001 A 
ATOM     17  C   UNL     1      44.221 136.571  18.354  1.00  0.00     0.009 A 
ATOM     18  C   UNL     1      43.321 138.440  17.082  1.00  0.00    -0.018 A 
ATOM     19  C   UNL     1      42.430 138.964  16.138  1.00  0.00     0.009 A 
ATOM     20  C   UNL     1      45.156 137.427  18.940  1.00  0.00     0.001 A 
ATOM     21  C   UNL     1      44.269 139.286  17.682  1.00  0.00     0.009 A 
ATOM     22  C   UNL     1      45.177 138.780  18.610  1.00  0.00     0.001 A 
ENDBRANCH  12  13
ENDBRANCH   9  12
ENDBRANCH   8   9
ENDBRANCH   5   8
BRANCH   4  23
ATOM     23  C   UNL     1      46.228 131.820  15.003  1.00  0.00     0.169 C 
BRANCH  23  24
ATOM     24  C   UNL     1      45.831 130.708  13.989  1.00  0.00     0.077 C 
ATOM     25  C   UNL     1      46.193 129.303  14.495  1.00  0.00     0.024 C 
ATOM     26  C   UNL     1      46.655 130.847  12.703  1.00  0.00     0.024 C 
ATOM     27  C   UNL     1      47.624 129.038  14.035  1.00  0.00     0.002 C 
ATOM     28  C   UNL     1      47.936 130.058  12.941  1.00  0.00     0.002 C 
BRANCH  24  29
ATOM     29  C   UNL     1      44.390 130.800  13.674  1.00  0.00     0.071 C 
ATOM     30  N   UNL     1      43.262 130.874  13.426  1.00  0.00    -0.198 NA
ENDBRANCH  24  29
ENDBRANCH  23  24
ENDBRANCH   4  23
TORSDOF 8
ENDMDL
MODEL 3
REMARK VINA RESULT:      -8.1      1.219      2.434
REMARK SMILES CCc1nnn(CC2(C#N)CCCC2)c1C[N+](C)(C)Cc1cccc2ccccc12
REMARK SMILES IDX 3 1 4 2 5 3 6 4 15 5 2 6 1 7 16 8 17 9 18 10 19 11 20 12
REMARK SMILES IDX 21 13 22 14 30 15 23 16 29 17 25 18 24 19 28 20 26 21 27 22
REMARK SMILES IDX 7 23 8 24 11 25 14 26 12 27 13 28 9 29 10 30
REMARK H PARENT
ROOT
ATOM      1  C   UNL     1      44.619 132.146  18.108  1.00  0.00     0.091 A 
ATOM      2  N   UNL     1      45.289 130.982  18.214  1.00  0.00    -0.135 NA
ATOM      3  N   UNL     1      45.882 130.766  17.051  1.00  0.00    -0.067 NA
ATOM      4  N   UNL     1      45.633 131.754  16.204  1.00  0.00    -0.242 N 
ATOM      5  C   UNL     1      44.817 132.641  16.824  1.00  0.00     0.116 A 
ENDROOT
BRANCH   1   6
ATOM      6  C   UNL     1      43.960 132.818  19.281  1.00  0.00     0.057 C 
ATOM      7  C   UNL     1      42.790 131.991  19.805  1.00  0.00     0.011 C 
ENDBRANCH   1   6
BRANCH   5   8
ATOM      8  C   UNL     1      44.291 133.946  16.238  1.00  0.00     0.322 C 
BRANCH   8   9
ATOM      9  N   UNL     1      42.839 133.948  15.855  1.00  0.00    -0.320 N 
ATOM     10  C   UNL     1      42.240 132.613  16.095  1.00  0.00     0.334 C 
ATOM     11  C   UNL     1      42.688 134.285  14.418  1.00  0.00     0.334 C 
BRANCH   9  12
ATOM     12  C   UNL     1      42.163 134.986  16.704  1.00  0.00     0.301 C 
BRANCH  12  13
ATOM     13  C   UNL     1      41.235 135.948  15.956  1.00  0.00     0.014 A 
ATOM     14  C   UNL     1      41.759 137.206  15.597  1.00  0.00     0.010 A 
ATOM     15  C   UNL     1      39.873 135.656  15.640  1.00  0.00    -0.010 A 
ATOM     16  C   UNL     1      40.994 138.133  14.895  1.00  0.00     0.001 A 
ATOM     17  C   UNL     1      39.238 134.453  16.026  1.00  0.00     0.009 A 
ATOM     18  C   UNL     1      39.109 136.615  14.917  1.00  0.00    -0.018 A 
ATOM     19  C   UNL     1      39.680 137.839  14.546  1.00  0.00     0.009 A 
ATOM     20  C   UNL     1      37.909 134.203  15.680  1.00  0.00     0.001 A 
ATOM     21  C   UNL     1      37.773 136.345  14.578  1.00  0.00     0.009 A 
ATOM     22  C   UNL     1      37.180 135.142  14.955  1.00  0.00     0.001 A 
ENDBRANCH  12  13
ENDBRANCH   9  12
ENDBRANCH   8   9
ENDBRANCH   5   8
BRANCH   4  23
ATOM     23  C   UNL     1      46.257 131.843  14.877  1.00  0.00     0.169 C 
BRANCH  23  24
ATOM     24  C   UNL     1      45.832 130.678  13.937  1.00  0.00     0.077 C 
ATOM     25  C   UNL     1      46.197 129.302  14.514  1.00  0.00     0.024 C 
ATOM     26  C   UNL     1      46.629 130.738  12.628  1.00  0.00     0.024 C 
ATOM     27  C   UNL     1      47.616 129.001  14.041  1.00  0.00     0.002 C 
ATOM     28  C   UNL     1      47.911 129.955  12.884  1.00  0.00     0.002 C 
BRANCH  24  29
ATOM     29  C   UNL     1      44.386 130.762  13.647  1.00  0.00     0.071 C 
ATOM     30  N   UNL     1      43.253 130.829  13.418  1.00  0.00    -0.198 NA
ENDBRANCH  24  29
ENDBRANCH  23  24
ENDBRANCH   4  23
TORSDOF 8
ENDMDL
MODEL 4
REMARK VINA RESULT:      -7.5      1.157      2.460
REMARK SMILES CCc1nnn(CC2(C#N)CCCC2)c1C[N+](C)(C)Cc1cccc2ccccc12
REMARK SMILES IDX 3 1 4 2 5 3 6 4 15 5 2 6 1 7 16 8 17 9 18 10 19 11 20 12
REMARK SMILES IDX 21 13 22 14 30 15 23 16 29 17 25 18 24 19 28 20 26 21 27 22
REMARK SMILES IDX 7 23 8 24 11 25 14 26 12 27 13 28 9 29 10 30
REMARK H PARENT
ROOT
ATOM      1  C   UNL     1      44.007 131.806  18.445  1.00  0.00     0.091 A 
ATOM      2  N   UNL     1      45.196 131.193  18.609  1.00  0.00    -0.135 NA
ATOM      3  N   UNL     1      45.788 131.166  17.425  1.00  0.00    -0.067 NA
ATOM      4  N   UNL     1      45.033 131.749  16.507  1.00  0.00    -0.242 N 
ATOM      5  C   UNL     1      43.883 132.150  17.103  1.00  0.00     0.116 A 
ENDROOT
BRANCH   1   6
ATOM      6  C   UNL     1      43.117 132.183  19.596  1.00  0.00     0.057 C 
ATOM      7  C   UNL     1      43.531 133.523  20.196  1.00  0.00     0.011 C 
ENDBRANCH   1   6
BRANCH   5   8
ATOM      8  C   UNL     1      42.731 132.891  16.436  1.00  0.00     0.322 C 
BRANCH   8   9
ATOM      9  N   UNL     1      42.934 134.367  16.242  1.00  0.00    -0.320 N 
ATOM     10  C   UNL     1      43.124 134.679  14.805  1.00  0.00     0.334 C 
ATOM     11  C   UNL     1      44.132 134.822  16.989  1.00  0.00     0.334 C 
BRANCH   9  12
ATOM     12  C   UNL     1      41.705 135.051  16.769  1.00  0.00     0.301 C 
BRANCH  12  13
ATOM     13  C   UNL     1      40.976 135.957  15.773  1.00  0.00     0.014 A 
ATOM     14  C   UNL     1      41.348 137.316  15.740  1.00  0.00     0.010 A 
ATOM     15  C   UNL     1      39.926 135.512  14.913  1.00  0.00    -0.010 A 
ATOM     16  C   UNL     1      40.754 138.206  14.850  1.00  0.00     0.001 A 
ATOM     17  C   UNL     1      39.433 134.187  14.929  1.00  0.00     0.009 A 
ATOM     18  C   UNL     1      39.335 136.436  14.005  1.00  0.00    -0.018 A 
ATOM     19  C   UNL     1      39.761 137.770  13.979  1.00  0.00     0.009 A 
ATOM     20  C   UNL     1      38.416 133.792  14.058  1.00  0.00     0.001 A 
ATOM     21  C   UNL     1      38.313 136.020  13.137  1.00  0.00     0.009 A 
ATOM     22  C   UNL     1      37.861 134.702  13.162  1.00  0.00     0.001 A 
ENDBRANCH  12  13
ENDBRANCH   9  12
ENDBRANCH   8   9
ENDBRANCH   5   8
BRANCH   4  23
ATOM     23  C   UNL     1      45.485 131.972  15.127  1.00  0.00     0.169 C 
BRANCH  23  24
ATOM     24  C   UNL     1      45.126 130.789  14.182  1.00  0.00     0.077 C 
ATOM     25  C   UNL     1      45.286 129.426  14.870  1.00  0.00     0.024 C 
ATOM     26  C   UNL     1      46.123 130.721  13.020  1.00  0.00     0.024 C 
ATOM     27  C   UNL     1      46.735 129.000  14.648  1.00  0.00     0.002 C 
ATOM     28  C   UNL     1      47.283 129.866  13.515  1.00  0.00     0.002 C 
BRANCH  24  29
ATOM     29  C   UNL     1      43.755 130.958  13.657  1.00  0.00     0.071 C 
ATOM     30  N   UNL     1      42.681 131.089  13.244  1.00  0.00    -0.198 NA
ENDBRANCH  24  29
ENDBRANCH  23  24
ENDBRANCH   4  23
TORSDOF 8
ENDMDL
MODEL 5
REMARK VINA RESULT:      -7.2      2.089      3.036
REMARK SMILES CCc1nnn(CC2(C#N)CCCC2)c1C[N+](C)(C)Cc1cccc2ccccc12
REMARK SMILES IDX 3 1 4 2 5 3 6 4 15 5 2 6 1 7 16 8 17 9 18 10 19 11 20 12
REMARK SMILES IDX 21 13 22 14 30 15 23 16 29 17 25 18 24 19 28 20 26 21 27 22
REMARK SMILES IDX 7 23 8 24 11 25 14 26 12 27 13 28 9 29 10 30
REMARK H PARENT
ROOT
ATOM      1  C   UNL     1      43.996 133.267  18.468  1.00  0.00     0.091 A 
ATOM      2  N   UNL     1      44.374 131.998  18.720  1.00  0.00    -0.135 NA
ATOM      3  N   UNL     1      44.897 131.518  17.603  1.00  0.00    -0.067 NA
ATOM      4  N   UNL     1      44.885 132.432  16.645  1.00  0.00    -0.242 N 
ATOM      5  C   UNL     1      44.301 133.551  17.141  1.00  0.00     0.116 A 
ENDROOT
BRANCH   1   6
ATOM      6  C   UNL     1      43.516 134.204  19.541  1.00  0.00     0.057 C 
ATOM      7  C   UNL     1      44.180 133.897  20.880  1.00  0.00     0.011 C 
ENDBRANCH   1   6
BRANCH   5   8
ATOM      8  C   UNL     1      44.096 134.866  16.400  1.00  0.00     0.322 C 
BRANCH   8   9
ATOM      9  N   UNL     1      42.692 135.141  15.942  1.00  0.00    -0.320 N 
ATOM     10  C   UNL     1      42.663 135.379  14.479  1.00  0.00     0.334 C 
ATOM     11  C   UNL     1      42.156 136.342  16.629  1.00  0.00     0.334 C 
BRANCH   9  12
ATOM     12  C   UNL     1      41.871 133.934  16.294  1.00  0.00     0.301 C 
BRANCH  12  13
ATOM     13  C   UNL     1      40.355 134.106  16.164  1.00  0.00     0.014 A 
ATOM     14  C   UNL     1      39.817 134.158  14.863  1.00  0.00     0.010 A 
ATOM     15  C   UNL     1      39.472 134.252  17.278  1.00  0.00    -0.010 A 
ATOM     16  C   UNL     1      38.448 134.289  14.651  1.00  0.00     0.001 A 
ATOM     17  C   UNL     1      39.927 134.289  18.616  1.00  0.00     0.009 A 
ATOM     18  C   UNL     1      38.074 134.380  17.041  1.00  0.00    -0.018 A 
ATOM     19  C   UNL     1      37.578 134.389  15.732  1.00  0.00     0.009 A 
ATOM     20  C   UNL     1      39.025 134.417  19.675  1.00  0.00     0.001 A 
ATOM     21  C   UNL     1      37.182 134.507  18.119  1.00  0.00     0.009 A 
ATOM     22  C   UNL     1      37.658 134.521  19.429  1.00  0.00     0.001 A 
ENDBRANCH  12  13
ENDBRANCH   9  12
ENDBRANCH   8   9
ENDBRANCH   5   8
BRANCH   4  23
ATOM     23  C   UNL     1      45.510 132.220  15.333  1.00  0.00     0.169 C 
BRANCH  23  24
ATOM     24  C   UNL     1      44.838 131.069  14.530  1.00  0.00     0.077 C 
ATOM     25  C   UNL     1      44.838 129.742  15.304  1.00  0.00     0.024 C 
ATOM     26  C   UNL     1      45.660 130.750  13.276  1.00  0.00     0.024 C 
ATOM     27  C   UNL     1      46.153 129.046  14.962  1.00  0.00     0.002 C 
ATOM     28  C   UNL     1      46.703 129.728  13.710  1.00  0.00     0.002 C 
BRANCH  24  29
ATOM     29  C   UNL     1      43.464 131.454  14.144  1.00  0.00     0.071 C 
ATOM     30  N   UNL     1      42.388 131.755  13.842  1.00  0.00    -0.198 NA
ENDBRANCH  24  29
ENDBRANCH  23  24
ENDBRANCH   4  23
TORSDOF 8
ENDMDL
MODEL 6
REMARK VINA RESULT:      -6.8      1.552      4.917
REMARK SMILES CCc1nnn(CC2(C#N)CCCC2)c1C[N+](C)(C)Cc1cccc2ccccc12
REMARK SMILES IDX 3 1 4 2 5 3 6 4 15 5 2 6 1 7 16 8 17 9 18 10 19 11 20 12
REMARK SMILES IDX 21 13 22 14 30 15 23 16 29 17 25 18 24 19 28 20 26 21 27 22
REMARK SMILES IDX 7 23 8 24 11 25 14 26 12 27 13 28 9 29 10 30
REMARK H PARENT
ROOT
ATOM      1  C   UNL     1      45.908 131.416  16.032  1.00  0.00     0.091 A 
ATOM      2  N   UNL     1      46.209 130.339  16.783  1.00  0.00    -0.135 NA
ATOM      3  N   UNL     1      45.495 130.426  17.894  1.00  0.00    -0.067 NA
ATOM      4  N   UNL     1      44.735 131.511  17.882  1.00  0.00    -0.242 N 
ATOM      5  C   UNL     1      44.981 132.182  16.730  1.00  0.00     0.116 A 
ENDROOT
BRANCH   1   6
ATOM      6  C   UNL     1      46.388 131.584  14.616  1.00  0.00     0.057 C 
ATOM      7  C   UNL     1      47.495 130.587  14.287  1.00  0.00     0.011 C 
ENDBRANCH   1   6
BRANCH   5   8
ATOM      8  C   UNL     1      44.312 133.474  16.278  1.00  0.00     0.322 C 
BRANCH   8   9
ATOM      9  N   UNL     1      42.922 133.328  15.728  1.00  0.00    -0.320 N 
ATOM     10  C   UNL     1      41.947 133.148  16.831  1.00  0.00     0.334 C 
ATOM     11  C   UNL     1      42.847 132.149  14.831  1.00  0.00     0.334 C 
BRANCH   9  12
ATOM     12  C   UNL     1      42.620 134.583  14.961  1.00  0.00     0.301 C 
BRANCH  12  13
ATOM     13  C   UNL     1      41.402 135.376  15.445  1.00  0.00     0.014 A 
ATOM     14  C   UNL     1      41.631 136.419  16.365  1.00  0.00     0.010 A 
ATOM     15  C   UNL     1      40.060 135.094  15.047  1.00  0.00    -0.010 A 
ATOM     16  C   UNL     1      40.586 137.205  16.840  1.00  0.00     0.001 A 
ATOM     17  C   UNL     1      39.724 134.021  14.189  1.00  0.00     0.009 A 
ATOM     18  C   UNL     1      39.004 135.913  15.539  1.00  0.00    -0.018 A 
ATOM     19  C   UNL     1      39.280 136.964  16.423  1.00  0.00     0.009 A 
ATOM     20  C   UNL     1      38.399 133.793  13.813  1.00  0.00     0.001 A 
ATOM     21  C   UNL     1      37.677 135.668  15.149  1.00  0.00     0.009 A 
ATOM     22  C   UNL     1      37.380 134.615  14.287  1.00  0.00     0.001 A 
ENDBRANCH  12  13
ENDBRANCH   9  12
ENDBRANCH   8   9
ENDBRANCH   5   8
BRANCH   4  23
ATOM     23  C   UNL     1      43.749 131.804  18.930  1.00  0.00     0.169 C 
BRANCH  23  24
ATOM     24  C   UNL     1      44.358 132.612  20.114  1.00  0.00     0.077 C 
ATOM     25  C   UNL     1      45.767 132.126  20.485  1.00  0.00     0.024 C 
ATOM     26  C   UNL     1      43.547 132.366  21.392  1.00  0.00     0.024 C 
ATOM     27  C   UNL     1      45.580 131.008  21.507  1.00  0.00     0.002 C 
ATOM     28  C   UNL     1      44.151 131.124  22.037  1.00  0.00     0.002 C 
BRANCH  24  29
ATOM     29  C   UNL     1      44.363 134.054  19.794  1.00  0.00     0.071 C 
ATOM     30  N   UNL     1      44.367 135.185  19.542  1.00  0.00    -0.198 NA
ENDBRANCH  24  29
ENDBRANCH  23  24
ENDBRANCH   4  23
TORSDOF 8
ENDMDL
MODEL 7
REMARK VINA RESULT:      -6.7      1.352      4.466
REMARK SMILES CCc1nnn(CC2(C#N)CCCC2)c1C[N+](C)(C)Cc1cccc2ccccc12
REMARK SMILES IDX 3 1 4 2 5 3 6 4 15 5 2 6 1 7 16 8 17 9 18 10 19 11 20 12
REMARK SMILES IDX 21 13 22 14 30 15 23 16 29 17 25 18 24 19 28 20 26 21 27 22
REMARK SMILES IDX 7 23 8 24 11 25 14 26 12 27 13 28 9 29 10 30
REMARK H PARENT
ROOT
ATOM      1  C   UNL     1      45.985 131.449  15.931  1.00  0.00     0.091 A 
ATOM      2  N   UNL     1      46.259 130.335  16.637  1.00  0.00    -0.135 NA
ATOM      3  N   UNL     1      45.534 130.385  17.743  1.00  0.00    -0.067 NA
ATOM      4  N   UNL     1      44.793 131.483  17.771  1.00  0.00    -0.242 N 
ATOM      5  C   UNL     1      45.063 132.199  16.652  1.00  0.00     0.116 A 
ENDROOT
BRANCH   1   6
ATOM      6  C   UNL     1      46.484 131.670  14.530  1.00  0.00     0.057 C 
ATOM      7  C   UNL     1      47.391 130.529  14.080  1.00  0.00     0.011 C 
ENDBRANCH   1   6
BRANCH   5   8
ATOM      8  C   UNL     1      44.421 133.521  16.251  1.00  0.00     0.322 C 
BRANCH   8   9
ATOM      9  N   UNL     1      43.049 133.421  15.647  1.00  0.00    -0.320 N 
ATOM     10  C   UNL     1      42.012 133.578  16.695  1.00  0.00     0.334 C 
ATOM     11  C   UNL     1      42.871 132.099  14.998  1.00  0.00     0.334 C 
BRANCH   9  12
ATOM     12  C   UNL     1      42.937 134.518  14.628  1.00  0.00     0.301 C 
BRANCH  12  13
ATOM     13  C   UNL     1      41.533 135.097  14.435  1.00  0.00     0.014 A 
ATOM     14  C   UNL     1      40.525 134.220  13.985  1.00  0.00     0.010 A 
ATOM     15  C   UNL     1      41.202 136.471  14.646  1.00  0.00    -0.010 A 
ATOM     16  C   UNL     1      39.216 134.655  13.804  1.00  0.00     0.001 A 
ATOM     17  C   UNL     1      42.159 137.440  15.023  1.00  0.00     0.009 A 
ATOM     18  C   UNL     1      39.855 136.895  14.462  1.00  0.00    -0.018 A 
ATOM     19  C   UNL     1      38.877 135.982  14.050  1.00  0.00     0.009 A 
ATOM     20  C   UNL     1      41.787 138.769  15.236  1.00  0.00     0.001 A 
ATOM     21  C   UNL     1      39.500 138.236  14.681  1.00  0.00     0.009 A 
ATOM     22  C   UNL     1      40.462 139.166  15.071  1.00  0.00     0.001 A 
ENDBRANCH  12  13
ENDBRANCH   9  12
ENDBRANCH   8   9
ENDBRANCH   5   8
BRANCH   4  23
ATOM     23  C   UNL     1      43.800 131.747  18.821  1.00  0.00     0.169 C 
BRANCH  23  24
ATOM     24  C   UNL     1      44.393 132.549  20.016  1.00  0.00     0.077 C 
ATOM     25  C   UNL     1      45.824 132.109  20.358  1.00  0.00     0.024 C 
ATOM     26  C   UNL     1      43.609 132.242  21.297  1.00  0.00     0.024 C 
ATOM     27  C   UNL     1      45.693 130.961  21.355  1.00  0.00     0.002 C 
ATOM     28  C   UNL     1      44.268 131.010  21.904  1.00  0.00     0.002 C 
BRANCH  24  29
ATOM     29  C   UNL     1      44.340 133.998  19.731  1.00  0.00     0.071 C 
ATOM     30  N   UNL     1      44.299 135.133  19.506  1.00  0.00    -0.198 NA
ENDBRANCH  24  29
ENDBRANCH  23  24
ENDBRANCH   4  23
TORSDOF 8
ENDMDL
MODEL 8
REMARK VINA RESULT:      -6.7      2.631      7.234
REMARK SMILES CCc1nnn(CC2(C#N)CCCC2)c1C[N+](C)(C)Cc1cccc2ccccc12
REMARK SMILES IDX 3 1 4 2 5 3 6 4 15 5 2 6 1 7 16 8 17 9 18 10 19 11 20 12
REMARK SMILES IDX 21 13 22 14 30 15 23 16 29 17 25 18 24 19 28 20 26 21 27 22
REMARK SMILES IDX 7 23 8 24 11 25 14 26 12 27 13 28 9 29 10 30
REMARK H PARENT
ROOT
ATOM      1  C   UNL     1      43.089 132.266  14.907  1.00  0.00     0.091 A 
ATOM      2  N   UNL     1      42.187 132.102  13.920  1.00  0.00    -0.135 NA
ATOM      3  N   UNL     1      41.152 132.876  14.204  1.00  0.00    -0.067 NA
ATOM      4  N   UNL     1      41.358 133.544  15.329  1.00  0.00    -0.242 N 
ATOM      5  C   UNL     1      42.565 133.172  15.822  1.00  0.00     0.116 A 
ENDROOT
BRANCH   1   6
ATOM      6  C   UNL     1      44.475 131.684  14.851  1.00  0.00     0.057 C 
ATOM      7  C   UNL     1      44.557 130.549  13.835  1.00  0.00     0.011 C 
ENDBRANCH   1   6
BRANCH   5   8
ATOM      8  C   UNL     1      43.226 133.704  17.088  1.00  0.00     0.322 C 
BRANCH   8   9
ATOM      9  N   UNL     1      43.044 132.862  18.319  1.00  0.00    -0.320 N 
ATOM     10  C   UNL     1      44.275 132.086  18.601  1.00  0.00     0.334 C 
ATOM     11  C   UNL     1      41.918 131.914  18.129  1.00  0.00     0.334 C 
BRANCH   9  12
ATOM     12  C   UNL     1      42.744 133.801  19.452  1.00  0.00     0.301 C 
BRANCH  12  13
ATOM     13  C   UNL     1      43.948 134.213  20.304  1.00  0.00     0.014 A 
ATOM     14  C   UNL     1      44.292 133.379  21.386  1.00  0.00     0.010 A 
ATOM     15  C   UNL     1      44.708 135.402  20.085  1.00  0.00    -0.010 A 
ATOM     16  C   UNL     1      45.385 133.663  22.199  1.00  0.00     0.001 A 
ATOM     17  C   UNL     1      44.393 136.337  19.073  1.00  0.00     0.009 A 
ATOM     18  C   UNL     1      45.827 135.673  20.923  1.00  0.00    -0.018 A 
ATOM     19  C   UNL     1      46.157 134.798  21.965  1.00  0.00     0.009 A 
ATOM     20  C   UNL     1      45.175 137.479  18.884  1.00  0.00     0.001 A 
ATOM     21  C   UNL     1      46.602 136.826  20.718  1.00  0.00     0.009 A 
ATOM     22  C   UNL     1      46.278 137.720  19.700  1.00  0.00     0.001 A 
ENDBRANCH  12  13
ENDBRANCH   9  12
ENDBRANCH   8   9
ENDBRANCH   5   8
BRANCH   4  23
ATOM     23  C   UNL     1      40.432 134.569  15.829  1.00  0.00     0.169 C 
BRANCH  23  24
ATOM     24  C   UNL     1      40.530 135.903  15.032  1.00  0.00     0.077 C 
ATOM     25  C   UNL     1      41.984 136.353  14.828  1.00  0.00     0.024 C 
ATOM     26  C   UNL     1      39.912 137.048  15.842  1.00  0.00     0.024 C 
ATOM     27  C   UNL     1      42.346 137.199  16.046  1.00  0.00     0.002 C 
ATOM     28  C   UNL     1      41.032 137.588  16.723  1.00  0.00     0.002 C 
BRANCH  24  29
ATOM     29  C   UNL     1      39.832 135.772  13.736  1.00  0.00     0.071 C 
ATOM     30  N   UNL     1      39.283 135.668  12.722  1.00  0.00    -0.198 NA
ENDBRANCH  24  29
ENDBRANCH  23  24
ENDBRANCH   4  23
TORSDOF 8
ENDMDL
MODEL 9
REMARK VINA RESULT:      -6.6      2.592      5.709
REMARK SMILES CCc1nnn(CC2(C#N)CCCC2)c1C[N+](C)(C)Cc1cccc2ccccc12
REMARK SMILES IDX 3 1 4 2 5 3 6 4 15 5 2 6 1 7 16 8 17 9 18 10 19 11 20 12
REMARK SMILES IDX 21 13 22 14 30 15 23 16 29 17 25 18 24 19 28 20 26 21 27 22
REMARK SMILES IDX 7 23 8 24 11 25 14 26 12 27 13 28 9 29 10 30
REMARK H PARENT
ROOT
ATOM      1  C   UNL     1      42.431 134.470  16.708  1.00  0.00     0.091 A 
ATOM      2  N   UNL     1      43.046 135.161  15.729  1.00  0.00    -0.135 NA
ATOM      3  N   UNL     1      44.092 134.448  15.345  1.00  0.00    -0.067 NA
ATOM      4  N   UNL     1      44.168 133.316  16.029  1.00  0.00    -0.242 N 
ATOM      5  C   UNL     1      43.148 133.297  16.921  1.00  0.00     0.116 A 
ENDROOT
BRANCH   1   6
ATOM      6  C   UNL     1      41.101 134.873  17.281  1.00  0.00     0.057 C 
ATOM      7  C   UNL     1      41.038 136.377  17.526  1.00  0.00     0.011 C 
ENDBRANCH   1   6
BRANCH   5   8
ATOM      8  C   UNL     1      42.827 132.176  17.901  1.00  0.00     0.322 C 
BRANCH   8   9
ATOM      9  N   UNL     1      43.391 132.340  19.284  1.00  0.00    -0.320 N 
ATOM     10  C   UNL     1      44.847 132.060  19.284  1.00  0.00     0.334 C 
ATOM     11  C   UNL     1      42.727 131.403  20.223  1.00  0.00     0.334 C 
BRANCH   9  12
ATOM     12  C   UNL     1      43.130 133.760  19.699  1.00  0.00     0.301 C 
BRANCH  12  13
ATOM     13  C   UNL     1      44.261 134.439  20.475  1.00  0.00     0.014 A 
ATOM     14  C   UNL     1      44.651 133.855  21.697  1.00  0.00     0.010 A 
ATOM     15  C   UNL     1      44.908 135.640  20.051  1.00  0.00    -0.010 A 
ATOM     16  C   UNL     1      45.685 134.392  22.458  1.00  0.00     0.001 A 
ATOM     17  C   UNL     1      44.535 136.339  18.881  1.00  0.00     0.009 A 
ATOM     18  C   UNL     1      45.969 136.171  20.840  1.00  0.00    -0.018 A 
ATOM     19  C   UNL     1      46.349 135.537  22.029  1.00  0.00     0.009 A 
ATOM     20  C   UNL     1      45.208 137.500  18.495  1.00  0.00     0.001 A 
ATOM     21  C   UNL     1      46.634 137.340  20.436  1.00  0.00     0.009 A 
ATOM     22  C   UNL     1      46.257 137.997  19.266  1.00  0.00     0.001 A 
ENDBRANCH  12  13
ENDBRANCH   9  12
ENDBRANCH   8   9
ENDBRANCH   5   8
BRANCH   4  23
ATOM     23  C   UNL     1      45.159 132.272  15.735  1.00  0.00     0.169 C 
BRANCH  23  24
ATOM     24  C   UNL     1      44.615 131.193  14.754  1.00  0.00     0.077 C 
ATOM     25  C   UNL     1      44.535 129.804  15.404  1.00  0.00     0.024 C 
ATOM     26  C   UNL     1      45.600 130.988  13.597  1.00  0.00     0.024 C 
ATOM     27  C   UNL     1      45.893 129.145  15.180  1.00  0.00     0.002 C 
ATOM     28  C   UNL     1      46.593 129.936  14.075  1.00  0.00     0.002 C 
BRANCH  24  29
ATOM     29  C   UNL     1      43.299 131.605  14.224  1.00  0.00     0.071 C 
ATOM     30  N   UNL     1      42.268 131.929  13.808  1.00  0.00    -0.198 NA
ENDBRANCH  24  29
ENDBRANCH  23  24
ENDBRANCH   4  23
TORSDOF 8
ENDMDL


