MODEL 1
REMARK VINA RESULT:      -7.0      0.000      0.000
REMARK SMILES C#C/C(=N\[C@H](c1c(C)[nH+]nn1-c1c2ccccc2c(C=O)c2ccccc12)C(C)C)OC(=O)C=C
REMARK SMILES IDX 4 1 3 2 2 3 1 4 31 5 32 6 33 7 34 8 35 9 5 10 6 11 7 12
REMARK SMILES IDX 11 13 9 14 10 15 8 16 12 18 13 19 27 20 14 21 18 22 26 23
REMARK SMILES IDX 22 24 15 25 17 26 19 27 25 28 23 29 16 30 24 31 20 32 21 33
REMARK SMILES IDX 28 34 29 35 30 36
REMARK H PARENT 9 17
ROOT
ATOM      1  N   UNL     1      43.150 132.464  16.492  1.00  0.00    -0.231 NA
ENDROOT
BRANCH   1   2
ATOM      2  C   UNL     1      44.016 131.507  16.297  1.00  0.00     0.272 C 
BRANCH   2   3
ATOM      3  C   UNL     1      44.918 131.078  17.338  1.00  0.00    -0.011 C 
ATOM      4  C   UNL     1      45.671 130.725  18.211  1.00  0.00     0.015 C 
ENDBRANCH   2   3
BRANCH   2   5
ATOM      5  O   UNL     1      44.091 130.845  15.064  1.00  0.00    -0.396 OA
BRANCH   5   6
ATOM      6  C   UNL     1      45.226 130.200  14.553  1.00  0.00     0.337 C 
ATOM      7  O   UNL     1      45.410 128.964  14.734  1.00  0.00    -0.246 OA
BRANCH   6   8
ATOM      8  C   UNL     1      46.195 130.991  13.778  1.00  0.00     0.086 C 
ATOM      9  C   UNL     1      46.826 130.507  12.710  1.00  0.00     0.016 C 
ENDBRANCH   6   8
ENDBRANCH   5   6
ENDBRANCH   2   5
ENDBRANCH   1   2
BRANCH   1  10
ATOM     10  C   UNL     1      43.442 133.861  16.838  1.00  0.00     0.190 C 
BRANCH  10  11
ATOM     11  C   UNL     1      42.363 134.362  17.776  1.00  0.00     0.201 A 
ATOM     12  C   UNL     1      41.004 134.521  17.530  1.00  0.00     0.167 A 
ATOM     13  N   UNL     1      42.553 134.711  19.070  1.00  0.00    -0.095 N 
ATOM     14  N   UNL     1      40.439 134.941  18.678  1.00  0.00    -0.147 N 
ATOM     15  N   UNL     1      41.387 135.051  19.593  1.00  0.00     0.094 NA
ATOM     16  C   UNL     1      40.224 134.109  16.322  1.00  0.00     0.100 C 
ATOM     17  H   UNL     1      39.424 135.118  18.850  1.00  0.00     0.342 HD
BRANCH  13  18
ATOM     18  C   UNL     1      43.779 134.653  19.820  1.00  0.00     0.171 A 
ATOM     19  C   UNL     1      44.101 133.492  20.553  1.00  0.00     0.032 A 
ATOM     20  C   UNL     1      44.634 135.775  19.861  1.00  0.00     0.032 A 
ATOM     21  C   UNL     1      43.266 132.355  20.497  1.00  0.00     0.013 A 
ATOM     22  C   UNL     1      45.271 133.457  21.358  1.00  0.00    -0.003 A 
ATOM     23  C   UNL     1      44.343 136.927  19.096  1.00  0.00     0.013 A 
ATOM     24  C   UNL     1      45.792 135.762  20.685  1.00  0.00    -0.003 A 
ATOM     25  C   UNL     1      43.578 131.204  21.217  1.00  0.00     0.001 A 
ATOM     26  C   UNL     1      45.570 132.268  22.066  1.00  0.00     0.009 A 
ATOM     27  C   UNL     1      46.122 134.592  21.423  1.00  0.00     0.030 A 
ATOM     28  C   UNL     1      45.149 138.060  19.178  1.00  0.00     0.001 A 
ATOM     29  C   UNL     1      46.573 136.939  20.772  1.00  0.00     0.009 A 
ATOM     30  C   UNL     1      44.727 131.160  21.997  1.00  0.00     0.001 A 
ATOM     31  C   UNL     1      46.252 138.070  20.023  1.00  0.00     0.001 A 
BRANCH  27  32
ATOM     32  C   UNL     1      47.350 134.543  22.253  1.00  0.00     0.261 C 
ATOM     33  O   UNL     1      47.318 134.867  23.470  1.00  0.00    -0.298 OA
ENDBRANCH  27  32
ENDBRANCH  13  18
ENDBRANCH  10  11
BRANCH  10  34
ATOM     34  C   UNL     1      43.562 134.728  15.555  1.00  0.00     0.016 C 
ATOM     35  C   UNL     1      42.638 134.214  14.439  1.00  0.00     0.010 C 
ATOM     36  C   UNL     1      43.230 136.198  15.852  1.00  0.00     0.010 C 
ENDBRANCH  10  34
ENDBRANCH   1  10
TORSDOF 10
ENDMDL
MODEL 2
REMARK VINA RESULT:      -6.8      1.905      3.396
REMARK SMILES C#C/C(=N\[C@H](c1c(C)[nH+]nn1-c1c2ccccc2c(C=O)c2ccccc12)C(C)C)OC(=O)C=C
REMARK SMILES IDX 4 1 3 2 2 3 1 4 31 5 32 6 33 7 34 8 35 9 5 10 6 11 7 12
REMARK SMILES IDX 11 13 9 14 10 15 8 16 12 18 13 19 27 20 14 21 18 22 26 23
REMARK SMILES IDX 22 24 15 25 17 26 19 27 25 28 23 29 16 30 24 31 20 32 21 33
REMARK SMILES IDX 28 34 29 35 30 36
REMARK H PARENT 9 17
ROOT
ATOM      1  N   UNL     1      44.146 131.899  18.044  1.00  0.00    -0.231 NA
ENDROOT
BRANCH   1   2
ATOM      2  C   UNL     1      45.155 131.149  18.394  1.00  0.00     0.272 C 
BRANCH   2   3
ATOM      3  C   UNL     1      45.692 131.177  19.733  1.00  0.00    -0.011 C 
ATOM      4  C   UNL     1      46.146 131.200  20.850  1.00  0.00     0.015 C 
ENDBRANCH   2   3
BRANCH   2   5
ATOM      5  O   UNL     1      45.750 130.271  17.478  1.00  0.00    -0.396 OA
BRANCH   5   6
ATOM      6  C   UNL     1      45.625 130.339  16.083  1.00  0.00     0.337 C 
ATOM      7  O   UNL     1      44.759 129.653  15.472  1.00  0.00    -0.246 OA
BRANCH   6   8
ATOM      8  C   UNL     1      46.515 131.247  15.341  1.00  0.00     0.086 C 
ATOM      9  C   UNL     1      46.655 131.191  14.018  1.00  0.00     0.016 C 
ENDBRANCH   6   8
ENDBRANCH   5   6
ENDBRANCH   2   5
ENDBRANCH   1   2
BRANCH   1  10
ATOM     10  C   UNL     1      44.058 133.361  18.141  1.00  0.00     0.190 C 
BRANCH  10  11
ATOM     11  C   UNL     1      43.268 133.717  19.384  1.00  0.00     0.201 A 
ATOM     12  C   UNL     1      42.317 132.957  20.055  1.00  0.00     0.167 A 
ATOM     13  N   UNL     1      43.399 134.863  20.091  1.00  0.00    -0.095 N 
ATOM     14  N   UNL     1      41.930 133.666  21.133  1.00  0.00    -0.147 N 
ATOM     15  N   UNL     1      42.591 134.811  21.138  1.00  0.00     0.094 NA
ATOM     16  C   UNL     1      41.922 131.535  19.810  1.00  0.00     0.100 C 
ATOM     17  H   UNL     1      41.256 133.367  21.872  1.00  0.00     0.342 HD
BRANCH  13  18
ATOM     18  C   UNL     1      44.312 135.946  19.841  1.00  0.00     0.171 A 
ATOM     19  C   UNL     1      45.583 135.950  20.451  1.00  0.00     0.032 A 
ATOM     20  C   UNL     1      43.917 137.027  19.023  1.00  0.00     0.032 A 
ATOM     21  C   UNL     1      45.998 134.862  21.249  1.00  0.00     0.013 A 
ATOM     22  C   UNL     1      46.460 137.055  20.270  1.00  0.00    -0.003 A 
ATOM     23  C   UNL     1      42.663 137.011  18.371  1.00  0.00     0.013 A 
ATOM     24  C   UNL     1      44.773 138.148  18.857  1.00  0.00    -0.003 A 
ATOM     25  C   UNL     1      47.252 134.859  21.855  1.00  0.00     0.001 A 
ATOM     26  C   UNL     1      47.734 137.015  20.885  1.00  0.00     0.009 A 
ATOM     27  C   UNL     1      46.056 138.155  19.468  1.00  0.00     0.030 A 
ATOM     28  C   UNL     1      42.240 138.100  17.612  1.00  0.00     0.001 A 
ATOM     29  C   UNL     1      44.303 139.253  18.106  1.00  0.00     0.009 A 
ATOM     30  C   UNL     1      48.118 135.931  21.672  1.00  0.00     0.001 A 
ATOM     31  C   UNL     1      43.052 139.221  17.490  1.00  0.00     0.001 A 
BRANCH  27  32
ATOM     32  C   UNL     1      46.982 139.297  19.271  1.00  0.00     0.261 C 
ATOM     33  O   UNL     1      47.709 139.367  18.244  1.00  0.00    -0.298 OA
ENDBRANCH  27  32
ENDBRANCH  13  18
ENDBRANCH  10  11
BRANCH  10  34
ATOM     34  C   UNL     1      43.432 133.957  16.850  1.00  0.00     0.016 C 
ATOM     35  C   UNL     1      44.461 134.769  16.047  1.00  0.00     0.010 C 
ATOM     36  C   UNL     1      42.851 132.849  15.959  1.00  0.00     0.010 C 
ENDBRANCH  10  34
ENDBRANCH   1  10
TORSDOF 10
ENDMDL
MODEL 3
REMARK VINA RESULT:      -6.6      1.115      1.656
REMARK SMILES C#C/C(=N\[C@H](c1c(C)[nH+]nn1-c1c2ccccc2c(C=O)c2ccccc12)C(C)C)OC(=O)C=C
REMARK SMILES IDX 4 1 3 2 2 3 1 4 31 5 32 6 33 7 34 8 35 9 5 10 6 11 7 12
REMARK SMILES IDX 11 13 9 14 10 15 8 16 12 18 13 19 27 20 14 21 18 22 26 23
REMARK SMILES IDX 22 24 15 25 17 26 19 27 25 28 23 29 16 30 24 31 20 32 21 33
REMARK SMILES IDX 28 34 29 35 30 36
REMARK H PARENT 9 17
ROOT
ATOM      1  N   UNL     1      43.335 132.342  17.225  1.00  0.00    -0.231 NA
ENDROOT
BRANCH   1   2
ATOM      2  C   UNL     1      44.252 131.419  17.126  1.00  0.00     0.272 C 
BRANCH   2   3
ATOM      3  C   UNL     1      45.088 131.059  18.245  1.00  0.00    -0.011 C 
ATOM      4  C   UNL     1      45.782 130.756  19.183  1.00  0.00     0.015 C 
ENDBRANCH   2   3
BRANCH   2   5
ATOM      5  O   UNL     1      44.450 130.729  15.923  1.00  0.00    -0.396 OA
BRANCH   5   6
ATOM      6  C   UNL     1      45.619 130.756  15.150  1.00  0.00     0.337 C 
ATOM      7  O   UNL     1      46.757 130.842  15.691  1.00  0.00    -0.246 OA
BRANCH   6   8
ATOM      8  C   UNL     1      45.497 130.660  13.687  1.00  0.00     0.086 C 
ATOM      9  C   UNL     1      46.522 130.337  12.900  1.00  0.00     0.016 C 
ENDBRANCH   6   8
ENDBRANCH   5   6
ENDBRANCH   2   5
ENDBRANCH   1   2
BRANCH   1  10
ATOM     10  C   UNL     1      43.523 133.792  17.086  1.00  0.00     0.190 C 
BRANCH  10  11
ATOM     11  C   UNL     1      42.448 134.498  17.888  1.00  0.00     0.201 A 
ATOM     12  C   UNL     1      41.068 134.353  17.806  1.00  0.00     0.167 A 
ATOM     13  N   UNL     1      42.674 135.388  18.882  1.00  0.00    -0.095 N 
ATOM     14  N   UNL     1      40.529 135.145  18.753  1.00  0.00    -0.147 N 
ATOM     15  N   UNL     1      41.511 135.761  19.390  1.00  0.00     0.094 NA
ATOM     16  C   UNL     1      40.283 133.364  17.005  1.00  0.00     0.100 C 
ATOM     17  H   UNL     1      39.516 135.242  18.989  1.00  0.00     0.342 HD
BRANCH  13  18
ATOM     18  C   UNL     1      43.946 135.820  19.397  1.00  0.00     0.171 A 
ATOM     19  C   UNL     1      44.640 135.015  20.323  1.00  0.00     0.032 A 
ATOM     20  C   UNL     1      44.474 137.072  19.012  1.00  0.00     0.032 A 
ATOM     21  C   UNL     1      44.134 133.751  20.694  1.00  0.00     0.013 A 
ATOM     22  C   UNL     1      45.859 135.472  20.894  1.00  0.00    -0.003 A 
ATOM     23  C   UNL     1      43.808 137.866  18.051  1.00  0.00     0.013 A 
ATOM     24  C   UNL     1      45.676 137.551  19.598  1.00  0.00    -0.003 A 
ATOM     25  C   UNL     1      44.815 132.949  21.608  1.00  0.00     0.001 A 
ATOM     26  C   UNL     1      46.536 134.629  21.807  1.00  0.00     0.009 A 
ATOM     27  C   UNL     1      46.381 136.741  20.529  1.00  0.00     0.030 A 
ATOM     28  C   UNL     1      44.289 139.128  17.712  1.00  0.00     0.001 A 
ATOM     29  C   UNL     1      46.123 138.850  19.256  1.00  0.00     0.009 A 
ATOM     30  C   UNL     1      46.013 133.386  22.160  1.00  0.00     0.001 A 
ATOM     31  C   UNL     1      45.436 139.623  18.321  1.00  0.00     0.001 A 
BRANCH  27  32
ATOM     32  C   UNL     1      47.662 137.205  21.117  1.00  0.00     0.261 C 
ATOM     33  O   UNL     1      47.672 137.940  22.141  1.00  0.00    -0.298 OA
ENDBRANCH  27  32
ENDBRANCH  13  18
ENDBRANCH  10  11
BRANCH  10  34
ATOM     34  C   UNL     1      43.509 134.203  15.588  1.00  0.00     0.016 C 
ATOM     35  C   UNL     1      42.574 133.303  14.764  1.00  0.00     0.010 C 
ATOM     36  C   UNL     1      43.079 135.668  15.423  1.00  0.00     0.010 C 
ENDBRANCH  10  34
ENDBRANCH   1  10
TORSDOF 10
ENDMDL
MODEL 4
REMARK VINA RESULT:      -6.5      2.769      5.963
REMARK SMILES C#C/C(=N\[C@H](c1c(C)[nH+]nn1-c1c2ccccc2c(C=O)c2ccccc12)C(C)C)OC(=O)C=C
REMARK SMILES IDX 4 1 3 2 2 3 1 4 31 5 32 6 33 7 34 8 35 9 5 10 6 11 7 12
REMARK SMILES IDX 11 13 9 14 10 15 8 16 12 18 13 19 27 20 14 21 18 22 26 23
REMARK SMILES IDX 22 24 15 25 17 26 19 27 25 28 23 29 16 30 24 31 20 32 21 33
REMARK SMILES IDX 28 34 29 35 30 36
REMARK H PARENT 9 17
ROOT
ATOM      1  N   UNL     1      44.597 133.651  16.522  1.00  0.00    -0.231 NA
ENDROOT
BRANCH   1   2
ATOM      2  C   UNL     1      45.158 132.541  16.128  1.00  0.00     0.272 C 
BRANCH   2   3
ATOM      3  C   UNL     1      45.410 131.454  17.042  1.00  0.00    -0.011 C 
ATOM      4  C   UNL     1      45.624 130.548  17.808  1.00  0.00     0.015 C 
ENDBRANCH   2   3
BRANCH   2   5
ATOM      5  O   UNL     1      45.526 132.358  14.789  1.00  0.00    -0.396 OA
BRANCH   5   6
ATOM      6  C   UNL     1      45.341 131.183  14.045  1.00  0.00     0.337 C 
ATOM      7  O   UNL     1      44.223 130.598  14.020  1.00  0.00    -0.246 OA
BRANCH   6   8
ATOM      8  C   UNL     1      46.476 130.653  13.274  1.00  0.00     0.086 C 
ATOM      9  C   UNL     1      47.690 131.199  13.316  1.00  0.00     0.016 C 
ENDBRANCH   6   8
ENDBRANCH   5   6
ENDBRANCH   2   5
ENDBRANCH   1   2
BRANCH   1  10
ATOM     10  C   UNL     1      43.184 134.026  16.380  1.00  0.00     0.190 C 
BRANCH  10  11
ATOM     11  C   UNL     1      42.709 134.625  17.689  1.00  0.00     0.201 A 
ATOM     12  C   UNL     1      43.165 134.368  18.977  1.00  0.00     0.167 A 
ATOM     13  N   UNL     1      41.753 135.575  17.811  1.00  0.00    -0.095 N 
ATOM     14  N   UNL     1      42.479 135.176  19.809  1.00  0.00    -0.147 N 
ATOM     15  N   UNL     1      41.634 135.895  19.090  1.00  0.00     0.094 NA
ATOM     16  C   UNL     1      44.335 133.539  19.401  1.00  0.00     0.100 C 
ATOM     17  H   UNL     1      42.605 135.265  20.842  1.00  0.00     0.342 HD
BRANCH  13  18
ATOM     18  C   UNL     1      41.026 136.225  16.754  1.00  0.00     0.171 A 
ATOM     19  C   UNL     1      39.812 135.676  16.295  1.00  0.00     0.032 A 
ATOM     20  C   UNL     1      41.552 137.386  16.147  1.00  0.00     0.032 A 
ATOM     21  C   UNL     1      39.264 134.531  16.913  1.00  0.00     0.013 A 
ATOM     22  C   UNL     1      39.128 136.270  15.199  1.00  0.00    -0.003 A 
ATOM     23  C   UNL     1      42.745 137.970  16.629  1.00  0.00     0.013 A 
ATOM     24  C   UNL     1      40.892 137.972  15.034  1.00  0.00    -0.003 A 
ATOM     25  C   UNL     1      38.064 133.983  16.465  1.00  0.00     0.001 A 
ATOM     26  C   UNL     1      37.903 135.700  14.777  1.00  0.00     0.009 A 
ATOM     27  C   UNL     1      39.666 137.423  14.569  1.00  0.00     0.030 A 
ATOM     28  C   UNL     1      43.303 139.079  15.997  1.00  0.00     0.001 A 
ATOM     29  C   UNL     1      41.500 139.079  14.393  1.00  0.00     0.009 A 
ATOM     30  C   UNL     1      37.385 134.567  15.402  1.00  0.00     0.001 A 
ATOM     31  C   UNL     1      42.689 139.623  14.876  1.00  0.00     0.001 A 
BRANCH  27  32
ATOM     32  C   UNL     1      38.939 138.047  13.436  1.00  0.00     0.261 C 
ATOM     33  O   UNL     1      38.100 138.965  13.637  1.00  0.00    -0.298 OA
ENDBRANCH  27  32
ENDBRANCH  13  18
ENDBRANCH  10  11
BRANCH  10  34
ATOM     34  C   UNL     1      42.335 132.799  15.948  1.00  0.00     0.016 C 
ATOM     35  C   UNL     1      41.395 132.338  17.073  1.00  0.00     0.010 C 
ATOM     36  C   UNL     1      41.508 133.118  14.693  1.00  0.00     0.010 C 
ENDBRANCH  10  34
ENDBRANCH   1  10
TORSDOF 10
ENDMDL
MODEL 5
REMARK VINA RESULT:      -6.5      1.172      3.423
REMARK SMILES C#C/C(=N\[C@H](c1c(C)[nH+]nn1-c1c2ccccc2c(C=O)c2ccccc12)C(C)C)OC(=O)C=C
REMARK SMILES IDX 4 1 3 2 2 3 1 4 31 5 32 6 33 7 34 8 35 9 5 10 6 11 7 12
REMARK SMILES IDX 11 13 9 14 10 15 8 16 12 18 13 19 27 20 14 21 18 22 26 23
REMARK SMILES IDX 22 24 15 25 17 26 19 27 25 28 23 29 16 30 24 31 20 32 21 33
REMARK SMILES IDX 28 34 29 35 30 36
REMARK H PARENT 9 17
ROOT
ATOM      1  N   UNL     1      43.062 132.638  17.247  1.00  0.00    -0.231 NA
ENDROOT
BRANCH   1   2
ATOM      2  C   UNL     1      43.892 131.635  17.163  1.00  0.00     0.272 C 
BRANCH   2   3
ATOM      3  C   UNL     1      44.808 131.318  18.232  1.00  0.00    -0.011 C 
ATOM      4  C   UNL     1      45.576 131.048  19.121  1.00  0.00     0.015 C 
ENDBRANCH   2   3
BRANCH   2   5
ATOM      5  O   UNL     1      43.915 130.814  16.028  1.00  0.00    -0.396 OA
BRANCH   5   6
ATOM      6  C   UNL     1      44.603 131.088  14.837  1.00  0.00     0.337 C 
ATOM      7  O   UNL     1      44.120 130.765  13.716  1.00  0.00    -0.246 OA
BRANCH   6   8
ATOM      8  C   UNL     1      45.898 131.782  14.917  1.00  0.00     0.086 C 
ATOM      9  C   UNL     1      47.032 131.237  14.480  1.00  0.00     0.016 C 
ENDBRANCH   6   8
ENDBRANCH   5   6
ENDBRANCH   2   5
ENDBRANCH   1   2
BRANCH   1  10
ATOM     10  C   UNL     1      43.398 134.067  17.223  1.00  0.00     0.190 C 
BRANCH  10  11
ATOM     11  C   UNL     1      42.346 134.825  18.009  1.00  0.00     0.201 A 
ATOM     12  C   UNL     1      40.963 134.776  17.878  1.00  0.00     0.167 A 
ATOM     13  N   UNL     1      42.597 135.672  19.033  1.00  0.00    -0.095 N 
ATOM     14  N   UNL     1      40.446 135.579  18.828  1.00  0.00    -0.147 N 
ATOM     15  N   UNL     1      41.445 136.111  19.513  1.00  0.00     0.094 NA
ATOM     16  C   UNL     1      40.141 133.863  17.025  1.00  0.00     0.100 C 
ATOM     17  H   UNL     1      39.435 135.739  19.033  1.00  0.00     0.342 HD
BRANCH  13  18
ATOM     18  C   UNL     1      43.876 136.004  19.601  1.00  0.00     0.171 A 
ATOM     19  C   UNL     1      44.521 137.202  19.231  1.00  0.00     0.032 A 
ATOM     20  C   UNL     1      44.506 135.109  20.493  1.00  0.00     0.032 A 
ATOM     21  C   UNL     1      43.889 138.117  18.361  1.00  0.00     0.013 A 
ATOM     22  C   UNL     1      45.819 137.498  19.728  1.00  0.00    -0.003 A 
ATOM     23  C   UNL     1      43.849 133.927  20.905  1.00  0.00     0.013 A 
ATOM     24  C   UNL     1      45.815 135.381  20.974  1.00  0.00    -0.003 A 
ATOM     25  C   UNL     1      44.519 139.302  17.991  1.00  0.00     0.001 A 
ATOM     26  C   UNL     1      46.428 138.718  19.347  1.00  0.00     0.009 A 
ATOM     27  C   UNL     1      46.467 136.588  20.605  1.00  0.00     0.030 A 
ATOM     28  C   UNL     1      44.487 133.008  21.735  1.00  0.00     0.001 A 
ATOM     29  C   UNL     1      46.449 134.413  21.790  1.00  0.00     0.009 A 
ATOM     30  C   UNL     1      45.783 139.603  18.484  1.00  0.00     0.001 A 
ATOM     31  C   UNL     1      45.787 133.245  22.166  1.00  0.00     0.001 A 
BRANCH  27  32
ATOM     32  C   UNL     1      47.815 136.912  21.133  1.00  0.00     0.261 C 
ATOM     33  O   UNL     1      47.949 137.527  22.225  1.00  0.00    -0.298 OA
ENDBRANCH  27  32
ENDBRANCH  13  18
ENDBRANCH  10  11
BRANCH  10  34
ATOM     34  C   UNL     1      43.524 134.574  15.761  1.00  0.00     0.016 C 
ATOM     35  C   UNL     1      42.522 133.869  14.831  1.00  0.00     0.010 C 
ATOM     36  C   UNL     1      43.305 136.093  15.684  1.00  0.00     0.010 C 
ENDBRANCH  10  34
ENDBRANCH   1  10
TORSDOF 10
ENDMDL
MODEL 6
REMARK VINA RESULT:      -6.5      2.806      5.782
REMARK SMILES C#C/C(=N\[C@H](c1c(C)[nH+]nn1-c1c2ccccc2c(C=O)c2ccccc12)C(C)C)OC(=O)C=C
REMARK SMILES IDX 4 1 3 2 2 3 1 4 31 5 32 6 33 7 34 8 35 9 5 10 6 11 7 12
REMARK SMILES IDX 11 13 9 14 10 15 8 16 12 18 13 19 27 20 14 21 18 22 26 23
REMARK SMILES IDX 22 24 15 25 17 26 19 27 25 28 23 29 16 30 24 31 20 32 21 33
REMARK SMILES IDX 28 34 29 35 30 36
REMARK H PARENT 9 17
ROOT
ATOM      1  N   UNL     1      44.207 133.904  15.694  1.00  0.00    -0.231 NA
ENDROOT
BRANCH   1   2
ATOM      2  C   UNL     1      44.722 132.798  15.231  1.00  0.00     0.272 C 
BRANCH   2   3
ATOM      3  C   UNL     1      43.915 131.812  14.555  1.00  0.00    -0.011 C 
ATOM      4  C   UNL     1      43.239 130.985  13.996  1.00  0.00     0.015 C 
ENDBRANCH   2   3
BRANCH   2   5
ATOM      5  O   UNL     1      46.092 132.533  15.363  1.00  0.00    -0.396 OA
BRANCH   5   6
ATOM      6  C   UNL     1      46.739 131.360  14.948  1.00  0.00     0.337 C 
ATOM      7  O   UNL     1      46.829 130.360  15.713  1.00  0.00    -0.246 OA
BRANCH   6   8
ATOM      8  C   UNL     1      47.297 131.309  13.587  1.00  0.00     0.086 C 
ATOM      9  C   UNL     1      46.875 130.441  12.670  1.00  0.00     0.016 C 
ENDBRANCH   6   8
ENDBRANCH   5   6
ENDBRANCH   2   5
ENDBRANCH   1   2
BRANCH   1  10
ATOM     10  C   UNL     1      44.098 134.306  17.102  1.00  0.00     0.190 C 
BRANCH  10  11
ATOM     11  C   UNL     1      43.139 133.363  17.801  1.00  0.00     0.201 A 
ATOM     12  C   UNL     1      43.413 132.152  18.424  1.00  0.00     0.167 A 
ATOM     13  N   UNL     1      41.814 133.582  17.971  1.00  0.00    -0.095 N 
ATOM     14  N   UNL     1      42.256 131.704  18.948  1.00  0.00    -0.147 N 
ATOM     15  N   UNL     1      41.304 132.577  18.665  1.00  0.00     0.094 NA
ATOM     16  C   UNL     1      44.744 131.524  18.692  1.00  0.00     0.100 C 
ATOM     17  H   UNL     1      42.117 130.840  19.518  1.00  0.00     0.342 HD
BRANCH  13  18
ATOM     18  C   UNL     1      41.059 134.737  17.566  1.00  0.00     0.171 A 
ATOM     19  C   UNL     1      40.788 135.762  18.494  1.00  0.00     0.032 A 
ATOM     20  C   UNL     1      40.549 134.820  16.252  1.00  0.00     0.032 A 
ATOM     21  C   UNL     1      41.316 135.702  19.802  1.00  0.00     0.013 A 
ATOM     22  C   UNL     1      39.977 136.869  18.121  1.00  0.00    -0.003 A 
ATOM     23  C   UNL     1      40.851 133.819  15.300  1.00  0.00     0.013 A 
ATOM     24  C   UNL     1      39.714 135.906  15.876  1.00  0.00    -0.003 A 
ATOM     25  C   UNL     1      41.053 136.712  20.725  1.00  0.00     0.001 A 
ATOM     26  C   UNL     1      39.741 137.887  19.076  1.00  0.00     0.009 A 
ATOM     27  C   UNL     1      39.441 136.943  16.808  1.00  0.00     0.030 A 
ATOM     28  C   UNL     1      40.302 133.862  14.021  1.00  0.00     0.001 A 
ATOM     29  C   UNL     1      39.146 135.905  14.579  1.00  0.00     0.009 A 
ATOM     30  C   UNL     1      40.270 137.801  20.362  1.00  0.00     0.001 A 
ATOM     31  C   UNL     1      39.443 134.894  13.666  1.00  0.00     0.001 A 
BRANCH  27  32
ATOM     32  C   UNL     1      38.608 138.109  16.422  1.00  0.00     0.261 C 
ATOM     33  O   UNL     1      37.356 138.081  16.562  1.00  0.00    -0.298 OA
ENDBRANCH  27  32
ENDBRANCH  13  18
ENDBRANCH  10  11
BRANCH  10  34
ATOM     34  C   UNL     1      43.655 135.791  17.213  1.00  0.00     0.016 C 
ATOM     35  C   UNL     1      44.575 136.584  18.155  1.00  0.00     0.010 C 
ATOM     36  C   UNL     1      43.639 136.465  15.833  1.00  0.00     0.010 C 
ENDBRANCH  10  34
ENDBRANCH   1  10
TORSDOF 10
ENDMDL
MODEL 7
REMARK VINA RESULT:      -6.4      1.078      1.284
REMARK SMILES C#C/C(=N\[C@H](c1c(C)[nH+]nn1-c1c2ccccc2c(C=O)c2ccccc12)C(C)C)OC(=O)C=C
REMARK SMILES IDX 4 1 3 2 2 3 1 4 31 5 32 6 33 7 34 8 35 9 5 10 6 11 7 12
REMARK SMILES IDX 11 13 9 14 10 15 8 16 12 18 13 19 27 20 14 21 18 22 26 23
REMARK SMILES IDX 22 24 15 25 17 26 19 27 25 28 23 29 16 30 24 31 20 32 21 33
REMARK SMILES IDX 28 34 29 35 30 36
REMARK H PARENT 9 17
ROOT
ATOM      1  N   UNL     1      43.307 132.218  17.370  1.00  0.00    -0.231 NA
ENDROOT
BRANCH   1   2
ATOM      2  C   UNL     1      44.283 131.354  17.447  1.00  0.00     0.272 C 
BRANCH   2   3
ATOM      3  C   UNL     1      45.062 131.197  18.651  1.00  0.00    -0.011 C 
ATOM      4  C   UNL     1      45.713 131.060  19.656  1.00  0.00     0.015 C 
ENDBRANCH   2   3
BRANCH   2   5
ATOM      5  O   UNL     1      44.602 130.530  16.359  1.00  0.00    -0.396 OA
BRANCH   5   6
ATOM      6  C   UNL     1      45.870 130.407  15.774  1.00  0.00     0.337 C 
ATOM      7  O   UNL     1      46.882 130.109  16.468  1.00  0.00    -0.246 OA
BRANCH   6   8
ATOM      8  C   UNL     1      45.997 130.612  14.323  1.00  0.00     0.086 C 
ATOM      9  C   UNL     1      44.945 130.632  13.506  1.00  0.00     0.016 C 
ENDBRANCH   6   8
ENDBRANCH   5   6
ENDBRANCH   2   5
ENDBRANCH   1   2
BRANCH   1  10
ATOM     10  C   UNL     1      43.399 133.671  17.556  1.00  0.00     0.190 C 
BRANCH  10  11
ATOM     11  C   UNL     1      42.337 134.099  18.551  1.00  0.00     0.201 A 
ATOM     12  C   UNL     1      40.958 134.139  18.384  1.00  0.00     0.167 A 
ATOM     13  N   UNL     1      42.573 134.485  19.826  1.00  0.00    -0.095 N 
ATOM     14  N   UNL     1      40.427 134.533  19.558  1.00  0.00    -0.147 N 
ATOM     15  N   UNL     1      41.415 134.737  20.414  1.00  0.00     0.094 NA
ATOM     16  C   UNL     1      40.146 133.642  17.230  1.00  0.00     0.100 C 
ATOM     17  H   UNL     1      39.413 134.628  19.788  1.00  0.00     0.342 HD
BRANCH  13  18
ATOM     18  C   UNL     1      43.841 134.543  20.503  1.00  0.00     0.171 A 
ATOM     19  C   UNL     1      44.156 133.586  21.489  1.00  0.00     0.032 A 
ATOM     20  C   UNL     1      44.749 135.584  20.213  1.00  0.00     0.032 A 
ATOM     21  C   UNL     1      43.267 132.525  21.767  1.00  0.00     0.013 A 
ATOM     22  C   UNL     1      45.374 133.682  22.216  1.00  0.00    -0.003 A 
ATOM     23  C   UNL     1      44.462 136.523  19.195  1.00  0.00     0.013 A 
ATOM     24  C   UNL     1      45.955 135.708  20.952  1.00  0.00    -0.003 A 
ATOM     25  C   UNL     1      43.571 131.575  22.740  1.00  0.00     0.001 A 
ATOM     26  C   UNL     1      45.662 132.694  23.187  1.00  0.00     0.009 A 
ATOM     27  C   UNL     1      46.278 134.743  21.945  1.00  0.00     0.030 A 
ATOM     28  C   UNL     1      45.323 137.589  18.945  1.00  0.00     0.001 A 
ATOM     29  C   UNL     1      46.795 136.819  20.696  1.00  0.00     0.009 A 
ATOM     30  C   UNL     1      44.766 131.658  23.445  1.00  0.00     0.001 A 
ATOM     31  C   UNL     1      46.479 137.743  19.701  1.00  0.00     0.001 A 
BRANCH  27  32
ATOM     32  C   UNL     1      47.554 134.829  22.697  1.00  0.00     0.261 C 
ATOM     33  O   UNL     1      48.610 134.321  22.234  1.00  0.00    -0.298 OA
ENDBRANCH  27  32
ENDBRANCH  13  18
ENDBRANCH  10  11
BRANCH  10  34
ATOM     34  C   UNL     1      43.265 134.406  16.195  1.00  0.00     0.016 C 
ATOM     35  C   UNL     1      44.553 135.162  15.832  1.00  0.00     0.010 C 
ATOM     36  C   UNL     1      42.922 133.418  15.069  1.00  0.00     0.010 C 
ENDBRANCH  10  34
ENDBRANCH   1  10
TORSDOF 10
ENDMDL
MODEL 8
REMARK VINA RESULT:      -6.3      2.521      5.247
REMARK SMILES C#C/C(=N\[C@H](c1c(C)[nH+]nn1-c1c2ccccc2c(C=O)c2ccccc12)C(C)C)OC(=O)C=C
REMARK SMILES IDX 4 1 3 2 2 3 1 4 31 5 32 6 33 7 34 8 35 9 5 10 6 11 7 12
REMARK SMILES IDX 11 13 9 14 10 15 8 16 12 18 13 19 27 20 14 21 18 22 26 23
REMARK SMILES IDX 22 24 15 25 17 26 19 27 25 28 23 29 16 30 24 31 20 32 21 33
REMARK SMILES IDX 28 34 29 35 30 36
REMARK H PARENT 9 17
ROOT
ATOM      1  N   UNL     1      44.135 131.471  16.530  1.00  0.00    -0.231 NA
ENDROOT
BRANCH   1   2
ATOM      2  C   UNL     1      44.923 130.836  15.706  1.00  0.00     0.272 C 
BRANCH   2   3
ATOM      3  C   UNL     1      45.043 129.399  15.729  1.00  0.00    -0.011 C 
ATOM      4  C   UNL     1      45.149 128.198  15.746  1.00  0.00     0.015 C 
ENDBRANCH   2   3
BRANCH   2   5
ATOM      5  O   UNL     1      45.677 131.532  14.752  1.00  0.00    -0.396 OA
BRANCH   5   6
ATOM      6  C   UNL     1      46.238 130.977  13.593  1.00  0.00     0.337 C 
ATOM      7  O   UNL     1      45.514 130.641  12.615  1.00  0.00    -0.246 OA
BRANCH   6   8
ATOM      8  C   UNL     1      47.699 130.811  13.529  1.00  0.00     0.086 C 
ATOM      9  C   UNL     1      48.288 129.618  13.570  1.00  0.00     0.016 C 
ENDBRANCH   6   8
ENDBRANCH   5   6
ENDBRANCH   2   5
ENDBRANCH   1   2
BRANCH   1  10
ATOM     10  C   UNL     1      44.335 132.817  17.083  1.00  0.00     0.190 C 
BRANCH  10  11
ATOM     11  C   UNL     1      43.965 132.795  18.553  1.00  0.00     0.201 A 
ATOM     12  C   UNL     1      44.422 131.942  19.550  1.00  0.00     0.167 A 
ATOM     13  N   UNL     1      43.125 133.666  19.159  1.00  0.00    -0.095 N 
ATOM     14  N   UNL     1      43.854 132.341  20.705  1.00  0.00    -0.147 N 
ATOM     15  N   UNL     1      43.076 133.379  20.450  1.00  0.00     0.094 NA
ATOM     16  C   UNL     1      45.503 130.912  19.469  1.00  0.00     0.100 C 
ATOM     17  H   UNL     1      44.016 131.940  21.656  1.00  0.00     0.342 HD
BRANCH  13  18
ATOM     18  C   UNL     1      42.448 134.787  18.564  1.00  0.00     0.171 A 
ATOM     19  C   UNL     1      43.093 136.037  18.483  1.00  0.00     0.032 A 
ATOM     20  C   UNL     1      41.120 134.645  18.104  1.00  0.00     0.032 A 
ATOM     21  C   UNL     1      44.429 136.183  18.915  1.00  0.00     0.013 A 
ATOM     22  C   UNL     1      42.402 137.167  17.967  1.00  0.00    -0.003 A 
ATOM     23  C   UNL     1      40.480 133.386  18.140  1.00  0.00     0.013 A 
ATOM     24  C   UNL     1      40.410 135.773  17.613  1.00  0.00    -0.003 A 
ATOM     25  C   UNL     1      45.074 137.416  18.838  1.00  0.00     0.001 A 
ATOM     26  C   UNL     1      43.088 138.402  17.887  1.00  0.00     0.009 A 
ATOM     27  C   UNL     1      41.058 137.035  17.528  1.00  0.00     0.030 A 
ATOM     28  C   UNL     1      39.150 133.250  17.746  1.00  0.00     0.001 A 
ATOM     29  C   UNL     1      39.051 135.610  17.250  1.00  0.00     0.009 A 
ATOM     30  C   UNL     1      44.407 138.520  18.323  1.00  0.00     0.001 A 
ATOM     31  C   UNL     1      38.436 134.361  17.315  1.00  0.00     0.001 A 
BRANCH  27  32
ATOM     32  C   UNL     1      40.347 138.215  16.976  1.00  0.00     0.261 C 
ATOM     33  O   UNL     1      40.360 138.454  15.739  1.00  0.00    -0.298 OA
ENDBRANCH  27  32
ENDBRANCH  13  18
ENDBRANCH  10  11
BRANCH  10  34
ATOM     34  C   UNL     1      43.516 133.864  16.281  1.00  0.00     0.016 C 
ATOM     35  C   UNL     1      44.433 134.865  15.560  1.00  0.00     0.010 C 
ATOM     36  C   UNL     1      42.603 133.179  15.253  1.00  0.00     0.010 C 
ENDBRANCH  10  34
ENDBRANCH   1  10
TORSDOF 10
ENDMDL
MODEL 9
REMARK VINA RESULT:      -6.3      2.812      5.624
REMARK SMILES C#C/C(=N\[C@H](c1c(C)[nH+]nn1-c1c2ccccc2c(C=O)c2ccccc12)C(C)C)OC(=O)C=C
REMARK SMILES IDX 4 1 3 2 2 3 1 4 31 5 32 6 33 7 34 8 35 9 5 10 6 11 7 12
REMARK SMILES IDX 11 13 9 14 10 15 8 16 12 18 13 19 27 20 14 21 18 22 26 23
REMARK SMILES IDX 22 24 15 25 17 26 19 27 25 28 23 29 16 30 24 31 20 32 21 33
REMARK SMILES IDX 28 34 29 35 30 36
REMARK H PARENT 9 17
ROOT
ATOM      1  N   UNL     1      44.326 133.895  15.772  1.00  0.00    -0.231 NA
ENDROOT
BRANCH   1   2
ATOM      2  C   UNL     1      44.753 132.735  15.354  1.00  0.00     0.272 C 
BRANCH   2   3
ATOM      3  C   UNL     1      43.908 131.846  14.595  1.00  0.00    -0.011 C 
ATOM      4  C   UNL     1      43.202 131.098  13.966  1.00  0.00     0.015 C 
ENDBRANCH   2   3
BRANCH   2   5
ATOM      5  O   UNL     1      46.063 132.314  15.617  1.00  0.00    -0.396 OA
BRANCH   5   6
ATOM      6  C   UNL     1      46.691 131.198  15.046  1.00  0.00     0.337 C 
ATOM      7  O   UNL     1      46.997 130.193  15.747  1.00  0.00    -0.246 OA
BRANCH   6   8
ATOM      8  C   UNL     1      46.971 131.211  13.602  1.00  0.00     0.086 C 
ATOM      9  C   UNL     1      47.507 130.171  12.965  1.00  0.00     0.016 C 
ENDBRANCH   6   8
ENDBRANCH   5   6
ENDBRANCH   2   5
ENDBRANCH   1   2
BRANCH   1  10
ATOM     10  C   UNL     1      44.147 134.320  17.167  1.00  0.00     0.190 C 
BRANCH  10  11
ATOM     11  C   UNL     1      43.156 133.387  17.833  1.00  0.00     0.201 A 
ATOM     12  C   UNL     1      43.399 132.175  18.469  1.00  0.00     0.167 A 
ATOM     13  N   UNL     1      41.829 133.616  17.955  1.00  0.00    -0.095 N 
ATOM     14  N   UNL     1      42.220 131.737  18.953  1.00  0.00    -0.147 N 
ATOM     15  N   UNL     1      41.286 132.618  18.633  1.00  0.00     0.094 NA
ATOM     16  C   UNL     1      44.715 131.538  18.786  1.00  0.00     0.100 C 
ATOM     17  H   UNL     1      42.055 130.876  19.519  1.00  0.00     0.342 HD
BRANCH  13  18
ATOM     18  C   UNL     1      41.097 134.776  17.520  1.00  0.00     0.171 A 
ATOM     19  C   UNL     1      40.691 134.887  16.175  1.00  0.00     0.032 A 
ATOM     20  C   UNL     1      40.828 135.822  18.429  1.00  0.00     0.032 A 
ATOM     21  C   UNL     1      40.931 133.835  15.264  1.00  0.00     0.013 A 
ATOM     22  C   UNL     1      40.036 136.064  15.720  1.00  0.00    -0.003 A 
ATOM     23  C   UNL     1      41.191 135.701  19.789  1.00  0.00     0.013 A 
ATOM     24  C   UNL     1      40.199 137.014  17.980  1.00  0.00    -0.003 A 
ATOM     25  C   UNL     1      40.532 133.937  13.933  1.00  0.00     0.001 A 
ATOM     26  C   UNL     1      39.628 136.132  14.367  1.00  0.00     0.009 A 
ATOM     27  C   UNL     1      39.786 137.129  16.625  1.00  0.00     0.030 A 
ATOM     28  C   UNL     1      40.985 136.753  20.679  1.00  0.00     0.001 A 
ATOM     29  C   UNL     1      40.032 138.077  18.900  1.00  0.00     0.009 A 
ATOM     30  C   UNL     1      39.881 135.080  13.487  1.00  0.00     0.001 A 
ATOM     31  C   UNL     1      40.418 137.941  20.232  1.00  0.00     0.001 A 
BRANCH  27  32
ATOM     32  C   UNL     1      39.087 138.348  16.148  1.00  0.00     0.261 C 
ATOM     33  O   UNL     1      37.847 138.489  16.319  1.00  0.00    -0.298 OA
ENDBRANCH  27  32
ENDBRANCH  13  18
ENDBRANCH  10  11
BRANCH  10  34
ATOM     34  C   UNL     1      43.697 135.805  17.231  1.00  0.00     0.016 C 
ATOM     35  C   UNL     1      44.557 136.613  18.217  1.00  0.00     0.010 C 
ATOM     36  C   UNL     1      43.765 136.461  15.844  1.00  0.00     0.010 C 
ENDBRANCH  10  34
ENDBRANCH   1  10
TORSDOF 10
ENDMDL


