REMARK SMILES Cc1ccc2ccccc2c1C[N+](C)(C)CCc1cn(/C(=N\O)c2ccccc2N=[N+]=[N-])nn1
REMARK SMILES IDX 20 1 33 2 34 3 18 4 19 5 21 6 22 7 23 8 24 10 25 11 29 12
REMARK SMILES IDX 26 13 28 14 27 15 30 16 31 17 32 18 17 19 16 20 13 21 14 22
REMARK SMILES IDX 15 23 12 24 11 25 2 26 10 27 3 28 9 29 5 30 4 31 8 32 6 33
REMARK SMILES IDX 7 34 1 35
REMARK H PARENT 23 9
ROOT
ATOM      1  N   UNL     1       2.722   1.228   1.550  1.00  0.00    -0.198 N 
ATOM      2  N   UNL     1       2.190   2.404   1.250  1.00  0.00    -0.060 NA
ATOM      3  N   UNL     1       2.058   2.532  -0.062  1.00  0.00    -0.135 NA
ATOM      4  C   UNL     1       2.514   1.388  -0.609  1.00  0.00     0.089 A 
ATOM      5  C   UNL     1       2.942   0.559   0.404  1.00  0.00     0.143 A 
ENDROOT
BRANCH   1   6
ATOM      6  C   UNL     1       2.965   0.772   2.893  1.00  0.00     0.201 C 
BRANCH   6   7
ATOM      7  N   UNL     1       4.033   0.091   3.186  1.00  0.00    -0.068 NA
BRANCH   7   8
ATOM      8  O   UNL     1       4.989  -0.233   2.251  1.00  0.00    -0.409 OA
ATOM      9  H   UNL     1       5.806  -0.764   2.525  1.00  0.00     0.330 HD
ENDBRANCH   7   8
ENDBRANCH   6   7
BRANCH   6  10
ATOM     10  C   UNL     1       2.037   1.151   3.986  1.00  0.00     0.032 A 
ATOM     11  C   UNL     1       2.565   1.539   5.231  1.00  0.00     0.012 A 
ATOM     12  C   UNL     1       0.633   1.122   3.808  1.00  0.00     0.049 A 
ATOM     13  C   UNL     1       1.721   1.917   6.276  1.00  0.00     0.001 A 
ATOM     14  C   UNL     1      -0.205   1.508   4.873  1.00  0.00     0.011 A 
ATOM     15  C   UNL     1       0.339   1.905   6.096  1.00  0.00     0.001 A 
BRANCH  12  16
ATOM     16  N   UNL     1       0.077   0.660   2.566  1.00  0.00    -0.060 NA
BRANCH  16  17
ATOM     17  N   UNL     1      -1.138   0.610   2.366  1.00  0.00     0.005 N 
ATOM     18  N   UNL     1      -2.351   0.560   2.169  1.00  0.00    -0.003 NA
ENDBRANCH  16  17
ENDBRANCH  12  16
ENDBRANCH   6  10
ENDBRANCH   1   6
BRANCH   4  19
ATOM     19  C   UNL     1       2.560   1.097  -2.078  1.00  0.00     0.121 C 
BRANCH  19  20
ATOM     20  C   UNL     1       1.193   1.259  -2.794  1.00  0.00     0.270 C 
BRANCH  20  21
ATOM     21  N   UNL     1       0.172   0.175  -2.584  1.00  0.00    -0.324 N 
ATOM     22  C   UNL     1       0.736  -1.146  -2.955  1.00  0.00     0.334 C 
ATOM     23  C   UNL     1      -0.940   0.459  -3.530  1.00  0.00     0.334 C 
BRANCH  21  24
ATOM     24  C   UNL     1      -0.304   0.168  -1.156  1.00  0.00     0.301 C 
BRANCH  24  25
ATOM     25  C   UNL     1      -1.583  -0.647  -0.874  1.00  0.00     0.017 A 
ATOM     26  C   UNL     1      -1.494  -1.998  -0.415  1.00  0.00    -0.042 A 
ATOM     27  C   UNL     1      -2.887  -0.074  -1.044  1.00  0.00    -0.009 A 
ATOM     28  C   UNL     1      -2.651  -2.786  -0.339  1.00  0.00     0.004 A 
ATOM     29  C   UNL     1      -3.095   1.306  -1.291  1.00  0.00     0.009 A 
ATOM     30  C   UNL     1      -4.037  -0.906  -0.944  1.00  0.00    -0.018 A 
ATOM     31  C   UNL     1      -3.900  -2.257  -0.625  1.00  0.00     0.009 A 
ATOM     32  C   UNL     1      -4.380   1.818  -1.484  1.00  0.00     0.001 A 
ATOM     33  C   UNL     1      -5.321  -0.376  -1.149  1.00  0.00     0.009 A 
ATOM     34  C   UNL     1      -5.488   0.979  -1.422  1.00  0.00     0.001 A 
ATOM     35  C   UNL     1      -0.203  -2.627   0.058  1.00  0.00     0.045 C 
ENDBRANCH  24  25
ENDBRANCH  21  24
ENDBRANCH  20  21
ENDBRANCH  19  20
ENDBRANCH   4  19
TORSDOF 11


