REMARK SMILES C#CCOC(=O)C[C@@H]1CC[C@H]2C(=O)[N-]c3c(N=[N+]=[N-])cc(Cl)c1c32
REMARK SMILES IDX 5 1 6 2 4 3 3 4 2 5 1 6 7 7 8 8 23 9 9 10 21 11 24 12 10 13
REMARK SMILES IDX 20 14 15 15 11 16 16 17 14 18 12 19 22 20 13 21 17 22 18 23
REMARK SMILES IDX 19 24
REMARK H PARENT
ROOT
ATOM      1  C   UNL     1       0.650   0.322   2.728  1.00  0.00     0.307 C 
ATOM      2  O   UNL     1       0.943   0.998   3.752  1.00  0.00    -0.252 OA
ENDROOT
BRANCH   1   3
ATOM      3  O   UNL     1       1.278  -0.900   2.475  1.00  0.00    -0.452 OA
BRANCH   3   4
ATOM      4  C   UNL     1       2.269  -1.445   3.338  1.00  0.00     0.322 C 
BRANCH   4   5
ATOM      5  C   UNL     1       2.732  -2.723   2.795  1.00  0.00    -0.065 C 
ATOM      6  C   UNL     1       3.114  -3.775   2.347  1.00  0.00     0.007 C 
ENDBRANCH   4   5
ENDBRANCH   3   4
ENDBRANCH   1   3
BRANCH   1   7
ATOM      7  C   UNL     1      -0.362   0.843   1.753  1.00  0.00     0.131 C 
BRANCH   7   8
ATOM      8  C   UNL     1       0.311   1.342   0.456  1.00  0.00     0.032 C 
ATOM      9  C   UNL     1      -0.752   1.581  -0.613  1.00  0.00    -0.023 A 
ATOM     10  C   UNL     1       1.224   2.593   0.743  1.00  0.00     0.010 C 
ATOM     11  C   UNL     1      -1.341   0.536  -1.369  1.00  0.00     0.045 A 
ATOM     12  C   UNL     1      -1.072   2.891  -0.967  1.00  0.00    -0.048 A 
ATOM     13  C   UNL     1       1.089   3.751  -0.271  1.00  0.00     0.015 C 
ATOM     14  C   UNL     1      -2.161   0.841  -2.477  1.00  0.00     0.029 A 
ATOM     15  C   UNL     1      -1.773   3.187  -2.114  1.00  0.00    -0.120 A 
ATOM     16  C   UNL     1      -0.391   4.091  -0.435  1.00  0.00     0.066 C 
ATOM     17  C   UNL     1      -2.353   2.180  -2.885  1.00  0.00     0.025 A 
ATOM     18  N   UNL     1      -1.608   4.541  -2.511  1.00  0.00    -0.626 NA
ATOM     19  C   UNL     1      -0.717   5.067  -1.525  1.00  0.00     0.062 C 
ATOM     20  Cl  UNL     1      -1.006  -1.157  -1.024  1.00  0.00    -0.084 Cl
ATOM     21  O   UNL     1      -0.293   6.252  -1.559  1.00  0.00    -0.320 OA
BRANCH  17  22
ATOM     22  N   UNL     1      -3.071   2.522  -4.078  1.00  0.00    -0.062 NA
BRANCH  22  23
ATOM     23  N   UNL     1      -3.586   1.669  -4.802  1.00  0.00     0.005 N 
ATOM     24  N   UNL     1      -4.100   0.818  -5.525  1.00  0.00    -0.003 NA
ENDBRANCH  22  23
ENDBRANCH  17  22
ENDBRANCH   7   8
ENDBRANCH   1   7
TORSDOF 7


