REMARK SMILES C#CC(=O)N[C@H](c1c(C)n[nH+]n1-c1c2ccccc2c(C(=O)N=[N+]=[N-])c2ccccc12)C(C)C
REMARK SMILES IDX 13 1 14 2 15 3 16 4 17 5 18 6 19 7 20 8 26 9 27 10 28 11
REMARK SMILES IDX 29 12 30 13 31 14 12 15 7 16 8 17 10 18 11 19 9 20 6 22 5 23
REMARK SMILES IDX 3 24 4 25 2 27 1 28 32 29 33 30 34 31 21 32 22 33 23 34
REMARK SMILES IDX 24 35 25 36
REMARK H PARENT 11 21 5 26
ROOT
ATOM      1  C   UNL     1       0.981   0.175  -0.674  1.00  0.00     0.123 A 
ATOM      2  C   UNL     1       1.679  -1.047  -0.774  1.00  0.00     0.013 A 
ATOM      3  C   UNL     1       1.306  -2.012  -1.733  1.00  0.00     0.011 A 
ATOM      4  C   UNL     1       1.972  -3.234  -1.812  1.00  0.00     0.001 A 
ATOM      5  C   UNL     1       3.019  -3.515  -0.940  1.00  0.00     0.001 A 
ATOM      6  C   UNL     1       3.413  -2.574   0.010  1.00  0.00     0.009 A 
ATOM      7  C   UNL     1       2.761  -1.321   0.104  1.00  0.00    -0.004 A 
ATOM      8  C   UNL     1       3.158  -0.354   1.061  1.00  0.00     0.040 A 
ATOM      9  C   UNL     1       2.480   0.889   1.132  1.00  0.00    -0.004 A 
ATOM     10  C   UNL     1       2.870   1.890   2.052  1.00  0.00     0.009 A 
ATOM     11  C   UNL     1       2.205   3.114   2.103  1.00  0.00     0.001 A 
ATOM     12  C   UNL     1       1.147   3.372   1.237  1.00  0.00     0.001 A 
ATOM     13  C   UNL     1       0.745   2.405   0.317  1.00  0.00     0.011 A 
ATOM     14  C   UNL     1       1.394   1.153   0.255  1.00  0.00     0.013 A 
ENDROOT
BRANCH   1  15
ATOM     15  N   UNL     1      -0.167   0.415  -1.506  1.00  0.00    -0.098 N 
ATOM     16  C   UNL     1      -1.471   0.353  -1.156  1.00  0.00     0.135 A 
ATOM     17  C   UNL     1      -2.186   0.740  -2.288  1.00  0.00     0.135 A 
ATOM     18  N   UNL     1      -1.303   1.035  -3.266  1.00  0.00     0.020 NA
ATOM     19  N   UNL     1      -0.098   0.820  -2.763  1.00  0.00    -0.012 N 
ATOM     20  C   UNL     1      -3.657   0.964  -2.432  1.00  0.00     0.076 C 
ATOM     21  H   UNL     1       0.791   0.975  -3.289  1.00  0.00     0.527 HD
BRANCH  16  22
ATOM     22  C   UNL     1      -1.984  -0.051   0.217  1.00  0.00     0.141 C 
BRANCH  22  23
ATOM     23  N   UNL     1      -2.833   1.015   0.760  1.00  0.00    -0.336 N 
ATOM     24  C   UNL     1      -2.448   1.839   1.869  1.00  0.00     0.296 C 
ATOM     25  O   UNL     1      -1.394   1.602   2.517  1.00  0.00    -0.260 OA
ATOM     26  H   UNL     1      -3.766   1.185   0.323  1.00  0.00     0.165 HD
BRANCH  24  27
ATOM     27  C   UNL     1      -3.279   2.943   2.263  1.00  0.00    -0.009 C 
ATOM     28  C   UNL     1      -3.976   3.870   2.592  1.00  0.00     0.015 C 
ENDBRANCH  24  27
ENDBRANCH  22  23
BRANCH  22  29
ATOM     29  C   UNL     1      -2.746  -1.404   0.209  1.00  0.00     0.012 C 
ATOM     30  C   UNL     1      -3.165  -1.799   1.635  1.00  0.00     0.010 C 
ATOM     31  C   UNL     1      -1.901  -2.532  -0.403  1.00  0.00     0.010 C 
ENDBRANCH  22  29
ENDBRANCH  16  22
ENDBRANCH   1  15
BRANCH   8  32
ATOM     32  C   UNL     1       4.293  -0.633   1.978  1.00  0.00     0.250 C 
ATOM     33  O   UNL     1       4.060  -0.890   3.188  1.00  0.00    -0.287 OA
BRANCH  32  34
ATOM     34  N   UNL     1       5.647  -0.609   1.516  1.00  0.00    -0.017 NA
BRANCH  34  35
ATOM     35  N   UNL     1       5.925  -0.322   0.350  1.00  0.00     0.009 N 
ATOM     36  N   UNL     1       6.203  -0.036  -0.813  1.00  0.00    -0.003 NA
ENDBRANCH  34  35
ENDBRANCH  32  34
ENDBRANCH   8  32
TORSDOF 8


