REMARK SMILES C=C(C)/C(O)=[N+]1/C[C@@H]2CC[C@H](Oc3ccc4c5c(ccc(N=[N+]=[N-])c35)CC4)[C@@H]2C1
REMARK SMILES IDX 12 1 11 2 6 3 29 4 7 5 28 6 8 7 9 8 10 9 4 10 5 11 2 13 1 14
REMARK SMILES IDX 3 15 13 16 14 17 25 18 15 19 21 20 17 21 16 22 20 23 18 24
REMARK SMILES IDX 27 25 19 26 26 27 22 28 23 29 24 30
REMARK H PARENT 5 12
ROOT
ATOM      1  O   UNL     1       0.636  -1.899  -0.595  1.00  0.00    -0.489 OA
ENDROOT
BRANCH   1   2
ATOM      2  C   UNL     1       0.078  -1.695  -1.896  1.00  0.00     0.183 C 
ATOM      3  N   UNL     1      -2.365   0.941  -1.150  1.00  0.00    -0.198 N 
ATOM      4  C   UNL     1      -1.108   0.312  -0.764  1.00  0.00     0.362 C 
ATOM      5  C   UNL     1      -2.759   0.581  -2.506  1.00  0.00     0.358 C 
ATOM      6  C   UNL     1      -0.544  -0.300  -2.054  1.00  0.00     0.105 C 
ATOM      7  C   UNL     1      -1.748  -0.475  -2.961  1.00  0.00     0.068 C 
ATOM      8  C   UNL     1      -2.229  -1.914  -2.735  1.00  0.00     0.014 C 
ATOM      9  C   UNL     1      -1.049  -2.695  -2.155  1.00  0.00     0.046 C 
BRANCH   3  10
ATOM     10  C   UNL     1      -3.046   1.784  -0.413  1.00  0.00     0.362 C 
BRANCH  10  11
ATOM     11  O   UNL     1      -4.188   2.388  -0.942  1.00  0.00    -0.460 OA
ATOM     12  H   UNL     1      -4.748   3.033  -0.396  1.00  0.00     0.300 HD
ENDBRANCH  10  11
BRANCH  10  13
ATOM     13  C   UNL     1      -2.624   2.146   0.965  1.00  0.00     0.053 C 
ATOM     14  C   UNL     1      -2.455   3.432   1.283  1.00  0.00     0.023 C 
ATOM     15  C   UNL     1      -2.393   1.086   2.005  1.00  0.00     0.055 C 
ENDBRANCH  10  13
ENDBRANCH   3  10
ENDBRANCH   1   2
BRANCH   1  16
ATOM     16  C   UNL     1       1.716  -1.184  -0.051  1.00  0.00     0.128 A 
ATOM     17  C   UNL     1       2.622  -0.459  -0.879  1.00  0.00     0.047 A 
ATOM     18  C   UNL     1       1.912  -1.178   1.355  1.00  0.00     0.034 A 
ATOM     19  C   UNL     1       3.700   0.254  -0.322  1.00  0.00     0.008 A 
ATOM     20  C   UNL     1       1.079  -1.824   2.309  1.00  0.00     0.049 A 
ATOM     21  C   UNL     1       3.002  -0.459   1.845  1.00  0.00    -0.008 A 
ATOM     22  C   UNL     1       3.870   0.233   1.061  1.00  0.00    -0.039 A 
ATOM     23  C   UNL     1       1.404  -1.722   3.692  1.00  0.00     0.011 A 
ATOM     24  C   UNL     1       3.315  -0.355   3.164  1.00  0.00    -0.039 A 
ATOM     25  C   UNL     1       4.916   0.900   1.898  1.00  0.00     0.041 C 
ATOM     26  C   UNL     1       2.525  -0.986   4.123  1.00  0.00     0.005 A 
ATOM     27  C   UNL     1       4.534   0.492   3.349  1.00  0.00     0.041 C 
BRANCH  20  28
ATOM     28  N   UNL     1      -0.080  -2.557   1.880  1.00  0.00    -0.060 NA
BRANCH  28  29
ATOM     29  N   UNL     1      -0.853  -3.097   2.672  1.00  0.00     0.005 N 
ATOM     30  N   UNL     1      -1.625  -3.638   3.462  1.00  0.00    -0.003 NA
ENDBRANCH  28  29
ENDBRANCH  20  28
ENDBRANCH   1  16
TORSDOF 7


