MODEL 1
REMARK VINA RESULT:      -7.8      0.000      0.000
REMARK SMILES CCc1[nH+]nn(CC2(C#N)CCCC2)c1C[N+](C)(C)Cc1cccc2ccccc12
REMARK SMILES IDX 3 1 4 2 5 3 6 4 15 5 2 7 1 8 16 9 17 10 18 11 19 12 20 13
REMARK SMILES IDX 21 14 22 15 30 16 23 17 29 18 25 19 24 20 28 21 26 22 27 23
REMARK SMILES IDX 7 24 8 25 11 26 14 27 12 28 13 29 9 30 10 31
REMARK H PARENT 4 6
ROOT
ATOM      1  C   UNL     1      42.548 132.995  15.360  1.00  0.00     0.173 A 
ATOM      2  N   UNL     1      42.532 132.209  14.269  1.00  0.00    -0.147 N 
ATOM      3  N   UNL     1      43.684 131.565  14.205  1.00  0.00     0.088 NA
ATOM      4  N   UNL     1      44.456 131.909  15.226  1.00  0.00    -0.127 N 
ATOM      5  C   UNL     1      43.769 132.794  15.993  1.00  0.00     0.224 A 
ATOM      6  H   UNL     1      41.779 132.152  13.548  1.00  0.00     0.342 HD
ENDROOT
BRANCH   1   7
ATOM      7  C   UNL     1      41.528 134.064  15.626  1.00  0.00     0.083 C 
ATOM      8  C   UNL     1      41.754 135.256  14.703  1.00  0.00     0.013 C 
ENDBRANCH   1   7
BRANCH   5   9
ATOM      9  C   UNL     1      44.271 133.475  17.259  1.00  0.00     0.351 C 
BRANCH   9  10
ATOM     10  N   UNL     1      43.682 132.961  18.540  1.00  0.00    -0.318 N 
ATOM     11  C   UNL     1      42.676 131.905  18.270  1.00  0.00     0.334 C 
ATOM     12  C   UNL     1      44.735 132.372  19.407  1.00  0.00     0.334 C 
BRANCH  10  13
ATOM     13  C   UNL     1      43.059 134.090  19.311  1.00  0.00     0.301 C 
BRANCH  13  14
ATOM     14  C   UNL     1      43.953 135.319  19.502  1.00  0.00     0.014 A 
ATOM     15  C   UNL     1      44.972 135.237  20.471  1.00  0.00     0.010 A 
ATOM     16  C   UNL     1      43.794 136.537  18.774  1.00  0.00    -0.010 A 
ATOM     17  C   UNL     1      45.865 136.288  20.670  1.00  0.00     0.001 A 
ATOM     18  C   UNL     1      42.748 136.746  17.846  1.00  0.00     0.009 A 
ATOM     19  C   UNL     1      44.720 137.598  18.989  1.00  0.00    -0.018 A 
ATOM     20  C   UNL     1      45.749 137.457  19.928  1.00  0.00     0.009 A 
ATOM     21  C   UNL     1      42.645 137.945  17.140  1.00  0.00     0.001 A 
ATOM     22  C   UNL     1      44.602 138.797  18.268  1.00  0.00     0.009 A 
ATOM     23  C   UNL     1      43.570 138.966  17.346  1.00  0.00     0.001 A 
ENDBRANCH  13  14
ENDBRANCH  10  13
ENDBRANCH   9  10
ENDBRANCH   5   9
BRANCH   4  24
ATOM     24  C   UNL     1      45.854 131.475  15.351  1.00  0.00     0.292 C 
BRANCH  24  25
ATOM     25  C   UNL     1      46.141 130.158  14.574  1.00  0.00     0.097 C 
ATOM     26  C   UNL     1      45.810 130.280  13.078  1.00  0.00     0.026 C 
ATOM     27  C   UNL     1      47.645 129.855  14.583  1.00  0.00     0.026 C 
ATOM     28  C   UNL     1      47.065 130.827  12.410  1.00  0.00     0.002 C 
ATOM     29  C   UNL     1      48.228 130.559  13.362  1.00  0.00     0.002 C 
BRANCH  25  30
ATOM     30  C   UNL     1      45.399 129.037  15.188  1.00  0.00     0.073 C 
ATOM     31  N   UNL     1      44.817 128.160  15.669  1.00  0.00    -0.198 NA
ENDBRANCH  25  30
ENDBRANCH  24  25
ENDBRANCH   4  24
TORSDOF 8
ENDMDL
MODEL 2
REMARK VINA RESULT:      -7.7      1.471      3.243
REMARK SMILES CCc1[nH+]nn(CC2(C#N)CCCC2)c1C[N+](C)(C)Cc1cccc2ccccc12
REMARK SMILES IDX 3 1 4 2 5 3 6 4 15 5 2 7 1 8 16 9 17 10 18 11 19 12 20 13
REMARK SMILES IDX 21 14 22 15 30 16 23 17 29 18 25 19 24 20 28 21 26 22 27 23
REMARK SMILES IDX 7 24 8 25 11 26 14 27 12 28 13 29 9 30 10 31
REMARK H PARENT 4 6
ROOT
ATOM      1  C   UNL     1      45.068 131.319  18.320  1.00  0.00     0.173 A 
ATOM      2  N   UNL     1      45.766 130.204  18.044  1.00  0.00    -0.147 N 
ATOM      3  N   UNL     1      46.259 130.315  16.823  1.00  0.00     0.088 NA
ATOM      4  N   UNL     1      45.901 131.474  16.291  1.00  0.00    -0.127 N 
ATOM      5  C   UNL     1      45.165 132.150  17.211  1.00  0.00     0.224 A 
ATOM      6  H   UNL     1      45.861 129.357  18.648  1.00  0.00     0.342 HD
ENDROOT
BRANCH   1   7
ATOM      7  C   UNL     1      44.153 131.452  19.503  1.00  0.00     0.083 C 
ATOM      8  C   UNL     1      44.962 131.628  20.783  1.00  0.00     0.013 C 
ENDBRANCH   1   7
BRANCH   5   9
ATOM      9  C   UNL     1      44.525 133.519  17.028  1.00  0.00     0.351 C 
BRANCH   9  10
ATOM     10  N   UNL     1      43.125 133.504  16.487  1.00  0.00    -0.318 N 
ATOM     11  C   UNL     1      43.125 133.731  15.021  1.00  0.00     0.334 C 
ATOM     12  C   UNL     1      42.474 132.193  16.741  1.00  0.00     0.334 C 
BRANCH  10  13
ATOM     13  C   UNL     1      42.294 134.548  17.177  1.00  0.00     0.301 C 
BRANCH  13  14
ATOM     14  C   UNL     1      42.630 134.776  18.654  1.00  0.00     0.014 A 
ATOM     15  C   UNL     1      41.910 134.029  19.607  1.00  0.00     0.010 A 
ATOM     16  C   UNL     1      43.607 135.711  19.111  1.00  0.00    -0.010 A 
ATOM     17  C   UNL     1      42.190 134.133  20.968  1.00  0.00     0.001 A 
ATOM     18  C   UNL     1      44.318 136.567  18.238  1.00  0.00     0.009 A 
ATOM     19  C   UNL     1      43.883 135.800  20.505  1.00  0.00    -0.018 A 
ATOM     20  C   UNL     1      43.177 135.004  21.416  1.00  0.00     0.009 A 
ATOM     21  C   UNL     1      45.281 137.451  18.726  1.00  0.00     0.001 A 
ATOM     22  C   UNL     1      44.857 136.693  20.979  1.00  0.00     0.009 A 
ATOM     23  C   UNL     1      45.554 137.511  20.091  1.00  0.00     0.001 A 
ENDBRANCH  13  14
ENDBRANCH  10  13
ENDBRANCH   9  10
ENDBRANCH   5   9
BRANCH   4  24
ATOM     24  C   UNL     1      46.170 131.826  14.890  1.00  0.00     0.292 C 
BRANCH  24  25
ATOM     25  C   UNL     1      45.782 130.685  13.904  1.00  0.00     0.097 C 
ATOM     26  C   UNL     1      46.535 130.788  12.569  1.00  0.00     0.026 C 
ATOM     27  C   UNL     1      46.230 129.329  14.464  1.00  0.00     0.026 C 
ATOM     28  C   UNL     1      47.846 130.035  12.763  1.00  0.00     0.002 C 
ATOM     29  C   UNL     1      47.653 129.112  13.963  1.00  0.00     0.002 C 
BRANCH  25  30
ATOM     30  C   UNL     1      44.321 130.681  13.686  1.00  0.00     0.073 C 
ATOM     31  N   UNL     1      43.176 130.678  13.517  1.00  0.00    -0.198 NA
ENDBRANCH  25  30
ENDBRANCH  24  25
ENDBRANCH   4  24
TORSDOF 8
ENDMDL
MODEL 3
REMARK VINA RESULT:      -7.6      2.504      4.585
REMARK SMILES CCc1[nH+]nn(CC2(C#N)CCCC2)c1C[N+](C)(C)Cc1cccc2ccccc12
REMARK SMILES IDX 3 1 4 2 5 3 6 4 15 5 2 7 1 8 16 9 17 10 18 11 19 12 20 13
REMARK SMILES IDX 21 14 22 15 30 16 23 17 29 18 25 19 24 20 28 21 26 22 27 23
REMARK SMILES IDX 7 24 8 25 11 26 14 27 12 28 13 29 9 30 10 31
REMARK H PARENT 4 6
ROOT
ATOM      1  C   UNL     1      44.650 131.786  18.133  1.00  0.00     0.173 A 
ATOM      2  N   UNL     1      45.331 130.628  18.079  1.00  0.00    -0.147 N 
ATOM      3  N   UNL     1      45.990 130.587  16.934  1.00  0.00     0.088 NA
ATOM      4  N   UNL     1      45.757 131.688  16.235  1.00  0.00    -0.127 N 
ATOM      5  C   UNL     1      44.933 132.484  16.965  1.00  0.00     0.224 A 
ATOM      6  H   UNL     1      45.306 129.852  18.778  1.00  0.00     0.342 HD
ENDROOT
BRANCH   1   7
ATOM      7  C   UNL     1      43.590 132.077  19.155  1.00  0.00     0.083 C 
ATOM      8  C   UNL     1      44.214 132.674  20.412  1.00  0.00     0.013 C 
ENDBRANCH   1   7
BRANCH   5   9
ATOM      9  C   UNL     1      44.383 133.840  16.548  1.00  0.00     0.351 C 
BRANCH   9  10
ATOM     10  N   UNL     1      42.945 133.844  16.116  1.00  0.00    -0.318 N 
ATOM     11  C   UNL     1      42.821 134.294  14.708  1.00  0.00     0.334 C 
ATOM     12  C   UNL     1      42.363 132.480  16.208  1.00  0.00     0.334 C 
BRANCH  10  13
ATOM     13  C   UNL     1      42.137 134.729  17.021  1.00  0.00     0.301 C 
BRANCH  13  14
ATOM     14  C   UNL     1      40.622 134.512  16.960  1.00  0.00     0.014 A 
ATOM     15  C   UNL     1      40.083 133.469  17.737  1.00  0.00     0.010 A 
ATOM     16  C   UNL     1      39.741 135.288  16.147  1.00  0.00    -0.010 A 
ATOM     17  C   UNL     1      38.710 133.237  17.783  1.00  0.00     0.001 A 
ATOM     18  C   UNL     1      40.197 136.297  15.267  1.00  0.00     0.009 A 
ATOM     19  C   UNL     1      38.340 135.039  16.211  1.00  0.00    -0.018 A 
ATOM     20  C   UNL     1      37.840 134.023  17.035  1.00  0.00     0.009 A 
ATOM     21  C   UNL     1      39.297 137.046  14.508  1.00  0.00     0.001 A 
ATOM     22  C   UNL     1      37.449 135.804  15.442  1.00  0.00     0.009 A 
ATOM     23  C   UNL     1      37.928 136.805  14.597  1.00  0.00     0.001 A 
ENDBRANCH  13  14
ENDBRANCH  10  13
ENDBRANCH   9  10
ENDBRANCH   5   9
BRANCH   4  24
ATOM     24  C   UNL     1      46.228 131.872  14.855  1.00  0.00     0.292 C 
BRANCH  24  25
ATOM     25  C   UNL     1      45.788 130.712  13.916  1.00  0.00     0.097 C 
ATOM     26  C   UNL     1      46.550 130.722  12.582  1.00  0.00     0.026 C 
ATOM     27  C   UNL     1      46.167 129.360  14.535  1.00  0.00     0.026 C 
ATOM     28  C   UNL     1      47.822 129.914  12.814  1.00  0.00     0.002 C 
ATOM     29  C   UNL     1      47.580 129.052  14.051  1.00  0.00     0.002 C 
BRANCH  25  30
ATOM     30  C   UNL     1      44.329 130.769  13.690  1.00  0.00     0.073 C 
ATOM     31  N   UNL     1      43.187 130.813  13.513  1.00  0.00    -0.198 NA
ENDBRANCH  25  30
ENDBRANCH  24  25
ENDBRANCH   4  24
TORSDOF 8
ENDMDL
MODEL 4
REMARK VINA RESULT:      -7.6      2.275      4.781
REMARK SMILES CCc1[nH+]nn(CC2(C#N)CCCC2)c1C[N+](C)(C)Cc1cccc2ccccc12
REMARK SMILES IDX 3 1 4 2 5 3 6 4 15 5 2 7 1 8 16 9 17 10 18 11 19 12 20 13
REMARK SMILES IDX 21 14 22 15 30 16 23 17 29 18 25 19 24 20 28 21 26 22 27 23
REMARK SMILES IDX 7 24 8 25 11 26 14 27 12 28 13 29 9 30 10 31
REMARK H PARENT 4 6
ROOT
ATOM      1  C   UNL     1      44.293 132.720  18.255  1.00  0.00     0.173 A 
ATOM      2  N   UNL     1      44.535 131.407  18.412  1.00  0.00    -0.147 N 
ATOM      3  N   UNL     1      44.745 130.877  17.220  1.00  0.00     0.088 NA
ATOM      4  N   UNL     1      44.645 131.809  16.284  1.00  0.00    -0.127 N 
ATOM      5  C   UNL     1      44.382 132.993  16.894  1.00  0.00     0.224 A 
ATOM      6  H   UNL     1      44.504 130.866  19.305  1.00  0.00     0.342 HD
ENDROOT
BRANCH   1   7
ATOM      7  C   UNL     1      43.759 133.602  19.346  1.00  0.00     0.083 C 
ATOM      8  C   UNL     1      44.687 134.791  19.570  1.00  0.00     0.013 C 
ENDBRANCH   1   7
BRANCH   5   9
ATOM      9  C   UNL     1      44.165 134.335  16.210  1.00  0.00     0.351 C 
BRANCH   9  10
ATOM     10  N   UNL     1      42.735 134.676  15.907  1.00  0.00    -0.318 N 
ATOM     11  C   UNL     1      42.285 135.829  16.724  1.00  0.00     0.334 C 
ATOM     12  C   UNL     1      42.571 135.045  14.477  1.00  0.00     0.334 C 
BRANCH  10  13
ATOM     13  C   UNL     1      41.855 133.485  16.157  1.00  0.00     0.301 C 
BRANCH  13  14
ATOM     14  C   UNL     1      40.449 133.810  16.669  1.00  0.00     0.014 A 
ATOM     15  C   UNL     1      40.250 133.811  18.064  1.00  0.00     0.010 A 
ATOM     16  C   UNL     1      39.337 134.084  15.817  1.00  0.00    -0.010 A 
ATOM     17  C   UNL     1      39.017 134.150  18.617  1.00  0.00     0.001 A 
ATOM     18  C   UNL     1      39.416 134.020  14.407  1.00  0.00     0.009 A 
ATOM     19  C   UNL     1      38.086 134.433  16.402  1.00  0.00    -0.018 A 
ATOM     20  C   UNL     1      37.943 134.470  17.795  1.00  0.00     0.009 A 
ATOM     21  C   UNL     1      38.309 134.319  13.612  1.00  0.00     0.001 A 
ATOM     22  C   UNL     1      36.983 134.733  15.587  1.00  0.00     0.009 A 
ATOM     23  C   UNL     1      37.097 134.679  14.198  1.00  0.00     0.001 A 
ENDBRANCH  13  14
ENDBRANCH  10  13
ENDBRANCH   9  10
ENDBRANCH   5   9
BRANCH   4  24
ATOM     24  C   UNL     1      44.679 131.503  14.847  1.00  0.00     0.292 C 
BRANCH  24  25
ATOM     25  C   UNL     1      45.656 130.339  14.509  1.00  0.00     0.097 C 
ATOM     26  C   UNL     1      45.826 130.144  12.994  1.00  0.00     0.026 C 
ATOM     27  C   UNL     1      47.073 130.683  14.986  1.00  0.00     0.026 C 
ATOM     28  C   UNL     1      46.954 131.076  12.571  1.00  0.00     0.002 C 
ATOM     29  C   UNL     1      47.743 131.420  13.832  1.00  0.00     0.002 C 
BRANCH  25  30
ATOM     30  C   UNL     1      45.198 129.091  15.153  1.00  0.00     0.073 C 
ATOM     31  N   UNL     1      44.838 128.114  15.657  1.00  0.00    -0.198 NA
ENDBRANCH  25  30
ENDBRANCH  24  25
ENDBRANCH   4  24
TORSDOF 8
ENDMDL
MODEL 5
REMARK VINA RESULT:      -7.6      1.127      2.617
REMARK SMILES CCc1[nH+]nn(CC2(C#N)CCCC2)c1C[N+](C)(C)Cc1cccc2ccccc12
REMARK SMILES IDX 3 1 4 2 5 3 6 4 15 5 2 7 1 8 16 9 17 10 18 11 19 12 20 13
REMARK SMILES IDX 21 14 22 15 30 16 23 17 29 18 25 19 24 20 28 21 26 22 27 23
REMARK SMILES IDX 7 24 8 25 11 26 14 27 12 28 13 29 9 30 10 31
REMARK H PARENT 4 6
ROOT
ATOM      1  C   UNL     1      42.785 133.124  15.867  1.00  0.00     0.173 A 
ATOM      2  N   UNL     1      42.732 132.552  14.651  1.00  0.00    -0.147 N 
ATOM      3  N   UNL     1      43.835 131.845  14.477  1.00  0.00     0.088 NA
ATOM      4  N   UNL     1      44.611 131.939  15.547  1.00  0.00    -0.127 N 
ATOM      5  C   UNL     1      43.976 132.720  16.460  1.00  0.00     0.224 A 
ATOM      6  H   UNL     1      41.990 132.683  13.928  1.00  0.00     0.342 HD
ENDROOT
BRANCH   1   7
ATOM      7  C   UNL     1      41.841 134.200  16.318  1.00  0.00     0.083 C 
ATOM      8  C   UNL     1      42.228 135.539  15.701  1.00  0.00     0.013 C 
ENDBRANCH   1   7
BRANCH   5   9
ATOM      9  C   UNL     1      44.503 133.120  17.830  1.00  0.00     0.351 C 
BRANCH   9  10
ATOM     10  N   UNL     1      44.074 132.236  18.965  1.00  0.00    -0.318 N 
ATOM     11  C   UNL     1      42.721 131.682  18.717  1.00  0.00     0.334 C 
ATOM     12  C   UNL     1      45.009 131.092  19.125  1.00  0.00     0.334 C 
BRANCH  10  13
ATOM     13  C   UNL     1      44.096 133.005  20.255  1.00  0.00     0.301 C 
BRANCH  13  14
ATOM     14  C   UNL     1      44.589 134.451  20.143  1.00  0.00     0.014 A 
ATOM     15  C   UNL     1      43.846 135.330  19.330  1.00  0.00     0.010 A 
ATOM     16  C   UNL     1      45.762 134.942  20.791  1.00  0.00    -0.010 A 
ATOM     17  C   UNL     1      44.192 136.675  19.216  1.00  0.00     0.001 A 
ATOM     18  C   UNL     1      46.620 134.117  21.555  1.00  0.00     0.009 A 
ATOM     19  C   UNL     1      46.097 136.321  20.666  1.00  0.00    -0.018 A 
ATOM     20  C   UNL     1      45.303 137.172  19.888  1.00  0.00     0.009 A 
ATOM     21  C   UNL     1      47.744 134.646  22.191  1.00  0.00     0.001 A 
ATOM     22  C   UNL     1      47.231 136.836  21.315  1.00  0.00     0.009 A 
ATOM     23  C   UNL     1      48.047 136.000  22.076  1.00  0.00     0.001 A 
ENDBRANCH  13  14
ENDBRANCH  10  13
ENDBRANCH   9  10
ENDBRANCH   5   9
BRANCH   4  24
ATOM     24  C   UNL     1      45.971 131.387  15.598  1.00  0.00     0.292 C 
BRANCH  24  25
ATOM     25  C   UNL     1      46.132 130.118  14.711  1.00  0.00     0.097 C 
ATOM     26  C   UNL     1      45.709 130.368  13.255  1.00  0.00     0.026 C 
ATOM     27  C   UNL     1      47.614 129.740  14.593  1.00  0.00     0.026 C 
ATOM     28  C   UNL     1      46.946 130.899  12.540  1.00  0.00     0.002 C 
ATOM     29  C   UNL     1      48.152 130.502  13.387  1.00  0.00     0.002 C 
BRANCH  25  30
ATOM     30  C   UNL     1      45.372 128.993  15.295  1.00  0.00     0.073 C 
ATOM     31  N   UNL     1      44.778 128.111  15.751  1.00  0.00    -0.198 NA
ENDBRANCH  25  30
ENDBRANCH  24  25
ENDBRANCH   4  24
TORSDOF 8
ENDMDL
MODEL 6
REMARK VINA RESULT:      -7.5      2.470      4.681
REMARK SMILES CCc1[nH+]nn(CC2(C#N)CCCC2)c1C[N+](C)(C)Cc1cccc2ccccc12
REMARK SMILES IDX 3 1 4 2 5 3 6 4 15 5 2 7 1 8 16 9 17 10 18 11 19 12 20 13
REMARK SMILES IDX 21 14 22 15 30 16 23 17 29 18 25 19 24 20 28 21 26 22 27 23
REMARK SMILES IDX 7 24 8 25 11 26 14 27 12 28 13 29 9 30 10 31
REMARK H PARENT 4 6
ROOT
ATOM      1  C   UNL     1      43.655 131.698  17.938  1.00  0.00     0.173 A 
ATOM      2  N   UNL     1      44.797 131.272  18.507  1.00  0.00    -0.147 N 
ATOM      3  N   UNL     1      45.753 131.311  17.596  1.00  0.00     0.088 NA
ATOM      4  N   UNL     1      45.268 131.751  16.444  1.00  0.00    -0.127 N 
ATOM      5  C   UNL     1      43.950 132.028  16.621  1.00  0.00     0.224 A 
ATOM      6  H   UNL     1      44.916 130.907  19.478  1.00  0.00     0.342 HD
ENDROOT
BRANCH   1   7
ATOM      7  C   UNL     1      42.305 131.552  18.579  1.00  0.00     0.083 C 
ATOM      8  C   UNL     1      42.278 132.263  19.927  1.00  0.00     0.013 C 
ENDBRANCH   1   7
BRANCH   5   9
ATOM      9  C   UNL     1      42.984 132.538  15.561  1.00  0.00     0.351 C 
BRANCH   9  10
ATOM     10  N   UNL     1      42.561 133.970  15.715  1.00  0.00    -0.318 N 
ATOM     11  C   UNL     1      43.612 134.757  16.406  1.00  0.00     0.334 C 
ATOM     12  C   UNL     1      42.325 134.597  14.388  1.00  0.00     0.334 C 
BRANCH  10  13
ATOM     13  C   UNL     1      41.267 134.048  16.474  1.00  0.00     0.301 C 
BRANCH  13  14
ATOM     14  C   UNL     1      40.082 134.610  15.683  1.00  0.00     0.014 A 
ATOM     15  C   UNL     1      39.358 133.715  14.872  1.00  0.00     0.010 A 
ATOM     16  C   UNL     1      39.692 135.983  15.707  1.00  0.00    -0.010 A 
ATOM     17  C   UNL     1      38.233 134.131  14.163  1.00  0.00     0.001 A 
ATOM     18  C   UNL     1      40.408 136.973  16.420  1.00  0.00     0.009 A 
ATOM     19  C   UNL     1      38.536 136.388  14.979  1.00  0.00    -0.018 A 
ATOM     20  C   UNL     1      37.816 135.456  14.223  1.00  0.00     0.009 A 
ATOM     21  C   UNL     1      39.976 138.300  16.434  1.00  0.00     0.001 A 
ATOM     22  C   UNL     1      38.116 137.728  15.006  1.00  0.00     0.009 A 
ATOM     23  C   UNL     1      38.833 138.677  15.734  1.00  0.00     0.001 A 
ENDBRANCH  13  14
ENDBRANCH  10  13
ENDBRANCH   9  10
ENDBRANCH   5   9
BRANCH   4  24
ATOM     24  C   UNL     1      46.052 131.764  15.201  1.00  0.00     0.292 C 
BRANCH  24  25
ATOM     25  C   UNL     1      46.182 130.350  14.564  1.00  0.00     0.097 C 
ATOM     26  C   UNL     1      45.791 130.343  13.078  1.00  0.00     0.026 C 
ATOM     27  C   UNL     1      47.652 129.911  14.549  1.00  0.00     0.026 C 
ATOM     28  C   UNL     1      47.057 130.695  12.305  1.00  0.00     0.002 C 
ATOM     29  C   UNL     1      48.235 130.422  13.236  1.00  0.00     0.002 C 
BRANCH  25  30
ATOM     30  C   UNL     1      45.375 129.376  15.326  1.00  0.00     0.073 C 
ATOM     31  N   UNL     1      44.743 128.613  15.925  1.00  0.00    -0.198 NA
ENDBRANCH  25  30
ENDBRANCH  24  25
ENDBRANCH   4  24
TORSDOF 8
ENDMDL
MODEL 7
REMARK VINA RESULT:      -7.3      2.170      4.677
REMARK SMILES CCc1[nH+]nn(CC2(C#N)CCCC2)c1C[N+](C)(C)Cc1cccc2ccccc12
REMARK SMILES IDX 3 1 4 2 5 3 6 4 15 5 2 7 1 8 16 9 17 10 18 11 19 12 20 13
REMARK SMILES IDX 21 14 22 15 30 16 23 17 29 18 25 19 24 20 28 21 26 22 27 23
REMARK SMILES IDX 7 24 8 25 11 26 14 27 12 28 13 29 9 30 10 31
REMARK H PARENT 4 6
ROOT
ATOM      1  C   UNL     1      43.860 131.883  18.209  1.00  0.00     0.173 A 
ATOM      2  N   UNL     1      44.956 131.190  18.564  1.00  0.00    -0.147 N 
ATOM      3  N   UNL     1      45.784 131.166  17.535  1.00  0.00     0.088 NA
ATOM      4  N   UNL     1      45.259 131.825  16.513  1.00  0.00    -0.127 N 
ATOM      5  C   UNL     1      44.053 132.313  16.901  1.00  0.00     0.224 A 
ATOM      6  H   UNL     1      45.117 130.692  19.468  1.00  0.00     0.342 HD
ENDROOT
BRANCH   1   7
ATOM      7  C   UNL     1      42.595 131.906  19.017  1.00  0.00     0.083 C 
ATOM      8  C   UNL     1      41.423 131.398  18.186  1.00  0.00     0.013 C 
ENDBRANCH   1   7
BRANCH   5   9
ATOM      9  C   UNL     1      43.084 133.117  16.045  1.00  0.00     0.351 C 
BRANCH   9  10
ATOM     10  N   UNL     1      43.128 134.603  16.250  1.00  0.00    -0.318 N 
ATOM     11  C   UNL     1      44.214 134.972  17.190  1.00  0.00     0.334 C 
ATOM     12  C   UNL     1      43.382 135.306  14.966  1.00  0.00     0.334 C 
BRANCH  10  13
ATOM     13  C   UNL     1      41.804 135.092  16.764  1.00  0.00     0.301 C 
BRANCH  13  14
ATOM     14  C   UNL     1      41.022 135.987  15.799  1.00  0.00     0.014 A 
ATOM     15  C   UNL     1      41.314 137.365  15.807  1.00  0.00     0.010 A 
ATOM     16  C   UNL     1      40.006 135.507  14.917  1.00  0.00    -0.010 A 
ATOM     17  C   UNL     1      40.690 138.242  14.923  1.00  0.00     0.001 A 
ATOM     18  C   UNL     1      39.580 134.159  14.898  1.00  0.00     0.009 A 
ATOM     19  C   UNL     1      39.382 136.418  14.018  1.00  0.00    -0.018 A 
ATOM     20  C   UNL     1      39.737 137.773  14.025  1.00  0.00     0.009 A 
ATOM     21  C   UNL     1      38.599 133.729  14.003  1.00  0.00     0.001 A 
ATOM     22  C   UNL     1      38.398 135.968  13.123  1.00  0.00     0.009 A 
ATOM     23  C   UNL     1      38.013 134.628  13.115  1.00  0.00     0.001 A 
ENDBRANCH  13  14
ENDBRANCH  10  13
ENDBRANCH   9  10
ENDBRANCH   5   9
BRANCH   4  24
ATOM     24  C   UNL     1      45.874 131.849  15.178  1.00  0.00     0.292 C 
BRANCH  24  25
ATOM     25  C   UNL     1      46.074 130.423  14.589  1.00  0.00     0.097 C 
ATOM     26  C   UNL     1      45.733 130.358  13.092  1.00  0.00     0.026 C 
ATOM     27  C   UNL     1      47.558 130.036  14.635  1.00  0.00     0.026 C 
ATOM     28  C   UNL     1      47.011 130.731  12.350  1.00  0.00     0.002 C 
ATOM     29  C   UNL     1      48.167 130.529  13.326  1.00  0.00     0.002 C 
BRANCH  25  30
ATOM     30  C   UNL     1      45.276 129.443  15.355  1.00  0.00     0.073 C 
ATOM     31  N   UNL     1      44.650 128.676  15.954  1.00  0.00    -0.198 NA
ENDBRANCH  25  30
ENDBRANCH  24  25
ENDBRANCH   4  24
TORSDOF 8
ENDMDL
MODEL 8
REMARK VINA RESULT:      -7.3      2.255      4.868
REMARK SMILES CCc1[nH+]nn(CC2(C#N)CCCC2)c1C[N+](C)(C)Cc1cccc2ccccc12
REMARK SMILES IDX 3 1 4 2 5 3 6 4 15 5 2 7 1 8 16 9 17 10 18 11 19 12 20 13
REMARK SMILES IDX 21 14 22 15 30 16 23 17 29 18 25 19 24 20 28 21 26 22 27 23
REMARK SMILES IDX 7 24 8 25 11 26 14 27 12 28 13 29 9 30 10 31
REMARK H PARENT 4 6
ROOT
ATOM      1  C   UNL     1      44.213 131.666  18.017  1.00  0.00     0.173 A 
ATOM      2  N   UNL     1      45.256 130.846  18.238  1.00  0.00    -0.147 N 
ATOM      3  N   UNL     1      46.054 130.897  17.185  1.00  0.00     0.088 NA
ATOM      4  N   UNL     1      45.561 131.728  16.279  1.00  0.00    -0.127 N 
ATOM      5  C   UNL     1      44.409 132.254  16.772  1.00  0.00     0.224 A 
ATOM      6  H   UNL     1      45.398 130.220  19.061  1.00  0.00     0.342 HD
ENDROOT
BRANCH   1   7
ATOM      7  C   UNL     1      42.976 131.681  18.866  1.00  0.00     0.083 C 
ATOM      8  C   UNL     1      43.234 132.431  20.168  1.00  0.00     0.013 C 
ENDBRANCH   1   7
BRANCH   5   9
ATOM      9  C   UNL     1      43.490 133.240  16.066  1.00  0.00     0.351 C 
BRANCH   9  10
ATOM     10  N   UNL     1      43.459 134.621  16.654  1.00  0.00    -0.318 N 
ATOM     11  C   UNL     1      44.413 134.733  17.784  1.00  0.00     0.334 C 
ATOM     12  C   UNL     1      43.840 135.636  15.638  1.00  0.00     0.334 C 
BRANCH  10  13
ATOM     13  C   UNL     1      42.068 134.957  17.110  1.00  0.00     0.301 C 
BRANCH  13  14
ATOM     14  C   UNL     1      40.970 134.740  16.064  1.00  0.00     0.014 A 
ATOM     15  C   UNL     1      41.376 134.447  14.747  1.00  0.00     0.010 A 
ATOM     16  C   UNL     1      39.574 134.842  16.345  1.00  0.00    -0.010 A 
ATOM     17  C   UNL     1      40.444 134.182  13.746  1.00  0.00     0.001 A 
ATOM     18  C   UNL     1      39.072 135.216  17.613  1.00  0.00     0.009 A 
ATOM     19  C   UNL     1      38.637 134.562  15.310  1.00  0.00    -0.018 A 
ATOM     20  C   UNL     1      39.083 134.227  14.025  1.00  0.00     0.009 A 
ATOM     21  C   UNL     1      37.698 135.281  17.849  1.00  0.00     0.001 A 
ATOM     22  C   UNL     1      37.258 134.630  15.566  1.00  0.00     0.009 A 
ATOM     23  C   UNL     1      36.793 134.984  16.832  1.00  0.00     0.001 A 
ENDBRANCH  13  14
ENDBRANCH  10  13
ENDBRANCH   9  10
ENDBRANCH   5   9
BRANCH   4  24
ATOM     24  C   UNL     1      46.142 131.884  14.939  1.00  0.00     0.292 C 
BRANCH  24  25
ATOM     25  C   UNL     1      45.743 130.726  13.979  1.00  0.00     0.097 C 
ATOM     26  C   UNL     1      46.572 130.729  12.686  1.00  0.00     0.026 C 
ATOM     27  C   UNL     1      46.079 129.371  14.616  1.00  0.00     0.026 C 
ATOM     28  C   UNL     1      47.825 129.913  12.983  1.00  0.00     0.002 C 
ATOM     29  C   UNL     1      47.514 129.054  14.206  1.00  0.00     0.002 C 
BRANCH  25  30
ATOM     30  C   UNL     1      44.298 130.793  13.678  1.00  0.00     0.073 C 
ATOM     31  N   UNL     1      43.166 130.845  13.443  1.00  0.00    -0.198 NA
ENDBRANCH  25  30
ENDBRANCH  24  25
ENDBRANCH   4  24
TORSDOF 8
ENDMDL
MODEL 9
REMARK VINA RESULT:      -7.2      2.261      4.928
REMARK SMILES CCc1[nH+]nn(CC2(C#N)CCCC2)c1C[N+](C)(C)Cc1cccc2ccccc12
REMARK SMILES IDX 3 1 4 2 5 3 6 4 15 5 2 7 1 8 16 9 17 10 18 11 19 12 20 13
REMARK SMILES IDX 21 14 22 15 30 16 23 17 29 18 25 19 24 20 28 21 26 22 27 23
REMARK SMILES IDX 7 24 8 25 11 26 14 27 12 28 13 29 9 30 10 31
REMARK H PARENT 4 6
ROOT
ATOM      1  C   UNL     1      44.318 132.009  18.171  1.00  0.00     0.173 A 
ATOM      2  N   UNL     1      44.768 130.747  18.058  1.00  0.00    -0.147 N 
ATOM      3  N   UNL     1      45.443 130.647  16.926  1.00  0.00     0.088 NA
ATOM      4  N   UNL     1      45.447 131.810  16.294  1.00  0.00    -0.127 N 
ATOM      5  C   UNL     1      44.765 132.706  17.055  1.00  0.00     0.224 A 
ATOM      6  H   UNL     1      44.575 129.951  18.706  1.00  0.00     0.342 HD
ENDROOT
BRANCH   1   7
ATOM      7  C   UNL     1      43.300 132.438  19.188  1.00  0.00     0.083 C 
ATOM      8  C   UNL     1      43.748 133.721  19.878  1.00  0.00     0.013 C 
ENDBRANCH   1   7
BRANCH   5   9
ATOM      9  C   UNL     1      44.497 134.164  16.712  1.00  0.00     0.351 C 
BRANCH   9  10
ATOM     10  N   UNL     1      43.208 134.425  15.987  1.00  0.00    -0.318 N 
ATOM     11  C   UNL     1      42.632 135.730  16.392  1.00  0.00     0.334 C 
ATOM     12  C   UNL     1      43.429 134.465  14.518  1.00  0.00     0.334 C 
BRANCH  10  13
ATOM     13  C   UNL     1      42.231 133.317  16.255  1.00  0.00     0.301 C 
BRANCH  13  14
ATOM     14  C   UNL     1      40.772 133.641  15.920  1.00  0.00     0.014 A 
ATOM     15  C   UNL     1      40.409 133.676  14.559  1.00  0.00     0.010 A 
ATOM     16  C   UNL     1      39.777 133.929  16.903  1.00  0.00    -0.010 A 
ATOM     17  C   UNL     1      39.093 133.908  14.168  1.00  0.00     0.001 A 
ATOM     18  C   UNL     1      40.063 134.004  18.286  1.00  0.00     0.009 A 
ATOM     19  C   UNL     1      38.435 134.160  16.484  1.00  0.00    -0.018 A 
ATOM     20  C   UNL     1      38.107 134.138  15.122  1.00  0.00     0.009 A 
ATOM     21  C   UNL     1      39.054 134.267  19.213  1.00  0.00     0.001 A 
ATOM     22  C   UNL     1      37.432 134.420  17.431  1.00  0.00     0.009 A 
ATOM     23  C   UNL     1      37.743 134.469  18.790  1.00  0.00     0.001 A 
ENDBRANCH  13  14
ENDBRANCH  10  13
ENDBRANCH   9  10
ENDBRANCH   5   9
BRANCH   4  24
ATOM     24  C   UNL     1      45.988 131.980  14.938  1.00  0.00     0.292 C 
BRANCH  24  25
ATOM     25  C   UNL     1      45.583 130.818  13.986  1.00  0.00     0.097 C 
ATOM     26  C   UNL     1      46.366 130.849  12.664  1.00  0.00     0.026 C 
ATOM     27  C   UNL     1      45.976 129.469  14.602  1.00  0.00     0.026 C 
ATOM     28  C   UNL     1      47.648 130.062  12.912  1.00  0.00     0.002 C 
ATOM     29  C   UNL     1      47.402 129.189  14.140  1.00  0.00     0.002 C 
BRANCH  25  30
ATOM     30  C   UNL     1      44.128 130.851  13.737  1.00  0.00     0.073 C 
ATOM     31  N   UNL     1      42.988 130.878  13.540  1.00  0.00    -0.198 NA
ENDBRANCH  25  30
ENDBRANCH  24  25
ENDBRANCH   4  24
TORSDOF 8
ENDMDL


