MODEL 1
REMARK VINA RESULT:      -6.7      0.000      0.000
REMARK SMILES CC[C@H]1C[C@@]1(N)C(=O)Oc1c(C(=O)N=[N+]=[N-])cccc([O-])c(NC2(CF)COC2)c(N=[N+]=[N-])c(Cl)c1Cl
REMARK SMILES IDX 18 1 19 2 20 3 21 4 22 5 30 6 34 7 35 8 36 9 37 10 10 11
REMARK SMILES IDX 11 12 17 13 12 14 13 15 14 16 15 17 16 18 23 19 24 21 27 22
REMARK SMILES IDX 29 23 28 24 25 25 26 26 9 27 7 28 8 29 5 30 4 31 3 32 6 33
REMARK SMILES IDX 2 36 1 37 31 38 32 39 33 40
REMARK H PARENT 23 20 6 34 6 35
ROOT
ATOM      1  C   UNL     1      40.388 132.410  18.402  1.00  0.00     0.000 A 
ATOM      2  C   UNL     1      40.431 133.795  18.651  1.00  0.00    -0.006 A 
ATOM      3  C   UNL     1      41.597 134.570  18.832  1.00  0.00    -0.084 A 
ATOM      4  O   UNL     1      41.499 135.938  18.605  1.00  0.00    -0.871 OA
ATOM      5  C   UNL     1      42.850 134.045  19.222  1.00  0.00     0.038 A 
ATOM      6  C   UNL     1      42.939 132.874  20.002  1.00  0.00     0.080 A 
ATOM      7  C   UNL     1      43.907 131.872  19.750  1.00  0.00     0.075 A 
ATOM      8  Cl  UNL     1      44.585 131.033  21.150  1.00  0.00    -0.082 Cl
ATOM      9  C   UNL     1      44.405 131.529  18.460  1.00  0.00     0.103 A 
ATOM     10  Cl  UNL     1      45.930 130.640  18.376  1.00  0.00    -0.079 Cl
ATOM     11  C   UNL     1      43.807 131.840  17.214  1.00  0.00     0.162 A 
ATOM     12  C   UNL     1      42.447 132.191  17.050  1.00  0.00     0.069 A 
ATOM     13  C   UNL     1      41.455 131.656  17.891  1.00  0.00     0.016 A 
ENDROOT
BRANCH  12  14
ATOM     14  C   UNL     1      42.078 133.167  15.986  1.00  0.00     0.252 C 
ATOM     15  O   UNL     1      40.883 133.225  15.592  1.00  0.00    -0.287 OA
BRANCH  14  16
ATOM     16  N   UNL     1      43.037 134.054  15.396  1.00  0.00    -0.017 NA
BRANCH  16  17
ATOM     17  N   UNL     1      43.119 135.240  15.716  1.00  0.00     0.009 N 
ATOM     18  N   UNL     1      43.197 136.424  16.037  1.00  0.00    -0.003 NA
ENDBRANCH  16  17
ENDBRANCH  14  16
ENDBRANCH  12  14
BRANCH   5  19
ATOM     19  N   UNL     1      44.037 134.788  18.886  1.00  0.00    -0.373 N 
ATOM     20  H   UNL     1      44.277 134.842  17.870  1.00  0.00     0.161 HD
BRANCH  19  21
ATOM     21  C   UNL     1      44.661 135.759  19.804  1.00  0.00     0.113 C 
ATOM     22  C   UNL     1      43.834 136.043  21.041  1.00  0.00     0.193 C 
ATOM     23  C   UNL     1      45.604 135.111  20.808  1.00  0.00     0.193 C 
ATOM     24  O   UNL     1      44.780 135.447  21.898  1.00  0.00    -0.376 OA
BRANCH  21  25
ATOM     25  C   UNL     1      45.252 136.997  19.101  1.00  0.00     0.247 C 
ATOM     26  F   UNL     1      46.351 137.496  19.782  1.00  0.00    -0.248 F 
ENDBRANCH  21  25
ENDBRANCH  19  21
ENDBRANCH   5  19
BRANCH  11  27
ATOM     27  O   UNL     1      44.653 131.832  16.093  1.00  0.00    -0.423 OA
BRANCH  27  28
ATOM     28  C   UNL     1      44.565 130.908  15.043  1.00  0.00     0.331 C 
ATOM     29  O   UNL     1      43.639 130.982  14.190  1.00  0.00    -0.250 OA
BRANCH  28  30
ATOM     30  C   UNL     1      45.521 129.754  15.002  1.00  0.00     0.118 C 
ATOM     31  C   UNL     1      46.981 130.107  15.279  1.00  0.00     0.040 C 
ATOM     32  C   UNL     1      46.564 129.620  13.888  1.00  0.00     0.022 C 
BRANCH  30  33
ATOM     33  N   UNL     1      45.068 128.511  15.629  1.00  0.00    -0.316 NA
ATOM     34  H   UNL     1      44.115 128.243  15.289  1.00  0.00     0.119 HD
ATOM     35  H   UNL     1      44.974 128.697  16.654  1.00  0.00     0.119 HD
ENDBRANCH  30  33
BRANCH  32  36
ATOM     36  C   UNL     1      46.574 130.695  12.790  1.00  0.00     0.003 C 
ATOM     37  C   UNL     1      47.670 130.405  11.772  1.00  0.00     0.004 C 
ENDBRANCH  32  36
ENDBRANCH  28  30
ENDBRANCH  27  28
ENDBRANCH  11  27
BRANCH   6  38
ATOM     38  N   UNL     1      41.989 132.726  21.072  1.00  0.00    -0.057 NA
BRANCH  38  39
ATOM     39  N   UNL     1      42.015 133.424  22.088  1.00  0.00     0.005 N 
ATOM     40  N   UNL     1      42.037 134.124  23.099  1.00  0.00    -0.003 NA
ENDBRANCH  38  39
ENDBRANCH   6  38
TORSDOF 13
ENDMDL
MODEL 2
REMARK VINA RESULT:      -6.2      1.114      1.296
REMARK SMILES CC[C@H]1C[C@@]1(N)C(=O)Oc1c(C(=O)N=[N+]=[N-])cccc([O-])c(NC2(CF)COC2)c(N=[N+]=[N-])c(Cl)c1Cl
REMARK SMILES IDX 18 1 19 2 20 3 21 4 22 5 30 6 34 7 35 8 36 9 37 10 10 11
REMARK SMILES IDX 11 12 17 13 12 14 13 15 14 16 15 17 16 18 23 19 24 21 27 22
REMARK SMILES IDX 29 23 28 24 25 25 26 26 9 27 7 28 8 29 5 30 4 31 3 32 6 33
REMARK SMILES IDX 2 36 1 37 31 38 32 39 33 40
REMARK H PARENT 23 20 6 34 6 35
ROOT
ATOM      1  C   UNL     1      40.473 133.033  18.529  1.00  0.00     0.000 A 
ATOM      2  C   UNL     1      40.649 134.376  18.917  1.00  0.00    -0.006 A 
ATOM      3  C   UNL     1      41.868 134.976  19.300  1.00  0.00    -0.084 A 
ATOM      4  O   UNL     1      41.961 136.359  19.200  1.00  0.00    -0.871 OA
ATOM      5  C   UNL     1      42.993 134.263  19.772  1.00  0.00     0.038 A 
ATOM      6  C   UNL     1      42.848 133.029  20.438  1.00  0.00     0.080 A 
ATOM      7  C   UNL     1      43.714 131.935  20.196  1.00  0.00     0.075 A 
ATOM      8  Cl  UNL     1      44.113 130.902  21.574  1.00  0.00    -0.082 Cl
ATOM      9  C   UNL     1      44.320 131.641  18.942  1.00  0.00     0.103 A 
ATOM     10  Cl  UNL     1      45.729 130.572  18.939  1.00  0.00    -0.079 Cl
ATOM     11  C   UNL     1      43.919 132.130  17.674  1.00  0.00     0.162 A 
ATOM     12  C   UNL     1      42.640 132.665  17.397  1.00  0.00     0.069 A 
ATOM     13  C   UNL     1      41.497 132.195  18.067  1.00  0.00     0.016 A 
ENDROOT
BRANCH  12  14
ATOM     14  C   UNL     1      42.521 133.767  16.400  1.00  0.00     0.252 C 
ATOM     15  O   UNL     1      41.582 133.739  15.562  1.00  0.00    -0.287 OA
BRANCH  14  16
ATOM     16  N   UNL     1      43.438 134.869  16.364  1.00  0.00    -0.017 NA
BRANCH  16  17
ATOM     17  N   UNL     1      43.094 135.998  16.013  1.00  0.00     0.009 N 
ATOM     18  N   UNL     1      42.747 137.124  15.664  1.00  0.00    -0.003 NA
ENDBRANCH  16  17
ENDBRANCH  14  16
ENDBRANCH  12  14
BRANCH   5  19
ATOM     19  N   UNL     1      44.292 134.872  19.644  1.00  0.00    -0.373 N 
ATOM     20  H   UNL     1      44.587 135.131  18.676  1.00  0.00     0.161 HD
BRANCH  19  21
ATOM     21  C   UNL     1      45.005 135.486  20.780  1.00  0.00     0.113 C 
ATOM     22  C   UNL     1      46.159 134.651  21.295  1.00  0.00     0.193 C 
ATOM     23  C   UNL     1      46.120 136.427  20.346  1.00  0.00     0.193 C 
ATOM     24  O   UNL     1      47.120 135.595  20.884  1.00  0.00    -0.376 OA
BRANCH  21  25
ATOM     25  C   UNL     1      44.075 136.074  21.861  1.00  0.00     0.247 C 
ATOM     26  F   UNL     1      44.313 135.507  23.103  1.00  0.00    -0.248 F 
ENDBRANCH  21  25
ENDBRANCH  19  21
ENDBRANCH   5  19
BRANCH  11  27
ATOM     27  O   UNL     1      44.888 132.107  16.657  1.00  0.00    -0.423 OA
BRANCH  27  28
ATOM     28  C   UNL     1      44.782 131.351  15.482  1.00  0.00     0.331 C 
ATOM     29  O   UNL     1      44.015 131.709  14.548  1.00  0.00    -0.250 OA
BRANCH  28  30
ATOM     30  C   UNL     1      45.510 130.044  15.385  1.00  0.00     0.118 C 
ATOM     31  C   UNL     1      47.030 130.132  15.514  1.00  0.00     0.040 C 
ATOM     32  C   UNL     1      46.398 129.711  14.183  1.00  0.00     0.022 C 
BRANCH  30  33
ATOM     33  N   UNL     1      44.907 128.910  16.089  1.00  0.00    -0.316 NA
ATOM     34  H   UNL     1      45.517 128.588  16.876  1.00  0.00     0.119 HD
ATOM     35  H   UNL     1      44.855 128.116  15.412  1.00  0.00     0.119 HD
ENDBRANCH  30  33
BRANCH  32  36
ATOM     36  C   UNL     1      46.493 130.753  13.058  1.00  0.00     0.003 C 
ATOM     37  C   UNL     1      47.938 130.924  12.611  1.00  0.00     0.004 C 
ENDBRANCH  32  36
ENDBRANCH  28  30
ENDBRANCH  27  28
ENDBRANCH  11  27
BRANCH   6  38
ATOM     38  N   UNL     1      41.764 132.915  21.378  1.00  0.00    -0.057 NA
BRANCH  38  39
ATOM     39  N   UNL     1      41.916 133.061  22.592  1.00  0.00     0.005 N 
ATOM     40  N   UNL     1      42.062 133.207  23.805  1.00  0.00    -0.003 NA
ENDBRANCH  38  39
ENDBRANCH   6  38
TORSDOF 13
ENDMDL
MODEL 3
REMARK VINA RESULT:      -6.1      1.339      1.595
REMARK SMILES CC[C@H]1C[C@@]1(N)C(=O)Oc1c(C(=O)N=[N+]=[N-])cccc([O-])c(NC2(CF)COC2)c(N=[N+]=[N-])c(Cl)c1Cl
REMARK SMILES IDX 18 1 19 2 20 3 21 4 22 5 30 6 34 7 35 8 36 9 37 10 10 11
REMARK SMILES IDX 11 12 17 13 12 14 13 15 14 16 15 17 16 18 23 19 24 21 27 22
REMARK SMILES IDX 29 23 28 24 25 25 26 26 9 27 7 28 8 29 5 30 4 31 3 32 6 33
REMARK SMILES IDX 2 36 1 37 31 38 32 39 33 40
REMARK H PARENT 23 20 6 34 6 35
ROOT
ATOM      1  C   UNL     1      41.023 134.139  18.207  1.00  0.00     0.000 A 
ATOM      2  C   UNL     1      41.474 135.365  18.731  1.00  0.00    -0.006 A 
ATOM      3  C   UNL     1      42.754 135.615  19.272  1.00  0.00    -0.084 A 
ATOM      4  O   UNL     1      43.187 136.936  19.310  1.00  0.00    -0.871 OA
ATOM      5  C   UNL     1      43.619 134.614  19.769  1.00  0.00     0.038 A 
ATOM      6  C   UNL     1      43.112 133.412  20.302  1.00  0.00     0.080 A 
ATOM      7  C   UNL     1      43.711 132.157  20.033  1.00  0.00     0.075 A 
ATOM      8  Cl  UNL     1      43.701 130.963  21.336  1.00  0.00    -0.082 Cl
ATOM      9  C   UNL     1      44.357 131.809  18.813  1.00  0.00     0.103 A 
ATOM     10  Cl  UNL     1      45.459 130.427  18.829  1.00  0.00    -0.079 Cl
ATOM     11  C   UNL     1      44.221 132.470  17.567  1.00  0.00     0.162 A 
ATOM     12  C   UNL     1      43.144 133.324  17.234  1.00  0.00     0.069 A 
ATOM     13  C   UNL     1      41.858 133.106  17.757  1.00  0.00     0.016 A 
ENDROOT
BRANCH  12  14
ATOM     14  C   UNL     1      43.400 134.488  16.338  1.00  0.00     0.252 C 
ATOM     15  O   UNL     1      44.218 135.375  16.700  1.00  0.00    -0.287 OA
BRANCH  14  16
ATOM     16  N   UNL     1      42.752 134.633  15.067  1.00  0.00    -0.017 NA
BRANCH  16  17
ATOM     17  N   UNL     1      41.812 133.916  14.724  1.00  0.00     0.009 N 
ATOM     18  N   UNL     1      40.871 133.203  14.380  1.00  0.00    -0.003 NA
ENDBRANCH  16  17
ENDBRANCH  14  16
ENDBRANCH  12  14
BRANCH   5  19
ATOM     19  N   UNL     1      45.032 134.889  19.809  1.00  0.00    -0.373 N 
ATOM     20  H   UNL     1      45.527 134.901  18.889  1.00  0.00     0.161 HD
BRANCH  19  21
ATOM     21  C   UNL     1      45.693 135.522  20.966  1.00  0.00     0.113 C 
ATOM     22  C   UNL     1      44.970 135.294  22.277  1.00  0.00     0.193 C 
ATOM     23  C   UNL     1      46.751 134.636  21.607  1.00  0.00     0.193 C 
ATOM     24  O   UNL     1      46.016 134.508  22.800  1.00  0.00    -0.376 OA
BRANCH  21  25
ATOM     25  C   UNL     1      46.161 136.968  20.707  1.00  0.00     0.247 C 
ATOM     26  F   UNL     1      46.045 137.753  21.844  1.00  0.00    -0.248 F 
ENDBRANCH  21  25
ENDBRANCH  19  21
ENDBRANCH   5  19
BRANCH  11  27
ATOM     27  O   UNL     1      45.258 132.278  16.639  1.00  0.00    -0.423 OA
BRANCH  27  28
ATOM     28  C   UNL     1      45.118 131.580  15.432  1.00  0.00     0.331 C 
ATOM     29  O   UNL     1      44.418 132.044  14.491  1.00  0.00    -0.250 OA
BRANCH  28  30
ATOM     30  C   UNL     1      45.721 130.213  15.304  1.00  0.00     0.118 C 
ATOM     31  C   UNL     1      47.203 130.118  15.663  1.00  0.00     0.040 C 
ATOM     32  C   UNL     1      46.751 129.892  14.217  1.00  0.00     0.022 C 
BRANCH  30  33
ATOM     33  N   UNL     1      44.907 129.095  15.786  1.00  0.00    -0.316 NA
ATOM     34  H   UNL     1      43.961 129.096  15.337  1.00  0.00     0.119 HD
ATOM     35  H   UNL     1      44.748 129.245  16.808  1.00  0.00     0.119 HD
ENDBRANCH  30  33
BRANCH  32  36
ATOM     36  C   UNL     1      47.122 131.015  13.235  1.00  0.00     0.003 C 
ATOM     37  C   UNL     1      47.420 130.440  11.857  1.00  0.00     0.004 C 
ENDBRANCH  32  36
ENDBRANCH  28  30
ENDBRANCH  27  28
ENDBRANCH  11  27
BRANCH   6  38
ATOM     38  N   UNL     1      41.940 133.505  21.131  1.00  0.00    -0.057 NA
BRANCH  38  39
ATOM     39  N   UNL     1      41.910 134.165  22.172  1.00  0.00     0.005 N 
ATOM     40  N   UNL     1      41.878 134.819  23.213  1.00  0.00    -0.003 NA
ENDBRANCH  38  39
ENDBRANCH   6  38
TORSDOF 13
ENDMDL
MODEL 4
REMARK VINA RESULT:      -6.1      1.319      1.428
REMARK SMILES CC[C@H]1C[C@@]1(N)C(=O)Oc1c(C(=O)N=[N+]=[N-])cccc([O-])c(NC2(CF)COC2)c(N=[N+]=[N-])c(Cl)c1Cl
REMARK SMILES IDX 18 1 19 2 20 3 21 4 22 5 30 6 34 7 35 8 36 9 37 10 10 11
REMARK SMILES IDX 11 12 17 13 12 14 13 15 14 16 15 17 16 18 23 19 24 21 27 22
REMARK SMILES IDX 29 23 28 24 25 25 26 26 9 27 7 28 8 29 5 30 4 31 3 32 6 33
REMARK SMILES IDX 2 36 1 37 31 38 32 39 33 40
REMARK H PARENT 23 20 6 34 6 35
ROOT
ATOM      1  C   UNL     1      40.842 133.541  18.914  1.00  0.00     0.000 A 
ATOM      2  C   UNL     1      41.157 134.797  19.466  1.00  0.00    -0.006 A 
ATOM      3  C   UNL     1      42.431 135.212  19.914  1.00  0.00    -0.084 A 
ATOM      4  O   UNL     1      42.670 136.579  19.988  1.00  0.00    -0.871 OA
ATOM      5  C   UNL     1      43.471 134.330  20.284  1.00  0.00     0.038 A 
ATOM      6  C   UNL     1      43.191 133.044  20.790  1.00  0.00     0.080 A 
ATOM      7  C   UNL     1      43.939 131.904  20.406  1.00  0.00     0.075 A 
ATOM      8  Cl  UNL     1      44.217 130.669  21.639  1.00  0.00    -0.082 Cl
ATOM      9  C   UNL     1      44.518 131.708  19.121  1.00  0.00     0.103 A 
ATOM     10  Cl  UNL     1      45.805 130.505  18.972  1.00  0.00    -0.079 Cl
ATOM     11  C   UNL     1      44.179 132.392  17.927  1.00  0.00     0.162 A 
ATOM     12  C   UNL     1      42.965 133.091  17.730  1.00  0.00     0.069 A 
ATOM     13  C   UNL     1      41.775 132.663  18.343  1.00  0.00     0.016 A 
ENDROOT
BRANCH  12  14
ATOM     14  C   UNL     1      42.970 134.316  16.880  1.00  0.00     0.252 C 
ATOM     15  O   UNL     1      42.096 134.446  15.983  1.00  0.00    -0.287 OA
BRANCH  14  16
ATOM     16  N   UNL     1      43.934 135.363  17.052  1.00  0.00    -0.017 NA
BRANCH  16  17
ATOM     17  N   UNL     1      43.640 136.553  16.936  1.00  0.00     0.009 N 
ATOM     18  N   UNL     1      43.342 137.740  16.822  1.00  0.00    -0.003 NA
ENDBRANCH  16  17
ENDBRANCH  14  16
ENDBRANCH  12  14
BRANCH   5  19
ATOM     19  N   UNL     1      44.828 134.809  20.224  1.00  0.00    -0.373 N 
ATOM     20  H   UNL     1      45.204 135.014  19.271  1.00  0.00     0.161 HD
BRANCH  19  21
ATOM     21  C   UNL     1      45.527 135.382  21.390  1.00  0.00     0.113 C 
ATOM     22  C   UNL     1      45.025 134.855  22.718  1.00  0.00     0.193 C 
ATOM     23  C   UNL     1      46.784 134.611  21.768  1.00  0.00     0.193 C 
ATOM     24  O   UNL     1      46.239 134.196  22.998  1.00  0.00    -0.376 OA
BRANCH  21  25
ATOM     25  C   UNL     1      45.729 136.909  21.313  1.00  0.00     0.247 C 
ATOM     26  F   UNL     1      46.814 137.319  22.071  1.00  0.00    -0.248 F 
ENDBRANCH  21  25
ENDBRANCH  19  21
ENDBRANCH   5  19
BRANCH  11  27
ATOM     27  O   UNL     1      45.146 132.396  16.909  1.00  0.00    -0.423 OA
BRANCH  27  28
ATOM     28  C   UNL     1      44.992 131.757  15.671  1.00  0.00     0.331 C 
ATOM     29  O   UNL     1      44.351 132.306  14.734  1.00  0.00    -0.250 OA
BRANCH  28  30
ATOM     30  C   UNL     1      45.503 130.358  15.501  1.00  0.00     0.118 C 
ATOM     31  C   UNL     1      46.980 130.159  15.837  1.00  0.00     0.040 C 
ATOM     32  C   UNL     1      46.497 130.000  14.392  1.00  0.00     0.022 C 
BRANCH  30  33
ATOM     33  N   UNL     1      44.625 129.283  15.967  1.00  0.00    -0.316 NA
ATOM     34  H   UNL     1      45.042 128.786  16.789  1.00  0.00     0.119 HD
ATOM     35  H   UNL     1      44.561 128.579  15.197  1.00  0.00     0.119 HD
ENDBRANCH  30  33
BRANCH  32  36
ATOM     36  C   UNL     1      46.928 131.121  13.433  1.00  0.00     0.003 C 
ATOM     37  C   UNL     1      47.208 130.557  12.046  1.00  0.00     0.004 C 
ENDBRANCH  32  36
ENDBRANCH  28  30
ENDBRANCH  27  28
ENDBRANCH  11  27
BRANCH   6  38
ATOM     38  N   UNL     1      42.096 132.928  21.716  1.00  0.00    -0.057 NA
BRANCH  38  39
ATOM     39  N   UNL     1      42.192 133.236  22.905  1.00  0.00     0.005 N 
ATOM     40  N   UNL     1      42.285 133.547  24.092  1.00  0.00    -0.003 NA
ENDBRANCH  38  39
ENDBRANCH   6  38
TORSDOF 13
ENDMDL
MODEL 5
REMARK VINA RESULT:      -6.0      3.178      5.053
REMARK SMILES CC[C@H]1C[C@@]1(N)C(=O)Oc1c(C(=O)N=[N+]=[N-])cccc([O-])c(NC2(CF)COC2)c(N=[N+]=[N-])c(Cl)c1Cl
REMARK SMILES IDX 18 1 19 2 20 3 21 4 22 5 30 6 34 7 35 8 36 9 37 10 10 11
REMARK SMILES IDX 11 12 17 13 12 14 13 15 14 16 15 17 16 18 23 19 24 21 27 22
REMARK SMILES IDX 29 23 28 24 25 25 26 26 9 27 7 28 8 29 5 30 4 31 3 32 6 33
REMARK SMILES IDX 2 36 1 37 31 38 32 39 33 40
REMARK H PARENT 23 20 6 34 6 35
ROOT
ATOM      1  C   UNL     1      44.008 135.531  18.940  1.00  0.00     0.000 A 
ATOM      2  C   UNL     1      42.914 135.463  19.824  1.00  0.00    -0.006 A 
ATOM      3  C   UNL     1      41.641 134.926  19.529  1.00  0.00    -0.084 A 
ATOM      4  O   UNL     1      40.854 134.517  20.599  1.00  0.00    -0.871 OA
ATOM      5  C   UNL     1      41.122 134.777  18.222  1.00  0.00     0.038 A 
ATOM      6  C   UNL     1      41.526 135.631  17.176  1.00  0.00     0.080 A 
ATOM      7  C   UNL     1      41.789 135.151  15.870  1.00  0.00     0.075 A 
ATOM      8  Cl  UNL     1      41.350 136.202  14.519  1.00  0.00    -0.082 Cl
ATOM      9  C   UNL     1      42.335 133.870  15.570  1.00  0.00     0.103 A 
ATOM     10  Cl  UNL     1      42.132 133.253  13.926  1.00  0.00    -0.079 Cl
ATOM     11  C   UNL     1      43.024 133.015  16.465  1.00  0.00     0.162 A 
ATOM     12  C   UNL     1      43.620 133.443  17.674  1.00  0.00     0.069 A 
ATOM     13  C   UNL     1      44.162 134.734  17.797  1.00  0.00     0.016 A 
ENDROOT
BRANCH  12  14
ATOM     14  C   UNL     1      43.637 132.511  18.838  1.00  0.00     0.252 C 
ATOM     15  O   UNL     1      42.623 131.803  19.073  1.00  0.00    -0.287 OA
BRANCH  14  16
ATOM     16  N   UNL     1      44.776 132.384  19.700  1.00  0.00    -0.017 NA
BRANCH  16  17
ATOM     17  N   UNL     1      44.761 131.676  20.707  1.00  0.00     0.009 N 
ATOM     18  N   UNL     1      44.743 130.972  21.714  1.00  0.00    -0.003 NA
ENDBRANCH  16  17
ENDBRANCH  14  16
ENDBRANCH  12  14
BRANCH   5  19
ATOM     19  N   UNL     1      40.096 133.791  18.002  1.00  0.00    -0.373 N 
ATOM     20  H   UNL     1      40.307 132.822  18.333  1.00  0.00     0.161 HD
BRANCH  19  21
ATOM     21  C   UNL     1      38.691 134.145  17.727  1.00  0.00     0.113 C 
ATOM     22  C   UNL     1      37.698 133.425  18.617  1.00  0.00     0.193 C 
ATOM     23  C   UNL     1      38.221 135.367  18.503  1.00  0.00     0.193 C 
ATOM     24  O   UNL     1      37.304 134.614  19.261  1.00  0.00    -0.376 OA
BRANCH  21  25
ATOM     25  C   UNL     1      38.335 134.181  16.227  1.00  0.00     0.247 C 
ATOM     26  F   UNL     1      39.193 133.390  15.479  1.00  0.00    -0.248 F 
ENDBRANCH  21  25
ENDBRANCH  19  21
ENDBRANCH   5  19
BRANCH  11  27
ATOM     27  O   UNL     1      43.066 131.653  16.124  1.00  0.00    -0.423 OA
BRANCH  27  28
ATOM     28  C   UNL     1      43.985 131.091  15.228  1.00  0.00     0.331 C 
ATOM     29  O   UNL     1      43.843 131.230  13.983  1.00  0.00    -0.250 OA
BRANCH  28  30
ATOM     30  C   UNL     1      45.086 130.223  15.757  1.00  0.00     0.118 C 
ATOM     31  C   UNL     1      46.028 130.899  16.752  1.00  0.00     0.040 C 
ATOM     32  C   UNL     1      46.550 130.467  15.377  1.00  0.00     0.022 C 
BRANCH  30  33
ATOM     33  N   UNL     1      44.720 128.848  16.107  1.00  0.00    -0.316 NA
ATOM     34  H   UNL     1      44.470 128.772  17.120  1.00  0.00     0.119 HD
ATOM     35  H   UNL     1      45.570 128.256  15.967  1.00  0.00     0.119 HD
ENDBRANCH  30  33
BRANCH  32  36
ATOM     36  C   UNL     1      46.849 131.617  14.403  1.00  0.00     0.003 C 
ATOM     37  C   UNL     1      47.569 131.094  13.167  1.00  0.00     0.004 C 
ENDBRANCH  32  36
ENDBRANCH  28  30
ENDBRANCH  27  28
ENDBRANCH  11  27
BRANCH   6  38
ATOM     38  N   UNL     1      41.673 137.028  17.490  1.00  0.00    -0.057 NA
BRANCH  38  39
ATOM     39  N   UNL     1      40.725 137.815  17.487  1.00  0.00     0.005 N 
ATOM     40  N   UNL     1      39.780 138.603  17.490  1.00  0.00    -0.003 NA
ENDBRANCH  38  39
ENDBRANCH   6  38
TORSDOF 13
ENDMDL
MODEL 6
REMARK VINA RESULT:      -5.9      1.738      2.096
REMARK SMILES CC[C@H]1C[C@@]1(N)C(=O)Oc1c(C(=O)N=[N+]=[N-])cccc([O-])c(NC2(CF)COC2)c(N=[N+]=[N-])c(Cl)c1Cl
REMARK SMILES IDX 18 1 19 2 20 3 21 4 22 5 30 6 34 7 35 8 36 9 37 10 10 11
REMARK SMILES IDX 11 12 17 13 12 14 13 15 14 16 15 17 16 18 23 19 24 21 27 22
REMARK SMILES IDX 29 23 28 24 25 25 26 26 9 27 7 28 8 29 5 30 4 31 3 32 6 33
REMARK SMILES IDX 2 36 1 37 31 38 32 39 33 40
REMARK H PARENT 23 20 6 34 6 35
ROOT
ATOM      1  C   UNL     1      39.982 133.264  17.757  1.00  0.00     0.000 A 
ATOM      2  C   UNL     1      39.944 134.664  17.612  1.00  0.00    -0.006 A 
ATOM      3  C   UNL     1      41.014 135.553  17.856  1.00  0.00    -0.084 A 
ATOM      4  O   UNL     1      40.966 136.798  17.240  1.00  0.00    -0.871 OA
ATOM      5  C   UNL     1      42.124 135.257  18.679  1.00  0.00     0.038 A 
ATOM      6  C   UNL     1      42.015 134.347  19.751  1.00  0.00     0.080 A 
ATOM      7  C   UNL     1      43.025 133.398  20.040  1.00  0.00     0.075 A 
ATOM      8  Cl  UNL     1      43.317 133.022  21.742  1.00  0.00    -0.082 Cl
ATOM      9  C   UNL     1      43.849 132.766  19.065  1.00  0.00     0.103 A 
ATOM     10  Cl  UNL     1      45.351 132.015  19.618  1.00  0.00    -0.079 Cl
ATOM     11  C   UNL     1      43.598 132.683  17.673  1.00  0.00     0.162 A 
ATOM     12  C   UNL     1      42.326 132.863  17.082  1.00  0.00     0.069 A 
ATOM     13  C   UNL     1      41.153 132.493  17.761  1.00  0.00     0.016 A 
ENDROOT
BRANCH  12  14
ATOM     14  C   UNL     1      42.243 133.487  15.731  1.00  0.00     0.252 C 
ATOM     15  O   UNL     1      41.198 133.329  15.045  1.00  0.00    -0.287 OA
BRANCH  14  16
ATOM     16  N   UNL     1      43.310 134.271  15.182  1.00  0.00    -0.017 NA
BRANCH  16  17
ATOM     17  N   UNL     1      43.270 135.501  15.148  1.00  0.00     0.009 N 
ATOM     18  N   UNL     1      43.235 136.730  15.115  1.00  0.00    -0.003 NA
ENDBRANCH  16  17
ENDBRANCH  14  16
ENDBRANCH  12  14
BRANCH   5  19
ATOM     19  N   UNL     1      43.351 135.978  18.459  1.00  0.00    -0.373 N 
ATOM     20  H   UNL     1      43.744 135.937  17.491  1.00  0.00     0.161 HD
BRANCH  19  21
ATOM     21  C   UNL     1      43.828 137.041  19.363  1.00  0.00     0.113 C 
ATOM     22  C   UNL     1      44.225 138.315  18.646  1.00  0.00     0.193 C 
ATOM     23  C   UNL     1      42.704 137.914  19.903  1.00  0.00     0.193 C 
ATOM     24  O   UNL     1      43.170 139.052  19.218  1.00  0.00    -0.376 OA
BRANCH  21  25
ATOM     25  C   UNL     1      44.814 136.551  20.443  1.00  0.00     0.247 C 
ATOM     26  F   UNL     1      44.167 136.277  21.637  1.00  0.00    -0.248 F 
ENDBRANCH  21  25
ENDBRANCH  19  21
ENDBRANCH   5  19
BRANCH  11  27
ATOM     27  O   UNL     1      44.711 132.446  16.848  1.00  0.00    -0.423 OA
BRANCH  27  28
ATOM     28  C   UNL     1      45.103 131.179  16.395  1.00  0.00     0.331 C 
ATOM     29  O   UNL     1      45.866 130.451  17.086  1.00  0.00    -0.250 OA
BRANCH  28  30
ATOM     30  C   UNL     1      44.695 130.735  15.023  1.00  0.00     0.118 C 
ATOM     31  C   UNL     1      45.099 129.308  14.653  1.00  0.00     0.040 C 
ATOM     32  C   UNL     1      45.730 130.496  13.920  1.00  0.00     0.022 C 
BRANCH  30  33
ATOM     33  N   UNL     1      43.349 131.116  14.588  1.00  0.00    -0.316 NA
ATOM     34  H   UNL     1      43.383 131.924  13.924  1.00  0.00     0.119 HD
ATOM     35  H   UNL     1      42.833 131.451  15.433  1.00  0.00     0.119 HD
ENDBRANCH  30  33
BRANCH  32  36
ATOM     36  C   UNL     1      47.205 130.762  14.259  1.00  0.00     0.003 C 
ATOM     37  C   UNL     1      47.962 131.222  13.019  1.00  0.00     0.004 C 
ENDBRANCH  32  36
ENDBRANCH  28  30
ENDBRANCH  27  28
ENDBRANCH  11  27
BRANCH   6  38
ATOM     38  N   UNL     1      40.817 134.412  20.546  1.00  0.00    -0.057 NA
BRANCH  38  39
ATOM     39  N   UNL     1      40.502 135.410  21.197  1.00  0.00     0.005 N 
ATOM     40  N   UNL     1      40.186 136.403  21.851  1.00  0.00    -0.003 NA
ENDBRANCH  38  39
ENDBRANCH   6  38
TORSDOF 13
ENDMDL
MODEL 7
REMARK VINA RESULT:      -5.7      1.663      1.892
REMARK SMILES CC[C@H]1C[C@@]1(N)C(=O)Oc1c(C(=O)N=[N+]=[N-])cccc([O-])c(NC2(CF)COC2)c(N=[N+]=[N-])c(Cl)c1Cl
REMARK SMILES IDX 18 1 19 2 20 3 21 4 22 5 30 6 34 7 35 8 36 9 37 10 10 11
REMARK SMILES IDX 11 12 17 13 12 14 13 15 14 16 15 17 16 18 23 19 24 21 27 22
REMARK SMILES IDX 29 23 28 24 25 25 26 26 9 27 7 28 8 29 5 30 4 31 3 32 6 33
REMARK SMILES IDX 2 36 1 37 31 38 32 39 33 40
REMARK H PARENT 23 20 6 34 6 35
ROOT
ATOM      1  C   UNL     1      40.023 134.060  16.926  1.00  0.00     0.000 A 
ATOM      2  C   UNL     1      40.127 135.426  17.253  1.00  0.00    -0.006 A 
ATOM      3  C   UNL     1      41.209 136.039  17.922  1.00  0.00    -0.084 A 
ATOM      4  O   UNL     1      41.371 137.410  17.757  1.00  0.00    -0.871 OA
ATOM      5  C   UNL     1      42.134 135.350  18.740  1.00  0.00     0.038 A 
ATOM      6  C   UNL     1      41.768 134.172  19.422  1.00  0.00     0.080 A 
ATOM      7  C   UNL     1      42.632 133.053  19.510  1.00  0.00     0.075 A 
ATOM      8  Cl  UNL     1      42.595 132.122  21.011  1.00  0.00    -0.082 Cl
ATOM      9  C   UNL     1      43.554 132.658  18.500  1.00  0.00     0.103 A 
ATOM     10  Cl  UNL     1      44.872 131.575  18.967  1.00  0.00    -0.079 Cl
ATOM     11  C   UNL     1      43.540 133.054  17.140  1.00  0.00     0.162 A 
ATOM     12  C   UNL     1      42.408 133.582  16.478  1.00  0.00     0.069 A 
ATOM     13  C   UNL     1      41.108 133.177  16.830  1.00  0.00     0.016 A 
ENDROOT
BRANCH  12  14
ATOM     14  C   UNL     1      42.608 134.607  15.414  1.00  0.00     0.252 C 
ATOM     15  O   UNL     1      42.031 134.462  14.304  1.00  0.00    -0.287 OA
BRANCH  14  16
ATOM     16  N   UNL     1      43.432 135.763  15.611  1.00  0.00    -0.017 NA
BRANCH  16  17
ATOM     17  N   UNL     1      43.136 136.867  15.152  1.00  0.00     0.009 N 
ATOM     18  N   UNL     1      42.837 137.968  14.695  1.00  0.00    -0.003 NA
ENDBRANCH  16  17
ENDBRANCH  14  16
ENDBRANCH  12  14
BRANCH   5  19
ATOM     19  N   UNL     1      43.436 135.933  18.940  1.00  0.00    -0.373 N 
ATOM     20  H   UNL     1      44.054 135.983  18.099  1.00  0.00     0.161 HD
BRANCH  19  21
ATOM     21  C   UNL     1      43.763 136.782  20.101  1.00  0.00     0.113 C 
ATOM     22  C   UNL     1      42.587 137.032  21.022  1.00  0.00     0.193 C 
ATOM     23  C   UNL     1      44.290 135.991  21.290  1.00  0.00     0.193 C 
ATOM     24  O   UNL     1      43.167 136.304  22.079  1.00  0.00    -0.376 OA
BRANCH  21  25
ATOM     25  C   UNL     1      44.609 138.023  19.751  1.00  0.00     0.247 C 
ATOM     26  F   UNL     1      45.549 138.293  20.733  1.00  0.00    -0.248 F 
ENDBRANCH  21  25
ENDBRANCH  19  21
ENDBRANCH   5  19
BRANCH  11  27
ATOM     27  O   UNL     1      44.754 132.943  16.441  1.00  0.00    -0.423 OA
BRANCH  27  28
ATOM     28  C   UNL     1      45.285 131.736  15.968  1.00  0.00     0.331 C 
ATOM     29  O   UNL     1      46.266 131.191  16.541  1.00  0.00    -0.250 OA
BRANCH  28  30
ATOM     30  C   UNL     1      44.745 131.147  14.699  1.00  0.00     0.118 C 
ATOM     31  C   UNL     1      45.052 129.666  14.486  1.00  0.00     0.040 C 
ATOM     32  C   UNL     1      45.674 130.717  13.560  1.00  0.00     0.022 C 
BRANCH  30  33
ATOM     33  N   UNL     1      43.387 131.545  14.323  1.00  0.00    -0.316 NA
ATOM     34  H   UNL     1      43.379 132.503  13.900  1.00  0.00     0.119 HD
ATOM     35  H   UNL     1      42.827 131.607  15.203  1.00  0.00     0.119 HD
ENDBRANCH  30  33
BRANCH  32  36
ATOM     36  C   UNL     1      47.183 130.941  13.748  1.00  0.00     0.003 C 
ATOM     37  C   UNL     1      47.977 129.930  12.931  1.00  0.00     0.004 C 
ENDBRANCH  32  36
ENDBRANCH  28  30
ENDBRANCH  27  28
ENDBRANCH  11  27
BRANCH   6  38
ATOM     38  N   UNL     1      40.461 134.142  20.024  1.00  0.00    -0.057 NA
BRANCH  38  39
ATOM     39  N   UNL     1      40.264 134.438  21.204  1.00  0.00     0.005 N 
ATOM     40  N   UNL     1      40.073 134.735  22.382  1.00  0.00    -0.003 NA
ENDBRANCH  38  39
ENDBRANCH   6  38
TORSDOF 13
ENDMDL
MODEL 8
REMARK VINA RESULT:      -5.6      3.258      4.895
REMARK SMILES CC[C@H]1C[C@@]1(N)C(=O)Oc1c(C(=O)N=[N+]=[N-])cccc([O-])c(NC2(CF)COC2)c(N=[N+]=[N-])c(Cl)c1Cl
REMARK SMILES IDX 18 1 19 2 20 3 21 4 22 5 30 6 34 7 35 8 36 9 37 10 10 11
REMARK SMILES IDX 11 12 17 13 12 14 13 15 14 16 15 17 16 18 23 19 24 21 27 22
REMARK SMILES IDX 29 23 28 24 25 25 26 26 9 27 7 28 8 29 5 30 4 31 3 32 6 33
REMARK SMILES IDX 2 36 1 37 31 38 32 39 33 40
REMARK H PARENT 23 20 6 34 6 35
ROOT
ATOM      1  C   UNL     1      43.996 134.738  20.332  1.00  0.00     0.000 A 
ATOM      2  C   UNL     1      42.726 134.778  20.937  1.00  0.00    -0.006 A 
ATOM      3  C   UNL     1      41.485 134.666  20.272  1.00  0.00    -0.084 A 
ATOM      4  O   UNL     1      40.387 134.265  21.025  1.00  0.00    -0.871 OA
ATOM      5  C   UNL     1      41.292 134.932  18.897  1.00  0.00     0.038 A 
ATOM      6  C   UNL     1      42.113 135.847  18.209  1.00  0.00     0.080 A 
ATOM      7  C   UNL     1      42.590 135.595  16.899  1.00  0.00     0.075 A 
ATOM      8  Cl  UNL     1      42.732 136.981  15.812  1.00  0.00    -0.082 Cl
ATOM      9  C   UNL     1      42.915 134.307  16.387  1.00  0.00     0.103 A 
ATOM     10  Cl  UNL     1      43.008 134.118  14.632  1.00  0.00    -0.079 Cl
ATOM     11  C   UNL     1      43.165 133.135  17.143  1.00  0.00     0.162 A 
ATOM     12  C   UNL     1      43.513 133.133  18.514  1.00  0.00     0.069 A 
ATOM     13  C   UNL     1      44.264 134.183  19.072  1.00  0.00     0.016 A 
ENDROOT
BRANCH  12  14
ATOM     14  C   UNL     1      43.044 132.009  19.374  1.00  0.00     0.252 C 
ATOM     15  O   UNL     1      41.905 131.513  19.169  1.00  0.00    -0.287 OA
BRANCH  14  16
ATOM     16  N   UNL     1      43.850 131.464  20.427  1.00  0.00    -0.017 NA
BRANCH  16  17
ATOM     17  N   UNL     1      45.053 131.244  20.287  1.00  0.00     0.009 N 
ATOM     18  N   UNL     1      46.254 131.023  20.143  1.00  0.00    -0.003 NA
ENDBRANCH  16  17
ENDBRANCH  14  16
ENDBRANCH  12  14
BRANCH   5  19
ATOM     19  N   UNL     1      40.172 134.316  18.233  1.00  0.00    -0.373 N 
ATOM     20  H   UNL     1      40.208 133.276  18.134  1.00  0.00     0.161 HD
BRANCH  19  21
ATOM     21  C   UNL     1      38.871 134.990  18.066  1.00  0.00     0.113 C 
ATOM     22  C   UNL     1      38.819 136.372  18.682  1.00  0.00     0.193 C 
ATOM     23  C   UNL     1      38.765 135.768  16.762  1.00  0.00     0.193 C 
ATOM     24  O   UNL     1      38.694 137.005  17.430  1.00  0.00    -0.376 OA
BRANCH  21  25
ATOM     25  C   UNL     1      37.654 134.087  18.356  1.00  0.00     0.247 C 
ATOM     26  F   UNL     1      36.533 134.499  17.653  1.00  0.00    -0.248 F 
ENDBRANCH  21  25
ENDBRANCH  19  21
ENDBRANCH   5  19
BRANCH  11  27
ATOM     27  O   UNL     1      43.007 131.911  16.473  1.00  0.00    -0.423 OA
BRANCH  27  28
ATOM     28  C   UNL     1      43.870 131.440  15.474  1.00  0.00     0.331 C 
ATOM     29  O   UNL     1      43.439 131.172  14.320  1.00  0.00    -0.250 OA
BRANCH  28  30
ATOM     30  C   UNL     1      45.299 131.150  15.820  1.00  0.00     0.118 C 
ATOM     31  C   UNL     1      46.311 132.186  15.331  1.00  0.00     0.040 C 
ATOM     32  C   UNL     1      46.320 130.771  14.743  1.00  0.00     0.022 C 
BRANCH  30  33
ATOM     33  N   UNL     1      45.553 130.646  17.171  1.00  0.00    -0.316 NA
ATOM     34  H   UNL     1      45.402 129.612  17.221  1.00  0.00     0.119 HD
ATOM     35  H   UNL     1      44.842 131.080  17.803  1.00  0.00     0.119 HD
ENDBRANCH  30  33
BRANCH  32  36
ATOM     36  C   UNL     1      45.820 130.663  13.294  1.00  0.00     0.003 C 
ATOM     37  C   UNL     1      46.992 130.485  12.338  1.00  0.00     0.004 C 
ENDBRANCH  32  36
ENDBRANCH  28  30
ENDBRANCH  27  28
ENDBRANCH  11  27
BRANCH   6  38
ATOM     38  N   UNL     1      42.463 137.060  18.899  1.00  0.00    -0.057 NA
BRANCH  38  39
ATOM     39  N   UNL     1      43.547 137.626  18.745  1.00  0.00     0.005 N 
ATOM     40  N   UNL     1      44.631 138.189  18.597  1.00  0.00    -0.003 NA
ENDBRANCH  38  39
ENDBRANCH   6  38
TORSDOF 13
ENDMDL
MODEL 9
REMARK VINA RESULT:      -5.6      3.951      6.504
REMARK SMILES CC[C@H]1C[C@@]1(N)C(=O)Oc1c(C(=O)N=[N+]=[N-])cccc([O-])c(NC2(CF)COC2)c(N=[N+]=[N-])c(Cl)c1Cl
REMARK SMILES IDX 18 1 19 2 20 3 21 4 22 5 30 6 34 7 35 8 36 9 37 10 10 11
REMARK SMILES IDX 11 12 17 13 12 14 13 15 14 16 15 17 16 18 23 19 24 21 27 22
REMARK SMILES IDX 29 23 28 24 25 25 26 26 9 27 7 28 8 29 5 30 4 31 3 32 6 33
REMARK SMILES IDX 2 36 1 37 31 38 32 39 33 40
REMARK H PARENT 23 20 6 34 6 35
ROOT
ATOM      1  C   UNL     1      44.043 132.370  16.058  1.00  0.00     0.000 A 
ATOM      2  C   UNL     1      43.092 131.807  16.931  1.00  0.00    -0.006 A 
ATOM      3  C   UNL     1      42.072 132.509  17.610  1.00  0.00    -0.084 A 
ATOM      4  O   UNL     1      40.970 131.779  18.041  1.00  0.00    -0.871 OA
ATOM      5  C   UNL     1      42.099 133.897  17.875  1.00  0.00     0.038 A 
ATOM      6  C   UNL     1      43.319 134.588  18.018  1.00  0.00     0.080 A 
ATOM      7  C   UNL     1      43.528 135.872  17.459  1.00  0.00     0.075 A 
ATOM      8  Cl  UNL     1      44.531 136.999  18.380  1.00  0.00    -0.082 Cl
ATOM      9  C   UNL     1      42.953 136.331  16.240  1.00  0.00     0.103 A 
ATOM     10  Cl  UNL     1      42.909 138.076  15.956  1.00  0.00    -0.079 Cl
ATOM     11  C   UNL     1      42.389 135.529  15.217  1.00  0.00     0.162 A 
ATOM     12  C   UNL     1      42.650 134.149  15.055  1.00  0.00     0.069 A 
ATOM     13  C   UNL     1      43.896 133.602  15.403  1.00  0.00     0.016 A 
ENDROOT
BRANCH  12  14
ATOM     14  C   UNL     1      41.565 133.268  14.534  1.00  0.00     0.252 C 
ATOM     15  O   UNL     1      41.853 132.366  13.703  1.00  0.00    -0.287 OA
BRANCH  14  16
ATOM     16  N   UNL     1      40.201 133.405  14.952  1.00  0.00    -0.017 NA
BRANCH  16  17
ATOM     17  N   UNL     1      39.287 133.610  14.153  1.00  0.00     0.009 N 
ATOM     18  N   UNL     1      38.372 133.817  13.358  1.00  0.00    -0.003 NA
ENDBRANCH  16  17
ENDBRANCH  14  16
ENDBRANCH  12  14
BRANCH   5  19
ATOM     19  N   UNL     1      40.848 134.576  18.090  1.00  0.00    -0.373 N 
ATOM     20  H   UNL     1      40.131 134.477  17.336  1.00  0.00     0.161 HD
BRANCH  19  21
ATOM     21  C   UNL     1      40.403 135.032  19.421  1.00  0.00     0.113 C 
ATOM     22  C   UNL     1      40.684 136.497  19.686  1.00  0.00     0.193 C 
ATOM     23  C   UNL     1      38.954 135.497  19.439  1.00  0.00     0.193 C 
ATOM     24  O   UNL     1      39.315 136.829  19.714  1.00  0.00    -0.376 OA
BRANCH  21  25
ATOM     25  C   UNL     1      40.765 134.067  20.568  1.00  0.00     0.247 C 
ATOM     26  F   UNL     1      40.894 134.736  21.775  1.00  0.00    -0.248 F 
ENDBRANCH  21  25
ENDBRANCH  19  21
ENDBRANCH   5  19
BRANCH  11  27
ATOM     27  O   UNL     1      41.484 136.164  14.350  1.00  0.00    -0.423 OA
BRANCH  27  28
ATOM     28  C   UNL     1      40.304 136.797  14.764  1.00  0.00     0.331 C 
ATOM     29  O   UNL     1      39.783 136.528  15.881  1.00  0.00    -0.250 OA
BRANCH  28  30
ATOM     30  C   UNL     1      39.599 137.721  13.819  1.00  0.00     0.118 C 
ATOM     31  C   UNL     1      40.092 139.168  13.832  1.00  0.00     0.040 C 
ATOM     32  C   UNL     1      38.680 138.836  14.327  1.00  0.00     0.022 C 
BRANCH  30  33
ATOM     33  N   UNL     1      39.311 137.192  12.484  1.00  0.00    -0.316 NA
ATOM     34  H   UNL     1      39.621 137.860  11.740  1.00  0.00     0.119 HD
ATOM     35  H   UNL     1      38.273 137.114  12.398  1.00  0.00     0.119 HD
ENDBRANCH  30  33
BRANCH  32  36
ATOM     36  C   UNL     1      38.477 138.953  15.846  1.00  0.00     0.003 C 
ATOM     37  C   UNL     1      37.145 139.625  16.155  1.00  0.00     0.004 C 
ENDBRANCH  32  36
ENDBRANCH  28  30
ENDBRANCH  27  28
ENDBRANCH  11  27
BRANCH   6  38
ATOM     38  N   UNL     1      44.364 133.927  18.754  1.00  0.00    -0.057 NA
BRANCH  38  39
ATOM     39  N   UNL     1      44.180 133.418  19.862  1.00  0.00     0.005 N 
ATOM     40  N   UNL     1      43.992 132.908  20.965  1.00  0.00    -0.003 NA
ENDBRANCH  38  39
ENDBRANCH   6  38
TORSDOF 13
ENDMDL


