REMARK SMILES [H]/N=C1\C=C(n2cc(CCCCN(C)[C@@H](C)C#N)[nH+]n2)c2cccc3c(O)[n-]c1c23
REMARK SMILES IDX 10 1 9 2 8 3 6 4 20 5 7 6 19 7 5 9 3 10 4 11 29 12 28 13
REMARK SMILES IDX 30 14 21 15 26 16 25 17 22 18 24 19 23 20 2 21 1 22 27 23
REMARK SMILES IDX 11 25 12 26 13 27 14 28 15 29 16 30 17 31 18 32
REMARK H PARENT 19 8 27 24
ROOT
ATOM      1  C   UNL     1      -2.161  -0.789  -0.285  1.00  0.00     0.010 C 
ENDROOT
BRANCH   1   2
ATOM      2  C   UNL     1      -2.304   0.480  -1.128  1.00  0.00     0.086 C 
BRANCH   2   3
ATOM      3  C   UNL     1      -1.436   1.570  -0.582  1.00  0.00     0.165 A 
ATOM      4  N   UNL     1       0.291   2.801  -0.067  1.00  0.00    -0.101 N 
ATOM      5  N   UNL     1      -0.732   3.160   0.695  1.00  0.00     0.093 NA
ATOM      6  C   UNL     1      -0.105   1.790  -0.866  1.00  0.00     0.281 A 
ATOM      7  N   UNL     1      -1.792   2.427   0.393  1.00  0.00    -0.147 N 
ATOM      8  H   UNL     1      -2.721   2.497   0.865  1.00  0.00     0.342 HD
BRANCH   4   9
ATOM      9  C   UNL     1       1.618   3.336   0.057  1.00  0.00     0.165 C 
ATOM     10  C   UNL     1       3.531   4.062   1.485  1.00  0.00     0.044 C 
ATOM     11  C   UNL     1       2.130   3.571   1.298  1.00  0.00     0.081 C 
ATOM     12  C   UNL     1       4.321   4.277   0.270  1.00  0.00    -0.100 A 
ATOM     13  N   UNL     1       5.580   4.755   0.132  1.00  0.00    -0.625 NA
ATOM     14  C   UNL     1       3.755   4.050  -0.934  1.00  0.00    -0.018 A 
ATOM     15  C   UNL     1       2.461   3.618  -1.156  1.00  0.00     0.031 A 
ATOM     16  C   UNL     1       5.767   4.814  -1.218  1.00  0.00     0.021 A 
ATOM     17  C   UNL     1       4.636   4.387  -1.900  1.00  0.00     0.001 A 
ATOM     18  C   UNL     1       2.049   3.550  -2.508  1.00  0.00     0.013 A 
ATOM     19  C   UNL     1       4.279   4.309  -3.246  1.00  0.00     0.010 A 
ATOM     20  C   UNL     1       2.962   3.884  -3.546  1.00  0.00     0.002 A 
BRANCH  10  21
ATOM     21  N   UNL     1       4.029   4.288   2.658  1.00  0.00    -0.302 NA
ATOM     22  H   UNL     1       3.472   4.137   3.528  1.00  0.00     0.188 HD
ENDBRANCH  10  21
BRANCH  16  23
ATOM     23  O   UNL     1       6.945   5.266  -1.804  1.00  0.00    -0.530 OA
ATOM     24  H   UNL     1       7.049   5.302  -2.811  1.00  0.00     0.290 HD
ENDBRANCH  16  23
ENDBRANCH   4   9
ENDBRANCH   2   3
ENDBRANCH   1   2
BRANCH   1  25
ATOM     25  C   UNL     1      -3.041  -1.920  -0.836  1.00  0.00     0.016 C 
BRANCH  25  26
ATOM     26  C   UNL     1      -2.946  -3.184   0.027  1.00  0.00     0.085 C 
BRANCH  26  27
ATOM     27  N   UNL     1      -1.565  -3.726   0.011  1.00  0.00    -0.291 NA
ATOM     28  C   UNL     1      -1.391  -4.710  -1.073  1.00  0.00     0.106 C 
BRANCH  27  29
ATOM     29  C   UNL     1      -1.108  -4.279   1.313  1.00  0.00     0.157 C 
ATOM     30  C   UNL     1      -0.765  -3.152   2.292  1.00  0.00     0.041 C 
BRANCH  29  31
ATOM     31  C   UNL     1      -2.087  -5.211   1.912  1.00  0.00     0.081 C 
ATOM     32  N   UNL     1      -2.854  -5.941   2.380  1.00  0.00    -0.197 NA
ENDBRANCH  29  31
ENDBRANCH  27  29
ENDBRANCH  26  27
ENDBRANCH  25  26
ENDBRANCH   1  25
TORSDOF 10


