MODEL 1
REMARK VINA RESULT:      -7.7      0.000      0.000
REMARK SMILES C=C(C)/C(O)=[N+]1/C[C@@H]2CC[C@H](Oc3ccc4c5c(ccc(N=[N+]=[N-])c35)CC4)[C@@H]2C1
REMARK SMILES IDX 12 1 11 2 6 3 29 4 7 5 28 6 8 7 9 8 10 9 4 10 5 11 2 13 1 14
REMARK SMILES IDX 3 15 13 16 14 17 25 18 15 19 21 20 17 21 16 22 20 23 18 24
REMARK SMILES IDX 27 25 19 26 26 27 22 28 23 29 24 30
REMARK H PARENT 5 12
ROOT
ATOM      1  O   UNL     1      42.468 134.572  15.407  1.00  0.00    -0.489 OA
ENDROOT
BRANCH   1   2
ATOM      2  C   UNL     1      42.663 134.199  16.774  1.00  0.00     0.183 C 
ATOM      3  N   UNL     1      45.292 131.666  16.389  1.00  0.00    -0.198 N 
ATOM      4  C   UNL     1      44.670 132.860  15.829  1.00  0.00     0.362 C 
ATOM      5  C   UNL     1      44.922 131.465  17.784  1.00  0.00     0.358 C 
ATOM      6  C   UNL     1      44.054 133.599  17.025  1.00  0.00     0.105 C 
ATOM      7  C   UNL     1      43.869 132.533  18.089  1.00  0.00     0.068 C 
ATOM      8  C   UNL     1      42.429 132.031  17.923  1.00  0.00     0.014 C 
ATOM      9  C   UNL     1      41.656 133.122  17.180  1.00  0.00     0.046 C 
BRANCH   3  10
ATOM     10  C   UNL     1      46.135 130.886  15.759  1.00  0.00     0.362 C 
BRANCH  10  11
ATOM     11  O   UNL     1      46.984 130.059  16.496  1.00  0.00    -0.460 OA
ATOM     12  H   UNL     1      47.906 129.806  16.155  1.00  0.00     0.300 HD
ENDBRANCH  10  11
BRANCH  10  13
ATOM     13  C   UNL     1      46.243 130.875  14.277  1.00  0.00     0.053 C 
ATOM     14  C   UNL     1      45.203 130.464  13.546  1.00  0.00     0.023 C 
ATOM     15  C   UNL     1      47.501 131.329  13.590  1.00  0.00     0.055 C 
ENDBRANCH  10  13
ENDBRANCH   3  10
ENDBRANCH   1   2
BRANCH   1  16
ATOM     16  C   UNL     1      41.227 134.830  14.802  1.00  0.00     0.128 A 
ATOM     17  C   UNL     1      40.337 133.775  14.448  1.00  0.00     0.047 A 
ATOM     18  C   UNL     1      40.845 136.172  14.538  1.00  0.00     0.034 A 
ATOM     19  C   UNL     1      39.095 134.046  13.843  1.00  0.00     0.008 A 
ATOM     20  C   UNL     1      41.607 137.328  14.860  1.00  0.00     0.049 A 
ATOM     21  C   UNL     1      39.606 136.375  13.930  1.00  0.00    -0.008 A 
ATOM     22  C   UNL     1      38.753 135.373  13.589  1.00  0.00    -0.039 A 
ATOM     23  C   UNL     1      41.085 138.613  14.536  1.00  0.00     0.011 A 
ATOM     24  C   UNL     1      39.101 137.599  13.621  1.00  0.00    -0.039 A 
ATOM     25  C   UNL     1      37.511 135.930  12.969  1.00  0.00     0.041 C 
ATOM     26  C   UNL     1      39.829 138.751  13.914  1.00  0.00     0.005 A 
ATOM     27  C   UNL     1      37.752 137.466  12.989  1.00  0.00     0.041 C 
BRANCH  20  28
ATOM     28  N   UNL     1      42.879 137.197  15.516  1.00  0.00    -0.060 NA
BRANCH  28  29
ATOM     29  N   UNL     1      43.164 137.819  16.540  1.00  0.00     0.005 N 
ATOM     30  N   UNL     1      43.449 138.440  17.563  1.00  0.00    -0.003 NA
ENDBRANCH  28  29
ENDBRANCH  20  28
ENDBRANCH   1  16
TORSDOF 7
ENDMDL
MODEL 2
REMARK VINA RESULT:      -7.5      2.102      3.002
REMARK SMILES C=C(C)/C(O)=[N+]1/C[C@@H]2CC[C@H](Oc3ccc4c5c(ccc(N=[N+]=[N-])c35)CC4)[C@@H]2C1
REMARK SMILES IDX 12 1 11 2 6 3 29 4 7 5 28 6 8 7 9 8 10 9 4 10 5 11 2 13 1 14
REMARK SMILES IDX 3 15 13 16 14 17 25 18 15 19 21 20 17 21 16 22 20 23 18 24
REMARK SMILES IDX 27 25 19 26 26 27 22 28 23 29 24 30
REMARK H PARENT 5 12
ROOT
ATOM      1  O   UNL     1      42.395 134.228  15.898  1.00  0.00    -0.489 OA
ENDROOT
BRANCH   1   2
ATOM      2  C   UNL     1      43.138 133.882  17.070  1.00  0.00     0.183 C 
ATOM      3  N   UNL     1      45.048 131.013  15.807  1.00  0.00    -0.198 N 
ATOM      4  C   UNL     1      44.368 132.258  15.469  1.00  0.00     0.362 C 
ATOM      5  C   UNL     1      45.319 130.913  17.236  1.00  0.00     0.358 C 
ATOM      6  C   UNL     1      44.426 133.114  16.742  1.00  0.00     0.105 C 
ATOM      7  C   UNL     1      44.625 132.121  17.871  1.00  0.00     0.068 C 
ATOM      8  C   UNL     1      43.218 131.807  18.397  1.00  0.00     0.014 C 
ATOM      9  C   UNL     1      42.312 132.963  17.971  1.00  0.00     0.046 C 
BRANCH   3  10
ATOM     10  C   UNL     1      45.439 130.107  14.945  1.00  0.00     0.362 C 
BRANCH  10  11
ATOM     11  O   UNL     1      45.023 128.785  15.106  1.00  0.00    -0.460 OA
ATOM     12  H   UNL     1      44.538 128.288  14.367  1.00  0.00     0.300 HD
ENDBRANCH  10  11
BRANCH  10  13
ATOM     13  C   UNL     1      46.343 130.436  13.812  1.00  0.00     0.053 C 
ATOM     14  C   UNL     1      45.838 130.541  12.580  1.00  0.00     0.023 C 
ATOM     15  C   UNL     1      47.812 130.658  14.036  1.00  0.00     0.055 C 
ENDBRANCH  10  13
ENDBRANCH   3  10
ENDBRANCH   1   2
BRANCH   1  16
ATOM     16  C   UNL     1      42.156 135.536  15.442  1.00  0.00     0.128 A 
ATOM     17  C   UNL     1      43.219 136.469  15.267  1.00  0.00     0.047 A 
ATOM     18  C   UNL     1      40.828 135.940  15.145  1.00  0.00     0.034 A 
ATOM     19  C   UNL     1      42.967 137.776  14.809  1.00  0.00     0.008 A 
ATOM     20  C   UNL     1      39.673 135.116  15.238  1.00  0.00     0.049 A 
ATOM     21  C   UNL     1      40.643 137.249  14.702  1.00  0.00    -0.008 A 
ATOM     22  C   UNL     1      41.651 138.144  14.534  1.00  0.00    -0.039 A 
ATOM     23  C   UNL     1      38.403 135.666  14.899  1.00  0.00     0.011 A 
ATOM     24  C   UNL     1      39.434 137.778  14.373  1.00  0.00    -0.039 A 
ATOM     25  C   UNL     1      41.116 139.451  14.038  1.00  0.00     0.041 C 
ATOM     26  C   UNL     1      38.281 137.000  14.465  1.00  0.00     0.005 A 
ATOM     27  C   UNL     1      39.586 139.198  13.929  1.00  0.00     0.041 C 
BRANCH  20  28
ATOM     28  N   UNL     1      39.791 133.747  15.657  1.00  0.00    -0.060 NA
BRANCH  28  29
ATOM     29  N   UNL     1      39.237 133.313  16.668  1.00  0.00     0.005 N 
ATOM     30  N   UNL     1      38.685 132.881  17.678  1.00  0.00    -0.003 NA
ENDBRANCH  28  29
ENDBRANCH  20  28
ENDBRANCH   1  16
TORSDOF 7
ENDMDL
MODEL 3
REMARK VINA RESULT:      -7.5      2.311      7.453
REMARK SMILES C=C(C)/C(O)=[N+]1/C[C@@H]2CC[C@H](Oc3ccc4c5c(ccc(N=[N+]=[N-])c35)CC4)[C@@H]2C1
REMARK SMILES IDX 12 1 11 2 6 3 29 4 7 5 28 6 8 7 9 8 10 9 4 10 5 11 2 13 1 14
REMARK SMILES IDX 3 15 13 16 14 17 25 18 15 19 21 20 17 21 16 22 20 23 18 24
REMARK SMILES IDX 27 25 19 26 26 27 22 28 23 29 24 30
REMARK H PARENT 5 12
ROOT
ATOM      1  O   UNL     1      42.051 133.474  17.291  1.00  0.00    -0.489 OA
ENDROOT
BRANCH   1   2
ATOM      2  C   UNL     1      42.174 134.886  17.484  1.00  0.00     0.183 C 
ATOM      3  N   UNL     1      39.886 136.101  14.884  1.00  0.00    -0.198 N 
ATOM      4  C   UNL     1      40.221 135.005  15.784  1.00  0.00     0.362 C 
ATOM      5  C   UNL     1      40.539 137.344  15.274  1.00  0.00     0.358 C 
ATOM      6  C   UNL     1      40.950 135.656  16.968  1.00  0.00     0.105 C 
ATOM      7  C   UNL     1      41.478 136.971  16.424  1.00  0.00     0.068 C 
ATOM      8  C   UNL     1      42.914 136.682  15.967  1.00  0.00     0.014 C 
ATOM      9  C   UNL     1      43.376 135.426  16.708  1.00  0.00     0.046 C 
BRANCH   3  10
ATOM     10  C   UNL     1      39.049 136.024  13.878  1.00  0.00     0.362 C 
BRANCH  10  11
ATOM     11  O   UNL     1      39.230 136.856  12.772  1.00  0.00    -0.460 OA
ATOM     12  H   UNL     1      39.963 136.684  12.093  1.00  0.00     0.300 HD
ENDBRANCH  10  11
BRANCH  10  13
ATOM     13  C   UNL     1      37.888 135.097  13.888  1.00  0.00     0.053 C 
ATOM     14  C   UNL     1      37.822 134.119  12.980  1.00  0.00     0.023 C 
ATOM     15  C   UNL     1      36.794 135.241  14.908  1.00  0.00     0.055 C 
ENDBRANCH  10  13
ENDBRANCH   3  10
ENDBRANCH   1   2
BRANCH   1  16
ATOM     16  C   UNL     1      42.786 132.711  16.368  1.00  0.00     0.128 A 
ATOM     17  C   UNL     1      42.485 132.734  14.975  1.00  0.00     0.047 A 
ATOM     18  C   UNL     1      43.855 131.899  16.828  1.00  0.00     0.034 A 
ATOM     19  C   UNL     1      43.229 131.966  14.060  1.00  0.00     0.008 A 
ATOM     20  C   UNL     1      44.294 131.796  18.177  1.00  0.00     0.049 A 
ATOM     21  C   UNL     1      44.550 131.156  15.874  1.00  0.00    -0.008 A 
ATOM     22  C   UNL     1      44.267 131.173  14.545  1.00  0.00    -0.039 A 
ATOM     23  C   UNL     1      45.390 130.940  18.483  1.00  0.00     0.011 A 
ATOM     24  C   UNL     1      45.599 130.340  16.160  1.00  0.00    -0.039 A 
ATOM     25  C   UNL     1      45.204 130.276  13.798  1.00  0.00     0.041 C 
ATOM     26  C   UNL     1      46.046 130.208  17.473  1.00  0.00     0.005 A 
ATOM     27  C   UNL     1      46.121 129.700  14.913  1.00  0.00     0.041 C 
BRANCH  20  28
ATOM     28  N   UNL     1      43.647 132.557  19.209  1.00  0.00    -0.060 NA
BRANCH  28  29
ATOM     29  N   UNL     1      43.837 132.344  20.407  1.00  0.00     0.005 N 
ATOM     30  N   UNL     1      44.028 132.132  21.604  1.00  0.00    -0.003 NA
ENDBRANCH  28  29
ENDBRANCH  20  28
ENDBRANCH   1  16
TORSDOF 7
ENDMDL
MODEL 4
REMARK VINA RESULT:      -7.4      1.247      1.304
REMARK SMILES C=C(C)/C(O)=[N+]1/C[C@@H]2CC[C@H](Oc3ccc4c5c(ccc(N=[N+]=[N-])c35)CC4)[C@@H]2C1
REMARK SMILES IDX 12 1 11 2 6 3 29 4 7 5 28 6 8 7 9 8 10 9 4 10 5 11 2 13 1 14
REMARK SMILES IDX 3 15 13 16 14 17 25 18 15 19 21 20 17 21 16 22 20 23 18 24
REMARK SMILES IDX 27 25 19 26 26 27 22 28 23 29 24 30
REMARK H PARENT 5 12
ROOT
ATOM      1  O   UNL     1      43.136 134.320  15.268  1.00  0.00    -0.489 OA
ENDROOT
BRANCH   1   2
ATOM      2  C   UNL     1      43.672 133.953  16.542  1.00  0.00     0.183 C 
ATOM      3  N   UNL     1      45.314 130.788  15.670  1.00  0.00    -0.198 N 
ATOM      4  C   UNL     1      44.858 132.087  15.190  1.00  0.00     0.362 C 
ATOM      5  C   UNL     1      45.389 130.742  17.125  1.00  0.00     0.358 C 
ATOM      6  C   UNL     1      44.874 133.006  16.420  1.00  0.00     0.105 C 
ATOM      7  C   UNL     1      44.793 132.066  17.609  1.00  0.00     0.068 C 
ATOM      8  C   UNL     1      43.303 131.971  17.959  1.00  0.00     0.014 C 
ATOM      9  C   UNL     1      42.623 133.206  17.366  1.00  0.00     0.046 C 
BRANCH   3  10
ATOM     10  C   UNL     1      45.682 129.788  14.908  1.00  0.00     0.362 C 
BRANCH  10  11
ATOM     11  O   UNL     1      45.172 128.512  15.159  1.00  0.00    -0.460 OA
ATOM     12  H   UNL     1      45.081 128.154  16.103  1.00  0.00     0.300 HD
ENDBRANCH  10  11
BRANCH  10  13
ATOM     13  C   UNL     1      46.654 129.958  13.798  1.00  0.00     0.053 C 
ATOM     14  C   UNL     1      46.257 130.532  12.659  1.00  0.00     0.023 C 
ATOM     15  C   UNL     1      48.079 129.500  13.942  1.00  0.00     0.055 C 
ENDBRANCH  10  13
ENDBRANCH   3  10
ENDBRANCH   1   2
BRANCH   1  16
ATOM     16  C   UNL     1      41.769 134.427  14.960  1.00  0.00     0.128 A 
ATOM     17  C   UNL     1      41.046 133.338  14.392  1.00  0.00     0.047 A 
ATOM     18  C   UNL     1      41.088 135.645  15.221  1.00  0.00     0.034 A 
ATOM     19  C   UNL     1      39.677 133.458  14.089  1.00  0.00     0.008 A 
ATOM     20  C   UNL     1      41.663 136.804  15.811  1.00  0.00     0.049 A 
ATOM     21  C   UNL     1      39.735 135.704  14.892  1.00  0.00    -0.008 A 
ATOM     22  C   UNL     1      39.039 134.670  14.349  1.00  0.00    -0.039 A 
ATOM     23  C   UNL     1      40.847 137.953  16.015  1.00  0.00     0.011 A 
ATOM     24  C   UNL     1      38.949 136.797  15.088  1.00  0.00    -0.039 A 
ATOM     25  C   UNL     1      37.611 135.057  14.128  1.00  0.00     0.041 C 
ATOM     26  C   UNL     1      39.486 137.952  15.653  1.00  0.00     0.005 A 
ATOM     27  C   UNL     1      37.550 136.525  14.636  1.00  0.00     0.041 C 
BRANCH  20  28
ATOM     28  N   UNL     1      43.045 136.807  16.205  1.00  0.00    -0.060 NA
BRANCH  28  29
ATOM     29  N   UNL     1      43.472 137.512  17.120  1.00  0.00     0.005 N 
ATOM     30  N   UNL     1      43.897 138.215  18.035  1.00  0.00    -0.003 NA
ENDBRANCH  28  29
ENDBRANCH  20  28
ENDBRANCH   1  16
TORSDOF 7
ENDMDL
MODEL 5
REMARK VINA RESULT:      -7.4      2.444      3.486
REMARK SMILES C=C(C)/C(O)=[N+]1/C[C@@H]2CC[C@H](Oc3ccc4c5c(ccc(N=[N+]=[N-])c35)CC4)[C@@H]2C1
REMARK SMILES IDX 12 1 11 2 6 3 29 4 7 5 28 6 8 7 9 8 10 9 4 10 5 11 2 13 1 14
REMARK SMILES IDX 3 15 13 16 14 17 25 18 15 19 21 20 17 21 16 22 20 23 18 24
REMARK SMILES IDX 27 25 19 26 26 27 22 28 23 29 24 30
REMARK H PARENT 5 12
ROOT
ATOM      1  O   UNL     1      42.322 133.004  17.426  1.00  0.00    -0.489 OA
ENDROOT
BRANCH   1   2
ATOM      2  C   UNL     1      43.506 132.889  18.220  1.00  0.00     0.183 C 
ATOM      3  N   UNL     1      45.307 130.307  16.332  1.00  0.00    -0.198 N 
ATOM      4  C   UNL     1      44.323 131.381  16.277  1.00  0.00     0.362 C 
ATOM      5  C   UNL     1      46.115 130.372  17.544  1.00  0.00     0.358 C 
ATOM      6  C   UNL     1      44.695 132.335  17.421  1.00  0.00     0.105 C 
ATOM      7  C   UNL     1      45.496 131.487  18.391  1.00  0.00     0.068 C 
ATOM      8  C   UNL     1      44.485 130.975  19.424  1.00  0.00     0.014 C 
ATOM      9  C   UNL     1      43.280 131.916  19.376  1.00  0.00     0.046 C 
BRANCH   3  10
ATOM     10  C   UNL     1      45.508 129.417  15.392  1.00  0.00     0.362 C 
BRANCH  10  11
ATOM     11  O   UNL     1      45.036 128.115  15.570  1.00  0.00    -0.460 OA
ATOM     12  H   UNL     1      45.290 127.566  16.383  1.00  0.00     0.300 HD
ENDBRANCH  10  11
BRANCH  10  13
ATOM     13  C   UNL     1      46.254 129.739  14.148  1.00  0.00     0.053 C 
ATOM     14  C   UNL     1      47.505 129.296  13.999  1.00  0.00     0.023 C 
ATOM     15  C   UNL     1      45.616 130.549  13.054  1.00  0.00     0.055 C 
ENDBRANCH  10  13
ENDBRANCH   3  10
ENDBRANCH   1   2
BRANCH   1  16
ATOM     16  C   UNL     1      41.195 133.777  17.751  1.00  0.00     0.128 A 
ATOM     17  C   UNL     1      40.661 133.796  19.073  1.00  0.00     0.047 A 
ATOM     18  C   UNL     1      40.573 134.562  16.745  1.00  0.00     0.034 A 
ATOM     19  C   UNL     1      39.532 134.576  19.386  1.00  0.00     0.008 A 
ATOM     20  C   UNL     1      41.006 134.671  15.395  1.00  0.00     0.049 A 
ATOM     21  C   UNL     1      39.454 135.307  17.117  1.00  0.00    -0.008 A 
ATOM     22  C   UNL     1      38.939 135.328  18.374  1.00  0.00    -0.039 A 
ATOM     23  C   UNL     1      40.277 135.506  14.501  1.00  0.00     0.011 A 
ATOM     24  C   UNL     1      38.756 136.109  16.268  1.00  0.00    -0.039 A 
ATOM     25  C   UNL     1      37.749 136.233  18.439  1.00  0.00     0.041 C 
ATOM     26  C   UNL     1      39.149 136.228  14.936  1.00  0.00     0.005 A 
ATOM     27  C   UNL     1      37.622 136.770  16.985  1.00  0.00     0.041 C 
BRANCH  20  28
ATOM     28  N   UNL     1      42.170 133.957  14.948  1.00  0.00    -0.060 NA
BRANCH  28  29
ATOM     29  N   UNL     1      42.098 132.922  14.284  1.00  0.00     0.005 N 
ATOM     30  N   UNL     1      42.028 131.889  13.621  1.00  0.00    -0.003 NA
ENDBRANCH  28  29
ENDBRANCH  20  28
ENDBRANCH   1  16
TORSDOF 7
ENDMDL
MODEL 6
REMARK VINA RESULT:      -7.2      2.814      7.104
REMARK SMILES C=C(C)/C(O)=[N+]1/C[C@@H]2CC[C@H](Oc3ccc4c5c(ccc(N=[N+]=[N-])c35)CC4)[C@@H]2C1
REMARK SMILES IDX 12 1 11 2 6 3 29 4 7 5 28 6 8 7 9 8 10 9 4 10 5 11 2 13 1 14
REMARK SMILES IDX 3 15 13 16 14 17 25 18 15 19 21 20 17 21 16 22 20 23 18 24
REMARK SMILES IDX 27 25 19 26 26 27 22 28 23 29 24 30
REMARK H PARENT 5 12
ROOT
ATOM      1  O   UNL     1      41.676 132.863  16.521  1.00  0.00    -0.489 OA
ENDROOT
BRANCH   1   2
ATOM      2  C   UNL     1      40.909 133.989  16.085  1.00  0.00     0.183 C 
ATOM      3  N   UNL     1      42.214 136.575  18.339  1.00  0.00    -0.198 N 
ATOM      4  C   UNL     1      42.483 135.314  17.661  1.00  0.00     0.362 C 
ATOM      5  C   UNL     1      41.070 137.270  17.761  1.00  0.00     0.358 C 
ATOM      6  C   UNL     1      41.594 135.324  16.409  1.00  0.00     0.105 C 
ATOM      7  C   UNL     1      40.480 136.303  16.732  1.00  0.00     0.068 C 
ATOM      8  C   UNL     1      39.331 135.451  17.287  1.00  0.00     0.014 C 
ATOM      9  C   UNL     1      39.557 134.020  16.798  1.00  0.00     0.046 C 
BRANCH   3  10
ATOM     10  C   UNL     1      42.934 137.080  19.310  1.00  0.00     0.362 C 
BRANCH  10  11
ATOM     11  O   UNL     1      42.330 137.925  20.243  1.00  0.00    -0.460 OA
ATOM     12  H   UNL     1      41.635 137.583  20.897  1.00  0.00     0.300 HD
ENDBRANCH  10  11
BRANCH  10  13
ATOM     13  C   UNL     1      44.390 136.809  19.436  1.00  0.00     0.053 C 
ATOM     14  C   UNL     1      45.257 137.534  18.724  1.00  0.00     0.023 C 
ATOM     15  C   UNL     1      44.898 135.735  20.356  1.00  0.00     0.055 C 
ENDBRANCH  10  13
ENDBRANCH   3  10
ENDBRANCH   1   2
BRANCH   1  16
ATOM     16  C   UNL     1      42.650 132.197  15.758  1.00  0.00     0.128 A 
ATOM     17  C   UNL     1      42.538 132.085  14.341  1.00  0.00     0.047 A 
ATOM     18  C   UNL     1      43.774 131.623  16.408  1.00  0.00     0.034 A 
ATOM     19  C   UNL     1      43.521 131.416  13.588  1.00  0.00     0.008 A 
ATOM     20  C   UNL     1      44.040 131.679  17.803  1.00  0.00     0.049 A 
ATOM     21  C   UNL     1      44.709 130.967  15.607  1.00  0.00    -0.008 A 
ATOM     22  C   UNL     1      44.608 130.856  14.257  1.00  0.00    -0.039 A 
ATOM     23  C   UNL     1      45.218 131.057  18.308  1.00  0.00     0.011 A 
ATOM     24  C   UNL     1      45.837 130.376  16.083  1.00  0.00    -0.039 A 
ATOM     25  C   UNL     1      45.778 130.106  13.703  1.00  0.00     0.041 C 
ATOM     26  C   UNL     1      46.120 130.403  17.447  1.00  0.00     0.005 A 
ATOM     27  C   UNL     1      46.625 129.772  14.963  1.00  0.00     0.041 C 
BRANCH  20  28
ATOM     28  N   UNL     1      43.137 132.365  18.686  1.00  0.00    -0.060 NA
BRANCH  28  29
ATOM     29  N   UNL     1      43.296 132.391  19.907  1.00  0.00     0.005 N 
ATOM     30  N   UNL     1      43.456 132.416  21.126  1.00  0.00    -0.003 NA
ENDBRANCH  28  29
ENDBRANCH  20  28
ENDBRANCH   1  16
TORSDOF 7
ENDMDL
MODEL 7
REMARK VINA RESULT:      -7.2      2.901      7.305
REMARK SMILES C=C(C)/C(O)=[N+]1/C[C@@H]2CC[C@H](Oc3ccc4c5c(ccc(N=[N+]=[N-])c35)CC4)[C@@H]2C1
REMARK SMILES IDX 12 1 11 2 6 3 29 4 7 5 28 6 8 7 9 8 10 9 4 10 5 11 2 13 1 14
REMARK SMILES IDX 3 15 13 16 14 17 25 18 15 19 21 20 17 21 16 22 20 23 18 24
REMARK SMILES IDX 27 25 19 26 26 27 22 28 23 29 24 30
REMARK H PARENT 5 12
ROOT
ATOM      1  O   UNL     1      42.060 133.035  17.133  1.00  0.00    -0.489 OA
ENDROOT
BRANCH   1   2
ATOM      2  C   UNL     1      40.929 133.869  16.867  1.00  0.00     0.183 C 
ATOM      3  N   UNL     1      42.201 137.095  18.069  1.00  0.00    -0.198 N 
ATOM      4  C   UNL     1      42.543 135.787  17.524  1.00  0.00     0.362 C 
ATOM      5  C   UNL     1      40.792 137.414  17.876  1.00  0.00     0.358 C 
ATOM      6  C   UNL     1      41.314 135.348  16.715  1.00  0.00     0.105 C 
ATOM      7  C   UNL     1      40.160 136.146  17.295  1.00  0.00     0.068 C 
ATOM      8  C   UNL     1      39.526 135.241  18.358  1.00  0.00     0.014 C 
ATOM      9  C   UNL     1      39.935 133.805  18.027  1.00  0.00     0.046 C 
BRANCH   3  10
ATOM     10  C   UNL     1      43.050 137.933  18.612  1.00  0.00     0.362 C 
BRANCH  10  11
ATOM     11  O   UNL     1      43.348 137.820  19.971  1.00  0.00    -0.460 OA
ATOM     12  H   UNL     1      43.655 138.619  20.515  1.00  0.00     0.300 HD
ENDBRANCH  10  11
BRANCH  10  13
ATOM     13  C   UNL     1      43.688 139.026  17.833  1.00  0.00     0.053 C 
ATOM     14  C   UNL     1      44.780 139.624  18.315  1.00  0.00     0.023 C 
ATOM     15  C   UNL     1      43.125 139.460  16.509  1.00  0.00     0.055 C 
ENDBRANCH  10  13
ENDBRANCH   3  10
ENDBRANCH   1   2
BRANCH   1  16
ATOM     16  C   UNL     1      42.836 132.382  16.161  1.00  0.00     0.128 A 
ATOM     17  C   UNL     1      42.503 132.444  14.776  1.00  0.00     0.047 A 
ATOM     18  C   UNL     1      43.980 131.644  16.562  1.00  0.00     0.034 A 
ATOM     19  C   UNL     1      43.289 131.786  13.812  1.00  0.00     0.008 A 
ATOM     20  C   UNL     1      44.456 131.515  17.896  1.00  0.00     0.049 A 
ATOM     21  C   UNL     1      44.713 131.008  15.561  1.00  0.00    -0.008 A 
ATOM     22  C   UNL     1      44.401 131.062  14.239  1.00  0.00    -0.039 A 
ATOM     23  C   UNL     1      45.627 130.742  18.140  1.00  0.00     0.011 A 
ATOM     24  C   UNL     1      45.833 130.271  15.788  1.00  0.00    -0.039 A 
ATOM     25  C   UNL     1      45.392 130.284  13.433  1.00  0.00     0.041 C 
ATOM     26  C   UNL     1      46.319 130.117  17.085  1.00  0.00     0.005 A 
ATOM     27  C   UNL     1      46.380 129.736  14.502  1.00  0.00     0.041 C 
BRANCH  20  28
ATOM     28  N   UNL     1      43.770 132.169  18.976  1.00  0.00    -0.060 NA
BRANCH  28  29
ATOM     29  N   UNL     1      44.205 132.179  20.128  1.00  0.00     0.005 N 
ATOM     30  N   UNL     1      44.640 132.187  21.278  1.00  0.00    -0.003 NA
ENDBRANCH  28  29
ENDBRANCH  20  28
ENDBRANCH   1  16
TORSDOF 7
ENDMDL
MODEL 8
REMARK VINA RESULT:      -7.2      2.774      7.401
REMARK SMILES C=C(C)/C(O)=[N+]1/C[C@@H]2CC[C@H](Oc3ccc4c5c(ccc(N=[N+]=[N-])c35)CC4)[C@@H]2C1
REMARK SMILES IDX 12 1 11 2 6 3 29 4 7 5 28 6 8 7 9 8 10 9 4 10 5 11 2 13 1 14
REMARK SMILES IDX 3 15 13 16 14 17 25 18 15 19 21 20 17 21 16 22 20 23 18 24
REMARK SMILES IDX 27 25 19 26 26 27 22 28 23 29 24 30
REMARK H PARENT 5 12
ROOT
ATOM      1  O   UNL     1      42.078 133.335  17.253  1.00  0.00    -0.489 OA
ENDROOT
BRANCH   1   2
ATOM      2  C   UNL     1      40.821 133.976  17.020  1.00  0.00     0.183 C 
ATOM      3  N   UNL     1      41.897 137.482  16.862  1.00  0.00    -0.198 N 
ATOM      4  C   UNL     1      42.281 136.088  16.673  1.00  0.00     0.362 C 
ATOM      5  C   UNL     1      40.450 137.644  16.917  1.00  0.00     0.358 C 
ATOM      6  C   UNL     1      40.978 135.346  16.345  1.00  0.00     0.105 C 
ATOM      7  C   UNL     1      39.877 136.224  16.909  1.00  0.00     0.068 C 
ATOM      8  C   UNL     1      39.591 135.676  18.313  1.00  0.00     0.014 C 
ATOM      9  C   UNL     1      40.101 134.235  18.344  1.00  0.00     0.046 C 
BRANCH   3  10
ATOM     10  C   UNL     1      42.727 138.494  16.914  1.00  0.00     0.362 C 
BRANCH  10  11
ATOM     11  O   UNL     1      42.953 139.253  15.764  1.00  0.00    -0.460 OA
ATOM     12  H   UNL     1      43.879 139.341  15.360  1.00  0.00     0.300 HD
ENDBRANCH  10  11
BRANCH  10  13
ATOM     13  C   UNL     1      43.465 138.846  18.154  1.00  0.00     0.053 C 
ATOM     14  C   UNL     1      44.547 139.625  18.076  1.00  0.00     0.023 C 
ATOM     15  C   UNL     1      43.006 138.344  19.494  1.00  0.00     0.055 C 
ENDBRANCH  10  13
ENDBRANCH   3  10
ENDBRANCH   1   2
BRANCH   1  16
ATOM     16  C   UNL     1      42.807 132.602  16.302  1.00  0.00     0.128 A 
ATOM     17  C   UNL     1      42.471 132.638  14.917  1.00  0.00     0.047 A 
ATOM     18  C   UNL     1      43.906 131.809  16.724  1.00  0.00     0.034 A 
ATOM     19  C   UNL     1      43.209 131.900  13.973  1.00  0.00     0.008 A 
ATOM     20  C   UNL     1      44.380 131.697  18.059  1.00  0.00     0.049 A 
ATOM     21  C   UNL     1      44.593 131.095  15.742  1.00  0.00    -0.008 A 
ATOM     22  C   UNL     1      44.277 131.124  14.421  1.00  0.00    -0.039 A 
ATOM     23  C   UNL     1      45.503 130.861  18.326  1.00  0.00     0.011 A 
ATOM     24  C   UNL     1      45.667 130.299  15.990  1.00  0.00    -0.039 A 
ATOM     25  C   UNL     1      45.215 130.259  13.638  1.00  0.00     0.041 C 
ATOM     26  C   UNL     1      46.149 130.159  17.290  1.00  0.00     0.005 A 
ATOM     27  C   UNL     1      46.172 129.689  14.722  1.00  0.00     0.041 C 
BRANCH  20  28
ATOM     28  N   UNL     1      43.741 132.428  19.119  1.00  0.00    -0.060 NA
BRANCH  28  29
ATOM     29  N   UNL     1      43.189 131.871  20.068  1.00  0.00     0.005 N 
ATOM     30  N   UNL     1      42.638 131.314  21.016  1.00  0.00    -0.003 NA
ENDBRANCH  28  29
ENDBRANCH  20  28
ENDBRANCH   1  16
TORSDOF 7
ENDMDL
MODEL 9
REMARK VINA RESULT:      -7.2      3.646      6.600
REMARK SMILES C=C(C)/C(O)=[N+]1/C[C@@H]2CC[C@H](Oc3ccc4c5c(ccc(N=[N+]=[N-])c35)CC4)[C@@H]2C1
REMARK SMILES IDX 12 1 11 2 6 3 29 4 7 5 28 6 8 7 9 8 10 9 4 10 5 11 2 13 1 14
REMARK SMILES IDX 3 15 13 16 14 17 25 18 15 19 21 20 17 21 16 22 20 23 18 24
REMARK SMILES IDX 27 25 19 26 26 27 22 28 23 29 24 30
REMARK H PARENT 5 12
ROOT
ATOM      1  O   UNL     1      44.451 133.223  18.322  1.00  0.00    -0.489 OA
ENDROOT
BRANCH   1   2
ATOM      2  C   UNL     1      43.414 133.163  17.338  1.00  0.00     0.183 C 
ATOM      3  N   UNL     1      44.727 130.509  15.169  1.00  0.00    -0.198 N 
ATOM      4  C   UNL     1      44.704 131.073  16.513  1.00  0.00     0.362 C 
ATOM      5  C   UNL     1      43.633 131.014  14.349  1.00  0.00     0.358 C 
ATOM      6  C   UNL     1      43.359 131.803  16.627  1.00  0.00     0.105 C 
ATOM      7  C   UNL     1      42.950 132.092  15.194  1.00  0.00     0.068 C 
ATOM      8  C   UNL     1      43.458 133.509  14.898  1.00  0.00     0.014 C 
ATOM      9  C   UNL     1      43.657 134.205  16.245  1.00  0.00     0.046 C 
BRANCH   3  10
ATOM     10  C   UNL     1      45.577 129.608  14.741  1.00  0.00     0.362 C 
BRANCH  10  11
ATOM     11  O   UNL     1      45.501 128.305  15.239  1.00  0.00    -0.460 OA
ATOM     12  H   UNL     1      45.573 127.500  14.628  1.00  0.00     0.300 HD
ENDBRANCH  10  11
BRANCH  10  13
ATOM     13  C   UNL     1      46.647 129.933  13.763  1.00  0.00     0.053 C 
ATOM     14  C   UNL     1      46.342 130.632  12.666  1.00  0.00     0.023 C 
ATOM     15  C   UNL     1      48.065 129.494  13.995  1.00  0.00     0.055 C 
ENDBRANCH  10  13
ENDBRANCH   3  10
ENDBRANCH   1   2
BRANCH   1  16
ATOM     16  C   UNL     1      44.312 132.862  19.673  1.00  0.00     0.128 A 
ATOM     17  C   UNL     1      44.134 131.504  20.067  1.00  0.00     0.047 A 
ATOM     18  C   UNL     1      44.353 133.870  20.672  1.00  0.00     0.034 A 
ATOM     19  C   UNL     1      43.998 131.156  21.423  1.00  0.00     0.008 A 
ATOM     20  C   UNL     1      44.555 135.258  20.439  1.00  0.00     0.049 A 
ATOM     21  C   UNL     1      44.205 133.462  21.997  1.00  0.00    -0.008 A 
ATOM     22  C   UNL     1      44.033 132.169  22.379  1.00  0.00    -0.039 A 
ATOM     23  C   UNL     1      44.577 136.149  21.549  1.00  0.00     0.011 A 
ATOM     24  C   UNL     1      44.229 134.308  23.061  1.00  0.00    -0.039 A 
ATOM     25  C   UNL     1      43.918 132.073  23.868  1.00  0.00     0.041 C 
ATOM     26  C   UNL     1      44.413 135.675  22.866  1.00  0.00     0.005 A 
ATOM     27  C   UNL     1      44.050 133.549  24.338  1.00  0.00     0.041 C 
BRANCH  20  28
ATOM     28  N   UNL     1      44.747 135.747  19.101  1.00  0.00    -0.060 NA
BRANCH  28  29
ATOM     29  N   UNL     1      44.439 136.891  18.764  1.00  0.00     0.005 N 
ATOM     30  N   UNL     1      44.130 138.033  18.428  1.00  0.00    -0.003 NA
ENDBRANCH  28  29
ENDBRANCH  20  28
ENDBRANCH   1  16
TORSDOF 7
ENDMDL


