REMARK SMILES C#C[C@](O)(c1cc(N)cc(SC(C)(C)CNC[C@](C)(O)C=C)ccc2cc1CC2)C(C)(C)C
REMARK SMILES IDX 12 1 13 2 14 3 11 4 10 5 5 6 6 7 27 8 7 9 26 10 28 11 9 12
REMARK SMILES IDX 25 13 29 14 24 15 23 16 3 17 2 18 1 19 4 20 30 22 31 23
REMARK SMILES IDX 32 24 33 25 8 26 15 29 16 30 17 32 18 33 19 34 20 35 21 37
REMARK SMILES IDX 22 38
REMARK H PARENT 4 21 8 27 8 28 16 31 20 36
ROOT
ATOM      1  C   UNL     1      -1.488   1.380   1.523  1.00  0.00     0.027 C 
ATOM      2  C   UNL     1      -1.395  -0.156   1.462  1.00  0.00     0.024 C 
ATOM      3  C   UNL     1      -2.254   1.904   0.293  1.00  0.00     0.024 C 
ENDROOT
BRANCH   1   4
ATOM      4  S   UNL     1       0.205   2.131   1.613  1.00  0.00    -0.118 SA
BRANCH   4   5
ATOM      5  C   UNL     1       0.832   1.692  -0.023  1.00  0.00     0.010 A 
ATOM      6  C   UNL     1       1.866  -1.700  -2.673  1.00  0.00     0.002 A 
ATOM      7  C   UNL     1       2.495  -1.223  -1.487  1.00  0.00     0.033 A 
ATOM      8  C   UNL     1       0.983  -0.854  -3.384  1.00  0.00    -0.040 A 
ATOM      9  C   UNL     1       2.471   0.130  -1.118  1.00  0.00     0.033 A 
ATOM     10  C   UNL     1       0.181   0.044  -2.710  1.00  0.00     0.007 A 
ATOM     11  C   UNL     1       1.381  -0.265  -4.704  1.00  0.00     0.041 C 
ATOM     12  C   UNL     1       1.608   0.511  -0.086  1.00  0.00     0.040 A 
ATOM     13  C   UNL     1       0.400   1.300  -3.212  1.00  0.00    -0.047 A 
ATOM     14  C   UNL     1       0.972   1.209  -4.587  1.00  0.00     0.040 C 
ATOM     15  C   UNL     1       0.464   2.478  -2.458  1.00  0.00     0.005 A 
ATOM     16  C   UNL     1       0.551   2.627  -1.053  1.00  0.00     0.015 A 
BRANCH   6  17
ATOM     17  C   UNL     1       2.101  -3.135  -3.176  1.00  0.00     0.155 C 
BRANCH  17  18
ATOM     18  C   UNL     1       3.554  -3.444  -3.052  1.00  0.00    -0.066 C 
ATOM     19  C   UNL     1       4.728  -3.698  -2.974  1.00  0.00     0.007 C 
ENDBRANCH  17  18
BRANCH  17  20
ATOM     20  O   UNL     1       1.753  -3.173  -4.549  1.00  0.00    -0.373 OA
ATOM     21  H   UNL     1       2.177  -3.965  -4.977  1.00  0.00     0.213 HD
ENDBRANCH  17  20
BRANCH  17  22
ATOM     22  C   UNL     1       1.215  -4.195  -2.382  1.00  0.00     0.006 C 
ATOM     23  C   UNL     1       1.603  -4.301  -0.883  1.00  0.00     0.015 C 
ATOM     24  C   UNL     1       1.364  -5.607  -3.006  1.00  0.00     0.015 C 
ATOM     25  C   UNL     1      -0.285  -3.810  -2.462  1.00  0.00     0.015 C 
ENDBRANCH  17  22
ENDBRANCH   6  17
BRANCH   9  26
ATOM     26  N   UNL     1       3.109   1.105  -1.957  1.00  0.00    -0.399 N 
ATOM     27  H   UNL     1       3.186   2.100  -1.653  1.00  0.00     0.156 HD
ATOM     28  H   UNL     1       3.634   0.817  -2.813  1.00  0.00     0.156 HD
ENDBRANCH   9  26
ENDBRANCH   4   5
ENDBRANCH   1   4
BRANCH   1  29
ATOM     29  C   UNL     1      -2.269   1.801   2.794  1.00  0.00     0.098 C 
BRANCH  29  30
ATOM     30  N   UNL     1      -1.622   1.289   4.015  1.00  0.00    -0.312 NA
ATOM     31  H   UNL     1      -0.872   1.952   4.320  1.00  0.00     0.122 HD
BRANCH  30  32
ATOM     32  C   UNL     1      -2.573   1.044   5.115  1.00  0.00     0.120 C 
BRANCH  32  33
ATOM     33  C   UNL     1      -3.050   2.338   5.842  1.00  0.00     0.092 C 
ATOM     34  C   UNL     1      -3.985   1.976   7.016  1.00  0.00     0.048 C 
BRANCH  33  35
ATOM     35  O   UNL     1      -3.748   3.167   4.940  1.00  0.00    -0.385 OA
ATOM     36  H   UNL     1      -4.577   2.689   4.657  1.00  0.00     0.211 HD
ENDBRANCH  33  35
BRANCH  33  37
ATOM     37  C   UNL     1      -1.875   3.132   6.384  1.00  0.00     0.001 C 
ATOM     38  C   UNL     1      -0.999   2.640   7.270  1.00  0.00     0.007 C 
ENDBRANCH  33  37
ENDBRANCH  32  33
ENDBRANCH  30  32
ENDBRANCH  29  30
ENDBRANCH   1  29
TORSDOF 13


