MODEL 1
REMARK VINA RESULT:      -7.6      0.000      0.000
REMARK SMILES [N-]=[N+]=NC(=O)c1cc2ccccc2cc1OC(=O)[C@]1(N=[N+]=[N-])C[C@@H](CO)C1
REMARK SMILES IDX 16 1 17 2 18 3 19 4 24 5 27 6 23 7 25 8 26 9 20 11 21 12
REMARK SMILES IDX 22 13 15 14 6 15 14 16 7 17 13 18 8 19 12 20 9 21 11 22
REMARK SMILES IDX 10 23 4 24 5 25 3 26 2 27 1 28
REMARK H PARENT 26 10
ROOT
ATOM      1  O   UNL     1      42.706 132.213  16.080  1.00  0.00    -0.425 OA
ENDROOT
BRANCH   1   2
ATOM      2  C   UNL     1      42.141 133.283  15.372  1.00  0.00     0.323 C 
ATOM      3  O   UNL     1      41.405 133.072  14.371  1.00  0.00    -0.251 OA
BRANCH   2   4
ATOM      4  C   UNL     1      42.298 134.687  15.900  1.00  0.00     0.147 C 
ATOM      5  C   UNL     1      42.538 136.479  14.712  1.00  0.00     0.017 C 
ATOM      6  C   UNL     1      43.496 135.458  15.330  1.00  0.00     0.031 C 
ATOM      7  C   UNL     1      41.343 135.704  15.267  1.00  0.00     0.031 C 
BRANCH   5   8
ATOM      8  C   UNL     1      42.677 137.891  15.298  1.00  0.00     0.159 C 
BRANCH   8   9
ATOM      9  O   UNL     1      42.561 138.836  14.272  1.00  0.00    -0.396 OA
ATOM     10  H   UNL     1      43.267 138.611  13.611  1.00  0.00     0.210 HD
ENDBRANCH   8   9
ENDBRANCH   5   8
BRANCH   4  11
ATOM     11  N   UNL     1      42.244 134.734  17.360  1.00  0.00    -0.075 NA
BRANCH  11  12
ATOM     12  N   UNL     1      43.218 135.093  18.024  1.00  0.00     0.002 N 
ATOM     13  N   UNL     1      44.190 135.451  18.687  1.00  0.00    -0.003 NA
ENDBRANCH  11  12
ENDBRANCH   4  11
ENDBRANCH   2   4
ENDBRANCH   1   2
BRANCH   1  14
ATOM     14  C   UNL     1      43.940 131.610  15.789  1.00  0.00     0.142 A 
ATOM     15  C   UNL     1      44.800 131.257  16.850  1.00  0.00     0.068 A 
ATOM     16  C   UNL     1      44.357 131.406  14.459  1.00  0.00     0.056 A 
ATOM     17  C   UNL     1      46.042 130.662  16.570  1.00  0.00     0.024 A 
ATOM     18  C   UNL     1      45.601 130.825  14.183  1.00  0.00    -0.015 A 
ATOM     19  C   UNL     1      46.448 130.445  15.247  1.00  0.00    -0.017 A 
ATOM     20  C   UNL     1      46.014 130.617  12.856  1.00  0.00     0.009 A 
ATOM     21  C   UNL     1      47.693 129.856  14.969  1.00  0.00     0.009 A 
ATOM     22  C   UNL     1      47.256 130.032  12.593  1.00  0.00     0.001 A 
ATOM     23  C   UNL     1      48.092 129.652  13.645  1.00  0.00     0.001 A 
BRANCH  15  24
ATOM     24  C   UNL     1      44.382 131.462  18.258  1.00  0.00     0.252 C 
ATOM     25  O   UNL     1      43.159 131.605  18.523  1.00  0.00    -0.287 OA
BRANCH  24  26
ATOM     26  N   UNL     1      45.327 131.505  19.334  1.00  0.00    -0.017 NA
BRANCH  26  27
ATOM     27  N   UNL     1      44.991 131.351  20.509  1.00  0.00     0.009 N 
ATOM     28  N   UNL     1      44.656 131.197  21.683  1.00  0.00    -0.003 NA
ENDBRANCH  26  27
ENDBRANCH  24  26
ENDBRANCH  15  24
ENDBRANCH   1  14
TORSDOF 10
ENDMDL
MODEL 2
REMARK VINA RESULT:      -7.5      1.167      1.533
REMARK SMILES [N-]=[N+]=NC(=O)c1cc2ccccc2cc1OC(=O)[C@]1(N=[N+]=[N-])C[C@@H](CO)C1
REMARK SMILES IDX 16 1 17 2 18 3 19 4 24 5 27 6 23 7 25 8 26 9 20 11 21 12
REMARK SMILES IDX 22 13 15 14 6 15 14 16 7 17 13 18 8 19 12 20 9 21 11 22
REMARK SMILES IDX 10 23 4 24 5 25 3 26 2 27 1 28
REMARK H PARENT 26 10
ROOT
ATOM      1  O   UNL     1      42.180 132.323  15.958  1.00  0.00    -0.425 OA
ENDROOT
BRANCH   1   2
ATOM      2  C   UNL     1      41.652 133.396  15.227  1.00  0.00     0.323 C 
ATOM      3  O   UNL     1      41.101 133.203  14.110  1.00  0.00    -0.251 OA
BRANCH   2   4
ATOM      4  C   UNL     1      41.615 134.770  15.848  1.00  0.00     0.147 C 
ATOM      5  C   UNL     1      42.305 136.606  14.934  1.00  0.00     0.017 C 
ATOM      6  C   UNL     1      42.948 135.529  15.812  1.00  0.00     0.031 C 
ATOM      7  C   UNL     1      40.980 135.843  14.957  1.00  0.00     0.031 C 
BRANCH   5   8
ATOM      8  C   UNL     1      42.228 137.985  15.603  1.00  0.00     0.159 C 
BRANCH   8   9
ATOM      9  O   UNL     1      42.587 138.972  14.679  1.00  0.00    -0.396 OA
ATOM     10  H   UNL     1      41.948 139.720  14.814  1.00  0.00     0.210 HD
ENDBRANCH   8   9
ENDBRANCH   5   8
BRANCH   4  11
ATOM     11  N   UNL     1      41.015 134.753  17.181  1.00  0.00    -0.075 NA
BRANCH  11  12
ATOM     12  N   UNL     1      39.904 134.257  17.375  1.00  0.00     0.002 N 
ATOM     13  N   UNL     1      38.795 133.762  17.568  1.00  0.00    -0.003 NA
ENDBRANCH  11  12
ENDBRANCH   4  11
ENDBRANCH   2   4
ENDBRANCH   1   2
BRANCH   1  14
ATOM     14  C   UNL     1      43.462 131.778  15.785  1.00  0.00     0.142 A 
ATOM     15  C   UNL     1      44.314 131.656  16.903  1.00  0.00     0.068 A 
ATOM     16  C   UNL     1      43.931 131.406  14.510  1.00  0.00     0.056 A 
ATOM     17  C   UNL     1      45.603 131.120  16.740  1.00  0.00     0.024 A 
ATOM     18  C   UNL     1      45.222 130.886  14.349  1.00  0.00    -0.015 A 
ATOM     19  C   UNL     1      46.063 130.737  15.475  1.00  0.00    -0.017 A 
ATOM     20  C   UNL     1      45.688 130.510  13.078  1.00  0.00     0.009 A 
ATOM     21  C   UNL     1      47.354 130.208  15.313  1.00  0.00     0.009 A 
ATOM     22  C   UNL     1      46.976 129.988  12.930  1.00  0.00     0.001 A 
ATOM     23  C   UNL     1      47.806 129.837  14.043  1.00  0.00     0.001 A 
BRANCH  15  24
ATOM     24  C   UNL     1      43.840 132.040  18.255  1.00  0.00     0.252 C 
ATOM     25  O   UNL     1      42.789 131.519  18.711  1.00  0.00    -0.287 OA
BRANCH  24  26
ATOM     26  N   UNL     1      44.542 132.991  19.066  1.00  0.00    -0.017 NA
BRANCH  26  27
ATOM     27  N   UNL     1      44.360 133.078  20.281  1.00  0.00     0.009 N 
ATOM     28  N   UNL     1      44.180 133.166  21.495  1.00  0.00    -0.003 NA
ENDBRANCH  26  27
ENDBRANCH  24  26
ENDBRANCH  15  24
ENDBRANCH   1  14
TORSDOF 10
ENDMDL
MODEL 3
REMARK VINA RESULT:      -7.3      2.034      2.279
REMARK SMILES [N-]=[N+]=NC(=O)c1cc2ccccc2cc1OC(=O)[C@]1(N=[N+]=[N-])C[C@@H](CO)C1
REMARK SMILES IDX 16 1 17 2 18 3 19 4 24 5 27 6 23 7 25 8 26 9 20 11 21 12
REMARK SMILES IDX 22 13 15 14 6 15 14 16 7 17 13 18 8 19 12 20 9 21 11 22
REMARK SMILES IDX 10 23 4 24 5 25 3 26 2 27 1 28
REMARK H PARENT 26 10
ROOT
ATOM      1  O   UNL     1      42.003 132.529  15.996  1.00  0.00    -0.425 OA
ENDROOT
BRANCH   1   2
ATOM      2  C   UNL     1      41.433 133.501  15.163  1.00  0.00     0.323 C 
ATOM      3  O   UNL     1      40.961 133.185  14.037  1.00  0.00    -0.251 OA
BRANCH   2   4
ATOM      4  C   UNL     1      41.253 134.907  15.679  1.00  0.00     0.147 C 
ATOM      5  C   UNL     1      39.617 135.620  16.902  1.00  0.00     0.017 C 
ATOM      6  C   UNL     1      39.876 135.524  15.397  1.00  0.00     0.031 C 
ATOM      7  C   UNL     1      40.982 134.991  17.184  1.00  0.00     0.031 C 
BRANCH   5   8
ATOM      8  C   UNL     1      39.488 137.060  17.417  1.00  0.00     0.159 C 
BRANCH   8   9
ATOM      9  O   UNL     1      38.607 137.090  18.504  1.00  0.00    -0.396 OA
ATOM     10  H   UNL     1      38.798 136.272  19.034  1.00  0.00     0.210 HD
ENDBRANCH   8   9
ENDBRANCH   5   8
BRANCH   4  11
ATOM     11  N   UNL     1      42.353 135.783  15.280  1.00  0.00    -0.075 NA
BRANCH  11  12
ATOM     12  N   UNL     1      43.527 135.438  15.419  1.00  0.00     0.002 N 
ATOM     13  N   UNL     1      44.699 135.092  15.559  1.00  0.00    -0.003 NA
ENDBRANCH  11  12
ENDBRANCH   4  11
ENDBRANCH   2   4
ENDBRANCH   1   2
BRANCH   1  14
ATOM     14  C   UNL     1      43.284 131.977  15.838  1.00  0.00     0.142 A 
ATOM     15  C   UNL     1      44.163 131.952  16.941  1.00  0.00     0.068 A 
ATOM     16  C   UNL     1      43.725 131.501  14.588  1.00  0.00     0.056 A 
ATOM     17  C   UNL     1      45.451 131.411  16.792  1.00  0.00     0.024 A 
ATOM     18  C   UNL     1      45.014 130.975  14.439  1.00  0.00    -0.015 A 
ATOM     19  C   UNL     1      45.883 130.924  15.552  1.00  0.00    -0.017 A 
ATOM     20  C   UNL     1      45.452 130.496  13.193  1.00  0.00     0.009 A 
ATOM     21  C   UNL     1      47.173 130.389  15.403  1.00  0.00     0.009 A 
ATOM     22  C   UNL     1      46.739 129.968  13.058  1.00  0.00     0.001 A 
ATOM     23  C   UNL     1      47.597 129.914  14.159  1.00  0.00     0.001 A 
BRANCH  15  24
ATOM     24  C   UNL     1      43.720 132.447  18.268  1.00  0.00     0.252 C 
ATOM     25  O   UNL     1      43.956 133.641  18.591  1.00  0.00    -0.287 OA
BRANCH  24  26
ATOM     26  N   UNL     1      43.030 131.607  19.201  1.00  0.00    -0.017 NA
BRANCH  26  27
ATOM     27  N   UNL     1      42.618 132.029  20.283  1.00  0.00     0.009 N 
ATOM     28  N   UNL     1      42.205 132.448  21.363  1.00  0.00    -0.003 NA
ENDBRANCH  26  27
ENDBRANCH  24  26
ENDBRANCH  15  24
ENDBRANCH   1  14
TORSDOF 10
ENDMDL
MODEL 4
REMARK VINA RESULT:      -7.3      1.129      1.155
REMARK SMILES [N-]=[N+]=NC(=O)c1cc2ccccc2cc1OC(=O)[C@]1(N=[N+]=[N-])C[C@@H](CO)C1
REMARK SMILES IDX 16 1 17 2 18 3 19 4 24 5 27 6 23 7 25 8 26 9 20 11 21 12
REMARK SMILES IDX 22 13 15 14 6 15 14 16 7 17 13 18 8 19 12 20 9 21 11 22
REMARK SMILES IDX 10 23 4 24 5 25 3 26 2 27 1 28
REMARK H PARENT 26 10
ROOT
ATOM      1  O   UNL     1      42.459 132.102  15.975  1.00  0.00    -0.425 OA
ENDROOT
BRANCH   1   2
ATOM      2  C   UNL     1      41.797 133.040  15.172  1.00  0.00     0.323 C 
ATOM      3  O   UNL     1      41.371 132.720  14.029  1.00  0.00    -0.251 OA
BRANCH   2   4
ATOM      4  C   UNL     1      41.463 134.397  15.738  1.00  0.00     0.147 C 
ATOM      5  C   UNL     1      42.324 136.285  15.124  1.00  0.00     0.017 C 
ATOM      6  C   UNL     1      42.677 135.229  16.174  1.00  0.00     0.031 C 
ATOM      7  C   UNL     1      41.122 135.451  14.679  1.00  0.00     0.031 C 
BRANCH   5   8
ATOM      8  C   UNL     1      41.937 137.645  15.721  1.00  0.00     0.159 C 
BRANCH   8   9
ATOM      9  O   UNL     1      43.081 138.438  15.857  1.00  0.00    -0.396 OA
ATOM     10  H   UNL     1      42.961 139.203  15.235  1.00  0.00     0.210 HD
ENDBRANCH   8   9
ENDBRANCH   5   8
BRANCH   4  11
ATOM     11  N   UNL     1      40.434 134.323  16.773  1.00  0.00    -0.075 NA
BRANCH  11  12
ATOM     12  N   UNL     1      40.578 134.886  17.859  1.00  0.00     0.002 N 
ATOM     13  N   UNL     1      40.722 135.450  18.943  1.00  0.00    -0.003 NA
ENDBRANCH  11  12
ENDBRANCH   4  11
ENDBRANCH   2   4
ENDBRANCH   1   2
BRANCH   1  14
ATOM     14  C   UNL     1      43.738 131.580  15.724  1.00  0.00     0.142 A 
ATOM     15  C   UNL     1      44.622 131.378  16.805  1.00  0.00     0.068 A 
ATOM     16  C   UNL     1      44.172 131.312  14.411  1.00  0.00     0.056 A 
ATOM     17  C   UNL     1      45.908 130.865  16.564  1.00  0.00     0.024 A 
ATOM     18  C   UNL     1      45.459 130.813  14.174  1.00  0.00    -0.015 A 
ATOM     19  C   UNL     1      46.333 130.583  15.260  1.00  0.00    -0.017 A 
ATOM     20  C   UNL     1      45.890 130.541  12.865  1.00  0.00     0.009 A 
ATOM     21  C   UNL     1      47.622 130.077  15.021  1.00  0.00     0.009 A 
ATOM     22  C   UNL     1      47.175 130.039  12.640  1.00  0.00     0.001 A 
ATOM     23  C   UNL     1      48.038 129.808  13.714  1.00  0.00     0.001 A 
BRANCH  15  24
ATOM     24  C   UNL     1      44.187 131.653  18.195  1.00  0.00     0.252 C 
ATOM     25  O   UNL     1      43.239 132.457  18.397  1.00  0.00    -0.287 OA
BRANCH  24  26
ATOM     26  N   UNL     1      44.811 131.032  19.326  1.00  0.00    -0.017 NA
BRANCH  26  27
ATOM     27  N   UNL     1      45.445 131.677  20.162  1.00  0.00     0.009 N 
ATOM     28  N   UNL     1      46.079 132.320  20.998  1.00  0.00    -0.003 NA
ENDBRANCH  26  27
ENDBRANCH  24  26
ENDBRANCH  15  24
ENDBRANCH   1  14
TORSDOF 10
ENDMDL
MODEL 5
REMARK VINA RESULT:      -7.3      3.002      4.676
REMARK SMILES [N-]=[N+]=NC(=O)c1cc2ccccc2cc1OC(=O)[C@]1(N=[N+]=[N-])C[C@@H](CO)C1
REMARK SMILES IDX 16 1 17 2 18 3 19 4 24 5 27 6 23 7 25 8 26 9 20 11 21 12
REMARK SMILES IDX 22 13 15 14 6 15 14 16 7 17 13 18 8 19 12 20 9 21 11 22
REMARK SMILES IDX 10 23 4 24 5 25 3 26 2 27 1 28
REMARK H PARENT 26 10
ROOT
ATOM      1  O   UNL     1      43.569 133.273  15.015  1.00  0.00    -0.425 OA
ENDROOT
BRANCH   1   2
ATOM      2  C   UNL     1      42.247 133.136  14.571  1.00  0.00     0.323 C 
ATOM      3  O   UNL     1      41.906 132.150  13.864  1.00  0.00    -0.251 OA
BRANCH   2   4
ATOM      4  C   UNL     1      41.196 134.098  15.065  1.00  0.00     0.147 C 
ATOM      5  C   UNL     1      40.853 136.104  14.330  1.00  0.00     0.017 C 
ATOM      6  C   UNL     1      41.721 135.492  15.432  1.00  0.00     0.031 C 
ATOM      7  C   UNL     1      40.340 134.714  13.953  1.00  0.00     0.031 C 
BRANCH   5   8
ATOM      8  C   UNL     1      39.755 137.039  14.854  1.00  0.00     0.159 C 
BRANCH   8   9
ATOM      9  O   UNL     1      39.877 138.292  14.243  1.00  0.00    -0.396 OA
ATOM     10  H   UNL     1      38.965 138.683  14.233  1.00  0.00     0.210 HD
ENDBRANCH   8   9
ENDBRANCH   5   8
BRANCH   4  11
ATOM     11  N   UNL     1      40.369 133.514  16.119  1.00  0.00    -0.075 NA
BRANCH  11  12
ATOM     12  N   UNL     1      39.993 134.186  17.081  1.00  0.00     0.002 N 
ATOM     13  N   UNL     1      39.617 134.856  18.042  1.00  0.00    -0.003 NA
ENDBRANCH  11  12
ENDBRANCH   4  11
ENDBRANCH   2   4
ENDBRANCH   1   2
BRANCH   1  14
ATOM     14  C   UNL     1      44.101 132.682  16.173  1.00  0.00     0.142 A 
ATOM     15  C   UNL     1      44.962 131.572  16.045  1.00  0.00     0.068 A 
ATOM     16  C   UNL     1      43.744 133.141  17.456  1.00  0.00     0.056 A 
ATOM     17  C   UNL     1      45.493 130.967  17.197  1.00  0.00     0.024 A 
ATOM     18  C   UNL     1      44.263 132.527  18.602  1.00  0.00    -0.015 A 
ATOM     19  C   UNL     1      45.149 131.433  18.471  1.00  0.00    -0.017 A 
ATOM     20  C   UNL     1      43.911 132.987  19.882  1.00  0.00     0.009 A 
ATOM     21  C   UNL     1      45.675 130.823  19.622  1.00  0.00     0.009 A 
ATOM     22  C   UNL     1      44.439 132.369  21.019  1.00  0.00     0.001 A 
ATOM     23  C   UNL     1      45.318 131.291  20.890  1.00  0.00     0.001 A 
BRANCH  15  24
ATOM     24  C   UNL     1      45.352 131.073  14.704  1.00  0.00     0.252 C 
ATOM     25  O   UNL     1      44.604 130.253  14.109  1.00  0.00    -0.287 OA
BRANCH  24  26
ATOM     26  N   UNL     1      46.560 131.493  14.056  1.00  0.00    -0.017 NA
BRANCH  26  27
ATOM     27  N   UNL     1      46.934 131.009  12.987  1.00  0.00     0.009 N 
ATOM     28  N   UNL     1      47.308 130.527  11.919  1.00  0.00    -0.003 NA
ENDBRANCH  26  27
ENDBRANCH  24  26
ENDBRANCH  15  24
ENDBRANCH   1  14
TORSDOF 10
ENDMDL
MODEL 6
REMARK VINA RESULT:      -7.2      1.702      2.109
REMARK SMILES [N-]=[N+]=NC(=O)c1cc2ccccc2cc1OC(=O)[C@]1(N=[N+]=[N-])C[C@@H](CO)C1
REMARK SMILES IDX 16 1 17 2 18 3 19 4 24 5 27 6 23 7 25 8 26 9 20 11 21 12
REMARK SMILES IDX 22 13 15 14 6 15 14 16 7 17 13 18 8 19 12 20 9 21 11 22
REMARK SMILES IDX 10 23 4 24 5 25 3 26 2 27 1 28
REMARK H PARENT 26 10
ROOT
ATOM      1  O   UNL     1      42.406 132.556  15.919  1.00  0.00    -0.425 OA
ENDROOT
BRANCH   1   2
ATOM      2  C   UNL     1      41.782 133.373  14.966  1.00  0.00     0.323 C 
ATOM      3  O   UNL     1      41.180 132.866  13.981  1.00  0.00    -0.251 OA
BRANCH   2   4
ATOM      4  C   UNL     1      41.707 134.861  15.200  1.00  0.00     0.147 C 
ATOM      5  C   UNL     1      43.062 136.035  16.412  1.00  0.00     0.017 C 
ATOM      6  C   UNL     1      41.754 135.284  16.674  1.00  0.00     0.031 C 
ATOM      7  C   UNL     1      43.025 135.601  14.946  1.00  0.00     0.031 C 
BRANCH   5   8
ATOM      8  C   UNL     1      42.953 137.553  16.604  1.00  0.00     0.159 C 
BRANCH   8   9
ATOM      9  O   UNL     1      42.763 137.840  17.960  1.00  0.00    -0.396 OA
ATOM     10  H   UNL     1      43.401 138.569  18.178  1.00  0.00     0.210 HD
ENDBRANCH   8   9
ENDBRANCH   5   8
BRANCH   4  11
ATOM     11  N   UNL     1      40.597 135.475  14.475  1.00  0.00    -0.075 NA
BRANCH  11  12
ATOM     12  N   UNL     1      39.488 135.603  14.995  1.00  0.00     0.002 N 
ATOM     13  N   UNL     1      38.379 135.731  15.514  1.00  0.00    -0.003 NA
ENDBRANCH  11  12
ENDBRANCH   4  11
ENDBRANCH   2   4
ENDBRANCH   1   2
BRANCH   1  14
ATOM     14  C   UNL     1      43.653 131.930  15.758  1.00  0.00     0.142 A 
ATOM     15  C   UNL     1      44.510 131.808  16.871  1.00  0.00     0.068 A 
ATOM     16  C   UNL     1      44.084 131.477  14.496  1.00  0.00     0.056 A 
ATOM     17  C   UNL     1      45.763 131.191  16.720  1.00  0.00     0.024 A 
ATOM     18  C   UNL     1      45.339 130.875  14.345  1.00  0.00    -0.015 A 
ATOM     19  C   UNL     1      46.184 130.727  15.468  1.00  0.00    -0.017 A 
ATOM     20  C   UNL     1      45.768 130.418  13.088  1.00  0.00     0.009 A 
ATOM     21  C   UNL     1      47.441 130.117  15.317  1.00  0.00     0.009 A 
ATOM     22  C   UNL     1      47.021 129.815  12.950  1.00  0.00     0.001 A 
ATOM     23  C   UNL     1      47.855 129.665  14.060  1.00  0.00     0.001 A 
BRANCH  15  24
ATOM     24  C   UNL     1      44.076 132.277  18.210  1.00  0.00     0.252 C 
ATOM     25  O   UNL     1      44.175 133.499  18.496  1.00  0.00    -0.287 OA
BRANCH  24  26
ATOM     26  N   UNL     1      43.546 131.383  19.196  1.00  0.00    -0.017 NA
BRANCH  26  27
ATOM     27  N   UNL     1      44.014 131.306  20.332  1.00  0.00     0.009 N 
ATOM     28  N   UNL     1      44.483 131.230  21.467  1.00  0.00    -0.003 NA
ENDBRANCH  26  27
ENDBRANCH  24  26
ENDBRANCH  15  24
ENDBRANCH   1  14
TORSDOF 10
ENDMDL
MODEL 7
REMARK VINA RESULT:      -7.2      3.387      4.866
REMARK SMILES [N-]=[N+]=NC(=O)c1cc2ccccc2cc1OC(=O)[C@]1(N=[N+]=[N-])C[C@@H](CO)C1
REMARK SMILES IDX 16 1 17 2 18 3 19 4 24 5 27 6 23 7 25 8 26 9 20 11 21 12
REMARK SMILES IDX 22 13 15 14 6 15 14 16 7 17 13 18 8 19 12 20 9 21 11 22
REMARK SMILES IDX 10 23 4 24 5 25 3 26 2 27 1 28
REMARK H PARENT 26 10
ROOT
ATOM      1  O   UNL     1      43.553 133.368  14.891  1.00  0.00    -0.425 OA
ENDROOT
BRANCH   1   2
ATOM      2  C   UNL     1      42.253 133.180  14.402  1.00  0.00     0.323 C 
ATOM      3  O   UNL     1      41.924 132.091  13.857  1.00  0.00    -0.251 OA
BRANCH   2   4
ATOM      4  C   UNL     1      41.203 134.230  14.660  1.00  0.00     0.147 C 
ATOM      5  C   UNL     1      41.308 135.807  16.139  1.00  0.00     0.017 C 
ATOM      6  C   UNL     1      40.781 134.370  16.129  1.00  0.00     0.031 C 
ATOM      7  C   UNL     1      41.744 135.664  14.680  1.00  0.00     0.031 C 
BRANCH   5   8
ATOM      8  C   UNL     1      40.218 136.865  16.351  1.00  0.00     0.159 C 
BRANCH   8   9
ATOM      9  O   UNL     1      40.806 138.133  16.423  1.00  0.00    -0.396 OA
ATOM     10  H   UNL     1      41.547 138.055  17.078  1.00  0.00     0.210 HD
ENDBRANCH   8   9
ENDBRANCH   5   8
BRANCH   4  11
ATOM     11  N   UNL     1      40.061 134.099  13.758  1.00  0.00    -0.075 NA
BRANCH  11  12
ATOM     12  N   UNL     1      39.600 135.075  13.164  1.00  0.00     0.002 N 
ATOM     13  N   UNL     1      39.140 136.050  12.572  1.00  0.00    -0.003 NA
ENDBRANCH  11  12
ENDBRANCH   4  11
ENDBRANCH   2   4
ENDBRANCH   1   2
BRANCH   1  14
ATOM     14  C   UNL     1      44.086 132.752  16.034  1.00  0.00     0.142 A 
ATOM     15  C   UNL     1      45.006 131.693  15.879  1.00  0.00     0.068 A 
ATOM     16  C   UNL     1      43.675 133.132  17.327  1.00  0.00     0.056 A 
ATOM     17  C   UNL     1      45.539 131.063  17.016  1.00  0.00     0.024 A 
ATOM     18  C   UNL     1      44.198 132.492  18.458  1.00  0.00    -0.015 A 
ATOM     19  C   UNL     1      45.142 131.451  18.301  1.00  0.00    -0.017 A 
ATOM     20  C   UNL     1      43.793 132.873  19.747  1.00  0.00     0.009 A 
ATOM     21  C   UNL     1      45.670 130.815  19.436  1.00  0.00     0.009 A 
ATOM     22  C   UNL     1      44.324 132.231  20.869  1.00  0.00     0.001 A 
ATOM     23  C   UNL     1      45.260 131.206  20.714  1.00  0.00     0.001 A 
BRANCH  15  24
ATOM     24  C   UNL     1      45.453 131.277  14.527  1.00  0.00     0.252 C 
ATOM     25  O   UNL     1      44.661 130.639  13.785  1.00  0.00    -0.287 OA
BRANCH  24  26
ATOM     26  N   UNL     1      46.764 131.577  14.033  1.00  0.00    -0.017 NA
BRANCH  26  27
ATOM     27  N   UNL     1      47.573 130.695  13.740  1.00  0.00     0.009 N 
ATOM     28  N   UNL     1      48.381 129.814  13.449  1.00  0.00    -0.003 NA
ENDBRANCH  26  27
ENDBRANCH  24  26
ENDBRANCH  15  24
ENDBRANCH   1  14
TORSDOF 10
ENDMDL
MODEL 8
REMARK VINA RESULT:      -7.2      1.762      2.117
REMARK SMILES [N-]=[N+]=NC(=O)c1cc2ccccc2cc1OC(=O)[C@]1(N=[N+]=[N-])C[C@@H](CO)C1
REMARK SMILES IDX 16 1 17 2 18 3 19 4 24 5 27 6 23 7 25 8 26 9 20 11 21 12
REMARK SMILES IDX 22 13 15 14 6 15 14 16 7 17 13 18 8 19 12 20 9 21 11 22
REMARK SMILES IDX 10 23 4 24 5 25 3 26 2 27 1 28
REMARK H PARENT 26 10
ROOT
ATOM      1  O   UNL     1      42.552 132.642  15.548  1.00  0.00    -0.425 OA
ENDROOT
BRANCH   1   2
ATOM      2  C   UNL     1      42.378 133.999  15.246  1.00  0.00     0.323 C 
ATOM      3  O   UNL     1      43.359 134.709  14.895  1.00  0.00    -0.251 OA
BRANCH   2   4
ATOM      4  C   UNL     1      40.986 134.576  15.200  1.00  0.00     0.147 C 
ATOM      5  C   UNL     1      39.960 135.299  13.437  1.00  0.00     0.017 C 
ATOM      6  C   UNL     1      40.875 135.931  14.488  1.00  0.00     0.031 C 
ATOM      7  C   UNL     1      40.081 133.945  14.137  1.00  0.00     0.031 C 
BRANCH   5   8
ATOM      8  C   UNL     1      38.533 135.863  13.440  1.00  0.00     0.159 C 
BRANCH   8   9
ATOM      9  O   UNL     1      38.317 136.593  12.266  1.00  0.00    -0.396 OA
ATOM     10  H   UNL     1      38.917 137.382  12.319  1.00  0.00     0.210 HD
ENDBRANCH   8   9
ENDBRANCH   5   8
BRANCH   4  11
ATOM     11  N   UNL     1      40.349 134.580  16.515  1.00  0.00    -0.075 NA
BRANCH  11  12
ATOM     12  N   UNL     1      40.619 135.442  17.353  1.00  0.00     0.002 N 
ATOM     13  N   UNL     1      40.890 136.302  18.190  1.00  0.00    -0.003 NA
ENDBRANCH  11  12
ENDBRANCH   4  11
ENDBRANCH   2   4
ENDBRANCH   1   2
BRANCH   1  14
ATOM     14  C   UNL     1      43.768 131.944  15.473  1.00  0.00     0.142 A 
ATOM     15  C   UNL     1      44.484 131.679  16.659  1.00  0.00     0.068 A 
ATOM     16  C   UNL     1      44.312 131.558  14.232  1.00  0.00     0.056 A 
ATOM     17  C   UNL     1      45.706 130.990  16.595  1.00  0.00     0.024 A 
ATOM     18  C   UNL     1      45.538 130.884  14.170  1.00  0.00    -0.015 A 
ATOM     19  C   UNL     1      46.239 130.592  15.363  1.00  0.00    -0.017 A 
ATOM     20  C   UNL     1      46.079 130.494  12.934  1.00  0.00     0.009 A 
ATOM     21  C   UNL     1      47.465 129.910  15.300  1.00  0.00     0.009 A 
ATOM     22  C   UNL     1      47.301 129.817  12.884  1.00  0.00     0.001 A 
ATOM     23  C   UNL     1      47.991 129.526  14.063  1.00  0.00     0.001 A 
BRANCH  15  24
ATOM     24  C   UNL     1      43.929 132.076  17.977  1.00  0.00     0.252 C 
ATOM     25  O   UNL     1      42.877 131.525  18.394  1.00  0.00    -0.287 OA
BRANCH  24  26
ATOM     26  N   UNL     1      44.553 133.072  18.797  1.00  0.00    -0.017 NA
BRANCH  26  27
ATOM     27  N   UNL     1      44.519 133.025  20.027  1.00  0.00     0.009 N 
ATOM     28  N   UNL     1      44.483 132.979  21.256  1.00  0.00    -0.003 NA
ENDBRANCH  26  27
ENDBRANCH  24  26
ENDBRANCH  15  24
ENDBRANCH   1  14
TORSDOF 10
ENDMDL
MODEL 9
REMARK VINA RESULT:      -7.1      2.696      3.410
REMARK SMILES [N-]=[N+]=NC(=O)c1cc2ccccc2cc1OC(=O)[C@]1(N=[N+]=[N-])C[C@@H](CO)C1
REMARK SMILES IDX 16 1 17 2 18 3 19 4 24 5 27 6 23 7 25 8 26 9 20 11 21 12
REMARK SMILES IDX 22 13 15 14 6 15 14 16 7 17 13 18 8 19 12 20 9 21 11 22
REMARK SMILES IDX 10 23 4 24 5 25 3 26 2 27 1 28
REMARK H PARENT 26 10
ROOT
ATOM      1  O   UNL     1      42.689 133.289  16.694  1.00  0.00    -0.425 OA
ENDROOT
BRANCH   1   2
ATOM      2  C   UNL     1      41.404 132.868  17.061  1.00  0.00     0.323 C 
ATOM      3  O   UNL     1      41.200 131.682  17.438  1.00  0.00    -0.251 OA
BRANCH   2   4
ATOM      4  C   UNL     1      40.287 133.878  17.142  1.00  0.00     0.147 C 
ATOM      5  C   UNL     1      39.119 134.353  18.900  1.00  0.00     0.017 C 
ATOM      6  C   UNL     1      38.984 133.348  17.754  1.00  0.00     0.031 C 
ATOM      7  C   UNL     1      40.426 134.872  18.299  1.00  0.00     0.031 C 
BRANCH   5   8
ATOM      8  C   UNL     1      38.002 135.405  18.935  1.00  0.00     0.159 C 
BRANCH   8   9
ATOM      9  O   UNL     1      37.516 135.525  20.242  1.00  0.00    -0.396 OA
ATOM     10  H   UNL     1      37.342 134.600  20.557  1.00  0.00     0.210 HD
ENDBRANCH   8   9
ENDBRANCH   5   8
BRANCH   4  11
ATOM     11  N   UNL     1      40.071 134.561  15.868  1.00  0.00    -0.075 NA
BRANCH  11  12
ATOM     12  N   UNL     1      39.571 133.975  14.906  1.00  0.00     0.002 N 
ATOM     13  N   UNL     1      39.071 133.391  13.946  1.00  0.00    -0.003 NA
ENDBRANCH  11  12
ENDBRANCH   4  11
ENDBRANCH   2   4
ENDBRANCH   1   2
BRANCH   1  14
ATOM     14  C   UNL     1      43.765 132.438  16.392  1.00  0.00     0.142 A 
ATOM     15  C   UNL     1      44.624 132.020  17.430  1.00  0.00     0.068 A 
ATOM     16  C   UNL     1      44.034 132.045  15.066  1.00  0.00     0.056 A 
ATOM     17  C   UNL     1      45.709 131.177  17.137  1.00  0.00     0.024 A 
ATOM     18  C   UNL     1      45.124 131.216  14.776  1.00  0.00    -0.015 A 
ATOM     19  C   UNL     1      45.966 130.774  15.821  1.00  0.00    -0.017 A 
ATOM     20  C   UNL     1      45.390 130.819  13.455  1.00  0.00     0.009 A 
ATOM     21  C   UNL     1      47.056 129.936  15.529  1.00  0.00     0.009 A 
ATOM     22  C   UNL     1      46.478 129.988  13.177  1.00  0.00     0.001 A 
ATOM     23  C   UNL     1      47.308 129.547  14.211  1.00  0.00     0.001 A 
BRANCH  15  24
ATOM     24  C   UNL     1      44.359 132.421  18.833  1.00  0.00     0.252 C 
ATOM     25  O   UNL     1      44.447 133.635  19.154  1.00  0.00    -0.287 OA
BRANCH  24  26
ATOM     26  N   UNL     1      44.006 131.469  19.844  1.00  0.00    -0.017 NA
BRANCH  26  27
ATOM     27  N   UNL     1      44.530 131.470  20.959  1.00  0.00     0.009 N 
ATOM     28  N   UNL     1      45.053 131.471  22.072  1.00  0.00    -0.003 NA
ENDBRANCH  26  27
ENDBRANCH  24  26
ENDBRANCH  15  24
ENDBRANCH   1  14
TORSDOF 10
ENDMDL


