REMARK SMILES C=CC[C@](C)(CC)Oc1cc2nc(Cn3nnc(C)c3-c3nnc([C@@H]4C[C@@H]4C)o3)[n-]c2cc1C#N
REMARK SMILES IDX 9 1 10 2 11 3 12 4 13 5 30 6 31 7 32 8 33 9 8 10 4 11 5 12
REMARK SMILES IDX 3 13 2 14 1 15 6 16 7 17 34 18 35 19 14 20 15 21 16 22 20 23
REMARK SMILES IDX 17 24 18 25 19 26 21 27 22 28 29 29 23 30 24 31 25 32 26 33
REMARK SMILES IDX 27 34 28 35
REMARK H PARENT
ROOT
ATOM      1  C   UNL     1       0.639  -0.931   2.464  1.00  0.00     0.138 A 
ATOM      2  C   UNL     1       0.015  -0.553   1.254  1.00  0.00     0.051 A 
ATOM      3  C   UNL     1      -0.802  -1.485   0.622  1.00  0.00    -0.035 A 
ATOM      4  N   UNL     1      -1.482  -1.335  -0.522  1.00  0.00    -0.438 NA
ATOM      5  C   UNL     1      -2.105  -2.534  -0.654  1.00  0.00    -0.060 A 
ATOM      6  N   UNL     1      -1.841  -3.421   0.342  1.00  0.00    -0.438 NA
ATOM      7  C   UNL     1      -1.017  -2.724   1.137  1.00  0.00    -0.037 A 
ATOM      8  C   UNL     1      -0.438  -3.135   2.333  1.00  0.00     0.027 A 
ATOM      9  C   UNL     1       0.397  -2.221   3.007  1.00  0.00     0.094 A 
ENDROOT
BRANCH   1  10
ATOM     10  O   UNL     1       1.476  -0.046   3.164  1.00  0.00    -0.486 OA
BRANCH  10  11
ATOM     11  C   UNL     1       2.700   0.531   2.673  1.00  0.00     0.109 C 
ATOM     12  C   UNL     1       3.467   1.034   3.912  1.00  0.00     0.057 C 
BRANCH  11  13
ATOM     13  C   UNL     1       2.413   1.729   1.724  1.00  0.00     0.075 C 
BRANCH  13  14
ATOM     14  C   UNL     1       1.310   2.631   2.218  1.00  0.00    -0.031 C 
ATOM     15  C   UNL     1       0.898   3.668   1.483  1.00  0.00     0.004 C 
ENDBRANCH  13  14
ENDBRANCH  11  13
BRANCH  11  16
ATOM     16  C   UNL     1       3.530  -0.571   1.942  1.00  0.00     0.045 C 
ATOM     17  C   UNL     1       4.923  -0.137   1.475  1.00  0.00     0.008 C 
ENDBRANCH  11  16
ENDBRANCH  10  11
ENDBRANCH   1  10
BRANCH   9  18
ATOM     18  C   UNL     1       1.018  -2.616   4.246  1.00  0.00     0.103 C 
ATOM     19  N   UNL     1       1.518  -2.932   5.241  1.00  0.00    -0.192 NA
ENDBRANCH   9  18
BRANCH   5  20
ATOM     20  C   UNL     1      -2.967  -2.873  -1.828  1.00  0.00     0.173 C 
BRANCH  20  21
ATOM     21  N   UNL     1      -2.139  -3.067  -3.017  1.00  0.00    -0.236 N 
ATOM     22  N   UNL     1      -1.627  -4.242  -3.352  1.00  0.00    -0.066 NA
ATOM     23  C   UNL     1      -1.694  -2.150  -3.906  1.00  0.00     0.149 A 
ATOM     24  N   UNL     1      -0.873  -4.135  -4.436  1.00  0.00    -0.135 NA
ATOM     25  C   UNL     1      -0.901  -2.839  -4.805  1.00  0.00     0.093 A 
ATOM     26  C   UNL     1      -0.149  -2.285  -5.972  1.00  0.00     0.071 C 
BRANCH  23  27
ATOM     27  C   UNL     1      -1.974  -0.698  -3.912  1.00  0.00     0.267 A 
ATOM     28  N   UNL     1      -2.653  -0.034  -2.956  1.00  0.00    -0.106 NA
ATOM     29  O   UNL     1      -1.578   0.119  -4.858  1.00  0.00    -0.419 OA
ATOM     30  N   UNL     1      -2.673   1.238  -3.322  1.00  0.00    -0.112 NA
ATOM     31  C   UNL     1      -2.006   1.302  -4.489  1.00  0.00     0.220 A 
BRANCH  31  32
ATOM     32  C   UNL     1      -1.797   2.571  -5.263  1.00  0.00     0.081 C 
ATOM     33  C   UNL     1      -0.594   2.565  -6.204  1.00  0.00     0.017 C 
ATOM     34  C   UNL     1      -0.557   3.404  -4.930  1.00  0.00    -0.001 C 
ATOM     35  C   UNL     1       0.396   2.893  -3.840  1.00  0.00     0.008 C 
ENDBRANCH  31  32
ENDBRANCH  23  27
ENDBRANCH  20  21
ENDBRANCH   5  20
TORSDOF 10


