REMARK SMILES CC/C=C(\O)N(C)C(=O)C1(C)CC1
REMARK SMILES IDX 4 1 5 2 3 4 2 5 1 6 6 7 7 8 8 9 9 10 10 11 12 12 13 13 11 14
REMARK H PARENT 5 3
ROOT
ATOM      1  C   UNL     1       0.950  -0.735  -1.384  1.00  0.00     0.189 C 
ENDROOT
BRANCH   1   2
ATOM      2  O   UNL     1       2.046  -0.079  -1.947  1.00  0.00    -0.495 OA
ATOM      3  H   UNL     1       2.510   0.684  -1.470  1.00  0.00     0.295 HD
ENDBRANCH   1   2
BRANCH   1   4
ATOM      4  C   UNL     1       0.329  -1.704  -2.073  1.00  0.00     0.039 C 
BRANCH   4   5
ATOM      5  C   UNL     1       0.748  -2.114  -3.457  1.00  0.00     0.029 C 
ATOM      6  C   UNL     1       0.306  -1.086  -4.495  1.00  0.00     0.008 C 
ENDBRANCH   4   5
ENDBRANCH   1   4
BRANCH   1   7
ATOM      7  N   UNL     1       0.504  -0.385  -0.058  1.00  0.00    -0.286 N 
ATOM      8  C   UNL     1       1.507  -0.073   0.964  1.00  0.00     0.156 C 
BRANCH   7   9
ATOM      9  C   UNL     1      -0.897  -0.134   0.192  1.00  0.00     0.234 C 
ATOM     10  O   UNL     1      -1.668   0.131  -0.771  1.00  0.00    -0.274 OA
BRANCH   9  11
ATOM     11  C   UNL     1      -1.466  -0.144   1.584  1.00  0.00     0.047 C 
ATOM     12  C   UNL     1      -2.684  -1.042   1.774  1.00  0.00     0.018 C 
ATOM     13  C   UNL     1      -1.339  -1.447   2.363  1.00  0.00     0.018 C 
ATOM     14  C   UNL     1      -1.477   1.161   2.383  1.00  0.00     0.022 C 
ENDBRANCH   9  11
ENDBRANCH   7   9
ENDBRANCH   1   7
TORSDOF 6


