REMARK SMILES C#CCO/C(O)=C\[C@H]1CC[C@@H]2C(OC(=O)[C@H](C)C(F)(F)F)=Nc3c(N=[N+]=[N-])cc(Cl)c1c32
REMARK SMILES IDX 8 1 31 2 29 3 30 4 28 5 24 6 23 7 32 8 11 9 12 10 22 11
REMARK SMILES IDX 10 12 9 13 7 14 5 15 4 16 3 17 2 18 1 19 6 20 25 22 26 23
REMARK SMILES IDX 27 24 13 25 14 26 15 27 16 28 17 29 18 30 19 31 20 32 21 33
REMARK H PARENT 6 21
ROOT
ATOM      1  C   UNL     1      -2.465  -0.911   2.494  1.00  0.00     0.051 C 
ATOM      2  C   UNL     1      -2.717   0.069   1.351  1.00  0.00    -0.016 A 
ATOM      3  C   UNL     1      -3.941   0.764   1.184  1.00  0.00     0.045 A 
ATOM      4  Cl  UNL     1      -5.371   0.344   2.118  1.00  0.00    -0.084 Cl
ATOM      5  C   UNL     1      -4.010   1.871   0.308  1.00  0.00     0.033 A 
ATOM      6  C   UNL     1      -2.851   2.336  -0.356  1.00  0.00     0.065 A 
ATOM      7  C   UNL     1      -1.674   1.605  -0.196  1.00  0.00     0.081 A 
ATOM      8  C   UNL     1      -1.645   0.461   0.551  1.00  0.00    -0.004 A 
ATOM      9  C   UNL     1      -0.246   0.028   0.715  1.00  0.00     0.109 C 
ATOM     10  C   UNL     1       0.451   1.192   0.062  1.00  0.00     0.206 C 
ATOM     11  N   UNL     1      -0.359   2.052  -0.486  1.00  0.00    -0.216 NA
ATOM     12  C   UNL     1       0.023  -0.174   2.206  1.00  0.00     0.019 C 
ATOM     13  C   UNL     1      -0.953  -1.249   2.736  1.00  0.00     0.014 C 
ENDROOT
BRANCH   1  14
ATOM     14  C   UNL     1      -3.278  -2.175   2.324  1.00  0.00     0.069 C 
BRANCH  14  15
ATOM     15  C   UNL     1      -3.211  -2.958   1.242  1.00  0.00     0.273 C 
BRANCH  15  16
ATOM     16  O   UNL     1      -2.356  -2.620   0.186  1.00  0.00    -0.453 OA
BRANCH  16  17
ATOM     17  C   UNL     1      -2.251  -3.365  -1.020  1.00  0.00     0.322 C 
BRANCH  17  18
ATOM     18  C   UNL     1      -1.321  -2.683  -1.920  1.00  0.00    -0.065 C 
ATOM     19  C   UNL     1      -0.556  -2.114  -2.659  1.00  0.00     0.007 C 
ENDBRANCH  17  18
ENDBRANCH  16  17
ENDBRANCH  15  16
BRANCH  15  20
ATOM     20  O   UNL     1      -4.010  -4.102   1.192  1.00  0.00    -0.481 OA
ATOM     21  H   UNL     1      -3.997  -4.738   0.406  1.00  0.00     0.296 HD
ENDBRANCH  15  20
ENDBRANCH  14  15
ENDBRANCH   1  14
BRANCH   6  22
ATOM     22  N   UNL     1      -2.840   3.543  -1.130  1.00  0.00    -0.058 NA
BRANCH  22  23
ATOM     23  N   UNL     1      -3.846   4.239  -1.273  1.00  0.00     0.005 N 
ATOM     24  N   UNL     1      -4.850   4.935  -1.416  1.00  0.00    -0.003 NA
ENDBRANCH  22  23
ENDBRANCH   6  22
BRANCH  10  25
ATOM     25  O   UNL     1       1.847   1.301   0.010  1.00  0.00    -0.410 OA
BRANCH  25  26
ATOM     26  C   UNL     1       2.550   2.353  -0.592  1.00  0.00     0.324 C 
ATOM     27  O   UNL     1       1.942   3.315  -1.138  1.00  0.00    -0.251 OA
BRANCH  26  28
ATOM     28  C   UNL     1       4.055   2.319  -0.589  1.00  0.00     0.201 C 
ATOM     29  C   UNL     1       4.619   3.576   0.084  1.00  0.00     0.030 C 
BRANCH  28  30
ATOM     30  C   UNL     1       4.604   2.140  -2.015  1.00  0.00     0.401 C 
ATOM     31  F   UNL     1       5.981   2.013  -1.978  1.00  0.00    -0.170 F 
ATOM     32  F   UNL     1       4.276   3.227  -2.808  1.00  0.00    -0.170 F 
ATOM     33  F   UNL     1       4.074   0.995  -2.583  1.00  0.00    -0.170 F 
ENDBRANCH  28  30
ENDBRANCH  26  28
ENDBRANCH  25  26
ENDBRANCH  10  25
TORSDOF 12


