REMARK SMILES C#C[C@](O)(c1cc(N)cc(SC(C)(C)CNC[C@](C)(O)C=C)ccc2cc1CC2)C(C)(C)C
REMARK SMILES IDX 12 1 13 2 14 3 11 4 10 5 5 6 6 7 27 8 7 9 26 10 28 11 9 12
REMARK SMILES IDX 25 13 29 14 24 15 23 16 3 17 2 18 1 19 4 20 30 22 31 23
REMARK SMILES IDX 32 24 33 25 8 26 15 29 16 30 17 32 18 33 19 34 20 35 21 37
REMARK SMILES IDX 22 38
REMARK H PARENT 4 21 8 27 8 28 16 31 20 36
ROOT
ATOM      1  C   UNL     1      -1.939   3.445   1.303  1.00  0.00     0.027 C 
ATOM      2  C   UNL     1      -3.230   4.060   1.876  1.00  0.00     0.024 C 
ATOM      3  C   UNL     1      -0.925   4.581   1.069  1.00  0.00     0.024 C 
ENDROOT
BRANCH   1   4
ATOM      4  S   UNL     1      -2.388   2.629  -0.297  1.00  0.00    -0.118 SA
BRANCH   4   5
ATOM      5  C   UNL     1      -0.744   2.201  -0.899  1.00  0.00     0.010 A 
ATOM      6  C   UNL     1       1.233  -1.452  -1.767  1.00  0.00     0.002 A 
ATOM      7  C   UNL     1       1.587  -0.660  -0.635  1.00  0.00     0.033 A 
ATOM      8  C   UNL     1       1.117  -0.798  -3.022  1.00  0.00    -0.040 A 
ATOM      9  C   UNL     1       1.172   0.668  -0.450  1.00  0.00     0.033 A 
ATOM     10  C   UNL     1       0.240   0.254  -3.170  1.00  0.00     0.007 A 
ATOM     11  C   UNL     1       2.378  -0.454  -3.767  1.00  0.00     0.041 C 
ATOM     12  C   UNL     1      -0.198   0.976  -0.483  1.00  0.00     0.040 A 
ATOM     13  C   UNL     1       0.951   1.401  -3.444  1.00  0.00    -0.047 A 
ATOM     14  C   UNL     1       2.282   1.054  -4.011  1.00  0.00     0.040 C 
ATOM     15  C   UNL     1       0.667   2.689  -2.957  1.00  0.00     0.005 A 
ATOM     16  C   UNL     1      -0.205   3.035  -1.903  1.00  0.00     0.015 A 
BRANCH   6  17
ATOM     17  C   UNL     1       1.549  -2.961  -1.769  1.00  0.00     0.155 C 
BRANCH  17  18
ATOM     18  C   UNL     1       3.001  -3.131  -1.565  1.00  0.00    -0.066 C 
ATOM     19  C   UNL     1       4.188  -3.266  -1.399  1.00  0.00     0.007 C 
ENDBRANCH  17  18
BRANCH  17  20
ATOM     20  O   UNL     1       1.284  -3.502  -3.047  1.00  0.00    -0.373 OA
ATOM     21  H   UNL     1       0.337  -3.322  -3.278  1.00  0.00     0.213 HD
ENDBRANCH  17  20
BRANCH  17  22
ATOM     22  C   UNL     1       0.729  -3.778  -0.673  1.00  0.00     0.006 C 
ATOM     23  C   UNL     1      -0.784  -3.459  -0.759  1.00  0.00     0.015 C 
ATOM     24  C   UNL     1       0.909  -5.300  -0.902  1.00  0.00     0.015 C 
ATOM     25  C   UNL     1       1.186  -3.477   0.780  1.00  0.00     0.015 C 
ENDBRANCH  17  22
ENDBRANCH   6  17
BRANCH   9  26
ATOM     26  N   UNL     1       2.120   1.647  -0.015  1.00  0.00    -0.399 N 
ATOM     27  H   UNL     1       1.831   2.632   0.180  1.00  0.00     0.156 HD
ATOM     28  H   UNL     1       3.119   1.391   0.140  1.00  0.00     0.156 HD
ENDBRANCH   9  26
ENDBRANCH   4   5
ENDBRANCH   1   4
BRANCH   1  29
ATOM     29  C   UNL     1      -1.359   2.423   2.314  1.00  0.00     0.098 C 
BRANCH  29  30
ATOM     30  N   UNL     1      -2.301   1.310   2.538  1.00  0.00    -0.312 NA
ATOM     31  H   UNL     1      -2.253   0.639   1.743  1.00  0.00     0.122 HD
BRANCH  30  32
ATOM     32  C   UNL     1      -2.107   0.620   3.828  1.00  0.00     0.120 C 
BRANCH  32  33
ATOM     33  C   UNL     1      -1.045  -0.527   3.820  1.00  0.00     0.092 C 
ATOM     34  C   UNL     1      -1.411  -1.639   2.809  1.00  0.00     0.048 C 
BRANCH  33  35
ATOM     35  O   UNL     1      -0.992  -1.101   5.108  1.00  0.00    -0.385 OA
ATOM     36  H   UNL     1      -1.882  -1.498   5.306  1.00  0.00     0.211 HD
ENDBRANCH  33  35
BRANCH  33  37
ATOM     37  C   UNL     1       0.342   0.008   3.500  1.00  0.00     0.001 C 
ATOM     38  C   UNL     1       0.991   0.843   4.322  1.00  0.00     0.007 C 
ENDBRANCH  33  37
ENDBRANCH  32  33
ENDBRANCH  30  32
ENDBRANCH  29  30
ENDBRANCH   1  29
TORSDOF 13


