MODEL 1
REMARK VINA RESULT:      -6.4      0.000      0.000
REMARK SMILES Cc1n[nH+]n(/C=C(/O)Nc2cccc(C#N)c2C)c1-c1cc2ccccc2c2ccccc12
REMARK SMILES IDX 7 1 8 2 6 4 5 5 19 6 4 7 2 8 3 9 1 11 20 12 21 13 33 14
REMARK SMILES IDX 22 15 32 16 28 17 23 18 27 19 31 20 29 21 24 22 26 23 30 24
REMARK SMILES IDX 25 25 9 26 10 28 11 29 17 30 12 31 14 32 13 33 18 34 15 35
REMARK SMILES IDX 16 36
REMARK H PARENT 8 3 4 10 9 27
ROOT
ATOM      1  C   UNL     1      43.734 132.125  14.909  1.00  0.00     0.211 C 
ENDROOT
BRANCH   1   2
ATOM      2  O   UNL     1      44.061 131.045  14.086  1.00  0.00    -0.493 OA
ATOM      3  H   UNL     1      43.364 130.383  13.763  1.00  0.00     0.295 HD
ENDBRANCH   1   2
BRANCH   1   4
ATOM      4  C   UNL     1      44.596 132.514  15.862  1.00  0.00     0.225 C 
BRANCH   4   5
ATOM      5  N   UNL     1      44.611 131.973  17.195  1.00  0.00    -0.098 N 
ATOM      6  C   UNL     1      43.847 132.290  18.267  1.00  0.00     0.142 A 
ATOM      7  N   UNL     1      45.514 131.095  17.605  1.00  0.00    -0.012 N 
ATOM      8  C   UNL     1      44.321 131.535  19.325  1.00  0.00     0.137 A 
ATOM      9  N   UNL     1      45.359 130.795  18.886  1.00  0.00     0.020 NA
ATOM     10  H   UNL     1      46.256 130.681  16.999  1.00  0.00     0.527 HD
ATOM     11  C   UNL     1      43.794 131.499  20.723  1.00  0.00     0.076 C 
BRANCH   6  12
ATOM     12  C   UNL     1      42.736 133.272  18.312  1.00  0.00     0.015 A 
ATOM     13  C   UNL     1      41.442 132.788  18.114  1.00  0.00     0.020 A 
ATOM     14  C   UNL     1      42.945 134.656  18.512  1.00  0.00    -0.008 A 
ATOM     15  C   UNL     1      40.351 133.654  18.034  1.00  0.00    -0.017 A 
ATOM     16  C   UNL     1      44.233 135.156  18.805  1.00  0.00     0.009 A 
ATOM     17  C   UNL     1      41.842 135.563  18.440  1.00  0.00    -0.010 A 
ATOM     18  C   UNL     1      39.077 133.125  17.767  1.00  0.00     0.009 A 
ATOM     19  C   UNL     1      40.531 135.055  18.183  1.00  0.00    -0.010 A 
ATOM     20  C   UNL     1      44.449 136.519  18.979  1.00  0.00     0.001 A 
ATOM     21  C   UNL     1      42.100 136.945  18.622  1.00  0.00     0.009 A 
ATOM     22  C   UNL     1      37.976 133.965  17.641  1.00  0.00     0.001 A 
ATOM     23  C   UNL     1      39.388 135.885  18.054  1.00  0.00     0.009 A 
ATOM     24  C   UNL     1      43.388 137.410  18.880  1.00  0.00     0.001 A 
ATOM     25  C   UNL     1      38.131 135.341  17.784  1.00  0.00     0.001 A 
ENDBRANCH   6  12
ENDBRANCH   4   5
ENDBRANCH   1   4
BRANCH   1  26
ATOM     26  N   UNL     1      42.459 132.764  14.745  1.00  0.00    -0.325 N 
ATOM     27  H   UNL     1      41.618 132.148  14.678  1.00  0.00     0.170 HD
BRANCH  26  28
ATOM     28  C   UNL     1      42.285 134.198  14.729  1.00  0.00     0.045 A 
ATOM     29  C   UNL     1      43.376 135.042  15.010  1.00  0.00     0.026 A 
ATOM     30  C   UNL     1      40.997 134.769  14.539  1.00  0.00    -0.010 A 
ATOM     31  C   UNL     1      43.204 136.421  15.112  1.00  0.00     0.004 A 
ATOM     32  C   UNL     1      40.835 136.170  14.685  1.00  0.00     0.057 A 
ATOM     33  C   UNL     1      41.941 136.982  14.959  1.00  0.00     0.020 A 
ATOM     34  C   UNL     1      39.811 133.880  14.240  1.00  0.00     0.048 C 
BRANCH  32  35
ATOM     35  C   UNL     1      39.541 136.803  14.587  1.00  0.00     0.099 C 
ATOM     36  N   UNL     1      38.504 137.312  14.508  1.00  0.00    -0.192 NA
ENDBRANCH  32  35
ENDBRANCH  26  28
ENDBRANCH   1  26
TORSDOF 7
ENDMDL
MODEL 2
REMARK VINA RESULT:      -5.8      3.474      7.432
REMARK SMILES Cc1n[nH+]n(/C=C(/O)Nc2cccc(C#N)c2C)c1-c1cc2ccccc2c2ccccc12
REMARK SMILES IDX 7 1 8 2 6 4 5 5 19 6 4 7 2 8 3 9 1 11 20 12 21 13 33 14
REMARK SMILES IDX 22 15 32 16 28 17 23 18 27 19 31 20 29 21 24 22 26 23 30 24
REMARK SMILES IDX 25 25 9 26 10 28 11 29 17 30 12 31 14 32 13 33 18 34 15 35
REMARK SMILES IDX 16 36
REMARK H PARENT 8 3 4 10 9 27
ROOT
ATOM      1  C   UNL     1      43.642 136.859  18.866  1.00  0.00     0.211 C 
ENDROOT
BRANCH   1   2
ATOM      2  O   UNL     1      42.857 137.925  18.423  1.00  0.00    -0.493 OA
ATOM      3  H   UNL     1      42.020 137.784  17.869  1.00  0.00     0.295 HD
ENDBRANCH   1   2
BRANCH   1   4
ATOM      4  C   UNL     1      43.898 135.836  18.034  1.00  0.00     0.225 C 
BRANCH   4   5
ATOM      5  N   UNL     1      42.943 135.311  17.095  1.00  0.00    -0.098 N 
ATOM      6  C   UNL     1      42.976 134.163  16.377  1.00  0.00     0.142 A 
ATOM      7  N   UNL     1      41.871 135.985  16.705  1.00  0.00    -0.012 N 
ATOM      8  C   UNL     1      41.855 134.175  15.566  1.00  0.00     0.137 A 
ATOM      9  N   UNL     1      41.181 135.320  15.791  1.00  0.00     0.020 NA
ATOM     10  H   UNL     1      41.596 136.922  17.073  1.00  0.00     0.527 HD
ATOM     11  C   UNL     1      41.419 133.117  14.605  1.00  0.00     0.076 C 
BRANCH   6  12
ATOM     12  C   UNL     1      44.018 133.109  16.427  1.00  0.00     0.015 A 
ATOM     13  C   UNL     1      44.675 132.796  15.237  1.00  0.00     0.020 A 
ATOM     14  C   UNL     1      44.336 132.403  17.611  1.00  0.00    -0.008 A 
ATOM     15  C   UNL     1      45.590 131.745  15.170  1.00  0.00    -0.017 A 
ATOM     16  C   UNL     1      43.751 132.764  18.845  1.00  0.00     0.009 A 
ATOM     17  C   UNL     1      45.276 131.326  17.571  1.00  0.00    -0.010 A 
ATOM     18  C   UNL     1      46.176 131.426  13.933  1.00  0.00     0.009 A 
ATOM     19  C   UNL     1      45.899 130.985  16.329  1.00  0.00    -0.010 A 
ATOM     20  C   UNL     1      44.043 132.058  20.008  1.00  0.00     0.001 A 
ATOM     21  C   UNL     1      45.547 130.629  18.774  1.00  0.00     0.009 A 
ATOM     22  C   UNL     1      47.062 130.359  13.826  1.00  0.00     0.001 A 
ATOM     23  C   UNL     1      46.810 129.907  16.189  1.00  0.00     0.009 A 
ATOM     24  C   UNL     1      44.930 130.991  19.971  1.00  0.00     0.001 A 
ATOM     25  C   UNL     1      47.377 129.602  14.950  1.00  0.00     0.001 A 
ENDBRANCH   6  12
ENDBRANCH   4   5
ENDBRANCH   1   4
BRANCH   1  26
ATOM     26  N   UNL     1      44.118 136.861  20.221  1.00  0.00    -0.325 N 
ATOM     27  H   UNL     1      43.457 137.185  20.962  1.00  0.00     0.170 HD
BRANCH  26  28
ATOM     28  C   UNL     1      45.428 136.386  20.603  1.00  0.00     0.045 A 
ATOM     29  C   UNL     1      45.573 135.108  21.176  1.00  0.00     0.026 A 
ATOM     30  C   UNL     1      46.563 137.235  20.508  1.00  0.00    -0.010 A 
ATOM     31  C   UNL     1      46.808 134.677  21.656  1.00  0.00     0.004 A 
ATOM     32  C   UNL     1      47.802 136.794  21.037  1.00  0.00     0.057 A 
ATOM     33  C   UNL     1      47.914 135.517  21.595  1.00  0.00     0.020 A 
ATOM     34  C   UNL     1      46.428 138.614  19.900  1.00  0.00     0.048 C 
BRANCH  32  35
ATOM     35  C   UNL     1      48.973 137.641  21.047  1.00  0.00     0.099 C 
ATOM     36  N   UNL     1      49.909 138.321  21.056  1.00  0.00    -0.192 NA
ENDBRANCH  32  35
ENDBRANCH  26  28
ENDBRANCH   1  26
TORSDOF 7
ENDMDL
MODEL 3
REMARK VINA RESULT:      -5.7      1.900      4.569
REMARK SMILES Cc1n[nH+]n(/C=C(/O)Nc2cccc(C#N)c2C)c1-c1cc2ccccc2c2ccccc12
REMARK SMILES IDX 7 1 8 2 6 4 5 5 19 6 4 7 2 8 3 9 1 11 20 12 21 13 33 14
REMARK SMILES IDX 22 15 32 16 28 17 23 18 27 19 31 20 29 21 24 22 26 23 30 24
REMARK SMILES IDX 25 25 9 26 10 28 11 29 17 30 12 31 14 32 13 33 18 34 15 35
REMARK SMILES IDX 16 36
REMARK H PARENT 8 3 4 10 9 27
ROOT
ATOM      1  C   UNL     1      42.240 132.129  19.223  1.00  0.00     0.211 C 
ENDROOT
BRANCH   1   2
ATOM      2  O   UNL     1      41.570 131.440  18.210  1.00  0.00    -0.493 OA
ATOM      3  H   UNL     1      41.040 131.920  17.491  1.00  0.00     0.295 HD
ENDBRANCH   1   2
BRANCH   1   4
ATOM      4  C   UNL     1      43.564 131.963  19.372  1.00  0.00     0.225 C 
BRANCH   4   5
ATOM      5  N   UNL     1      44.467 131.715  18.279  1.00  0.00    -0.098 N 
ATOM      6  C   UNL     1      44.692 132.444  17.161  1.00  0.00     0.142 A 
ATOM      7  N   UNL     1      45.177 130.602  18.170  1.00  0.00    -0.012 N 
ATOM      8  C   UNL     1      45.594 131.724  16.398  1.00  0.00     0.137 A 
ATOM      9  N   UNL     1      45.883 130.580  17.049  1.00  0.00     0.020 NA
ATOM     10  H   UNL     1      45.187 129.835  18.877  1.00  0.00     0.527 HD
ATOM     11  C   UNL     1      46.186 132.115  15.082  1.00  0.00     0.076 C 
BRANCH   6  12
ATOM     12  C   UNL     1      44.078 133.747  16.805  1.00  0.00     0.015 A 
ATOM     13  C   UNL     1      44.523 134.877  17.493  1.00  0.00     0.020 A 
ATOM     14  C   UNL     1      43.056 133.873  15.836  1.00  0.00    -0.008 A 
ATOM     15  C   UNL     1      43.927 136.123  17.300  1.00  0.00    -0.017 A 
ATOM     16  C   UNL     1      42.655 132.760  15.064  1.00  0.00     0.009 A 
ATOM     17  C   UNL     1      42.433 135.140  15.614  1.00  0.00    -0.010 A 
ATOM     18  C   UNL     1      44.366 137.217  18.064  1.00  0.00     0.009 A 
ATOM     19  C   UNL     1      42.866 136.276  16.368  1.00  0.00    -0.010 A 
ATOM     20  C   UNL     1      41.633 132.873  14.126  1.00  0.00     0.001 A 
ATOM     21  C   UNL     1      41.396 135.217  14.652  1.00  0.00     0.009 A 
ATOM     22  C   UNL     1      43.764 138.463  17.923  1.00  0.00     0.001 A 
ATOM     23  C   UNL     1      42.277 137.560  16.243  1.00  0.00     0.009 A 
ATOM     24  C   UNL     1      41.002 134.093  13.927  1.00  0.00     0.001 A 
ATOM     25  C   UNL     1      42.723 138.634  17.016  1.00  0.00     0.001 A 
ENDBRANCH   6  12
ENDBRANCH   4   5
ENDBRANCH   1   4
BRANCH   1  26
ATOM     26  N   UNL     1      41.485 132.964  20.113  1.00  0.00    -0.325 N 
ATOM     27  H   UNL     1      40.978 132.496  20.898  1.00  0.00     0.170 HD
BRANCH  26  28
ATOM     28  C   UNL     1      41.444 134.405  20.009  1.00  0.00     0.045 A 
ATOM     29  C   UNL     1      42.262 135.194  20.840  1.00  0.00     0.026 A 
ATOM     30  C   UNL     1      40.508 135.043  19.151  1.00  0.00    -0.010 A 
ATOM     31  C   UNL     1      42.156 136.583  20.836  1.00  0.00     0.004 A 
ATOM     32  C   UNL     1      40.387 136.455  19.189  1.00  0.00     0.057 A 
ATOM     33  C   UNL     1      41.219 137.210  20.022  1.00  0.00     0.020 A 
ATOM     34  C   UNL     1      39.617 134.214  18.253  1.00  0.00     0.048 C 
BRANCH  32  35
ATOM     35  C   UNL     1      39.399 137.158  18.404  1.00  0.00     0.099 C 
ATOM     36  N   UNL     1      38.608 137.720  17.773  1.00  0.00    -0.192 NA
ENDBRANCH  32  35
ENDBRANCH  26  28
ENDBRANCH   1  26
TORSDOF 7
ENDMDL
MODEL 4
REMARK VINA RESULT:      -5.7      0.978      1.597
REMARK SMILES Cc1n[nH+]n(/C=C(/O)Nc2cccc(C#N)c2C)c1-c1cc2ccccc2c2ccccc12
REMARK SMILES IDX 7 1 8 2 6 4 5 5 19 6 4 7 2 8 3 9 1 11 20 12 21 13 33 14
REMARK SMILES IDX 22 15 32 16 28 17 23 18 27 19 31 20 29 21 24 22 26 23 30 24
REMARK SMILES IDX 25 25 9 26 10 28 11 29 17 30 12 31 14 32 13 33 18 34 15 35
REMARK SMILES IDX 16 36
REMARK H PARENT 8 3 4 10 9 27
ROOT
ATOM      1  C   UNL     1      44.154 132.771  15.455  1.00  0.00     0.211 C 
ENDROOT
BRANCH   1   2
ATOM      2  O   UNL     1      45.348 133.457  15.686  1.00  0.00    -0.493 OA
ATOM      3  H   UNL     1      45.763 134.067  14.990  1.00  0.00     0.295 HD
ENDBRANCH   1   2
BRANCH   1   4
ATOM      4  C   UNL     1      43.849 131.702  16.209  1.00  0.00     0.225 C 
BRANCH   4   5
ATOM      5  N   UNL     1      44.129 131.612  17.618  1.00  0.00    -0.098 N 
ATOM      6  C   UNL     1      43.594 132.302  18.652  1.00  0.00     0.142 A 
ATOM      7  N   UNL     1      45.094 130.852  18.112  1.00  0.00    -0.012 N 
ATOM      8  C   UNL     1      44.268 131.891  19.788  1.00  0.00     0.137 A 
ATOM      9  N   UNL     1      45.197 130.984  19.426  1.00  0.00     0.020 NA
ATOM     10  H   UNL     1      45.700 130.220  17.544  1.00  0.00     0.527 HD
ATOM     11  C   UNL     1      44.030 132.335  21.196  1.00  0.00     0.076 C 
BRANCH   6  12
ATOM     12  C   UNL     1      42.515 133.318  18.585  1.00  0.00     0.015 A 
ATOM     13  C   UNL     1      41.201 132.855  18.494  1.00  0.00     0.020 A 
ATOM     14  C   UNL     1      42.772 134.708  18.578  1.00  0.00    -0.008 A 
ATOM     15  C   UNL     1      40.134 133.738  18.320  1.00  0.00    -0.017 A 
ATOM     16  C   UNL     1      44.083 135.199  18.761  1.00  0.00     0.009 A 
ATOM     17  C   UNL     1      41.695 135.633  18.406  1.00  0.00    -0.010 A 
ATOM     18  C   UNL     1      38.837 133.220  18.167  1.00  0.00     0.009 A 
ATOM     19  C   UNL     1      40.361 135.139  18.261  1.00  0.00    -0.010 A 
ATOM     20  C   UNL     1      44.345 136.566  18.730  1.00  0.00     0.001 A 
ATOM     21  C   UNL     1      42.000 137.017  18.379  1.00  0.00     0.009 A 
ATOM     22  C   UNL     1      37.758 134.072  17.951  1.00  0.00     0.001 A 
ATOM     23  C   UNL     1      39.241 135.981  18.045  1.00  0.00     0.009 A 
ATOM     24  C   UNL     1      43.309 137.469  18.533  1.00  0.00     0.001 A 
ATOM     25  C   UNL     1      37.960 135.447  17.889  1.00  0.00     0.001 A 
ENDBRANCH   6  12
ENDBRANCH   4   5
ENDBRANCH   1   4
BRANCH   1  26
ATOM     26  N   UNL     1      43.302 133.199  14.381  1.00  0.00    -0.325 N 
ATOM     27  H   UNL     1      43.563 132.902  13.414  1.00  0.00     0.170 HD
BRANCH  26  28
ATOM     28  C   UNL     1      42.089 133.957  14.582  1.00  0.00     0.045 A 
ATOM     29  C   UNL     1      40.837 133.322  14.476  1.00  0.00     0.026 A 
ATOM     30  C   UNL     1      42.139 135.363  14.782  1.00  0.00    -0.010 A 
ATOM     31  C   UNL     1      39.656 134.056  14.553  1.00  0.00     0.004 A 
ATOM     32  C   UNL     1      40.927 136.098  14.820  1.00  0.00     0.057 A 
ATOM     33  C   UNL     1      39.699 135.437  14.715  1.00  0.00     0.020 A 
ATOM     34  C   UNL     1      43.473 136.065  14.896  1.00  0.00     0.048 C 
BRANCH  32  35
ATOM     35  C   UNL     1      40.911 137.538  14.936  1.00  0.00     0.099 C 
ATOM     36  N   UNL     1      40.899 138.691  15.031  1.00  0.00    -0.192 NA
ENDBRANCH  32  35
ENDBRANCH  26  28
ENDBRANCH   1  26
TORSDOF 7
ENDMDL
MODEL 5
REMARK VINA RESULT:      -5.7      2.162      6.211
REMARK SMILES Cc1n[nH+]n(/C=C(/O)Nc2cccc(C#N)c2C)c1-c1cc2ccccc2c2ccccc12
REMARK SMILES IDX 7 1 8 2 6 4 5 5 19 6 4 7 2 8 3 9 1 11 20 12 21 13 33 14
REMARK SMILES IDX 22 15 32 16 28 17 23 18 27 19 31 20 29 21 24 22 26 23 30 24
REMARK SMILES IDX 25 25 9 26 10 28 11 29 17 30 12 31 14 32 13 33 18 34 15 35
REMARK SMILES IDX 16 36
REMARK H PARENT 8 3 4 10 9 27
ROOT
ATOM      1  C   UNL     1      41.816 133.654  14.654  1.00  0.00     0.211 C 
ENDROOT
BRANCH   1   2
ATOM      2  O   UNL     1      40.525 133.889  14.177  1.00  0.00    -0.493 OA
ATOM      3  H   UNL     1      40.064 134.785  14.290  1.00  0.00     0.295 HD
ENDBRANCH   1   2
BRANCH   1   4
ATOM      4  C   UNL     1      42.596 134.694  14.991  1.00  0.00     0.225 C 
BRANCH   4   5
ATOM      5  N   UNL     1      42.103 136.031  15.193  1.00  0.00    -0.098 N 
ATOM      6  C   UNL     1      42.198 136.833  16.279  1.00  0.00     0.142 A 
ATOM      7  N   UNL     1      41.347 136.660  14.307  1.00  0.00    -0.012 N 
ATOM      8  C   UNL     1      41.487 137.982  15.982  1.00  0.00     0.137 A 
ATOM      9  N   UNL     1      40.968 137.851  14.745  1.00  0.00     0.020 NA
ATOM     10  H   UNL     1      41.082 136.274  13.374  1.00  0.00     0.527 HD
ATOM     11  C   UNL     1      41.312 139.190  16.844  1.00  0.00     0.076 C 
BRANCH   6  12
ATOM     12  C   UNL     1      42.902 136.536  17.550  1.00  0.00     0.015 A 
ATOM     13  C   UNL     1      44.072 137.247  17.819  1.00  0.00     0.020 A 
ATOM     14  C   UNL     1      42.453 135.553  18.463  1.00  0.00    -0.008 A 
ATOM     15  C   UNL     1      44.855 136.957  18.937  1.00  0.00    -0.017 A 
ATOM     16  C   UNL     1      41.225 134.886  18.257  1.00  0.00     0.009 A 
ATOM     17  C   UNL     1      43.234 135.241  19.619  1.00  0.00    -0.010 A 
ATOM     18  C   UNL     1      46.059 137.656  19.129  1.00  0.00     0.009 A 
ATOM     19  C   UNL     1      44.458 135.944  19.850  1.00  0.00    -0.010 A 
ATOM     20  C   UNL     1      40.790 133.901  19.138  1.00  0.00     0.001 A 
ATOM     21  C   UNL     1      42.760 134.232  20.494  1.00  0.00     0.009 A 
ATOM     22  C   UNL     1      46.880 137.361  20.212  1.00  0.00     0.001 A 
ATOM     23  C   UNL     1      45.314 135.670  20.946  1.00  0.00     0.009 A 
ATOM     24  C   UNL     1      41.558 133.571  20.247  1.00  0.00     0.001 A 
ATOM     25  C   UNL     1      46.510 136.371  21.117  1.00  0.00     0.001 A 
ENDBRANCH   6  12
ENDBRANCH   4   5
ENDBRANCH   1   4
BRANCH   1  26
ATOM     26  N   UNL     1      42.296 132.303  14.725  1.00  0.00    -0.325 N 
ATOM     27  H   UNL     1      41.891 131.612  14.054  1.00  0.00     0.170 HD
BRANCH  26  28
ATOM     28  C   UNL     1      43.339 131.877  15.629  1.00  0.00     0.045 A 
ATOM     29  C   UNL     1      43.288 132.246  16.987  1.00  0.00     0.026 A 
ATOM     30  C   UNL     1      44.477 131.177  15.144  1.00  0.00    -0.010 A 
ATOM     31  C   UNL     1      44.339 131.943  17.850  1.00  0.00     0.004 A 
ATOM     32  C   UNL     1      45.554 130.912  16.028  1.00  0.00     0.057 A 
ATOM     33  C   UNL     1      45.469 131.288  17.372  1.00  0.00     0.020 A 
ATOM     34  C   UNL     1      44.554 130.774  13.688  1.00  0.00     0.048 C 
BRANCH  32  35
ATOM     35  C   UNL     1      46.772 130.280  15.578  1.00  0.00     0.099 C 
ATOM     36  N   UNL     1      47.748 129.772  15.220  1.00  0.00    -0.192 NA
ENDBRANCH  32  35
ENDBRANCH  26  28
ENDBRANCH   1  26
TORSDOF 7
ENDMDL
MODEL 6
REMARK VINA RESULT:      -5.6      2.352      6.159
REMARK SMILES Cc1n[nH+]n(/C=C(/O)Nc2cccc(C#N)c2C)c1-c1cc2ccccc2c2ccccc12
REMARK SMILES IDX 7 1 8 2 6 4 5 5 19 6 4 7 2 8 3 9 1 11 20 12 21 13 33 14
REMARK SMILES IDX 22 15 32 16 28 17 23 18 27 19 31 20 29 21 24 22 26 23 30 24
REMARK SMILES IDX 25 25 9 26 10 28 11 29 17 30 12 31 14 32 13 33 18 34 15 35
REMARK SMILES IDX 16 36
REMARK H PARENT 8 3 4 10 9 27
ROOT
ATOM      1  C   UNL     1      42.326 133.296  14.618  1.00  0.00     0.211 C 
ENDROOT
BRANCH   1   2
ATOM      2  O   UNL     1      41.617 133.931  13.597  1.00  0.00    -0.493 OA
ATOM      3  H   UNL     1      41.966 133.979  12.646  1.00  0.00     0.295 HD
ENDBRANCH   1   2
BRANCH   1   4
ATOM      4  C   UNL     1      42.536 133.940  15.778  1.00  0.00     0.225 C 
BRANCH   4   5
ATOM      5  N   UNL     1      41.509 134.647  16.496  1.00  0.00    -0.098 N 
ATOM      6  C   UNL     1      41.523 135.151  17.753  1.00  0.00     0.142 A 
ATOM      7  N   UNL     1      40.287 134.824  16.017  1.00  0.00    -0.012 N 
ATOM      8  C   UNL     1      40.258 135.662  17.984  1.00  0.00     0.137 A 
ATOM      9  N   UNL     1      39.507 135.449  16.886  1.00  0.00     0.020 NA
ATOM     10  H   UNL     1      39.972 134.516  15.070  1.00  0.00     0.527 HD
ATOM     11  C   UNL     1      39.770 136.354  19.216  1.00  0.00     0.076 C 
BRANCH   6  12
ATOM     12  C   UNL     1      42.658 135.138  18.707  1.00  0.00     0.015 A 
ATOM     13  C   UNL     1      43.419 136.302  18.818  1.00  0.00     0.020 A 
ATOM     14  C   UNL     1      43.005 133.997  19.469  1.00  0.00    -0.008 A 
ATOM     15  C   UNL     1      44.567 136.344  19.610  1.00  0.00    -0.017 A 
ATOM     16  C   UNL     1      42.196 132.840  19.442  1.00  0.00     0.009 A 
ATOM     17  C   UNL     1      44.173 134.017  20.293  1.00  0.00    -0.010 A 
ATOM     18  C   UNL     1      45.336 137.519  19.637  1.00  0.00     0.009 A 
ATOM     19  C   UNL     1      44.971 135.202  20.352  1.00  0.00    -0.010 A 
ATOM     20  C   UNL     1      42.546 131.707  20.170  1.00  0.00     0.001 A 
ATOM     21  C   UNL     1      44.499 132.844  21.019  1.00  0.00     0.009 A 
ATOM     22  C   UNL     1      46.508 137.578  20.385  1.00  0.00     0.001 A 
ATOM     23  C   UNL     1      46.166 135.295  21.109  1.00  0.00     0.009 A 
ATOM     24  C   UNL     1      43.696 131.707  20.948  1.00  0.00     0.001 A 
ATOM     25  C   UNL     1      46.921 136.470  21.118  1.00  0.00     0.001 A 
ENDBRANCH   6  12
ENDBRANCH   4   5
ENDBRANCH   1   4
BRANCH   1  26
ATOM     26  N   UNL     1      42.858 131.983  14.383  1.00  0.00    -0.325 N 
ATOM     27  H   UNL     1      42.462 131.441  13.582  1.00  0.00     0.170 HD
BRANCH  26  28
ATOM     28  C   UNL     1      43.937 131.413  15.155  1.00  0.00     0.045 A 
ATOM     29  C   UNL     1      43.943 131.539  16.557  1.00  0.00     0.026 A 
ATOM     30  C   UNL     1      45.054 130.815  14.509  1.00  0.00    -0.010 A 
ATOM     31  C   UNL     1      45.029 131.097  17.309  1.00  0.00     0.004 A 
ATOM     32  C   UNL     1      46.166 130.407  15.288  1.00  0.00     0.057 A 
ATOM     33  C   UNL     1      46.138 130.543  16.679  1.00  0.00     0.020 A 
ATOM     34  C   UNL     1      45.070 130.673  13.003  1.00  0.00     0.048 C 
BRANCH  32  35
ATOM     35  C   UNL     1      47.364 129.871  14.685  1.00  0.00     0.099 C 
ATOM     36  N   UNL     1      48.323 129.442  14.200  1.00  0.00    -0.192 NA
ENDBRANCH  32  35
ENDBRANCH  26  28
ENDBRANCH   1  26
TORSDOF 7
ENDMDL
MODEL 7
REMARK VINA RESULT:      -5.6      0.957      1.679
REMARK SMILES Cc1n[nH+]n(/C=C(/O)Nc2cccc(C#N)c2C)c1-c1cc2ccccc2c2ccccc12
REMARK SMILES IDX 7 1 8 2 6 4 5 5 19 6 4 7 2 8 3 9 1 11 20 12 21 13 33 14
REMARK SMILES IDX 22 15 32 16 28 17 23 18 27 19 31 20 29 21 24 22 26 23 30 24
REMARK SMILES IDX 25 25 9 26 10 28 11 29 17 30 12 31 14 32 13 33 18 34 15 35
REMARK SMILES IDX 16 36
REMARK H PARENT 8 3 4 10 9 27
ROOT
ATOM      1  C   UNL     1      42.986 133.015  14.754  1.00  0.00     0.211 C 
ENDROOT
BRANCH   1   2
ATOM      2  O   UNL     1      42.271 131.819  14.671  1.00  0.00    -0.493 OA
ATOM      3  H   UNL     1      41.762 131.439  15.461  1.00  0.00     0.295 HD
ENDBRANCH   1   2
BRANCH   1   4
ATOM      4  C   UNL     1      44.097 133.071  15.508  1.00  0.00     0.225 C 
BRANCH   4   5
ATOM      5  N   UNL     1      44.233 132.415  16.781  1.00  0.00    -0.098 N 
ATOM      6  C   UNL     1      43.547 132.609  17.932  1.00  0.00     0.142 A 
ATOM      7  N   UNL     1      45.189 131.536  17.039  1.00  0.00    -0.012 N 
ATOM      8  C   UNL     1      44.124 131.780  18.877  1.00  0.00     0.137 A 
ATOM      9  N   UNL     1      45.144 131.119  18.296  1.00  0.00     0.020 NA
ATOM     10  H   UNL     1      45.892 131.204  16.343  1.00  0.00     0.527 HD
ATOM     11  C   UNL     1      43.710 131.602  20.303  1.00  0.00     0.076 C 
BRANCH   6  12
ATOM     12  C   UNL     1      42.416 133.543  18.151  1.00  0.00     0.015 A 
ATOM     13  C   UNL     1      41.124 133.029  18.027  1.00  0.00     0.020 A 
ATOM     14  C   UNL     1      42.601 134.915  18.442  1.00  0.00    -0.008 A 
ATOM     15  C   UNL     1      40.005 133.858  18.110  1.00  0.00    -0.017 A 
ATOM     16  C   UNL     1      43.894 135.437  18.661  1.00  0.00     0.009 A 
ATOM     17  C   UNL     1      41.469 135.784  18.538  1.00  0.00    -0.010 A 
ATOM     18  C   UNL     1      38.728 133.305  17.913  1.00  0.00     0.009 A 
ATOM     19  C   UNL     1      40.156 135.249  18.355  1.00  0.00    -0.010 A 
ATOM     20  C   UNL     1      44.084 136.790  18.924  1.00  0.00     0.001 A 
ATOM     21  C   UNL     1      41.701 137.156  18.806  1.00  0.00     0.009 A 
ATOM     22  C   UNL     1      37.596 134.112  17.950  1.00  0.00     0.001 A 
ATOM     23  C   UNL     1      38.982 136.045  18.392  1.00  0.00     0.009 A 
ATOM     24  C   UNL     1      42.993 137.646  18.988  1.00  0.00     0.001 A 
ATOM     25  C   UNL     1      37.723 135.478  18.188  1.00  0.00     0.001 A 
ENDBRANCH   6  12
ENDBRANCH   4   5
ENDBRANCH   1   4
BRANCH   1  26
ATOM     26  N   UNL     1      42.487 134.174  14.069  1.00  0.00    -0.325 N 
ATOM     27  H   UNL     1      43.022 134.507  13.236  1.00  0.00     0.170 HD
BRANCH  26  28
ATOM     28  C   UNL     1      41.265 134.851  14.438  1.00  0.00     0.045 A 
ATOM     29  C   UNL     1      40.022 134.225  14.224  1.00  0.00     0.026 A 
ATOM     30  C   UNL     1      41.294 136.188  14.917  1.00  0.00    -0.010 A 
ATOM     31  C   UNL     1      38.830 134.904  14.466  1.00  0.00     0.004 A 
ATOM     32  C   UNL     1      40.071 136.876  15.121  1.00  0.00     0.057 A 
ATOM     33  C   UNL     1      38.853 136.224  14.904  1.00  0.00     0.020 A 
ATOM     34  C   UNL     1      42.619 136.880  15.150  1.00  0.00     0.048 C 
BRANCH  32  35
ATOM     35  C   UNL     1      40.034 138.262  15.527  1.00  0.00     0.099 C 
ATOM     36  N   UNL     1      40.004 139.371  15.854  1.00  0.00    -0.192 NA
ENDBRANCH  32  35
ENDBRANCH  26  28
ENDBRANCH   1  26
TORSDOF 7
ENDMDL
MODEL 8
REMARK VINA RESULT:      -5.6      3.275      5.297
REMARK SMILES Cc1n[nH+]n(/C=C(/O)Nc2cccc(C#N)c2C)c1-c1cc2ccccc2c2ccccc12
REMARK SMILES IDX 7 1 8 2 6 4 5 5 19 6 4 7 2 8 3 9 1 11 20 12 21 13 33 14
REMARK SMILES IDX 22 15 32 16 28 17 23 18 27 19 31 20 29 21 24 22 26 23 30 24
REMARK SMILES IDX 25 25 9 26 10 28 11 29 17 30 12 31 14 32 13 33 18 34 15 35
REMARK SMILES IDX 16 36
REMARK H PARENT 8 3 4 10 9 27
ROOT
ATOM      1  C   UNL     1      40.899 136.063  21.058  1.00  0.00     0.211 C 
ENDROOT
BRANCH   1   2
ATOM      2  O   UNL     1      40.408 137.222  21.662  1.00  0.00    -0.493 OA
ATOM      3  H   UNL     1      39.590 137.214  22.260  1.00  0.00     0.295 HD
ENDBRANCH   1   2
BRANCH   1   4
ATOM      4  C   UNL     1      42.147 135.651  21.334  1.00  0.00     0.225 C 
BRANCH   4   5
ATOM      5  N   UNL     1      43.325 136.432  21.065  1.00  0.00    -0.098 N 
ATOM      6  C   UNL     1      44.123 136.445  19.972  1.00  0.00     0.142 A 
ATOM      7  N   UNL     1      43.881 137.230  21.964  1.00  0.00    -0.012 N 
ATOM      8  C   UNL     1      45.162 137.314  20.255  1.00  0.00     0.137 A 
ATOM      9  N   UNL     1      44.987 137.793  21.502  1.00  0.00     0.020 NA
ATOM     10  H   UNL     1      43.497 137.403  22.920  1.00  0.00     0.527 HD
ATOM     11  C   UNL     1      46.294 137.698  19.358  1.00  0.00     0.076 C 
BRANCH   6  12
ATOM     12  C   UNL     1      43.940 135.667  18.723  1.00  0.00     0.015 A 
ATOM     13  C   UNL     1      44.187 134.294  18.778  1.00  0.00     0.020 A 
ATOM     14  C   UNL     1      43.562 136.263  17.497  1.00  0.00    -0.008 A 
ATOM     15  C   UNL     1      44.143 133.504  17.629  1.00  0.00    -0.017 A 
ATOM     16  C   UNL     1      43.219 137.631  17.437  1.00  0.00     0.009 A 
ATOM     17  C   UNL     1      43.504 135.474  16.306  1.00  0.00    -0.010 A 
ATOM     18  C   UNL     1      44.464 132.139  17.725  1.00  0.00     0.009 A 
ATOM     19  C   UNL     1      43.813 134.079  16.373  1.00  0.00    -0.010 A 
ATOM     20  C   UNL     1      42.870 138.228  16.230  1.00  0.00     0.001 A 
ATOM     21  C   UNL     1      43.146 136.116  15.095  1.00  0.00     0.009 A 
ATOM     22  C   UNL     1      44.469 131.334  16.591  1.00  0.00     0.001 A 
ATOM     23  C   UNL     1      43.821 133.231  15.236  1.00  0.00     0.009 A 
ATOM     24  C   UNL     1      42.841 137.476  15.064  1.00  0.00     0.001 A 
ATOM     25  C   UNL     1      44.149 131.879  15.350  1.00  0.00     0.001 A 
ENDBRANCH   6  12
ENDBRANCH   4   5
ENDBRANCH   1   4
BRANCH   1  26
ATOM     26  N   UNL     1      40.070 135.364  20.117  1.00  0.00    -0.325 N 
ATOM     27  H   UNL     1      39.476 134.587  20.485  1.00  0.00     0.170 HD
BRANCH  26  28
ATOM     28  C   UNL     1      39.978 135.720  18.721  1.00  0.00     0.045 A 
ATOM     29  C   UNL     1      39.597 137.024  18.351  1.00  0.00     0.026 A 
ATOM     30  C   UNL     1      40.165 134.740  17.708  1.00  0.00    -0.010 A 
ATOM     31  C   UNL     1      39.392 137.356  17.014  1.00  0.00     0.004 A 
ATOM     32  C   UNL     1      39.914 135.086  16.357  1.00  0.00     0.057 A 
ATOM     33  C   UNL     1      39.541 136.392  16.022  1.00  0.00     0.020 A 
ATOM     34  C   UNL     1      40.571 133.332  18.084  1.00  0.00     0.048 C 
BRANCH  32  35
ATOM     35  C   UNL     1      40.004 134.116  15.291  1.00  0.00     0.099 C 
ATOM     36  N   UNL     1      40.077 133.339  14.436  1.00  0.00    -0.192 NA
ENDBRANCH  32  35
ENDBRANCH  26  28
ENDBRANCH   1  26
TORSDOF 7
ENDMDL
MODEL 9
REMARK VINA RESULT:      -5.5      0.793      2.942
REMARK SMILES Cc1n[nH+]n(/C=C(/O)Nc2cccc(C#N)c2C)c1-c1cc2ccccc2c2ccccc12
REMARK SMILES IDX 7 1 8 2 6 4 5 5 19 6 4 7 2 8 3 9 1 11 20 12 21 13 33 14
REMARK SMILES IDX 22 15 32 16 28 17 23 18 27 19 31 20 29 21 24 22 26 23 30 24
REMARK SMILES IDX 25 25 9 26 10 28 11 29 17 30 12 31 14 32 13 33 18 34 15 35
REMARK SMILES IDX 16 36
REMARK H PARENT 8 3 4 10 9 27
ROOT
ATOM      1  C   UNL     1      43.495 132.288  14.694  1.00  0.00     0.211 C 
ENDROOT
BRANCH   1   2
ATOM      2  O   UNL     1      43.815 131.066  14.100  1.00  0.00    -0.493 OA
ATOM      3  H   UNL     1      43.114 130.479  13.662  1.00  0.00     0.295 HD
ENDBRANCH   1   2
BRANCH   1   4
ATOM      4  C   UNL     1      44.341 132.834  15.582  1.00  0.00     0.225 C 
BRANCH   4   5
ATOM      5  N   UNL     1      44.506 132.354  16.929  1.00  0.00    -0.098 N 
ATOM      6  C   UNL     1      44.143 132.925  18.102  1.00  0.00     0.142 A 
ATOM      7  N   UNL     1      45.177 131.250  17.223  1.00  0.00    -0.012 N 
ATOM      8  C   UNL     1      44.604 132.090  19.104  1.00  0.00     0.137 A 
ATOM      9  N   UNL     1      45.243 131.051  18.530  1.00  0.00     0.020 NA
ATOM     10  H   UNL     1      45.600 130.609  16.516  1.00  0.00     0.527 HD
ATOM     11  C   UNL     1      44.432 132.261  20.579  1.00  0.00     0.076 C 
BRANCH   6  12
ATOM     12  C   UNL     1      43.416 134.205  18.284  1.00  0.00     0.015 A 
ATOM     13  C   UNL     1      44.177 135.347  18.533  1.00  0.00     0.020 A 
ATOM     14  C   UNL     1      42.005 134.296  18.246  1.00  0.00    -0.008 A 
ATOM     15  C   UNL     1      43.573 136.571  18.823  1.00  0.00    -0.017 A 
ATOM     16  C   UNL     1      41.220 133.173  17.905  1.00  0.00     0.009 A 
ATOM     17  C   UNL     1      41.361 135.540  18.533  1.00  0.00    -0.010 A 
ATOM     18  C   UNL     1      44.381 137.677  19.132  1.00  0.00     0.009 A 
ATOM     19  C   UNL     1      42.157 136.688  18.839  1.00  0.00    -0.010 A 
ATOM     20  C   UNL     1      39.830 133.251  17.890  1.00  0.00     0.001 A 
ATOM     21  C   UNL     1      39.945 135.581  18.509  1.00  0.00     0.009 A 
ATOM     22  C   UNL     1      43.808 138.900  19.464  1.00  0.00     0.001 A 
ATOM     23  C   UNL     1      41.602 137.949  19.176  1.00  0.00     0.009 A 
ATOM     24  C   UNL     1      39.197 134.447  18.198  1.00  0.00     0.001 A 
ATOM     25  C   UNL     1      42.423 139.035  19.487  1.00  0.00     0.001 A 
ENDBRANCH   6  12
ENDBRANCH   4   5
ENDBRANCH   1   4
BRANCH   1  26
ATOM     26  N   UNL     1      42.241 132.909  14.374  1.00  0.00    -0.325 N 
ATOM     27  H   UNL     1      41.471 132.291  14.031  1.00  0.00     0.170 HD
BRANCH  26  28
ATOM     28  C   UNL     1      41.982 134.318  14.560  1.00  0.00     0.045 A 
ATOM     29  C   UNL     1      43.040 135.194  14.869  1.00  0.00     0.026 A 
ATOM     30  C   UNL     1      40.652 134.820  14.540  1.00  0.00    -0.010 A 
ATOM     31  C   UNL     1      42.796 136.533  15.163  1.00  0.00     0.004 A 
ATOM     32  C   UNL     1      40.420 136.176  14.880  1.00  0.00     0.057 A 
ATOM     33  C   UNL     1      41.494 137.021  15.178  1.00  0.00     0.020 A 
ATOM     34  C   UNL     1      39.499 133.896  14.214  1.00  0.00     0.048 C 
BRANCH  32  35
ATOM     35  C   UNL     1      39.086 136.726  14.960  1.00  0.00     0.099 C 
ATOM     36  N   UNL     1      38.018 137.166  15.022  1.00  0.00    -0.192 NA
ENDBRANCH  32  35
ENDBRANCH  26  28
ENDBRANCH   1  26
TORSDOF 7
ENDMDL


