MODEL 1
REMARK VINA RESULT:      -5.5      0.000      0.000
REMARK SMILES C[C@@H](C#N)N(C)CCCCc1cn(-c2cc(N=C=O)c3c4c(cccc24)C(=O)[N-]3)nn1
REMARK SMILES IDX 9 1 10 2 11 3 13 4 30 5 12 6 31 7 14 8 24 9 23 10 25 11
REMARK SMILES IDX 22 12 26 13 21 14 27 15 20 16 29 17 15 18 16 19 28 20 17 21
REMARK SMILES IDX 18 22 19 23 8 24 7 25 5 26 6 27 2 28 1 29 3 30 4 31
REMARK H PARENT
ROOT
ATOM      1  C   UNL     1      43.074 136.357  22.664  1.00  0.00     0.008 C 
ENDROOT
BRANCH   1   2
ATOM      2  C   UNL     1      42.165 136.483  21.429  1.00  0.00     0.060 C 
BRANCH   2   3
ATOM      3  C   UNL     1      42.121 135.231  20.607  1.00  0.00     0.083 A 
ATOM      4  N   UNL     1      42.371 133.770  19.013  1.00  0.00    -0.220 N 
ATOM      5  N   UNL     1      41.724 133.206  20.022  1.00  0.00    -0.062 NA
ATOM      6  C   UNL     1      42.656 135.041  19.351  1.00  0.00     0.140 A 
ATOM      7  N   UNL     1      41.554 134.075  21.008  1.00  0.00    -0.135 NA
BRANCH   4   8
ATOM      8  C   UNL     1      42.753 133.096  17.802  1.00  0.00     0.076 A 
ATOM      9  C   UNL     1      45.657 130.808  18.686  1.00  0.00     0.001 A 
ATOM     10  C   UNL     1      45.937 130.282  17.405  1.00  0.00     0.011 A 
ATOM     11  C   UNL     1      44.612 131.750  18.874  1.00  0.00     0.011 A 
ATOM     12  C   UNL     1      45.153 130.723  16.342  1.00  0.00     0.006 A 
ATOM     13  C   UNL     1      43.841 132.184  17.768  1.00  0.00     0.007 A 
ATOM     14  C   UNL     1      44.158 131.626  16.539  1.00  0.00    -0.019 A 
ATOM     15  C   UNL     1      45.088 130.394  14.923  1.00  0.00     0.086 C 
ATOM     16  C   UNL     1      43.487 131.874  15.377  1.00  0.00    -0.098 A 
ATOM     17  N   UNL     1      44.025 131.120  14.283  1.00  0.00    -0.620 NA
ATOM     18  C   UNL     1      42.033 133.357  16.598  1.00  0.00     0.057 A 
ATOM     19  C   UNL     1      42.395 132.742  15.368  1.00  0.00     0.064 A 
ATOM     20  O   UNL     1      45.844 129.586  14.323  1.00  0.00    -0.315 OA
BRANCH  19  21
ATOM     21  N   UNL     1      41.691 132.979  14.140  1.00  0.00    -0.169 NA
BRANCH  21  22
ATOM     22  C   UNL     1      40.461 133.306  14.084  1.00  0.00     0.240 C 
ATOM     23  O   UNL     1      39.267 133.624  14.028  1.00  0.00    -0.211 OA
ENDBRANCH  21  22
ENDBRANCH  19  21
ENDBRANCH   4   8
ENDBRANCH   2   3
ENDBRANCH   1   2
BRANCH   1  24
ATOM     24  C   UNL     1      44.372 135.567  22.409  1.00  0.00     0.016 C 
BRANCH  24  25
ATOM     25  C   UNL     1      45.548 136.451  21.966  1.00  0.00     0.085 C 
BRANCH  25  26
ATOM     26  N   UNL     1      46.499 136.639  23.089  1.00  0.00    -0.291 NA
ATOM     27  C   UNL     1      46.201 137.877  23.835  1.00  0.00     0.106 C 
BRANCH  26  28
ATOM     28  C   UNL     1      47.930 136.593  22.689  1.00  0.00     0.157 C 
ATOM     29  C   UNL     1      48.835 137.020  23.850  1.00  0.00     0.041 C 
BRANCH  28  30
ATOM     30  C   UNL     1      48.339 135.270  22.169  1.00  0.00     0.081 C 
ATOM     31  N   UNL     1      48.659 134.235  21.763  1.00  0.00    -0.197 NA
ENDBRANCH  28  30
ENDBRANCH  26  28
ENDBRANCH  25  26
ENDBRANCH  24  25
ENDBRANCH   1  24
TORSDOF 10
ENDMDL
MODEL 2
REMARK VINA RESULT:      -5.2      2.410      3.576
REMARK SMILES C[C@@H](C#N)N(C)CCCCc1cn(-c2cc(N=C=O)c3c4c(cccc24)C(=O)[N-]3)nn1
REMARK SMILES IDX 9 1 10 2 11 3 13 4 30 5 12 6 31 7 14 8 24 9 23 10 25 11
REMARK SMILES IDX 22 12 26 13 21 14 27 15 20 16 29 17 15 18 16 19 28 20 17 21
REMARK SMILES IDX 18 22 19 23 8 24 7 25 5 26 6 27 2 28 1 29 3 30 4 31
REMARK H PARENT
ROOT
ATOM      1  C   UNL     1      47.471 134.506  21.862  1.00  0.00     0.008 C 
ENDROOT
BRANCH   1   2
ATOM      2  C   UNL     1      46.496 133.621  22.658  1.00  0.00     0.060 C 
BRANCH   2   3
ATOM      3  C   UNL     1      45.403 133.047  21.808  1.00  0.00     0.083 A 
ATOM      4  N   UNL     1      43.899 132.745  20.265  1.00  0.00    -0.220 N 
ATOM      5  N   UNL     1      43.922 131.687  21.062  1.00  0.00    -0.062 NA
ATOM      6  C   UNL     1      44.832 133.615  20.691  1.00  0.00     0.140 A 
ATOM      7  N   UNL     1      44.829 131.845  22.016  1.00  0.00    -0.135 NA
BRANCH   4   8
ATOM      8  C   UNL     1      43.059 132.883  19.106  1.00  0.00     0.076 A 
ATOM      9  C   UNL     1      45.189 131.980  16.089  1.00  0.00     0.001 A 
ATOM     10  C   UNL     1      44.250 132.220  15.061  1.00  0.00     0.011 A 
ATOM     11  C   UNL     1      44.847 132.188  17.451  1.00  0.00     0.011 A 
ATOM     12  C   UNL     1      42.985 132.666  15.436  1.00  0.00     0.006 A 
ATOM     13  C   UNL     1      43.554 132.654  17.795  1.00  0.00     0.007 A 
ATOM     14  C   UNL     1      42.674 132.862  16.744  1.00  0.00    -0.019 A 
ATOM     15  C   UNL     1      41.757 132.967  14.708  1.00  0.00     0.086 C 
ATOM     16  C   UNL     1      41.373 133.246  16.884  1.00  0.00    -0.098 A 
ATOM     17  N   UNL     1      40.709 133.341  15.618  1.00  0.00    -0.620 NA
ATOM     18  C   UNL     1      41.697 133.273  19.272  1.00  0.00     0.057 A 
ATOM     19  C   UNL     1      40.836 133.457  18.154  1.00  0.00     0.064 A 
ATOM     20  O   UNL     1      41.614 132.910  13.459  1.00  0.00    -0.315 OA
BRANCH  19  21
ATOM     21  N   UNL     1      39.461 133.846  18.285  1.00  0.00    -0.169 NA
BRANCH  21  22
ATOM     22  C   UNL     1      38.999 134.956  17.863  1.00  0.00     0.240 C 
ATOM     23  O   UNL     1      38.551 136.033  17.452  1.00  0.00    -0.211 OA
ENDBRANCH  21  22
ENDBRANCH  19  21
ENDBRANCH   4   8
ENDBRANCH   2   3
ENDBRANCH   1   2
BRANCH   1  24
ATOM     24  C   UNL     1      48.391 135.375  22.741  1.00  0.00     0.016 C 
BRANCH  24  25
ATOM     25  C   UNL     1      47.752 136.708  23.161  1.00  0.00     0.085 C 
BRANCH  25  26
ATOM     26  N   UNL     1      48.141 137.782  22.215  1.00  0.00    -0.291 NA
ATOM     27  C   UNL     1      47.005 138.169  21.356  1.00  0.00     0.106 C 
BRANCH  26  28
ATOM     28  C   UNL     1      49.341 137.466  21.394  1.00  0.00     0.157 C 
ATOM     29  C   UNL     1      49.006 137.510  19.899  1.00  0.00     0.041 C 
BRANCH  28  30
ATOM     30  C   UNL     1      50.490 138.346  21.696  1.00  0.00     0.081 C 
ATOM     31  N   UNL     1      51.390 139.035  21.933  1.00  0.00    -0.197 NA
ENDBRANCH  28  30
ENDBRANCH  26  28
ENDBRANCH  25  26
ENDBRANCH  24  25
ENDBRANCH   1  24
TORSDOF 10
ENDMDL
MODEL 3
REMARK VINA RESULT:      -5.1      4.088      6.137
REMARK SMILES C[C@@H](C#N)N(C)CCCCc1cn(-c2cc(N=C=O)c3c4c(cccc24)C(=O)[N-]3)nn1
REMARK SMILES IDX 9 1 10 2 11 3 13 4 30 5 12 6 31 7 14 8 24 9 23 10 25 11
REMARK SMILES IDX 22 12 26 13 21 14 27 15 20 16 29 17 15 18 16 19 28 20 17 21
REMARK SMILES IDX 18 22 19 23 8 24 7 25 5 26 6 27 2 28 1 29 3 30 4 31
REMARK H PARENT
ROOT
ATOM      1  C   UNL     1      38.170 135.598  16.166  1.00  0.00     0.008 C 
ENDROOT
BRANCH   1   2
ATOM      2  C   UNL     1      39.076 135.680  14.924  1.00  0.00     0.060 C 
BRANCH   2   3
ATOM      3  C   UNL     1      40.030 134.529  14.823  1.00  0.00     0.083 A 
ATOM      4  N   UNL     1      41.647 133.119  15.189  1.00  0.00    -0.220 N 
ATOM      5  N   UNL     1      40.975 132.739  14.113  1.00  0.00    -0.062 NA
ATOM      6  C   UNL     1      41.071 134.232  15.677  1.00  0.00     0.140 A 
ATOM      7  N   UNL     1      39.984 133.583  13.863  1.00  0.00    -0.135 NA
BRANCH   4   8
ATOM      8  C   UNL     1      42.757 132.405  15.759  1.00  0.00     0.076 A 
ATOM      9  C   UNL     1      42.508 132.810  19.531  1.00  0.00     0.001 A 
ATOM     10  C   UNL     1      43.676 132.115  19.917  1.00  0.00     0.011 A 
ATOM     11  C   UNL     1      42.157 132.940  18.161  1.00  0.00     0.011 A 
ATOM     12  C   UNL     1      44.464 131.568  18.906  1.00  0.00     0.006 A 
ATOM     13  C   UNL     1      42.988 132.380  17.160  1.00  0.00     0.007 A 
ATOM     14  C   UNL     1      44.115 131.703  17.601  1.00  0.00    -0.019 A 
ATOM     15  C   UNL     1      45.677 130.760  18.891  1.00  0.00     0.086 C 
ATOM     16  C   UNL     1      44.995 131.048  16.791  1.00  0.00    -0.098 A 
ATOM     17  N   UNL     1      46.036 130.413  17.543  1.00  0.00    -0.620 NA
ATOM     18  C   UNL     1      43.661 131.714  14.897  1.00  0.00     0.057 A 
ATOM     19  C   UNL     1      44.794 131.023  15.410  1.00  0.00     0.064 A 
ATOM     20  O   UNL     1      46.332 130.401  19.904  1.00  0.00    -0.315 OA
BRANCH  19  21
ATOM     21  N   UNL     1      45.721 130.317  14.574  1.00  0.00    -0.169 NA
BRANCH  21  22
ATOM     22  C   UNL     1      46.781 130.839  14.097  1.00  0.00     0.240 C 
ATOM     23  O   UNL     1      47.810 131.347  13.636  1.00  0.00    -0.211 OA
ENDBRANCH  21  22
ENDBRANCH  19  21
ENDBRANCH   4   8
ENDBRANCH   2   3
ENDBRANCH   1   2
BRANCH   1  24
ATOM     24  C   UNL     1      38.885 135.938  17.488  1.00  0.00     0.016 C 
BRANCH  24  25
ATOM     25  C   UNL     1      39.291 137.415  17.601  1.00  0.00     0.085 C 
BRANCH  25  26
ATOM     26  N   UNL     1      39.044 137.910  18.977  1.00  0.00    -0.291 NA
ATOM     27  C   UNL     1      37.610 138.185  19.192  1.00  0.00     0.106 C 
BRANCH  26  28
ATOM     28  C   UNL     1      39.871 139.085  19.359  1.00  0.00     0.157 C 
ATOM     29  C   UNL     1      39.452 139.624  20.731  1.00  0.00     0.041 C 
BRANCH  28  30
ATOM     30  C   UNL     1      41.322 138.798  19.334  1.00  0.00     0.081 C 
ATOM     31  N   UNL     1      42.457 138.573  19.313  1.00  0.00    -0.197 NA
ENDBRANCH  28  30
ENDBRANCH  26  28
ENDBRANCH  25  26
ENDBRANCH  24  25
ENDBRANCH   1  24
TORSDOF 10
ENDMDL
MODEL 4
REMARK VINA RESULT:      -5.0      3.326      5.173
REMARK SMILES C[C@@H](C#N)N(C)CCCCc1cn(-c2cc(N=C=O)c3c4c(cccc24)C(=O)[N-]3)nn1
REMARK SMILES IDX 9 1 10 2 11 3 13 4 30 5 12 6 31 7 14 8 24 9 23 10 25 11
REMARK SMILES IDX 22 12 26 13 21 14 27 15 20 16 29 17 15 18 16 19 28 20 17 21
REMARK SMILES IDX 18 22 19 23 8 24 7 25 5 26 6 27 2 28 1 29 3 30 4 31
REMARK H PARENT
ROOT
ATOM      1  C   UNL     1      38.761 136.944  18.795  1.00  0.00     0.008 C 
ENDROOT
BRANCH   1   2
ATOM      2  C   UNL     1      39.415 136.493  17.477  1.00  0.00     0.060 C 
BRANCH   2   3
ATOM      3  C   UNL     1      40.047 135.138  17.574  1.00  0.00     0.083 A 
ATOM      4  N   UNL     1      41.474 133.496  17.571  1.00  0.00    -0.220 N 
ATOM      5  N   UNL     1      40.275 133.029  17.882  1.00  0.00    -0.062 NA
ATOM      6  C   UNL     1      41.376 134.825  17.388  1.00  0.00     0.140 A 
ATOM      7  N   UNL     1      39.382 134.009  17.888  1.00  0.00    -0.135 NA
BRANCH   4   8
ATOM      8  C   UNL     1      42.675 132.706  17.514  1.00  0.00     0.076 A 
ATOM      9  C   UNL     1      43.195 131.752  13.871  1.00  0.00     0.001 A 
ATOM     10  C   UNL     1      44.352 130.952  14.004  1.00  0.00     0.011 A 
ATOM     11  C   UNL     1      42.594 132.355  15.007  1.00  0.00     0.011 A 
ATOM     12  C   UNL     1      44.874 130.781  15.284  1.00  0.00     0.006 A 
ATOM     13  C   UNL     1      43.145 132.151  16.295  1.00  0.00     0.007 A 
ATOM     14  C   UNL     1      44.285 131.364  16.360  1.00  0.00    -0.019 A 
ATOM     15  C   UNL     1      46.046 130.098  15.819  1.00  0.00     0.086 C 
ATOM     16  C   UNL     1      44.990 131.109  17.499  1.00  0.00    -0.098 A 
ATOM     17  N   UNL     1      46.141 130.296  17.240  1.00  0.00    -0.620 NA
ATOM     18  C   UNL     1      43.407 132.460  18.714  1.00  0.00     0.057 A 
ATOM     19  C   UNL     1      44.580 131.655  18.716  1.00  0.00     0.064 A 
ATOM     20  O   UNL     1      46.873 129.427  15.149  1.00  0.00    -0.315 OA
BRANCH  19  21
ATOM     21  N   UNL     1      45.342 131.389  19.902  1.00  0.00    -0.169 NA
BRANCH  21  22
ATOM     22  C   UNL     1      45.705 132.292  20.725  1.00  0.00     0.240 C 
ATOM     23  O   UNL     1      46.060 133.168  21.522  1.00  0.00    -0.211 OA
ENDBRANCH  21  22
ENDBRANCH  19  21
ENDBRANCH   4   8
ENDBRANCH   2   3
ENDBRANCH   1   2
BRANCH   1  24
ATOM     24  C   UNL     1      39.750 137.092  19.968  1.00  0.00     0.016 C 
BRANCH  24  25
ATOM     25  C   UNL     1      39.060 137.258  21.331  1.00  0.00     0.085 C 
BRANCH  25  26
ATOM     26  N   UNL     1      39.439 136.145  22.235  1.00  0.00    -0.291 NA
ATOM     27  C   UNL     1      38.896 136.356  23.591  1.00  0.00     0.106 C 
BRANCH  26  28
ATOM     28  C   UNL     1      40.900 135.873  22.287  1.00  0.00     0.157 C 
ATOM     29  C   UNL     1      41.429 136.007  23.718  1.00  0.00     0.041 C 
BRANCH  28  30
ATOM     30  C   UNL     1      41.258 134.554  21.721  1.00  0.00     0.081 C 
ATOM     31  N   UNL     1      41.537 133.522  21.277  1.00  0.00    -0.197 NA
ENDBRANCH  28  30
ENDBRANCH  26  28
ENDBRANCH  25  26
ENDBRANCH  24  25
ENDBRANCH   1  24
TORSDOF 10
ENDMDL
MODEL 5
REMARK VINA RESULT:      -4.9      3.021      4.547
REMARK SMILES C[C@@H](C#N)N(C)CCCCc1cn(-c2cc(N=C=O)c3c4c(cccc24)C(=O)[N-]3)nn1
REMARK SMILES IDX 9 1 10 2 11 3 13 4 30 5 12 6 31 7 14 8 24 9 23 10 25 11
REMARK SMILES IDX 22 12 26 13 21 14 27 15 20 16 29 17 15 18 16 19 28 20 17 21
REMARK SMILES IDX 18 22 19 23 8 24 7 25 5 26 6 27 2 28 1 29 3 30 4 31
REMARK H PARENT
ROOT
ATOM      1  C   UNL     1      39.746 136.063  19.561  1.00  0.00     0.008 C 
ENDROOT
BRANCH   1   2
ATOM      2  C   UNL     1      39.350 135.360  18.251  1.00  0.00     0.060 C 
BRANCH   2   3
ATOM      3  C   UNL     1      40.134 134.108  18.001  1.00  0.00     0.083 A 
ATOM      4  N   UNL     1      41.748 132.687  17.666  1.00  0.00    -0.220 N 
ATOM      5  N   UNL     1      40.593 132.039  17.672  1.00  0.00    -0.062 NA
ATOM      6  C   UNL     1      41.502 133.991  17.890  1.00  0.00     0.140 A 
ATOM      7  N   UNL     1      39.589 132.881  17.871  1.00  0.00    -0.135 NA
BRANCH   4   8
ATOM      8  C   UNL     1      43.037 132.068  17.515  1.00  0.00     0.076 A 
ATOM      9  C   UNL     1      43.553 131.496  13.792  1.00  0.00     0.001 A 
ATOM     10  C   UNL     1      44.807 130.845  13.829  1.00  0.00     0.011 A 
ATOM     11  C   UNL     1      42.918 131.919  14.988  1.00  0.00     0.011 A 
ATOM     12  C   UNL     1      45.389 130.638  15.077  1.00  0.00     0.006 A 
ATOM     13  C   UNL     1      43.534 131.682  16.242  1.00  0.00     0.007 A 
ATOM     14  C   UNL     1      44.767 131.048  16.213  1.00  0.00    -0.019 A 
ATOM     15  C   UNL     1      46.656 130.072  15.525  1.00  0.00     0.086 C 
ATOM     16  C   UNL     1      45.536 130.794  17.310  1.00  0.00    -0.098 A 
ATOM     17  N   UNL     1      46.773 130.162  16.955  1.00  0.00    -0.620 NA
ATOM     18  C   UNL     1      43.834 131.821  18.672  1.00  0.00     0.057 A 
ATOM     19  C   UNL     1      45.100 131.179  18.578  1.00  0.00     0.064 A 
ATOM     20  O   UNL     1      47.540 129.573  14.781  1.00  0.00    -0.315 OA
BRANCH  19  21
ATOM     21  N   UNL     1      45.929 130.917  19.720  1.00  0.00    -0.169 NA
BRANCH  21  22
ATOM     22  C   UNL     1      45.874 131.590  20.800  1.00  0.00     0.240 C 
ATOM     23  O   UNL     1      45.819 132.243  21.849  1.00  0.00    -0.211 OA
ENDBRANCH  21  22
ENDBRANCH  19  21
ENDBRANCH   4   8
ENDBRANCH   2   3
ENDBRANCH   1   2
BRANCH   1  24
ATOM     24  C   UNL     1      40.460 135.147  20.574  1.00  0.00     0.016 C 
BRANCH  24  25
ATOM     25  C   UNL     1      40.775 135.841  21.908  1.00  0.00     0.085 C 
BRANCH  25  26
ATOM     26  N   UNL     1      41.999 136.669  21.778  1.00  0.00    -0.291 NA
ATOM     27  C   UNL     1      42.174 137.141  20.391  1.00  0.00     0.106 C 
BRANCH  26  28
ATOM     28  C   UNL     1      43.236 136.008  22.273  1.00  0.00     0.157 C 
ATOM     29  C   UNL     1      42.905 134.958  23.338  1.00  0.00     0.041 C 
BRANCH  28  30
ATOM     30  C   UNL     1      44.041 135.411  21.185  1.00  0.00     0.081 C 
ATOM     31  N   UNL     1      44.671 134.943  20.334  1.00  0.00    -0.197 NA
ENDBRANCH  28  30
ENDBRANCH  26  28
ENDBRANCH  25  26
ENDBRANCH  24  25
ENDBRANCH   1  24
TORSDOF 10
ENDMDL
MODEL 6
REMARK VINA RESULT:      -4.8      2.585      4.766
REMARK SMILES C[C@@H](C#N)N(C)CCCCc1cn(-c2cc(N=C=O)c3c4c(cccc24)C(=O)[N-]3)nn1
REMARK SMILES IDX 9 1 10 2 11 3 13 4 30 5 12 6 31 7 14 8 24 9 23 10 25 11
REMARK SMILES IDX 22 12 26 13 21 14 27 15 20 16 29 17 15 18 16 19 28 20 17 21
REMARK SMILES IDX 18 22 19 23 8 24 7 25 5 26 6 27 2 28 1 29 3 30 4 31
REMARK H PARENT
ROOT
ATOM      1  C   UNL     1      47.537 138.319  20.565  1.00  0.00     0.008 C 
ENDROOT
BRANCH   1   2
ATOM      2  C   UNL     1      46.551 138.870  19.520  1.00  0.00     0.060 C 
BRANCH   2   3
ATOM      3  C   UNL     1      45.443 137.913  19.203  1.00  0.00     0.083 A 
ATOM      4  N   UNL     1      44.118 136.514  18.192  1.00  0.00    -0.220 N 
ATOM      5  N   UNL     1      43.704 136.680  19.439  1.00  0.00    -0.062 NA
ATOM      6  C   UNL     1      45.223 137.259  18.011  1.00  0.00     0.140 A 
ATOM      7  N   UNL     1      44.491 137.532  20.080  1.00  0.00    -0.135 NA
BRANCH   4   8
ATOM      8  C   UNL     1      43.513 135.626  17.236  1.00  0.00     0.076 A 
ATOM      9  C   UNL     1      39.895 136.726  16.849  1.00  0.00     0.001 A 
ATOM     10  C   UNL     1      39.447 135.737  15.945  1.00  0.00     0.011 A 
ATOM     11  C   UNL     1      41.236 136.733  17.314  1.00  0.00     0.011 A 
ATOM     12  C   UNL     1      40.367 134.777  15.532  1.00  0.00     0.006 A 
ATOM     13  C   UNL     1      42.142 135.734  16.882  1.00  0.00     0.007 A 
ATOM     14  C   UNL     1      41.647 134.797  15.988  1.00  0.00    -0.019 A 
ATOM     15  C   UNL     1      40.318 133.659  14.598  1.00  0.00     0.086 C 
ATOM     16  C   UNL     1      42.384 133.803  15.415  1.00  0.00    -0.098 A 
ATOM     17  N   UNL     1      41.602 133.020  14.506  1.00  0.00    -0.620 NA
ATOM     18  C   UNL     1      44.303 134.599  16.637  1.00  0.00     0.057 A 
ATOM     19  C   UNL     1      43.741 133.675  15.713  1.00  0.00     0.064 A 
ATOM     20  O   UNL     1      39.304 133.291  13.949  1.00  0.00    -0.315 OA
BRANCH  19  21
ATOM     21  N   UNL     1      44.506 132.632  15.091  1.00  0.00    -0.169 NA
BRANCH  21  22
ATOM     22  C   UNL     1      44.954 131.617  15.715  1.00  0.00     0.240 C 
ATOM     23  O   UNL     1      45.389 130.631  16.323  1.00  0.00    -0.211 OA
ENDBRANCH  21  22
ENDBRANCH  19  21
ENDBRANCH   4   8
ENDBRANCH   2   3
ENDBRANCH   1   2
BRANCH   1  24
ATOM     24  C   UNL     1      48.767 137.617  19.959  1.00  0.00     0.016 C 
BRANCH  24  25
ATOM     25  C   UNL     1      49.560 136.785  20.978  1.00  0.00     0.085 C 
BRANCH  25  26
ATOM     26  N   UNL     1      49.725 137.545  22.242  1.00  0.00    -0.291 NA
ATOM     27  C   UNL     1      51.055 138.181  22.308  1.00  0.00     0.106 C 
BRANCH  26  28
ATOM     28  C   UNL     1      49.456 136.751  23.470  1.00  0.00     0.157 C 
ATOM     29  C   UNL     1      47.949 136.626  23.720  1.00  0.00     0.041 C 
BRANCH  28  30
ATOM     30  C   UNL     1      50.091 135.415  23.439  1.00  0.00     0.081 C 
ATOM     31  N   UNL     1      50.587 134.370  23.415  1.00  0.00    -0.197 NA
ENDBRANCH  28  30
ENDBRANCH  26  28
ENDBRANCH  25  26
ENDBRANCH  24  25
ENDBRANCH   1  24
TORSDOF 10
ENDMDL
MODEL 7
REMARK VINA RESULT:      -4.7      3.834      7.227
REMARK SMILES C[C@@H](C#N)N(C)CCCCc1cn(-c2cc(N=C=O)c3c4c(cccc24)C(=O)[N-]3)nn1
REMARK SMILES IDX 9 1 10 2 11 3 13 4 30 5 12 6 31 7 14 8 24 9 23 10 25 11
REMARK SMILES IDX 22 12 26 13 21 14 27 15 20 16 29 17 15 18 16 19 28 20 17 21
REMARK SMILES IDX 18 22 19 23 8 24 7 25 5 26 6 27 2 28 1 29 3 30 4 31
REMARK H PARENT
ROOT
ATOM      1  C   UNL     1      45.858 131.073  15.763  1.00  0.00     0.008 C 
ENDROOT
BRANCH   1   2
ATOM      2  C   UNL     1      44.971 131.918  14.831  1.00  0.00     0.060 C 
BRANCH   2   3
ATOM      3  C   UNL     1      43.698 132.363  15.484  1.00  0.00     0.083 A 
ATOM      4  N   UNL     1      42.051 133.565  16.243  1.00  0.00    -0.220 N 
ATOM      5  N   UNL     1      41.823 132.291  16.522  1.00  0.00    -0.062 NA
ATOM      6  C   UNL     1      43.214 133.650  15.573  1.00  0.00     0.140 A 
ATOM      7  N   UNL     1      42.814 131.533  16.073  1.00  0.00    -0.135 NA
BRANCH   4   8
ATOM      8  C   UNL     1      41.157 134.647  16.555  1.00  0.00     0.076 A 
ATOM      9  C   UNL     1      38.055 134.162  14.411  1.00  0.00     0.001 A 
ATOM     10  C   UNL     1      37.328 135.313  14.790  1.00  0.00     0.011 A 
ATOM     11  C   UNL     1      39.334 133.895  14.964  1.00  0.00     0.011 A 
ATOM     12  C   UNL     1      37.915 136.168  15.720  1.00  0.00     0.006 A 
ATOM     13  C   UNL     1      39.905 134.792  15.899  1.00  0.00     0.007 A 
ATOM     14  C   UNL     1      39.141 135.898  16.238  1.00  0.00    -0.019 A 
ATOM     15  C   UNL     1      37.483 137.390  16.389  1.00  0.00     0.086 C 
ATOM     16  C   UNL     1      39.496 136.834  17.165  1.00  0.00    -0.098 A 
ATOM     17  N   UNL     1      38.482 137.835  17.322  1.00  0.00    -0.620 NA
ATOM     18  C   UNL     1      41.539 135.611  17.536  1.00  0.00     0.057 A 
ATOM     19  C   UNL     1      40.704 136.718  17.852  1.00  0.00     0.064 A 
ATOM     20  O   UNL     1      36.392 137.985  16.195  1.00  0.00    -0.315 OA
BRANCH  19  21
ATOM     21  N   UNL     1      41.055 137.704  18.835  1.00  0.00    -0.169 NA
BRANCH  21  22
ATOM     22  C   UNL     1      42.199 137.768  19.391  1.00  0.00     0.240 C 
ATOM     23  O   UNL     1      43.311 137.830  19.930  1.00  0.00    -0.211 OA
ENDBRANCH  21  22
ENDBRANCH  19  21
ENDBRANCH   4   8
ENDBRANCH   2   3
ENDBRANCH   1   2
BRANCH   1  24
ATOM     24  C   UNL     1      45.128 130.538  17.009  1.00  0.00     0.016 C 
BRANCH  24  25
ATOM     25  C   UNL     1      45.724 131.045  18.331  1.00  0.00     0.085 C 
BRANCH  25  26
ATOM     26  N   UNL     1      44.642 131.490  19.243  1.00  0.00    -0.291 NA
ATOM     27  C   UNL     1      44.369 132.931  19.078  1.00  0.00     0.106 C 
BRANCH  26  28
ATOM     28  C   UNL     1      44.876 131.157  20.673  1.00  0.00     0.157 C 
ATOM     29  C   UNL     1      45.907 132.106  21.294  1.00  0.00     0.041 C 
BRANCH  28  30
ATOM     30  C   UNL     1      43.630 131.148  21.471  1.00  0.00     0.081 C 
ATOM     31  N   UNL     1      42.655 131.142  22.095  1.00  0.00    -0.197 NA
ENDBRANCH  28  30
ENDBRANCH  26  28
ENDBRANCH  25  26
ENDBRANCH  24  25
ENDBRANCH   1  24
TORSDOF 10
ENDMDL
MODEL 8
REMARK VINA RESULT:      -4.7      3.769      6.500
REMARK SMILES C[C@@H](C#N)N(C)CCCCc1cn(-c2cc(N=C=O)c3c4c(cccc24)C(=O)[N-]3)nn1
REMARK SMILES IDX 9 1 10 2 11 3 13 4 30 5 12 6 31 7 14 8 24 9 23 10 25 11
REMARK SMILES IDX 22 12 26 13 21 14 27 15 20 16 29 17 15 18 16 19 28 20 17 21
REMARK SMILES IDX 18 22 19 23 8 24 7 25 5 26 6 27 2 28 1 29 3 30 4 31
REMARK H PARENT
ROOT
ATOM      1  C   UNL     1      40.747 138.217  14.624  1.00  0.00     0.008 C 
ENDROOT
BRANCH   1   2
ATOM      2  C   UNL     1      39.662 137.137  14.773  1.00  0.00     0.060 C 
BRANCH   2   3
ATOM      3  C   UNL     1      40.152 135.912  15.482  1.00  0.00     0.083 A 
ATOM      4  N   UNL     1      41.410 134.332  16.293  1.00  0.00    -0.220 N 
ATOM      5  N   UNL     1      40.156 134.122  16.663  1.00  0.00    -0.062 NA
ATOM      6  C   UNL     1      41.452 135.462  15.564  1.00  0.00     0.140 A 
ATOM      7  N   UNL     1      39.364 135.069  16.180  1.00  0.00    -0.135 NA
BRANCH   4   8
ATOM      8  C   UNL     1      42.529 133.516  16.679  1.00  0.00     0.076 A 
ATOM      9  C   UNL     1      43.387 131.338  13.684  1.00  0.00     0.001 A 
ATOM     10  C   UNL     1      44.440 130.578  14.243  1.00  0.00     0.011 A 
ATOM     11  C   UNL     1      42.715 132.324  14.451  1.00  0.00     0.011 A 
ATOM     12  C   UNL     1      44.787 130.836  15.567  1.00  0.00     0.006 A 
ATOM     13  C   UNL     1      43.087 132.551  15.799  1.00  0.00     0.007 A 
ATOM     14  C   UNL     1      44.132 131.782  16.288  1.00  0.00    -0.019 A 
ATOM     15  C   UNL     1      45.817 130.324  16.464  1.00  0.00     0.086 C 
ATOM     16  C   UNL     1      44.669 131.903  17.536  1.00  0.00    -0.098 A 
ATOM     17  N   UNL     1      45.761 130.997  17.734  1.00  0.00    -0.620 NA
ATOM     18  C   UNL     1      43.086 133.664  17.985  1.00  0.00     0.057 A 
ATOM     19  C   UNL     1      44.170 132.855  18.426  1.00  0.00     0.064 A 
ATOM     20  O   UNL     1      46.651 129.425  16.185  1.00  0.00    -0.315 OA
BRANCH  19  21
ATOM     21  N   UNL     1      44.756 132.979  19.730  1.00  0.00    -0.169 NA
BRANCH  21  22
ATOM     22  C   UNL     1      44.523 132.172  20.688  1.00  0.00     0.240 C 
ATOM     23  O   UNL     1      44.297 131.390  21.618  1.00  0.00    -0.211 OA
ENDBRANCH  21  22
ENDBRANCH  19  21
ENDBRANCH   4   8
ENDBRANCH   2   3
ENDBRANCH   1   2
BRANCH   1  24
ATOM     24  C   UNL     1      40.676 139.330  15.688  1.00  0.00     0.016 C 
BRANCH  24  25
ATOM     25  C   UNL     1      39.543 139.128  16.706  1.00  0.00     0.085 C 
BRANCH  25  26
ATOM     26  N   UNL     1      40.091 139.109  18.084  1.00  0.00    -0.291 NA
ATOM     27  C   UNL     1      41.384 138.399  18.130  1.00  0.00     0.106 C 
BRANCH  26  28
ATOM     28  C   UNL     1      39.154 138.567  19.104  1.00  0.00     0.157 C 
ATOM     29  C   UNL     1      39.678 138.831  20.520  1.00  0.00     0.041 C 
BRANCH  28  30
ATOM     30  C   UNL     1      37.778 139.088  18.953  1.00  0.00     0.081 C 
ATOM     31  N   UNL     1      36.701 139.496  18.835  1.00  0.00    -0.197 NA
ENDBRANCH  28  30
ENDBRANCH  26  28
ENDBRANCH  25  26
ENDBRANCH  24  25
ENDBRANCH   1  24
TORSDOF 10
ENDMDL
MODEL 9
REMARK VINA RESULT:      -4.7      2.811      4.725
REMARK SMILES C[C@@H](C#N)N(C)CCCCc1cn(-c2cc(N=C=O)c3c4c(cccc24)C(=O)[N-]3)nn1
REMARK SMILES IDX 9 1 10 2 11 3 13 4 30 5 12 6 31 7 14 8 24 9 23 10 25 11
REMARK SMILES IDX 22 12 26 13 21 14 27 15 20 16 29 17 15 18 16 19 28 20 17 21
REMARK SMILES IDX 18 22 19 23 8 24 7 25 5 26 6 27 2 28 1 29 3 30 4 31
REMARK H PARENT
ROOT
ATOM      1  C   UNL     1      47.314 138.509  21.226  1.00  0.00     0.008 C 
ENDROOT
BRANCH   1   2
ATOM      2  C   UNL     1      46.169 139.237  20.499  1.00  0.00     0.060 C 
BRANCH   2   3
ATOM      3  C   UNL     1      45.109 138.303  20.002  1.00  0.00     0.083 A 
ATOM      4  N   UNL     1      44.057 136.684  18.999  1.00  0.00    -0.220 N 
ATOM      5  N   UNL     1      43.189 137.396  19.702  1.00  0.00    -0.062 NA
ATOM      6  C   UNL     1      45.281 137.212  19.178  1.00  0.00     0.140 A 
ATOM      7  N   UNL     1      43.803 138.394  20.322  1.00  0.00    -0.135 NA
BRANCH   4   8
ATOM      8  C   UNL     1      43.730 135.507  18.239  1.00  0.00     0.076 A 
ATOM      9  C   UNL     1      42.058 136.693  15.038  1.00  0.00     0.001 A 
ATOM     10  C   UNL     1      41.758 135.441  14.455  1.00  0.00     0.011 A 
ATOM     11  C   UNL     1      42.708 136.772  16.297  1.00  0.00     0.011 A 
ATOM     12  C   UNL     1      42.124 134.297  15.161  1.00  0.00     0.006 A 
ATOM     13  C   UNL     1      43.057 135.588  16.992  1.00  0.00     0.007 A 
ATOM     14  C   UNL     1      42.745 134.391  16.365  1.00  0.00    -0.019 A 
ATOM     15  C   UNL     1      42.045 132.867  14.888  1.00  0.00     0.086 C 
ATOM     16  C   UNL     1      43.059 133.155  16.850  1.00  0.00    -0.098 A 
ATOM     17  N   UNL     1      42.639 132.114  15.958  1.00  0.00    -0.620 NA
ATOM     18  C   UNL     1      44.077 134.222  18.756  1.00  0.00     0.057 A 
ATOM     19  C   UNL     1      43.743 133.028  18.058  1.00  0.00     0.064 A 
ATOM     20  O   UNL     1      41.535 132.344  13.863  1.00  0.00    -0.315 OA
BRANCH  19  21
ATOM     21  N   UNL     1      44.079 131.721  18.547  1.00  0.00    -0.169 NA
BRANCH  21  22
ATOM     22  C   UNL     1      44.804 131.516  19.574  1.00  0.00     0.240 C 
ATOM     23  O   UNL     1      45.508 131.319  20.571  1.00  0.00    -0.211 OA
ENDBRANCH  21  22
ENDBRANCH  19  21
ENDBRANCH   4   8
ENDBRANCH   2   3
ENDBRANCH   1   2
BRANCH   1  24
ATOM     24  C   UNL     1      48.720 139.011  20.843  1.00  0.00     0.016 C 
BRANCH  24  25
ATOM     25  C   UNL     1      49.843 138.039  21.238  1.00  0.00     0.085 C 
BRANCH  25  26
ATOM     26  N   UNL     1      50.355 138.370  22.590  1.00  0.00    -0.291 NA
ATOM     27  C   UNL     1      51.783 138.737  22.540  1.00  0.00     0.106 C 
BRANCH  26  28
ATOM     28  C   UNL     1      50.115 137.312  23.607  1.00  0.00     0.157 C 
ATOM     29  C   UNL     1      48.952 137.695  24.529  1.00  0.00     0.041 C 
BRANCH  28  30
ATOM     30  C   UNL     1      49.886 135.980  23.006  1.00  0.00     0.081 C 
ATOM     31  N   UNL     1      49.707 134.938  22.536  1.00  0.00    -0.197 NA
ENDBRANCH  28  30
ENDBRANCH  26  28
ENDBRANCH  25  26
ENDBRANCH  24  25
ENDBRANCH   1  24
TORSDOF 10
ENDMDL


