MODEL 1
REMARK VINA RESULT:      -6.0      0.000      0.000
REMARK SMILES C#C/C(C#N)=N\[C@H](c1c(C)[nH+]nn1-c1c2ccccc2c(C(=O)N=[N+]=[N-])c2ccccc12)C(C)C
REMARK SMILES IDX 8 1 9 2 10 3 11 4 12 6 13 7 7 8 6 9 3 10 2 11 1 12 4 13 5 14
REMARK SMILES IDX 33 15 34 16 35 17 14 18 15 19 32 20 16 21 20 22 31 23 27 24
REMARK SMILES IDX 17 25 19 26 21 27 30 28 28 29 18 30 29 31 22 32 23 33 24 34
REMARK SMILES IDX 25 35 26 36
REMARK H PARENT 11 5
ROOT
ATOM      1  C   UNL     1      41.409 135.593  19.343  1.00  0.00     0.201 A 
ATOM      2  C   UNL     1      40.290 135.873  20.130  1.00  0.00     0.167 A 
ATOM      3  C   UNL     1      39.857 137.164  20.755  1.00  0.00     0.100 C 
ATOM      4  N   UNL     1      39.602 134.724  20.268  1.00  0.00    -0.147 N 
ATOM      5  H   UNL     1      38.715 134.584  20.801  1.00  0.00     0.342 HD
ATOM      6  N   UNL     1      40.226 133.778  19.589  1.00  0.00     0.094 NA
ATOM      7  N   UNL     1      41.314 134.277  19.025  1.00  0.00    -0.095 N 
ENDROOT
BRANCH   1   8
ATOM      8  C   UNL     1      42.500 136.530  18.846  1.00  0.00     0.187 C 
BRANCH   8   9
ATOM      9  N   UNL     1      41.896 137.704  18.210  1.00  0.00    -0.254 NA
BRANCH   9  10
ATOM     10  C   UNL     1      41.404 137.757  17.006  1.00  0.00     0.186 C 
BRANCH  10  11
ATOM     11  C   UNL     1      42.225 137.599  15.831  1.00  0.00    -0.039 C 
ATOM     12  C   UNL     1      42.907 137.468  14.845  1.00  0.00     0.012 C 
ENDBRANCH  10  11
BRANCH  10  13
ATOM     13  C   UNL     1      39.991 137.945  16.839  1.00  0.00     0.129 C 
ATOM     14  N   UNL     1      38.852 138.098  16.705  1.00  0.00    -0.190 NA
ENDBRANCH  10  13
ENDBRANCH   9  10
ENDBRANCH   8   9
BRANCH   8  15
ATOM     15  C   UNL     1      43.530 136.945  19.935  1.00  0.00     0.016 C 
ATOM     16  C   UNL     1      43.451 138.426  20.327  1.00  0.00     0.010 C 
ATOM     17  C   UNL     1      43.426 136.061  21.185  1.00  0.00     0.010 C 
ENDBRANCH   8  15
ENDBRANCH   1   8
BRANCH   7  18
ATOM     18  C   UNL     1      42.177 133.512  18.162  1.00  0.00     0.171 A 
ATOM     19  C   UNL     1      41.971 133.523  16.764  1.00  0.00     0.032 A 
ATOM     20  C   UNL     1      43.231 132.752  18.714  1.00  0.00     0.032 A 
ATOM     21  C   UNL     1      40.873 134.211  16.202  1.00  0.00     0.013 A 
ATOM     22  C   UNL     1      42.875 132.844  15.905  1.00  0.00    -0.002 A 
ATOM     23  C   UNL     1      43.416 132.683  20.113  1.00  0.00     0.013 A 
ATOM     24  C   UNL     1      44.125 132.049  17.862  1.00  0.00    -0.002 A 
ATOM     25  C   UNL     1      40.697 134.270  14.821  1.00  0.00     0.001 A 
ATOM     26  C   UNL     1      42.681 132.932  14.505  1.00  0.00     0.009 A 
ATOM     27  C   UNL     1      43.958 132.110  16.455  1.00  0.00     0.040 A 
ATOM     28  C   UNL     1      44.455 131.934  20.660  1.00  0.00     0.001 A 
ATOM     29  C   UNL     1      45.163 131.284  18.447  1.00  0.00     0.009 A 
ATOM     30  C   UNL     1      41.602 133.639  13.976  1.00  0.00     0.001 A 
ATOM     31  C   UNL     1      45.323 131.235  19.830  1.00  0.00     0.001 A 
BRANCH  27  32
ATOM     32  C   UNL     1      44.908 131.406  15.563  1.00  0.00     0.250 C 
ATOM     33  O   UNL     1      44.694 130.203  15.245  1.00  0.00    -0.287 OA
BRANCH  32  34
ATOM     34  N   UNL     1      46.059 132.094  15.069  1.00  0.00    -0.017 NA
BRANCH  34  35
ATOM     35  N   UNL     1      46.818 131.566  14.256  1.00  0.00     0.009 N 
ATOM     36  N   UNL     1      47.576 131.038  13.443  1.00  0.00    -0.003 NA
ENDBRANCH  34  35
ENDBRANCH  32  34
ENDBRANCH  27  32
ENDBRANCH   7  18
TORSDOF 10
ENDMDL
MODEL 2
REMARK VINA RESULT:      -5.9      1.671      2.059
REMARK SMILES C#C/C(C#N)=N\[C@H](c1c(C)[nH+]nn1-c1c2ccccc2c(C(=O)N=[N+]=[N-])c2ccccc12)C(C)C
REMARK SMILES IDX 8 1 9 2 10 3 11 4 12 6 13 7 7 8 6 9 3 10 2 11 1 12 4 13 5 14
REMARK SMILES IDX 33 15 34 16 35 17 14 18 15 19 32 20 16 21 20 22 31 23 27 24
REMARK SMILES IDX 17 25 19 26 21 27 30 28 28 29 18 30 29 31 22 32 23 33 24 34
REMARK SMILES IDX 25 35 26 36
REMARK H PARENT 11 5
ROOT
ATOM      1  C   UNL     1      42.299 134.876  20.416  1.00  0.00     0.201 A 
ATOM      2  C   UNL     1      41.234 135.172  21.269  1.00  0.00     0.167 A 
ATOM      3  C   UNL     1      41.076 136.289  22.255  1.00  0.00     0.100 C 
ATOM      4  N   UNL     1      40.292 134.229  21.072  1.00  0.00    -0.147 N 
ATOM      5  H   UNL     1      39.368 134.154  21.554  1.00  0.00     0.342 HD
ATOM      6  N   UNL     1      40.717 133.402  20.133  1.00  0.00     0.094 NA
ATOM      7  N   UNL     1      41.921 133.772  19.725  1.00  0.00    -0.095 N 
ENDROOT
BRANCH   1   8
ATOM      8  C   UNL     1      43.602 135.630  20.202  1.00  0.00     0.187 C 
BRANCH   8   9
ATOM      9  N   UNL     1      43.337 136.893  19.506  1.00  0.00    -0.254 NA
BRANCH   9  10
ATOM     10  C   UNL     1      43.957 137.332  18.449  1.00  0.00     0.186 C 
BRANCH  10  11
ATOM     11  C   UNL     1      43.970 136.602  17.205  1.00  0.00    -0.039 C 
ATOM     12  C   UNL     1      43.976 135.990  16.165  1.00  0.00     0.012 C 
ENDBRANCH  10  11
BRANCH  10  13
ATOM     13  C   UNL     1      44.624 138.601  18.510  1.00  0.00     0.129 C 
ATOM     14  N   UNL     1      45.163 139.624  18.560  1.00  0.00    -0.190 NA
ENDBRANCH  10  13
ENDBRANCH   9  10
ENDBRANCH   8   9
BRANCH   8  15
ATOM     15  C   UNL     1      44.427 135.864  21.499  1.00  0.00     0.016 C 
ATOM     16  C   UNL     1      44.244 134.765  22.554  1.00  0.00     0.010 C 
ATOM     17  C   UNL     1      45.918 136.064  21.198  1.00  0.00     0.010 C 
ENDBRANCH   8  15
ENDBRANCH   1   8
BRANCH   7  18
ATOM     18  C   UNL     1      42.630 133.109  18.661  1.00  0.00     0.171 A 
ATOM     19  C   UNL     1      42.212 133.274  17.321  1.00  0.00     0.032 A 
ATOM     20  C   UNL     1      43.746 132.296  18.957  1.00  0.00     0.032 A 
ATOM     21  C   UNL     1      41.051 134.016  17.014  1.00  0.00     0.013 A 
ATOM     22  C   UNL     1      42.964 132.696  16.263  1.00  0.00    -0.002 A 
ATOM     23  C   UNL     1      44.142 132.073  20.294  1.00  0.00     0.013 A 
ATOM     24  C   UNL     1      44.489 131.694  17.905  1.00  0.00    -0.002 A 
ATOM     25  C   UNL     1      40.665 134.226  15.692  1.00  0.00     0.001 A 
ATOM     26  C   UNL     1      42.559 132.938  14.929  1.00  0.00     0.009 A 
ATOM     27  C   UNL     1      44.108 131.910  16.556  1.00  0.00     0.040 A 
ATOM     28  C   UNL     1      45.243 131.272  20.589  1.00  0.00     0.001 A 
ATOM     29  C   UNL     1      45.593 130.873  18.236  1.00  0.00     0.009 A 
ATOM     30  C   UNL     1      41.421 133.696  14.652  1.00  0.00     0.001 A 
ATOM     31  C   UNL     1      45.963 130.671  19.564  1.00  0.00     0.001 A 
BRANCH  27  32
ATOM     32  C   UNL     1      44.900 131.311  15.457  1.00  0.00     0.250 C 
ATOM     33  O   UNL     1      44.567 130.189  14.984  1.00  0.00    -0.287 OA
BRANCH  32  34
ATOM     34  N   UNL     1      46.034 132.010  14.938  1.00  0.00    -0.017 NA
BRANCH  34  35
ATOM     35  N   UNL     1      46.859 131.444  14.221  1.00  0.00     0.009 N 
ATOM     36  N   UNL     1      47.684 130.878  13.504  1.00  0.00    -0.003 NA
ENDBRANCH  34  35
ENDBRANCH  32  34
ENDBRANCH  27  32
ENDBRANCH   7  18
TORSDOF 10
ENDMDL
MODEL 3
REMARK VINA RESULT:      -5.9      0.780      3.241
REMARK SMILES C#C/C(C#N)=N\[C@H](c1c(C)[nH+]nn1-c1c2ccccc2c(C(=O)N=[N+]=[N-])c2ccccc12)C(C)C
REMARK SMILES IDX 8 1 9 2 10 3 11 4 12 6 13 7 7 8 6 9 3 10 2 11 1 12 4 13 5 14
REMARK SMILES IDX 33 15 34 16 35 17 14 18 15 19 32 20 16 21 20 22 31 23 27 24
REMARK SMILES IDX 17 25 19 26 21 27 30 28 28 29 18 30 29 31 22 32 23 33 24 34
REMARK SMILES IDX 25 35 26 36
REMARK H PARENT 11 5
ROOT
ATOM      1  C   UNL     1      41.632 135.316  19.549  1.00  0.00     0.201 A 
ATOM      2  C   UNL     1      40.444 135.610  20.220  1.00  0.00     0.167 A 
ATOM      3  C   UNL     1      39.974 136.900  20.819  1.00  0.00     0.100 C 
ATOM      4  N   UNL     1      39.721 134.474  20.266  1.00  0.00    -0.147 N 
ATOM      5  H   UNL     1      38.780 134.346  20.701  1.00  0.00     0.342 HD
ATOM      6  N   UNL     1      40.393 133.525  19.638  1.00  0.00     0.094 NA
ATOM      7  N   UNL     1      41.545 134.008  19.200  1.00  0.00    -0.095 N 
ENDROOT
BRANCH   1   8
ATOM      8  C   UNL     1      42.789 136.236  19.186  1.00  0.00     0.187 C 
BRANCH   8   9
ATOM      9  N   UNL     1      42.322 137.285  18.274  1.00  0.00    -0.254 NA
BRANCH   9  10
ATOM     10  C   UNL     1      42.130 137.159  16.994  1.00  0.00     0.186 C 
BRANCH  10  11
ATOM     11  C   UNL     1      43.120 136.581  16.119  1.00  0.00    -0.039 C 
ATOM     12  C   UNL     1      43.945 136.099  15.383  1.00  0.00     0.012 C 
ENDBRANCH  10  11
BRANCH  10  13
ATOM     13  C   UNL     1      40.877 137.580  16.433  1.00  0.00     0.129 C 
ATOM     14  N   UNL     1      39.868 137.919  15.982  1.00  0.00    -0.190 NA
ENDBRANCH  10  13
ENDBRANCH   9  10
ENDBRANCH   8   9
BRANCH   8  15
ATOM     15  C   UNL     1      43.533 136.841  20.409  1.00  0.00     0.016 C 
ATOM     16  C   UNL     1      43.694 135.864  21.581  1.00  0.00     0.010 C 
ATOM     17  C   UNL     1      44.897 137.423  20.015  1.00  0.00     0.010 C 
ENDBRANCH   8  15
ENDBRANCH   1   8
BRANCH   7  18
ATOM     18  C   UNL     1      42.477 133.237  18.419  1.00  0.00     0.171 A 
ATOM     19  C   UNL     1      43.559 132.583  19.050  1.00  0.00     0.032 A 
ATOM     20  C   UNL     1      42.308 133.132  17.021  1.00  0.00     0.032 A 
ATOM     21  C   UNL     1      43.790 132.745  20.434  1.00  0.00     0.013 A 
ATOM     22  C   UNL     1      44.426 131.748  18.296  1.00  0.00    -0.002 A 
ATOM     23  C   UNL     1      41.266 133.826  16.366  1.00  0.00     0.013 A 
ATOM     24  C   UNL     1      43.186 132.318  16.255  1.00  0.00    -0.002 A 
ATOM     25  C   UNL     1      44.824 132.059  21.070  1.00  0.00     0.001 A 
ATOM     26  C   UNL     1      45.458 131.053  18.970  1.00  0.00     0.009 A 
ATOM     27  C   UNL     1      44.235 131.611  16.897  1.00  0.00     0.040 A 
ATOM     28  C   UNL     1      41.097 133.724  14.987  1.00  0.00     0.001 A 
ATOM     29  C   UNL     1      42.999 132.246  14.854  1.00  0.00     0.009 A 
ATOM     30  C   UNL     1      45.649 131.210  20.342  1.00  0.00     0.001 A 
ATOM     31  C   UNL     1      41.961 132.940  14.234  1.00  0.00     0.001 A 
BRANCH  27  32
ATOM     32  C   UNL     1      45.132 130.736  16.106  1.00  0.00     0.250 C 
ATOM     33  O   UNL     1      44.713 129.619  15.694  1.00  0.00    -0.287 OA
BRANCH  32  34
ATOM     34  N   UNL     1      46.464 131.165  15.815  1.00  0.00    -0.017 NA
BRANCH  34  35
ATOM     35  N   UNL     1      46.849 131.308  14.654  1.00  0.00     0.009 N 
ATOM     36  N   UNL     1      47.234 131.452  13.495  1.00  0.00    -0.003 NA
ENDBRANCH  34  35
ENDBRANCH  32  34
ENDBRANCH  27  32
ENDBRANCH   7  18
TORSDOF 10
ENDMDL
MODEL 4
REMARK VINA RESULT:      -5.7      2.823      4.949
REMARK SMILES C#C/C(C#N)=N\[C@H](c1c(C)[nH+]nn1-c1c2ccccc2c(C(=O)N=[N+]=[N-])c2ccccc12)C(C)C
REMARK SMILES IDX 8 1 9 2 10 3 11 4 12 6 13 7 7 8 6 9 3 10 2 11 1 12 4 13 5 14
REMARK SMILES IDX 33 15 34 16 35 17 14 18 15 19 32 20 16 21 20 22 31 23 27 24
REMARK SMILES IDX 17 25 19 26 21 27 30 28 28 29 18 30 29 31 22 32 23 33 24 34
REMARK SMILES IDX 25 35 26 36
REMARK H PARENT 11 5
ROOT
ATOM      1  C   UNL     1      43.716 132.705  21.649  1.00  0.00     0.201 A 
ATOM      2  C   UNL     1      43.245 131.819  22.619  1.00  0.00     0.167 A 
ATOM      3  C   UNL     1      43.579 131.726  24.077  1.00  0.00     0.100 C 
ATOM      4  N   UNL     1      42.383 130.982  22.010  1.00  0.00    -0.147 N 
ATOM      5  H   UNL     1      41.854 130.196  22.450  1.00  0.00     0.342 HD
ATOM      6  N   UNL     1      42.288 131.332  20.739  1.00  0.00     0.094 NA
ATOM      7  N   UNL     1      43.081 132.365  20.500  1.00  0.00    -0.095 N 
ENDROOT
BRANCH   1   8
ATOM      8  C   UNL     1      44.679 133.875  21.795  1.00  0.00     0.187 C 
BRANCH   8   9
ATOM      9  N   UNL     1      44.003 134.995  22.457  1.00  0.00    -0.254 NA
BRANCH   9  10
ATOM     10  C   UNL     1      43.821 136.183  21.959  1.00  0.00     0.186 C 
BRANCH  10  11
ATOM     11  C   UNL     1      44.488 136.627  20.760  1.00  0.00    -0.039 C 
ATOM     12  C   UNL     1      45.048 137.003  19.759  1.00  0.00     0.012 C 
ENDBRANCH  10  11
BRANCH  10  13
ATOM     13  C   UNL     1      42.900 137.075  22.605  1.00  0.00     0.129 C 
ATOM     14  N   UNL     1      42.158 137.793  23.126  1.00  0.00    -0.190 NA
ENDBRANCH  10  13
ENDBRANCH   9  10
ENDBRANCH   8   9
BRANCH   8  15
ATOM     15  C   UNL     1      46.013 133.519  22.509  1.00  0.00     0.016 C 
ATOM     16  C   UNL     1      47.264 133.886  21.701  1.00  0.00     0.010 C 
ATOM     17  C   UNL     1      46.090 134.136  23.912  1.00  0.00     0.010 C 
ENDBRANCH   8  15
ENDBRANCH   1   8
BRANCH   7  18
ATOM     18  C   UNL     1      43.155 133.022  19.220  1.00  0.00     0.171 A 
ATOM     19  C   UNL     1      44.024 132.530  18.220  1.00  0.00     0.032 A 
ATOM     20  C   UNL     1      42.355 134.157  18.964  1.00  0.00     0.032 A 
ATOM     21  C   UNL     1      44.890 131.447  18.488  1.00  0.00     0.013 A 
ATOM     22  C   UNL     1      44.031 133.121  16.929  1.00  0.00    -0.002 A 
ATOM     23  C   UNL     1      41.524 134.697  19.971  1.00  0.00     0.013 A 
ATOM     24  C   UNL     1      42.375 134.769  17.681  1.00  0.00    -0.002 A 
ATOM     25  C   UNL     1      45.710 130.925  17.489  1.00  0.00     0.001 A 
ATOM     26  C   UNL     1      44.863 132.561  15.930  1.00  0.00     0.009 A 
ATOM     27  C   UNL     1      43.201 134.238  16.658  1.00  0.00     0.040 A 
ATOM     28  C   UNL     1      40.734 135.816  19.721  1.00  0.00     0.001 A 
ATOM     29  C   UNL     1      41.573 135.914  17.461  1.00  0.00     0.009 A 
ATOM     30  C   UNL     1      45.690 131.475  16.212  1.00  0.00     0.001 A 
ATOM     31  C   UNL     1      40.761 136.425  18.472  1.00  0.00     0.001 A 
BRANCH  27  32
ATOM     32  C   UNL     1      43.199 134.853  15.310  1.00  0.00     0.250 C 
ATOM     33  O   UNL     1      44.106 135.672  14.994  1.00  0.00    -0.287 OA
BRANCH  32  34
ATOM     34  N   UNL     1      42.171 134.513  14.377  1.00  0.00    -0.017 NA
BRANCH  34  35
ATOM     35  N   UNL     1      41.885 133.339  14.142  1.00  0.00     0.009 N 
ATOM     36  N   UNL     1      41.598 132.166  13.907  1.00  0.00    -0.003 NA
ENDBRANCH  34  35
ENDBRANCH  32  34
ENDBRANCH  27  32
ENDBRANCH   7  18
TORSDOF 10
ENDMDL
MODEL 5
REMARK VINA RESULT:      -5.7      2.112      3.065
REMARK SMILES C#C/C(C#N)=N\[C@H](c1c(C)[nH+]nn1-c1c2ccccc2c(C(=O)N=[N+]=[N-])c2ccccc12)C(C)C
REMARK SMILES IDX 8 1 9 2 10 3 11 4 12 6 13 7 7 8 6 9 3 10 2 11 1 12 4 13 5 14
REMARK SMILES IDX 33 15 34 16 35 17 14 18 15 19 32 20 16 21 20 22 31 23 27 24
REMARK SMILES IDX 17 25 19 26 21 27 30 28 28 29 18 30 29 31 22 32 23 33 24 34
REMARK SMILES IDX 25 35 26 36
REMARK H PARENT 11 5
ROOT
ATOM      1  C   UNL     1      43.955 135.836  20.860  1.00  0.00     0.201 A 
ATOM      2  C   UNL     1      43.135 136.282  21.897  1.00  0.00     0.167 A 
ATOM      3  C   UNL     1      43.405 137.299  22.964  1.00  0.00     0.100 C 
ATOM      4  N   UNL     1      41.973 135.607  21.805  1.00  0.00    -0.147 N 
ATOM      5  H   UNL     1      41.142 135.700  22.431  1.00  0.00     0.342 HD
ATOM      6  N   UNL     1      42.037 134.805  20.757  1.00  0.00     0.094 NA
ATOM      7  N   UNL     1      43.220 134.925  20.174  1.00  0.00    -0.095 N 
ENDROOT
BRANCH   1   8
ATOM      8  C   UNL     1      45.357 136.286  20.474  1.00  0.00     0.187 C 
BRANCH   8   9
ATOM      9  N   UNL     1      45.489 137.731  20.681  1.00  0.00    -0.254 NA
BRANCH   9  10
ATOM     10  C   UNL     1      45.358 138.652  19.772  1.00  0.00     0.186 C 
BRANCH  10  11
ATOM     11  C   UNL     1      46.480 139.156  19.018  1.00  0.00    -0.039 C 
ATOM     12  C   UNL     1      47.417 139.582  18.388  1.00  0.00     0.012 C 
ENDBRANCH  10  11
BRANCH  10  13
ATOM     13  C   UNL     1      44.049 139.164  19.483  1.00  0.00     0.129 C 
ATOM     14  N   UNL     1      42.994 139.577  19.249  1.00  0.00    -0.190 NA
ENDBRANCH  10  13
ENDBRANCH   9  10
ENDBRANCH   8   9
BRANCH   8  15
ATOM     15  C   UNL     1      46.497 135.507  21.188  1.00  0.00     0.016 C 
ATOM     16  C   UNL     1      47.754 136.348  21.446  1.00  0.00     0.010 C 
ATOM     17  C   UNL     1      46.016 134.862  22.495  1.00  0.00     0.010 C 
ENDBRANCH   8  15
ENDBRANCH   1   8
BRANCH   7  18
ATOM     18  C   UNL     1      43.578 134.228  18.966  1.00  0.00     0.171 A 
ATOM     19  C   UNL     1      43.271 134.790  17.706  1.00  0.00     0.032 A 
ATOM     20  C   UNL     1      44.237 132.982  19.040  1.00  0.00     0.032 A 
ATOM     21  C   UNL     1      42.539 135.994  17.614  1.00  0.00     0.013 A 
ATOM     22  C   UNL     1      43.703 134.150  16.515  1.00  0.00    -0.002 A 
ATOM     23  C   UNL     1      44.500 132.378  20.290  1.00  0.00     0.013 A 
ATOM     24  C   UNL     1      44.652 132.322  17.851  1.00  0.00    -0.002 A 
ATOM     25  C   UNL     1      42.281 136.580  16.376  1.00  0.00     0.001 A 
ATOM     26  C   UNL     1      43.441 134.774  15.272  1.00  0.00     0.009 A 
ATOM     27  C   UNL     1      44.400 132.916  16.588  1.00  0.00     0.040 A 
ATOM     28  C   UNL     1      45.152 131.149  20.366  1.00  0.00     0.001 A 
ATOM     29  C   UNL     1      45.299 131.068  17.959  1.00  0.00     0.009 A 
ATOM     30  C   UNL     1      42.737 135.977  15.210  1.00  0.00     0.001 A 
ATOM     31  C   UNL     1      45.546 130.495  19.205  1.00  0.00     0.001 A 
BRANCH  27  32
ATOM     32  C   UNL     1      44.860 132.247  15.349  1.00  0.00     0.250 C 
ATOM     33  O   UNL     1      44.041 131.586  14.654  1.00  0.00    -0.287 OA
BRANCH  32  34
ATOM     34  N   UNL     1      46.228 132.358  14.950  1.00  0.00    -0.017 NA
BRANCH  34  35
ATOM     35  N   UNL     1      46.865 131.374  14.574  1.00  0.00     0.009 N 
ATOM     36  N   UNL     1      47.501 130.391  14.197  1.00  0.00    -0.003 NA
ENDBRANCH  34  35
ENDBRANCH  32  34
ENDBRANCH  27  32
ENDBRANCH   7  18
TORSDOF 10
ENDMDL
MODEL 6
REMARK VINA RESULT:      -5.6      1.920      4.716
REMARK SMILES C#C/C(C#N)=N\[C@H](c1c(C)[nH+]nn1-c1c2ccccc2c(C(=O)N=[N+]=[N-])c2ccccc12)C(C)C
REMARK SMILES IDX 8 1 9 2 10 3 11 4 12 6 13 7 7 8 6 9 3 10 2 11 1 12 4 13 5 14
REMARK SMILES IDX 33 15 34 16 35 17 14 18 15 19 32 20 16 21 20 22 31 23 27 24
REMARK SMILES IDX 17 25 19 26 21 27 30 28 28 29 18 30 29 31 22 32 23 33 24 34
REMARK SMILES IDX 25 35 26 36
REMARK H PARENT 11 5
ROOT
ATOM      1  C   UNL     1      42.398 135.320  20.308  1.00  0.00     0.201 A 
ATOM      2  C   UNL     1      41.282 135.558  21.112  1.00  0.00     0.167 A 
ATOM      3  C   UNL     1      41.028 136.656  22.099  1.00  0.00     0.100 C 
ATOM      4  N   UNL     1      40.395 134.575  20.863  1.00  0.00    -0.147 N 
ATOM      5  H   UNL     1      39.454 134.453  21.300  1.00  0.00     0.342 HD
ATOM      6  N   UNL     1      40.901 133.779  19.938  1.00  0.00     0.094 NA
ATOM      7  N   UNL     1      42.104 134.207  19.590  1.00  0.00    -0.095 N 
ENDROOT
BRANCH   1   8
ATOM      8  C   UNL     1      43.675 136.135  20.162  1.00  0.00     0.187 C 
BRANCH   8   9
ATOM      9  N   UNL     1      44.836 135.305  20.498  1.00  0.00    -0.254 NA
BRANCH   9  10
ATOM     10  C   UNL     1      45.473 135.300  21.632  1.00  0.00     0.186 C 
BRANCH  10  11
ATOM     11  C   UNL     1      44.856 135.727  22.864  1.00  0.00    -0.039 C 
ATOM     12  C   UNL     1      44.335 136.082  23.893  1.00  0.00     0.012 C 
ENDBRANCH  10  11
BRANCH  10  13
ATOM     13  C   UNL     1      46.826 134.824  21.669  1.00  0.00     0.129 C 
ATOM     14  N   UNL     1      47.917 134.439  21.698  1.00  0.00    -0.190 NA
ENDBRANCH  10  13
ENDBRANCH   9  10
ENDBRANCH   8   9
BRANCH   8  15
ATOM     15  C   UNL     1      43.846 136.809  18.771  1.00  0.00     0.016 C 
ATOM     16  C   UNL     1      42.819 137.913  18.487  1.00  0.00     0.010 C 
ATOM     17  C   UNL     1      45.269 137.347  18.570  1.00  0.00     0.010 C 
ENDBRANCH   8  15
ENDBRANCH   1   8
BRANCH   7  18
ATOM     18  C   UNL     1      42.892 133.589  18.554  1.00  0.00     0.171 A 
ATOM     19  C   UNL     1      43.874 132.629  18.889  1.00  0.00     0.032 A 
ATOM     20  C   UNL     1      42.681 133.941  17.204  1.00  0.00     0.032 A 
ATOM     21  C   UNL     1      44.154 132.326  20.240  1.00  0.00     0.013 A 
ATOM     22  C   UNL     1      44.587 131.953  17.865  1.00  0.00    -0.002 A 
ATOM     23  C   UNL     1      41.745 134.940  16.856  1.00  0.00     0.013 A 
ATOM     24  C   UNL     1      43.410 133.286  16.174  1.00  0.00    -0.002 A 
ATOM     25  C   UNL     1      45.083 131.342  20.573  1.00  0.00     0.001 A 
ATOM     26  C   UNL     1      45.514 130.947  18.231  1.00  0.00     0.009 A 
ATOM     27  C   UNL     1      44.350 132.278  16.504  1.00  0.00     0.040 A 
ATOM     28  C   UNL     1      41.535 135.289  15.524  1.00  0.00     0.001 A 
ATOM     29  C   UNL     1      43.185 133.672  14.831  1.00  0.00     0.009 A 
ATOM     30  C   UNL     1      45.754 130.649  19.572  1.00  0.00     0.001 A 
ATOM     31  C   UNL     1      42.255 134.660  14.515  1.00  0.00     0.001 A 
BRANCH  27  32
ATOM     32  C   UNL     1      45.087 131.569  15.432  1.00  0.00     0.250 C 
ATOM     33  O   UNL     1      44.628 130.490  14.965  1.00  0.00    -0.287 OA
BRANCH  32  34
ATOM     34  N   UNL     1      46.310 132.115  14.932  1.00  0.00    -0.017 NA
BRANCH  34  35
ATOM     35  N   UNL     1      46.984 131.512  14.097  1.00  0.00     0.009 N 
ATOM     36  N   UNL     1      47.658 130.909  13.263  1.00  0.00    -0.003 NA
ENDBRANCH  34  35
ENDBRANCH  32  34
ENDBRANCH  27  32
ENDBRANCH   7  18
TORSDOF 10
ENDMDL
MODEL 7
REMARK VINA RESULT:      -5.5      0.905      3.434
REMARK SMILES C#C/C(C#N)=N\[C@H](c1c(C)[nH+]nn1-c1c2ccccc2c(C(=O)N=[N+]=[N-])c2ccccc12)C(C)C
REMARK SMILES IDX 8 1 9 2 10 3 11 4 12 6 13 7 7 8 6 9 3 10 2 11 1 12 4 13 5 14
REMARK SMILES IDX 33 15 34 16 35 17 14 18 15 19 32 20 16 21 20 22 31 23 27 24
REMARK SMILES IDX 17 25 19 26 21 27 30 28 28 29 18 30 29 31 22 32 23 33 24 34
REMARK SMILES IDX 25 35 26 36
REMARK H PARENT 11 5
ROOT
ATOM      1  C   UNL     1      40.884 135.984  19.095  1.00  0.00     0.201 A 
ATOM      2  C   UNL     1      39.695 136.190  19.795  1.00  0.00     0.167 A 
ATOM      3  C   UNL     1      39.107 137.458  20.335  1.00  0.00     0.100 C 
ATOM      4  N   UNL     1      39.102 134.989  19.937  1.00  0.00    -0.147 N 
ATOM      5  H   UNL     1      38.197 134.788  20.417  1.00  0.00     0.342 HD
ATOM      6  N   UNL     1      39.852 134.079  19.340  1.00  0.00     0.094 NA
ATOM      7  N   UNL     1      40.929 134.655  18.827  1.00  0.00    -0.095 N 
ENDROOT
BRANCH   1   8
ATOM      8  C   UNL     1      41.920 136.997  18.631  1.00  0.00     0.187 C 
BRANCH   8   9
ATOM      9  N   UNL     1      41.258 138.093  17.915  1.00  0.00    -0.254 NA
BRANCH   9  10
ATOM     10  C   UNL     1      40.885 138.080  16.669  1.00  0.00     0.186 C 
BRANCH  10  11
ATOM     11  C   UNL     1      39.496 138.089  16.280  1.00  0.00    -0.039 C 
ATOM     12  C   UNL     1      38.334 138.091  15.954  1.00  0.00     0.012 C 
ENDBRANCH  10  11
BRANCH  10  13
ATOM     13  C   UNL     1      41.888 138.091  15.642  1.00  0.00     0.129 C 
ATOM     14  N   UNL     1      42.696 138.099  14.815  1.00  0.00    -0.190 NA
ENDBRANCH  10  13
ENDBRANCH   9  10
ENDBRANCH   8   9
BRANCH   8  15
ATOM     15  C   UNL     1      42.838 137.537  19.763  1.00  0.00     0.016 C 
ATOM     16  C   UNL     1      44.266 136.978  19.720  1.00  0.00     0.010 C 
ATOM     17  C   UNL     1      42.872 139.071  19.787  1.00  0.00     0.010 C 
ENDBRANCH   8  15
ENDBRANCH   1   8
BRANCH   7  18
ATOM     18  C   UNL     1      41.913 133.940  18.056  1.00  0.00     0.171 A 
ATOM     19  C   UNL     1      43.003 133.315  18.703  1.00  0.00     0.032 A 
ATOM     20  C   UNL     1      41.787 133.862  16.652  1.00  0.00     0.032 A 
ATOM     21  C   UNL     1      43.189 133.453  20.096  1.00  0.00     0.013 A 
ATOM     22  C   UNL     1      43.923 132.534  17.955  1.00  0.00    -0.002 A 
ATOM     23  C   UNL     1      40.736 134.528  15.983  1.00  0.00     0.013 A 
ATOM     24  C   UNL     1      42.718 133.102  15.894  1.00  0.00    -0.002 A 
ATOM     25  C   UNL     1      44.232 132.795  20.746  1.00  0.00     0.001 A 
ATOM     26  C   UNL     1      44.964 131.865  18.642  1.00  0.00     0.009 A 
ATOM     27  C   UNL     1      43.777 132.423  16.548  1.00  0.00     0.040 A 
ATOM     28  C   UNL     1      40.609 134.452  14.598  1.00  0.00     0.001 A 
ATOM     29  C   UNL     1      42.572 133.055  14.486  1.00  0.00     0.009 A 
ATOM     30  C   UNL     1      45.111 131.997  20.023  1.00  0.00     0.001 A 
ATOM     31  C   UNL     1      41.525 133.721  13.852  1.00  0.00     0.001 A 
BRANCH  27  32
ATOM     32  C   UNL     1      44.730 131.603  15.764  1.00  0.00     0.250 C 
ATOM     33  O   UNL     1      44.448 130.403  15.493  1.00  0.00    -0.287 OA
BRANCH  32  34
ATOM     34  N   UNL     1      45.961 132.179  15.320  1.00  0.00    -0.017 NA
BRANCH  34  35
ATOM     35  N   UNL     1      46.670 131.607  14.491  1.00  0.00     0.009 N 
ATOM     36  N   UNL     1      47.378 131.036  13.663  1.00  0.00    -0.003 NA
ENDBRANCH  34  35
ENDBRANCH  32  34
ENDBRANCH  27  32
ENDBRANCH   7  18
TORSDOF 10
ENDMDL
MODEL 8
REMARK VINA RESULT:      -5.3      2.661      4.806
REMARK SMILES C#C/C(C#N)=N\[C@H](c1c(C)[nH+]nn1-c1c2ccccc2c(C(=O)N=[N+]=[N-])c2ccccc12)C(C)C
REMARK SMILES IDX 8 1 9 2 10 3 11 4 12 6 13 7 7 8 6 9 3 10 2 11 1 12 4 13 5 14
REMARK SMILES IDX 33 15 34 16 35 17 14 18 15 19 32 20 16 21 20 22 31 23 27 24
REMARK SMILES IDX 17 25 19 26 21 27 30 28 28 29 18 30 29 31 22 32 23 33 24 34
REMARK SMILES IDX 25 35 26 36
REMARK H PARENT 11 5
ROOT
ATOM      1  C   UNL     1      43.590 132.769  21.416  1.00  0.00     0.201 A 
ATOM      2  C   UNL     1      43.299 131.927  22.490  1.00  0.00     0.167 A 
ATOM      3  C   UNL     1      43.702 132.034  23.929  1.00  0.00     0.100 C 
ATOM      4  N   UNL     1      42.550 130.915  22.012  1.00  0.00    -0.147 N 
ATOM      5  H   UNL     1      42.164 130.109  22.553  1.00  0.00     0.342 HD
ATOM      6  N   UNL     1      42.352 131.115  20.721  1.00  0.00     0.094 NA
ATOM      7  N   UNL     1      42.968 132.223  20.341  1.00  0.00    -0.095 N 
ENDROOT
BRANCH   1   8
ATOM      8  C   UNL     1      44.369 134.076  21.396  1.00  0.00     0.187 C 
BRANCH   8   9
ATOM      9  N   UNL     1      43.829 134.991  22.406  1.00  0.00    -0.254 NA
BRANCH   9  10
ATOM     10  C   UNL     1      42.725 135.674  22.311  1.00  0.00     0.186 C 
BRANCH  10  11
ATOM     11  C   UNL     1      41.574 135.395  23.135  1.00  0.00    -0.039 C 
ATOM     12  C   UNL     1      40.613 135.156  23.823  1.00  0.00     0.012 C 
ENDBRANCH  10  11
BRANCH  10  13
ATOM     13  C   UNL     1      42.658 136.763  21.379  1.00  0.00     0.129 C 
ATOM     14  N   UNL     1      42.604 137.640  20.627  1.00  0.00    -0.190 NA
ENDBRANCH  10  13
ENDBRANCH   9  10
ENDBRANCH   8   9
BRANCH   8  15
ATOM     15  C   UNL     1      45.907 133.906  21.553  1.00  0.00     0.016 C 
ATOM     16  C   UNL     1      46.441 134.343  22.923  1.00  0.00     0.010 C 
ATOM     17  C   UNL     1      46.356 132.472  21.242  1.00  0.00     0.010 C 
ENDBRANCH   8  15
ENDBRANCH   1   8
BRANCH   7  18
ATOM     18  C   UNL     1      42.890 132.749  19.002  1.00  0.00     0.171 A 
ATOM     19  C   UNL     1      41.893 133.694  18.670  1.00  0.00     0.032 A 
ATOM     20  C   UNL     1      43.811 132.322  18.022  1.00  0.00     0.032 A 
ATOM     21  C   UNL     1      40.912 134.070  19.616  1.00  0.00     0.013 A 
ATOM     22  C   UNL     1      41.870 134.282  17.378  1.00  0.00    -0.002 A 
ATOM     23  C   UNL     1      44.778 131.336  18.320  1.00  0.00     0.013 A 
ATOM     24  C   UNL     1      43.780 132.889  16.719  1.00  0.00    -0.002 A 
ATOM     25  C   UNL     1      39.960 135.040  19.310  1.00  0.00     0.001 A 
ATOM     26  C   UNL     1      40.901 135.276  17.100  1.00  0.00     0.009 A 
ATOM     27  C   UNL     1      42.819 133.883  16.403  1.00  0.00     0.040 A 
ATOM     28  C   UNL     1      45.689 130.914  17.355  1.00  0.00     0.001 A 
ATOM     29  C   UNL     1      44.708 132.429  15.754  1.00  0.00     0.009 A 
ATOM     30  C   UNL     1      39.960 135.647  18.059  1.00  0.00     0.001 A 
ATOM     31  C   UNL     1      45.652 131.456  16.076  1.00  0.00     0.001 A 
BRANCH  27  32
ATOM     32  C   UNL     1      42.805 134.499  15.055  1.00  0.00     0.250 C 
ATOM     33  O   UNL     1      42.070 134.011  14.152  1.00  0.00    -0.287 OA
BRANCH  32  34
ATOM     34  N   UNL     1      43.622 135.642  14.790  1.00  0.00    -0.017 NA
BRANCH  34  35
ATOM     35  N   UNL     1      43.166 136.783  14.865  1.00  0.00     0.009 N 
ATOM     36  N   UNL     1      42.712 137.924  14.940  1.00  0.00    -0.003 NA
ENDBRANCH  34  35
ENDBRANCH  32  34
ENDBRANCH  27  32
ENDBRANCH   7  18
TORSDOF 10
ENDMDL
MODEL 9
REMARK VINA RESULT:      -5.1      2.808      4.706
REMARK SMILES C#C/C(C#N)=N\[C@H](c1c(C)[nH+]nn1-c1c2ccccc2c(C(=O)N=[N+]=[N-])c2ccccc12)C(C)C
REMARK SMILES IDX 8 1 9 2 10 3 11 4 12 6 13 7 7 8 6 9 3 10 2 11 1 12 4 13 5 14
REMARK SMILES IDX 33 15 34 16 35 17 14 18 15 19 32 20 16 21 20 22 31 23 27 24
REMARK SMILES IDX 17 25 19 26 21 27 30 28 28 29 18 30 29 31 22 32 23 33 24 34
REMARK SMILES IDX 25 35 26 36
REMARK H PARENT 11 5
ROOT
ATOM      1  C   UNL     1      43.181 133.042  21.505  1.00  0.00     0.201 A 
ATOM      2  C   UNL     1      42.897 132.140  22.531  1.00  0.00     0.167 A 
ATOM      3  C   UNL     1      43.080 132.281  24.011  1.00  0.00     0.100 C 
ATOM      4  N   UNL     1      42.401 131.027  21.956  1.00  0.00    -0.147 N 
ATOM      5  H   UNL     1      42.089 130.155  22.441  1.00  0.00     0.342 HD
ATOM      6  N   UNL     1      42.345 131.219  20.651  1.00  0.00     0.094 NA
ATOM      7  N   UNL     1      42.809 132.423  20.356  1.00  0.00    -0.095 N 
ENDROOT
BRANCH   1   8
ATOM      8  C   UNL     1      43.722 134.462  21.589  1.00  0.00     0.187 C 
BRANCH   8   9
ATOM      9  N   UNL     1      43.063 135.181  22.684  1.00  0.00    -0.254 NA
BRANCH   9  10
ATOM     10  C   UNL     1      41.943 135.838  22.606  1.00  0.00     0.186 C 
BRANCH  10  11
ATOM     11  C   UNL     1      40.687 135.275  23.037  1.00  0.00    -0.039 C 
ATOM     12  C   UNL     1      39.638 134.804  23.402  1.00  0.00     0.012 C 
ENDBRANCH  10  11
BRANCH  10  13
ATOM     13  C   UNL     1      41.959 137.183  22.103  1.00  0.00     0.129 C 
ATOM     14  N   UNL     1      41.972 138.266  21.697  1.00  0.00    -0.190 NA
ENDBRANCH  10  13
ENDBRANCH   9  10
ENDBRANCH   8   9
BRANCH   8  15
ATOM     15  C   UNL     1      45.270 134.550  21.708  1.00  0.00     0.016 C 
ATOM     16  C   UNL     1      45.994 133.251  21.331  1.00  0.00     0.010 C 
ATOM     17  C   UNL     1      45.837 135.725  20.900  1.00  0.00     0.010 C 
ENDBRANCH   8  15
ENDBRANCH   1   8
BRANCH   7  18
ATOM     18  C   UNL     1      42.821 132.958  19.019  1.00  0.00     0.171 A 
ATOM     19  C   UNL     1      41.888 133.952  18.646  1.00  0.00     0.032 A 
ATOM     20  C   UNL     1      43.767 132.491  18.081  1.00  0.00     0.032 A 
ATOM     21  C   UNL     1      40.883 134.371  19.545  1.00  0.00     0.013 A 
ATOM     22  C   UNL     1      41.957 134.546  17.358  1.00  0.00    -0.002 A 
ATOM     23  C   UNL     1      44.669 131.458  18.419  1.00  0.00     0.013 A 
ATOM     24  C   UNL     1      43.826 133.064  16.782  1.00  0.00    -0.002 A 
ATOM     25  C   UNL     1      39.996 135.389  19.201  1.00  0.00     0.001 A 
ATOM     26  C   UNL     1      41.052 135.588  17.040  1.00  0.00     0.009 A 
ATOM     27  C   UNL     1      42.931 134.105  16.426  1.00  0.00     0.040 A 
ATOM     28  C   UNL     1      45.604 130.995  17.496  1.00  0.00     0.001 A 
ATOM     29  C   UNL     1      44.776 132.563  15.860  1.00  0.00     0.009 A 
ATOM     30  C   UNL     1      40.085 136.001  17.956  1.00  0.00     0.001 A 
ATOM     31  C   UNL     1      45.655 131.543  16.220  1.00  0.00     0.001 A 
BRANCH  27  32
ATOM     32  C   UNL     1      43.012 134.726  15.084  1.00  0.00     0.250 C 
ATOM     33  O   UNL     1      43.689 135.779  14.921  1.00  0.00    -0.287 OA
BRANCH  32  34
ATOM     34  N   UNL     1      42.323 134.128  13.983  1.00  0.00    -0.017 NA
BRANCH  34  35
ATOM     35  N   UNL     1      41.137 133.808  14.070  1.00  0.00     0.009 N 
ATOM     36  N   UNL     1      39.953 133.489  14.158  1.00  0.00    -0.003 NA
ENDBRANCH  34  35
ENDBRANCH  32  34
ENDBRANCH  27  32
ENDBRANCH   7  18
TORSDOF 10
ENDMDL


