REMARK SMILES C=C(C)/C(O)=[N+]1\C[C@@H]2CC[C@H](Oc3ccc4c5c(ccc(N=[N+]=[N-])c35)CC4)[C@@H]2C1
REMARK SMILES IDX 12 1 11 2 6 3 29 4 7 5 28 6 8 7 9 8 10 9 4 10 5 11 2 13 1 14
REMARK SMILES IDX 3 15 13 16 14 17 25 18 15 19 21 20 17 21 16 22 20 23 18 24
REMARK SMILES IDX 27 25 19 26 26 27 22 28 23 29 24 30
REMARK H PARENT 5 12
ROOT
ATOM      1  O   UNL     1       0.986   0.052  -0.120  1.00  0.00    -0.489 OA
ENDROOT
BRANCH   1   2
ATOM      2  C   UNL     1       0.496   0.301  -1.440  1.00  0.00     0.183 C 
ATOM      3  N   UNL     1      -3.062   0.697  -0.848  1.00  0.00    -0.198 N 
ATOM      4  C   UNL     1      -1.738   0.805  -0.253  1.00  0.00     0.362 C 
ATOM      5  C   UNL     1      -3.023   0.791  -2.302  1.00  0.00     0.358 C 
ATOM      6  C   UNL     1      -0.781   1.141  -1.408  1.00  0.00     0.105 C 
ATOM      7  C   UNL     1      -1.540   0.785  -2.682  1.00  0.00     0.068 C 
ATOM      8  C   UNL     1      -1.014  -0.594  -3.126  1.00  0.00     0.014 C 
ATOM      9  C   UNL     1       0.098  -0.984  -2.156  1.00  0.00     0.046 C 
BRANCH   3  10
ATOM     10  C   UNL     1      -4.136   0.460  -0.135  1.00  0.00     0.362 C 
BRANCH  10  11
ATOM     11  O   UNL     1      -4.019   0.290   1.246  1.00  0.00    -0.460 OA
ATOM     12  H   UNL     1      -4.830   0.118   1.829  1.00  0.00     0.300 HD
ENDBRANCH  10  11
BRANCH  10  13
ATOM     13  C   UNL     1      -5.481   0.344  -0.750  1.00  0.00     0.053 C 
ATOM     14  C   UNL     1      -6.203  -0.761  -0.551  1.00  0.00     0.023 C 
ATOM     15  C   UNL     1      -6.048   1.465  -1.573  1.00  0.00     0.055 C 
ENDBRANCH  10  13
ENDBRANCH   3  10
ENDBRANCH   1   2
BRANCH   1  16
ATOM     16  C   UNL     1       2.212  -0.552   0.204  1.00  0.00     0.128 A 
ATOM     17  C   UNL     1       3.194  -0.833  -0.790  1.00  0.00     0.047 A 
ATOM     18  C   UNL     1       2.489  -0.886   1.557  1.00  0.00     0.034 A 
ATOM     19  C   UNL     1       4.419  -1.440  -0.450  1.00  0.00     0.008 A 
ATOM     20  C   UNL     1       1.616  -0.668   2.659  1.00  0.00     0.049 A 
ATOM     21  C   UNL     1       3.719  -1.485   1.829  1.00  0.00    -0.008 A 
ATOM     22  C   UNL     1       4.656  -1.760   0.885  1.00  0.00    -0.039 A 
ATOM     23  C   UNL     1       2.034  -1.064   3.961  1.00  0.00     0.011 A 
ATOM     24  C   UNL     1       4.123  -1.865   3.070  1.00  0.00    -0.039 A 
ATOM     25  C   UNL     1       5.857  -2.400   1.506  1.00  0.00     0.041 C 
ATOM     26  C   UNL     1       3.291  -1.664   4.169  1.00  0.00     0.005 A 
ATOM     27  C   UNL     1       5.489  -2.473   3.015  1.00  0.00     0.041 C 
BRANCH  20  28
ATOM     28  N   UNL     1       0.333  -0.057   2.454  1.00  0.00    -0.060 NA
BRANCH  28  29
ATOM     29  N   UNL     1      -0.463   0.138   3.374  1.00  0.00     0.005 N 
ATOM     30  N   UNL     1      -1.260   0.333   4.291  1.00  0.00    -0.003 NA
ENDBRANCH  28  29
ENDBRANCH  20  28
ENDBRANCH   1  16
TORSDOF 7


