MODEL 1
REMARK VINA RESULT:      -7.4      0.000      0.000
REMARK SMILES CC[C@H]1C[C@]1(NC(=O)c1noc(C)c1C)C(=O)Oc1c(Cl)c(Cl)c(N)c2ccccc12
REMARK SMILES IDX 16 1 17 2 5 3 3 4 4 5 2 6 1 7 6 8 7 9 8 11 9 12 10 13 14 14
REMARK SMILES IDX 11 15 12 16 15 17 13 18 18 19 19 20 20 21 31 22 22 23 30 24
REMARK SMILES IDX 26 25 24 26 29 27 27 28 28 29 21 30 23 31 25 32
REMARK H PARENT 6 10 25 33 25 34
ROOT
ATOM      1  C   UNL     1      41.399 133.919  16.322  1.00  0.00     0.337 C 
ATOM      2  O   UNL     1      40.235 134.263  16.667  1.00  0.00    -0.249 OA
ENDROOT
BRANCH   1   3
ATOM      3  C   UNL     1      42.410 134.964  15.978  1.00  0.00     0.142 C 
ATOM      4  C   UNL     1      42.009 136.102  15.040  1.00  0.00     0.029 C 
ATOM      5  C   UNL     1      42.888 134.959  14.530  1.00  0.00     0.047 C 
BRANCH   4   6
ATOM      6  C   UNL     1      42.731 137.448  15.205  1.00  0.00     0.003 C 
ATOM      7  C   UNL     1      41.848 138.588  14.712  1.00  0.00     0.004 C 
ENDBRANCH   4   6
BRANCH   3   8
ATOM      8  N   UNL     1      43.465 135.221  16.957  1.00  0.00    -0.334 N 
ATOM      9  C   UNL     1      43.186 135.850  18.216  1.00  0.00     0.274 C 
ATOM     10  H   UNL     1      44.409 134.804  16.789  1.00  0.00     0.165 HD
ATOM     11  O   UNL     1      42.019 136.251  18.471  1.00  0.00    -0.267 OA
BRANCH   9  12
ATOM     12  C   UNL     1      44.261 136.030  19.210  1.00  0.00     0.174 A 
ATOM     13  N   UNL     1      44.606 135.090  20.113  1.00  0.00    -0.074 NA
ATOM     14  C   UNL     1      45.071 137.141  19.385  1.00  0.00     0.025 A 
ATOM     15  O   UNL     1      45.582 135.576  20.824  1.00  0.00    -0.361 OA
ATOM     16  C   UNL     1      45.897 136.788  20.435  1.00  0.00     0.137 A 
ATOM     17  C   UNL     1      45.060 138.428  18.616  1.00  0.00     0.051 C 
ATOM     18  C   UNL     1      46.978 137.615  21.050  1.00  0.00     0.091 C 
ENDBRANCH   9  12
ENDBRANCH   3   8
ENDBRANCH   1   3
BRANCH   1  19
ATOM     19  O   UNL     1      41.776 132.574  16.313  1.00  0.00    -0.422 OA
BRANCH  19  20
ATOM     20  C   UNL     1      42.891 132.089  17.009  1.00  0.00     0.159 A 
ATOM     21  C   UNL     1      42.925 132.135  18.411  1.00  0.00     0.105 A 
ATOM     22  C   UNL     1      43.970 131.540  16.295  1.00  0.00     0.028 A 
ATOM     23  C   UNL     1      44.042 131.646  19.109  1.00  0.00     0.087 A 
ATOM     24  C   UNL     1      43.938 131.493  14.888  1.00  0.00     0.013 A 
ATOM     25  C   UNL     1      45.111 131.052  16.990  1.00  0.00     0.010 A 
ATOM     26  C   UNL     1      45.136 131.093  18.408  1.00  0.00     0.060 A 
ATOM     27  C   UNL     1      45.020 130.985  14.171  1.00  0.00     0.001 A 
ATOM     28  C   UNL     1      46.203 130.564  16.237  1.00  0.00     0.011 A 
ATOM     29  C   UNL     1      46.150 130.529  14.843  1.00  0.00     0.001 A 
ATOM     30  Cl  UNL     1      41.526 132.749  19.296  1.00  0.00    -0.078 Cl
ATOM     31  Cl  UNL     1      44.037 131.681  20.876  1.00  0.00    -0.080 Cl
BRANCH  26  32
ATOM     32  N   UNL     1      46.247 130.554  19.148  1.00  0.00    -0.397 N 
ATOM     33  H   UNL     1      47.182 131.017  19.142  1.00  0.00     0.156 HD
ATOM     34  H   UNL     1      46.137 129.749  19.800  1.00  0.00     0.156 HD
ENDBRANCH  26  32
ENDBRANCH  19  20
ENDBRANCH   1  19
TORSDOF 7
ENDMDL
MODEL 2
REMARK VINA RESULT:      -7.3      2.679      3.474
REMARK SMILES CC[C@H]1C[C@]1(NC(=O)c1noc(C)c1C)C(=O)Oc1c(Cl)c(Cl)c(N)c2ccccc12
REMARK SMILES IDX 16 1 17 2 5 3 3 4 4 5 2 6 1 7 6 8 7 9 8 11 9 12 10 13 14 14
REMARK SMILES IDX 11 15 12 16 15 17 13 18 18 19 19 20 20 21 31 22 22 23 30 24
REMARK SMILES IDX 26 25 24 26 29 27 27 28 28 29 21 30 23 31 25 32
REMARK H PARENT 6 10 25 33 25 34
ROOT
ATOM      1  C   UNL     1      42.013 133.605  14.981  1.00  0.00     0.337 C 
ATOM      2  O   UNL     1      41.705 133.638  13.758  1.00  0.00    -0.249 OA
ENDROOT
BRANCH   1   3
ATOM      3  C   UNL     1      42.364 134.870  15.692  1.00  0.00     0.142 C 
ATOM      4  C   UNL     1      43.035 135.998  14.909  1.00  0.00     0.029 C 
ATOM      5  C   UNL     1      43.858 135.130  15.862  1.00  0.00     0.047 C 
BRANCH   4   6
ATOM      6  C   UNL     1      42.796 137.438  15.389  1.00  0.00     0.003 C 
ATOM      7  C   UNL     1      41.654 138.076  14.607  1.00  0.00     0.004 C 
ENDBRANCH   4   6
BRANCH   3   8
ATOM      8  N   UNL     1      41.557 135.229  16.856  1.00  0.00    -0.334 N 
ATOM      9  C   UNL     1      40.142 135.445  16.753  1.00  0.00     0.274 C 
ATOM     10  H   UNL     1      42.001 135.181  17.801  1.00  0.00     0.165 HD
ATOM     11  O   UNL     1      39.580 135.388  15.627  1.00  0.00    -0.267 OA
BRANCH   9  12
ATOM     12  C   UNL     1      39.345 135.736  17.960  1.00  0.00     0.174 A 
ATOM     13  N   UNL     1      38.580 134.819  18.586  1.00  0.00    -0.074 NA
ATOM     14  C   UNL     1      39.247 136.942  18.635  1.00  0.00     0.025 A 
ATOM     15  O   UNL     1      38.024 135.410  19.605  1.00  0.00    -0.361 OA
ATOM     16  C   UNL     1      38.385 136.669  19.680  1.00  0.00     0.137 A 
ATOM     17  C   UNL     1      39.919 138.243  18.314  1.00  0.00     0.051 C 
ATOM     18  C   UNL     1      37.920 137.615  20.738  1.00  0.00     0.091 C 
ENDBRANCH   9  12
ENDBRANCH   3   8
ENDBRANCH   1   3
BRANCH   1  19
ATOM     19  O   UNL     1      41.973 132.405  15.697  1.00  0.00    -0.422 OA
BRANCH  19  20
ATOM     20  C   UNL     1      43.033 131.957  16.495  1.00  0.00     0.159 A 
ATOM     21  C   UNL     1      42.965 132.071  17.891  1.00  0.00     0.105 A 
ATOM     22  C   UNL     1      44.161 131.376  15.888  1.00  0.00     0.028 A 
ATOM     23  C   UNL     1      44.028 131.618  18.691  1.00  0.00     0.087 A 
ATOM     24  C   UNL     1      44.231 131.262  14.486  1.00  0.00     0.013 A 
ATOM     25  C   UNL     1      45.247 130.924  16.686  1.00  0.00     0.010 A 
ATOM     26  C   UNL     1      45.168 131.033  18.100  1.00  0.00     0.060 A 
ATOM     27  C   UNL     1      45.362 130.722  13.875  1.00  0.00     0.001 A 
ATOM     28  C   UNL     1      46.390 130.403  16.040  1.00  0.00     0.011 A 
ATOM     29  C   UNL     1      46.439 130.300  14.649  1.00  0.00     0.001 A 
ATOM     30  Cl  UNL     1      41.506 132.723  18.641  1.00  0.00    -0.078 Cl
ATOM     31  Cl  UNL     1      43.894 131.738  20.449  1.00  0.00    -0.080 Cl
BRANCH  26  32
ATOM     32  N   UNL     1      46.222 130.534  18.943  1.00  0.00    -0.397 N 
ATOM     33  H   UNL     1      46.084 130.400  19.968  1.00  0.00     0.156 HD
ATOM     34  H   UNL     1      47.123 130.186  18.553  1.00  0.00     0.156 HD
ENDBRANCH  26  32
ENDBRANCH  19  20
ENDBRANCH   1  19
TORSDOF 7
ENDMDL
MODEL 3
REMARK VINA RESULT:      -6.8      3.137      6.292
REMARK SMILES CC[C@H]1C[C@]1(NC(=O)c1noc(C)c1C)C(=O)Oc1c(Cl)c(Cl)c(N)c2ccccc12
REMARK SMILES IDX 16 1 17 2 5 3 3 4 4 5 2 6 1 7 6 8 7 9 8 11 9 12 10 13 14 14
REMARK SMILES IDX 11 15 12 16 15 17 13 18 18 19 19 20 20 21 31 22 22 23 30 24
REMARK SMILES IDX 26 25 24 26 29 27 27 28 28 29 21 30 23 31 25 32
REMARK H PARENT 6 10 25 33 25 34
ROOT
ATOM      1  C   UNL     1      42.282 132.703  15.845  1.00  0.00     0.337 C 
ATOM      2  O   UNL     1      41.415 132.631  16.759  1.00  0.00    -0.249 OA
ENDROOT
BRANCH   1   3
ATOM      3  C   UNL     1      43.543 131.910  15.954  1.00  0.00     0.142 C 
ATOM      4  C   UNL     1      44.656 132.147  14.934  1.00  0.00     0.029 C 
ATOM      5  C   UNL     1      43.778 130.899  14.837  1.00  0.00     0.047 C 
BRANCH   4   6
ATOM      6  C   UNL     1      46.103 131.886  15.384  1.00  0.00     0.003 C 
ATOM      7  C   UNL     1      46.948 131.414  14.208  1.00  0.00     0.004 C 
ENDBRANCH   4   6
BRANCH   3   8
ATOM      8  N   UNL     1      43.921 131.434  17.284  1.00  0.00    -0.334 N 
ATOM      9  C   UNL     1      44.302 132.342  18.328  1.00  0.00     0.274 C 
ATOM     10  H   UNL     1      43.767 130.426  17.511  1.00  0.00     0.165 HD
ATOM     11  O   UNL     1      44.376 133.577  18.089  1.00  0.00    -0.267 OA
BRANCH   9  12
ATOM     12  C   UNL     1      44.609 131.833  19.678  1.00  0.00     0.174 A 
ATOM     13  N   UNL     1      45.788 131.270  20.012  1.00  0.00    -0.074 NA
ATOM     14  C   UNL     1      43.783 131.844  20.791  1.00  0.00     0.025 A 
ATOM     15  O   UNL     1      45.717 130.940  21.270  1.00  0.00    -0.361 OA
ATOM     16  C   UNL     1      44.551 131.258  21.779  1.00  0.00     0.137 A 
ATOM     17  C   UNL     1      42.385 132.371  20.905  1.00  0.00     0.051 C 
ATOM     18  C   UNL     1      44.159 131.011  23.199  1.00  0.00     0.091 C 
ENDBRANCH   9  12
ENDBRANCH   3   8
ENDBRANCH   1   3
BRANCH   1  19
ATOM     19  O   UNL     1      42.053 133.469  14.700  1.00  0.00    -0.422 OA
BRANCH  19  20
ATOM     20  C   UNL     1      41.511 134.760  14.742  1.00  0.00     0.159 A 
ATOM     21  C   UNL     1      42.313 135.854  15.101  1.00  0.00     0.105 A 
ATOM     22  C   UNL     1      40.160 134.957  14.405  1.00  0.00     0.028 A 
ATOM     23  C   UNL     1      41.770 137.149  15.139  1.00  0.00     0.087 A 
ATOM     24  C   UNL     1      39.352 133.861  14.044  1.00  0.00     0.013 A 
ATOM     25  C   UNL     1      39.596 136.261  14.450  1.00  0.00     0.010 A 
ATOM     26  C   UNL     1      40.415 137.365  14.806  1.00  0.00     0.060 A 
ATOM     27  C   UNL     1      38.003 134.042  13.746  1.00  0.00     0.001 A 
ATOM     28  C   UNL     1      38.219 136.413  14.166  1.00  0.00     0.011 A 
ATOM     29  C   UNL     1      37.438 135.313  13.813  1.00  0.00     0.001 A 
ATOM     30  Cl  UNL     1      44.028 135.601  15.437  1.00  0.00    -0.078 Cl
ATOM     31  Cl  UNL     1      42.816 138.510  15.555  1.00  0.00    -0.080 Cl
BRANCH  26  32
ATOM     32  N   UNL     1      39.895 138.707  14.806  1.00  0.00    -0.397 N 
ATOM     33  H   UNL     1      38.922 138.915  15.120  1.00  0.00     0.156 HD
ATOM     34  H   UNL     1      40.496 139.532  14.598  1.00  0.00     0.156 HD
ENDBRANCH  26  32
ENDBRANCH  19  20
ENDBRANCH   1  19
TORSDOF 7
ENDMDL
MODEL 4
REMARK VINA RESULT:      -6.8      0.877      1.144
REMARK SMILES CC[C@H]1C[C@]1(NC(=O)c1noc(C)c1C)C(=O)Oc1c(Cl)c(Cl)c(N)c2ccccc12
REMARK SMILES IDX 16 1 17 2 5 3 3 4 4 5 2 6 1 7 6 8 7 9 8 11 9 12 10 13 14 14
REMARK SMILES IDX 11 15 12 16 15 17 13 18 18 19 19 20 20 21 31 22 22 23 30 24
REMARK SMILES IDX 26 25 24 26 29 27 27 28 28 29 21 30 23 31 25 32
REMARK H PARENT 6 10 25 33 25 34
ROOT
ATOM      1  C   UNL     1      41.483 134.111  16.550  1.00  0.00     0.337 C 
ATOM      2  O   UNL     1      40.355 134.458  16.997  1.00  0.00    -0.249 OA
ENDROOT
BRANCH   1   3
ATOM      3  C   UNL     1      42.480 135.153  16.164  1.00  0.00     0.142 C 
ATOM      4  C   UNL     1      42.061 136.256  15.192  1.00  0.00     0.029 C 
ATOM      5  C   UNL     1      42.947 135.105  14.713  1.00  0.00     0.047 C 
BRANCH   4   6
ATOM      6  C   UNL     1      42.770 137.614  15.306  1.00  0.00     0.003 C 
ATOM      7  C   UNL     1      41.939 138.705  14.641  1.00  0.00     0.004 C 
ENDBRANCH   4   6
BRANCH   3   8
ATOM      8  N   UNL     1      43.540 135.454  17.125  1.00  0.00    -0.334 N 
ATOM      9  C   UNL     1      43.263 136.111  18.370  1.00  0.00     0.274 C 
ATOM     10  H   UNL     1      44.489 135.048  16.959  1.00  0.00     0.165 HD
ATOM     11  O   UNL     1      42.092 136.499  18.627  1.00  0.00    -0.267 OA
BRANCH   9  12
ATOM     12  C   UNL     1      44.344 136.334  19.348  1.00  0.00     0.174 A 
ATOM     13  N   UNL     1      45.468 137.025  19.071  1.00  0.00    -0.074 NA
ATOM     14  C   UNL     1      44.395 135.899  20.663  1.00  0.00     0.025 A 
ATOM     15  O   UNL     1      46.197 137.029  20.150  1.00  0.00    -0.361 OA
ATOM     16  C   UNL     1      45.608 136.376  21.124  1.00  0.00     0.137 A 
ATOM     17  C   UNL     1      43.376 135.100  21.417  1.00  0.00     0.051 C 
ATOM     18  C   UNL     1      46.186 136.203  22.490  1.00  0.00     0.091 C 
ENDBRANCH   9  12
ENDBRANCH   3   8
ENDBRANCH   1   3
BRANCH   1  19
ATOM     19  O   UNL     1      41.836 132.762  16.466  1.00  0.00    -0.422 OA
BRANCH  19  20
ATOM     20  C   UNL     1      42.932 132.216  17.146  1.00  0.00     0.159 A 
ATOM     21  C   UNL     1      42.963 132.212  18.549  1.00  0.00     0.105 A 
ATOM     22  C   UNL     1      43.994 131.656  16.415  1.00  0.00     0.028 A 
ATOM     23  C   UNL     1      44.061 131.661  19.231  1.00  0.00     0.087 A 
ATOM     24  C   UNL     1      43.964 131.659  15.007  1.00  0.00     0.013 A 
ATOM     25  C   UNL     1      45.115 131.105  17.094  1.00  0.00     0.010 A 
ATOM     26  C   UNL     1      45.138 131.096  18.513  1.00  0.00     0.060 A 
ATOM     27  C   UNL     1      45.031 131.140  14.274  1.00  0.00     0.001 A 
ATOM     28  C   UNL     1      46.193 130.608  16.326  1.00  0.00     0.011 A 
ATOM     29  C   UNL     1      46.143 130.623  14.932  1.00  0.00     0.001 A 
ATOM     30  Cl  UNL     1      41.583 132.841  19.452  1.00  0.00    -0.078 Cl
ATOM     31  Cl  UNL     1      44.052 131.634  20.998  1.00  0.00    -0.080 Cl
BRANCH  26  32
ATOM     32  N   UNL     1      46.228 130.495  19.236  1.00  0.00    -0.397 N 
ATOM     33  H   UNL     1      47.106 130.203  18.755  1.00  0.00     0.156 HD
ATOM     34  H   UNL     1      46.230 130.427  20.275  1.00  0.00     0.156 HD
ENDBRANCH  26  32
ENDBRANCH  19  20
ENDBRANCH   1  19
TORSDOF 7
ENDMDL
MODEL 5
REMARK VINA RESULT:      -6.7      3.585      5.054
REMARK SMILES CC[C@H]1C[C@]1(NC(=O)c1noc(C)c1C)C(=O)Oc1c(Cl)c(Cl)c(N)c2ccccc12
REMARK SMILES IDX 16 1 17 2 5 3 3 4 4 5 2 6 1 7 6 8 7 9 8 11 9 12 10 13 14 14
REMARK SMILES IDX 11 15 12 16 15 17 13 18 18 19 19 20 20 21 31 22 22 23 30 24
REMARK SMILES IDX 26 25 24 26 29 27 27 28 28 29 21 30 23 31 25 32
REMARK H PARENT 6 10 25 33 25 34
ROOT
ATOM      1  C   UNL     1      41.878 134.034  16.053  1.00  0.00     0.337 C 
ATOM      2  O   UNL     1      42.924 134.723  15.902  1.00  0.00    -0.249 OA
ENDROOT
BRANCH   1   3
ATOM      3  C   UNL     1      40.540 134.653  15.816  1.00  0.00     0.142 C 
ATOM      4  C   UNL     1      39.638 134.074  14.726  1.00  0.00     0.029 C 
ATOM      5  C   UNL     1      40.386 135.386  14.487  1.00  0.00     0.047 C 
BRANCH   4   6
ATOM      6  C   UNL     1      38.119 134.218  14.907  1.00  0.00     0.003 C 
ATOM      7  C   UNL     1      37.448 134.487  13.566  1.00  0.00     0.004 C 
ENDBRANCH   4   6
BRANCH   3   8
ATOM      8  N   UNL     1      39.903 135.324  16.948  1.00  0.00    -0.334 N 
ATOM      9  C   UNL     1      39.457 134.595  18.101  1.00  0.00     0.274 C 
ATOM     10  H   UNL     1      39.909 136.369  16.972  1.00  0.00     0.165 HD
ATOM     11  O   UNL     1      39.555 133.339  18.124  1.00  0.00    -0.267 OA
BRANCH   9  12
ATOM     12  C   UNL     1      38.883 135.311  19.256  1.00  0.00     0.174 A 
ATOM     13  N   UNL     1      39.617 135.754  20.297  1.00  0.00    -0.074 NA
ATOM     14  C   UNL     1      37.554 135.642  19.467  1.00  0.00     0.025 A 
ATOM     15  O   UNL     1      38.799 136.336  21.127  1.00  0.00    -0.361 OA
ATOM     16  C   UNL     1      37.566 136.298  20.684  1.00  0.00     0.137 A 
ATOM     17  C   UNL     1      36.376 135.361  18.585  1.00  0.00     0.051 C 
ATOM     18  C   UNL     1      36.395 136.881  21.405  1.00  0.00     0.091 C 
ENDBRANCH   9  12
ENDBRANCH   3   8
ENDBRANCH   1   3
BRANCH   1  19
ATOM     19  O   UNL     1      41.955 132.678  16.383  1.00  0.00    -0.422 OA
BRANCH  19  20
ATOM     20  C   UNL     1      43.155 131.956  16.367  1.00  0.00     0.159 A 
ATOM     21  C   UNL     1      43.664 131.458  15.158  1.00  0.00     0.105 A 
ATOM     22  C   UNL     1      43.858 131.749  17.567  1.00  0.00     0.028 A 
ATOM     23  C   UNL     1      44.870 130.737  15.141  1.00  0.00     0.087 A 
ATOM     24  C   UNL     1      43.348 132.249  18.781  1.00  0.00     0.013 A 
ATOM     25  C   UNL     1      45.073 131.012  17.564  1.00  0.00     0.010 A 
ATOM     26  C   UNL     1      45.588 130.518  16.337  1.00  0.00     0.060 A 
ATOM     27  C   UNL     1      44.019 132.015  19.981  1.00  0.00     0.001 A 
ATOM     28  C   UNL     1      45.720 130.770  18.798  1.00  0.00     0.011 A 
ATOM     29  C   UNL     1      45.196 131.273  19.989  1.00  0.00     0.001 A 
ATOM     30  Cl  UNL     1      42.815 131.800  13.649  1.00  0.00    -0.078 Cl
ATOM     31  Cl  UNL     1      45.506 130.157  13.598  1.00  0.00    -0.080 Cl
BRANCH  26  32
ATOM     32  N   UNL     1      46.845 129.818  16.287  1.00  0.00    -0.397 N 
ATOM     33  H   UNL     1      47.541 130.000  15.532  1.00  0.00     0.156 HD
ATOM     34  H   UNL     1      47.155 129.186  17.055  1.00  0.00     0.156 HD
ENDBRANCH  26  32
ENDBRANCH  19  20
ENDBRANCH   1  19
TORSDOF 7
ENDMDL
MODEL 6
REMARK VINA RESULT:      -6.7      1.433      1.780
REMARK SMILES CC[C@H]1C[C@]1(NC(=O)c1noc(C)c1C)C(=O)Oc1c(Cl)c(Cl)c(N)c2ccccc12
REMARK SMILES IDX 16 1 17 2 5 3 3 4 4 5 2 6 1 7 6 8 7 9 8 11 9 12 10 13 14 14
REMARK SMILES IDX 11 15 12 16 15 17 13 18 18 19 19 20 20 21 31 22 22 23 30 24
REMARK SMILES IDX 26 25 24 26 29 27 27 28 28 29 21 30 23 31 25 32
REMARK H PARENT 6 10 25 33 25 34
ROOT
ATOM      1  C   UNL     1      41.897 133.701  15.336  1.00  0.00     0.337 C 
ATOM      2  O   UNL     1      42.280 133.862  14.144  1.00  0.00    -0.249 OA
ENDROOT
BRANCH   1   3
ATOM      3  C   UNL     1      41.344 134.857  16.101  1.00  0.00     0.142 C 
ATOM      4  C   UNL     1      39.840 135.123  16.057  1.00  0.00     0.029 C 
ATOM      5  C   UNL     1      40.798 136.001  15.252  1.00  0.00     0.047 C 
BRANCH   4   6
ATOM      6  C   UNL     1      39.201 135.809  17.274  1.00  0.00     0.003 C 
ATOM      7  C   UNL     1      37.688 135.882  17.110  1.00  0.00     0.004 C 
ENDBRANCH   4   6
BRANCH   3   8
ATOM      8  N   UNL     1      42.082 135.289  17.287  1.00  0.00    -0.334 N 
ATOM      9  C   UNL     1      43.476 135.624  17.225  1.00  0.00     0.274 C 
ATOM     10  H   UNL     1      41.543 135.495  18.158  1.00  0.00     0.165 HD
ATOM     11  O   UNL     1      44.106 135.488  16.142  1.00  0.00    -0.267 OA
BRANCH   9  12
ATOM     12  C   UNL     1      44.173 136.125  18.425  1.00  0.00     0.174 A 
ATOM     13  N   UNL     1      44.655 135.322  19.395  1.00  0.00    -0.074 NA
ATOM     14  C   UNL     1      44.446 137.443  18.753  1.00  0.00     0.025 A 
ATOM     15  O   UNL     1      45.205 136.089  20.293  1.00  0.00    -0.361 OA
ATOM     16  C   UNL     1      45.109 137.354  19.962  1.00  0.00     0.137 A 
ATOM     17  C   UNL     1      44.106 138.682  17.980  1.00  0.00     0.051 C 
ATOM     18  C   UNL     1      45.644 138.480  20.784  1.00  0.00     0.091 C 
ENDBRANCH   9  12
ENDBRANCH   3   8
ENDBRANCH   1   3
BRANCH   1  19
ATOM     19  O   UNL     1      41.929 132.437  15.932  1.00  0.00    -0.422 OA
BRANCH  19  20
ATOM     20  C   UNL     1      43.004 131.987  16.709  1.00  0.00     0.159 A 
ATOM     21  C   UNL     1      42.950 132.070  18.108  1.00  0.00     0.105 A 
ATOM     22  C   UNL     1      44.132 131.434  16.078  1.00  0.00     0.028 A 
ATOM     23  C   UNL     1      44.027 131.615  18.887  1.00  0.00     0.087 A 
ATOM     24  C   UNL     1      44.189 131.350  14.673  1.00  0.00     0.013 A 
ATOM     25  C   UNL     1      45.233 130.980  16.854  1.00  0.00     0.010 A 
ATOM     26  C   UNL     1      45.169 131.058  18.270  1.00  0.00     0.060 A 
ATOM     27  C   UNL     1      45.319 130.839  14.038  1.00  0.00     0.001 A 
ATOM     28  C   UNL     1      46.376 130.488  16.184  1.00  0.00     0.011 A 
ATOM     29  C   UNL     1      46.411 130.416  14.791  1.00  0.00     0.001 A 
ATOM     30  Cl  UNL     1      41.491 132.687  18.888  1.00  0.00    -0.078 Cl
ATOM     31  Cl  UNL     1      43.912 131.695  20.648  1.00  0.00    -0.080 Cl
BRANCH  26  32
ATOM     32  N   UNL     1      46.239 130.555  19.092  1.00  0.00    -0.397 N 
ATOM     33  H   UNL     1      46.686 131.144  19.827  1.00  0.00     0.156 HD
ATOM     34  H   UNL     1      46.536 129.557  19.060  1.00  0.00     0.156 HD
ENDBRANCH  26  32
ENDBRANCH  19  20
ENDBRANCH   1  19
TORSDOF 7
ENDMDL
MODEL 7
REMARK VINA RESULT:      -6.7      3.047      4.281
REMARK SMILES CC[C@H]1C[C@]1(NC(=O)c1noc(C)c1C)C(=O)Oc1c(Cl)c(Cl)c(N)c2ccccc12
REMARK SMILES IDX 16 1 17 2 5 3 3 4 4 5 2 6 1 7 6 8 7 9 8 11 9 12 10 13 14 14
REMARK SMILES IDX 11 15 12 16 15 17 13 18 18 19 19 20 20 21 31 22 22 23 30 24
REMARK SMILES IDX 26 25 24 26 29 27 27 28 28 29 21 30 23 31 25 32
REMARK H PARENT 6 10 25 33 25 34
ROOT
ATOM      1  C   UNL     1      42.055 133.247  14.462  1.00  0.00     0.337 C 
ATOM      2  O   UNL     1      41.842 132.160  13.857  1.00  0.00    -0.249 OA
ENDROOT
BRANCH   1   3
ATOM      3  C   UNL     1      40.922 134.180  14.734  1.00  0.00     0.142 C 
ATOM      4  C   UNL     1      40.295 134.943  13.567  1.00  0.00     0.029 C 
ATOM      5  C   UNL     1      41.233 135.660  14.538  1.00  0.00     0.047 C 
BRANCH   4   6
ATOM      6  C   UNL     1      38.815 135.338  13.686  1.00  0.00     0.003 C 
ATOM      7  C   UNL     1      37.929 134.280  13.041  1.00  0.00     0.004 C 
ENDBRANCH   4   6
BRANCH   3   8
ATOM      8  N   UNL     1      40.081 133.892  15.895  1.00  0.00    -0.334 N 
ATOM      9  C   UNL     1      39.740 134.909  16.848  1.00  0.00     0.274 C 
ATOM     10  H   UNL     1      39.606 132.963  15.944  1.00  0.00     0.165 HD
ATOM     11  O   UNL     1      40.220 136.068  16.726  1.00  0.00    -0.267 OA
BRANCH   9  12
ATOM     12  C   UNL     1      38.832 134.602  17.968  1.00  0.00     0.174 A 
ATOM     13  N   UNL     1      37.610 134.055  17.808  1.00  0.00    -0.074 NA
ATOM     14  C   UNL     1      39.060 134.807  19.320  1.00  0.00     0.025 A 
ATOM     15  O   UNL     1      37.088 133.919  18.994  1.00  0.00    -0.361 OA
ATOM     16  C   UNL     1      37.905 134.350  19.925  1.00  0.00     0.137 A 
ATOM     17  C   UNL     1      40.275 135.387  19.978  1.00  0.00     0.051 C 
ATOM     18  C   UNL     1      37.600 134.328  21.386  1.00  0.00     0.091 C 
ENDBRANCH   9  12
ENDBRANCH   3   8
ENDBRANCH   1   3
BRANCH   1  19
ATOM     19  O   UNL     1      43.331 133.563  14.937  1.00  0.00    -0.422 OA
BRANCH  19  20
ATOM     20  C   UNL     1      44.001 132.793  15.896  1.00  0.00     0.159 A 
ATOM     21  C   UNL     1      43.927 133.134  17.255  1.00  0.00     0.105 A 
ATOM     22  C   UNL     1      44.734 131.664  15.491  1.00  0.00     0.028 A 
ATOM     23  C   UNL     1      44.596 132.359  18.217  1.00  0.00     0.087 A 
ATOM     24  C   UNL     1      44.809 131.319  14.127  1.00  0.00     0.013 A 
ATOM     25  C   UNL     1      45.424 130.878  16.454  1.00  0.00     0.010 A 
ATOM     26  C   UNL     1      45.339 131.223  17.828  1.00  0.00     0.060 A 
ATOM     27  C   UNL     1      45.565 130.224  13.714  1.00  0.00     0.001 A 
ATOM     28  C   UNL     1      46.202 129.787  16.004  1.00  0.00     0.011 A 
ATOM     29  C   UNL     1      46.263 129.465  14.648  1.00  0.00     0.001 A 
ATOM     30  Cl  UNL     1      42.932 134.504  17.756  1.00  0.00    -0.078 Cl
ATOM     31  Cl  UNL     1      44.451 132.791  19.924  1.00  0.00    -0.080 Cl
BRANCH  26  32
ATOM     32  N   UNL     1      45.975 130.418  18.838  1.00  0.00    -0.397 N 
ATOM     33  H   UNL     1      45.639 130.413  19.825  1.00  0.00     0.156 HD
ATOM     34  H   UNL     1      46.723 129.730  18.604  1.00  0.00     0.156 HD
ENDBRANCH  26  32
ENDBRANCH  19  20
ENDBRANCH   1  19
TORSDOF 7
ENDMDL
MODEL 8
REMARK VINA RESULT:      -6.6      3.016      6.212
REMARK SMILES CC[C@H]1C[C@]1(NC(=O)c1noc(C)c1C)C(=O)Oc1c(Cl)c(Cl)c(N)c2ccccc12
REMARK SMILES IDX 16 1 17 2 5 3 3 4 4 5 2 6 1 7 6 8 7 9 8 11 9 12 10 13 14 14
REMARK SMILES IDX 11 15 12 16 15 17 13 18 18 19 19 20 20 21 31 22 22 23 30 24
REMARK SMILES IDX 26 25 24 26 29 27 27 28 28 29 21 30 23 31 25 32
REMARK H PARENT 6 10 25 33 25 34
ROOT
ATOM      1  C   UNL     1      42.398 133.108  15.228  1.00  0.00     0.337 C 
ATOM      2  O   UNL     1      42.036 132.777  14.066  1.00  0.00    -0.249 OA
ENDROOT
BRANCH   1   3
ATOM      3  C   UNL     1      43.668 132.563  15.793  1.00  0.00     0.142 C 
ATOM      4  C   UNL     1      44.648 131.851  14.861  1.00  0.00     0.029 C 
ATOM      5  C   UNL     1      43.773 131.042  15.818  1.00  0.00     0.047 C 
BRANCH   4   6
ATOM      6  C   UNL     1      46.140 131.893  15.227  1.00  0.00     0.003 C 
ATOM      7  C   UNL     1      46.983 131.329  14.091  1.00  0.00     0.004 C 
ENDBRANCH   4   6
BRANCH   3   8
ATOM      8  N   UNL     1      44.208 133.221  16.982  1.00  0.00    -0.334 N 
ATOM      9  C   UNL     1      43.763 132.874  18.301  1.00  0.00     0.274 C 
ATOM     10  H   UNL     1      45.036 133.848  16.868  1.00  0.00     0.165 HD
ATOM     11  O   UNL     1      42.841 132.028  18.449  1.00  0.00    -0.267 OA
BRANCH   9  12
ATOM     12  C   UNL     1      44.380 133.506  19.483  1.00  0.00     0.174 A 
ATOM     13  N   UNL     1      44.222 134.808  19.798  1.00  0.00    -0.074 NA
ATOM     14  C   UNL     1      45.189 132.906  20.434  1.00  0.00     0.025 A 
ATOM     15  O   UNL     1      44.895 135.025  20.892  1.00  0.00    -0.361 OA
ATOM     16  C   UNL     1      45.487 133.932  21.311  1.00  0.00     0.137 A 
ATOM     17  C   UNL     1      45.637 131.478  20.504  1.00  0.00     0.051 C 
ATOM     18  C   UNL     1      46.332 133.852  22.540  1.00  0.00     0.091 C 
ENDBRANCH   9  12
ENDBRANCH   3   8
ENDBRANCH   1   3
BRANCH   1  19
ATOM     19  O   UNL     1      41.656 134.028  15.974  1.00  0.00    -0.422 OA
BRANCH  19  20
ATOM     20  C   UNL     1      41.145 135.214  15.432  1.00  0.00     0.159 A 
ATOM     21  C   UNL     1      41.974 136.334  15.271  1.00  0.00     0.105 A 
ATOM     22  C   UNL     1      39.797 135.270  15.034  1.00  0.00     0.028 A 
ATOM     23  C   UNL     1      41.461 137.522  14.723  1.00  0.00     0.087 A 
ATOM     24  C   UNL     1      38.963 134.147  15.195  1.00  0.00     0.013 A 
ATOM     25  C   UNL     1      39.264 136.470  14.489  1.00  0.00     0.010 A 
ATOM     26  C   UNL     1      40.110 137.597  14.319  1.00  0.00     0.060 A 
ATOM     27  C   UNL     1      37.617 134.206  14.838  1.00  0.00     0.001 A 
ATOM     28  C   UNL     1      37.890 136.510  14.158  1.00  0.00     0.011 A 
ATOM     29  C   UNL     1      37.082 135.386  14.328  1.00  0.00     0.001 A 
ATOM     30  Cl  UNL     1      43.683 136.219  15.695  1.00  0.00    -0.078 Cl
ATOM     31  Cl  UNL     1      42.540 138.902  14.495  1.00  0.00    -0.080 Cl
BRANCH  26  32
ATOM     32  N   UNL     1      39.621 138.810  13.718  1.00  0.00    -0.397 N 
ATOM     33  H   UNL     1      39.232 139.587  14.294  1.00  0.00     0.156 HD
ATOM     34  H   UNL     1      39.734 139.005  12.700  1.00  0.00     0.156 HD
ENDBRANCH  26  32
ENDBRANCH  19  20
ENDBRANCH   1  19
TORSDOF 7
ENDMDL
MODEL 9
REMARK VINA RESULT:      -6.6      2.622      6.071
REMARK SMILES CC[C@H]1C[C@]1(NC(=O)c1noc(C)c1C)C(=O)Oc1c(Cl)c(Cl)c(N)c2ccccc12
REMARK SMILES IDX 16 1 17 2 5 3 3 4 4 5 2 6 1 7 6 8 7 9 8 11 9 12 10 13 14 14
REMARK SMILES IDX 11 15 12 16 15 17 13 18 18 19 19 20 20 21 31 22 22 23 30 24
REMARK SMILES IDX 26 25 24 26 29 27 27 28 28 29 21 30 23 31 25 32
REMARK H PARENT 6 10 25 33 25 34
ROOT
ATOM      1  C   UNL     1      41.819 132.589  17.751  1.00  0.00     0.337 C 
ATOM      2  O   UNL     1      40.680 132.394  17.243  1.00  0.00    -0.249 OA
ENDROOT
BRANCH   1   3
ATOM      3  C   UNL     1      42.860 133.328  16.976  1.00  0.00     0.142 C 
ATOM      4  C   UNL     1      42.868 134.856  17.019  1.00  0.00     0.029 C 
ATOM      5  C   UNL     1      42.343 134.125  15.783  1.00  0.00     0.047 C 
BRANCH   4   6
ATOM      6  C   UNL     1      44.217 135.567  16.826  1.00  0.00     0.003 C 
ATOM      7  C   UNL     1      44.534 136.442  18.032  1.00  0.00     0.004 C 
ENDBRANCH   4   6
BRANCH   3   8
ATOM      8  N   UNL     1      44.128 132.642  16.736  1.00  0.00    -0.334 N 
ATOM      9  C   UNL     1      44.207 131.478  15.901  1.00  0.00     0.274 C 
ATOM     10  H   UNL     1      45.008 133.100  17.062  1.00  0.00     0.165 HD
ATOM     11  O   UNL     1      43.155 130.988  15.407  1.00  0.00    -0.267 OA
BRANCH   9  12
ATOM     12  C   UNL     1      45.513 130.852  15.621  1.00  0.00     0.174 A 
ATOM     13  N   UNL     1      46.398 130.516  16.581  1.00  0.00    -0.074 NA
ATOM     14  C   UNL     1      46.037 130.511  14.385  1.00  0.00     0.025 A 
ATOM     15  O   UNL     1      47.431 129.990  15.988  1.00  0.00    -0.361 OA
ATOM     16  C   UNL     1      47.269 129.963  14.687  1.00  0.00     0.137 A 
ATOM     17  C   UNL     1      45.417 130.689  13.032  1.00  0.00     0.051 C 
ATOM     18  C   UNL     1      48.275 129.418  13.726  1.00  0.00     0.091 C 
ENDBRANCH   9  12
ENDBRANCH   3   8
ENDBRANCH   1   3
BRANCH   1  19
ATOM     19  O   UNL     1      42.102 132.174  19.055  1.00  0.00    -0.422 OA
BRANCH  19  20
ATOM     20  C   UNL     1      42.724 132.999  19.999  1.00  0.00     0.159 A 
ATOM     21  C   UNL     1      44.052 132.758  20.385  1.00  0.00     0.105 A 
ATOM     22  C   UNL     1      42.017 134.084  20.547  1.00  0.00     0.028 A 
ATOM     23  C   UNL     1      44.677 133.589  21.330  1.00  0.00     0.087 A 
ATOM     24  C   UNL     1      40.685 134.328  20.162  1.00  0.00     0.013 A 
ATOM     25  C   UNL     1      42.636 134.925  21.512  1.00  0.00     0.010 A 
ATOM     26  C   UNL     1      43.982 134.681  21.892  1.00  0.00     0.060 A 
ATOM     27  C   UNL     1      39.964 135.378  20.729  1.00  0.00     0.001 A 
ATOM     28  C   UNL     1      41.874 135.967  22.088  1.00  0.00     0.011 A 
ATOM     29  C   UNL     1      40.555 136.190  21.693  1.00  0.00     0.001 A 
ATOM     30  Cl  UNL     1      44.954 131.445  19.624  1.00  0.00    -0.078 Cl
ATOM     31  Cl  UNL     1      46.362 133.283  21.764  1.00  0.00    -0.080 Cl
BRANCH  26  32
ATOM     32  N   UNL     1      44.660 135.545  22.822  1.00  0.00    -0.397 N 
ATOM     33  H   UNL     1      44.452 135.520  23.843  1.00  0.00     0.156 HD
ATOM     34  H   UNL     1      45.457 136.150  22.531  1.00  0.00     0.156 HD
ENDBRANCH  26  32
ENDBRANCH  19  20
ENDBRANCH   1  19
TORSDOF 7
ENDMDL


