MODEL 1
REMARK VINA RESULT:      -5.7      0.000      0.000
REMARK SMILES [N-]=[N+]=Nc1cc(Cl)cc2c(C[NH2+]O)c(OCCc3cn(C[C@H]([NH3+])C(=O)[O-])[nH+]n3)ccc12
REMARK SMILES IDX 16 1 15 2 14 3 10 4 9 5 29 6 8 7 31 8 30 9 6 10 4 11 5 12
REMARK SMILES IDX 7 13 11 14 12 15 13 18 3 20 2 21 1 22 17 23 18 24 28 25
REMARK SMILES IDX 19 26 27 27 20 28 21 30 22 31 24 32 25 33 26 34 23 35
REMARK H PARENT 12 16 12 17 13 19 27 29 23 36 23 37 23 38
ROOT
ATOM      1  C   UNL     1      40.881 133.331  16.097  1.00  0.00     0.236 C 
ENDROOT
BRANCH   1   2
ATOM      2  O   UNL     1      41.240 134.010  17.302  1.00  0.00    -0.493 OA
BRANCH   2   3
ATOM      3  C   UNL     1      42.203 133.588  18.239  1.00  0.00     0.128 A 
ATOM      4  C   UNL     1      43.096 134.544  18.776  1.00  0.00     0.059 A 
ATOM      5  C   UNL     1      44.032 134.148  19.780  1.00  0.00    -0.004 A 
ATOM      6  C   UNL     1      42.297 132.246  18.640  1.00  0.00     0.047 A 
ATOM      7  C   UNL     1      44.896 135.071  20.409  1.00  0.00     0.030 A 
ATOM      8  C   UNL     1      44.101 132.781  20.175  1.00  0.00    -0.008 A 
ATOM      9  C   UNL     1      43.233 131.849  19.586  1.00  0.00     0.013 A 
ATOM     10  C   UNL     1      45.809 134.656  21.377  1.00  0.00     0.042 A 
ATOM     11  C   UNL     1      45.034 132.366  21.156  1.00  0.00     0.047 A 
ATOM     12  C   UNL     1      45.884 133.316  21.745  1.00  0.00     0.031 A 
ATOM     13  Cl  UNL     1      46.869 135.829  22.141  1.00  0.00    -0.084 Cl
BRANCH   4  14
ATOM     14  C   UNL     1      42.998 135.976  18.265  1.00  0.00     0.337 C 
BRANCH  14  15
ATOM     15  N   UNL     1      44.055 136.283  17.294  1.00  0.00    -0.200 N 
ATOM     16  H   UNL     1      44.949 135.796  17.545  1.00  0.00     0.386 HD
ATOM     17  H   UNL     1      44.226 137.314  17.297  1.00  0.00     0.386 HD
BRANCH  15  18
ATOM     18  O   UNL     1      43.647 135.940  16.041  1.00  0.00    -0.220 OA
ATOM     19  H   UNL     1      42.691 136.205  15.962  1.00  0.00     0.288 HD
ENDBRANCH  15  18
ENDBRANCH  14  15
ENDBRANCH   4  14
BRANCH  11  20
ATOM     20  N   UNL     1      45.103 130.983  21.543  1.00  0.00    -0.060 NA
BRANCH  20  21
ATOM     21  N   UNL     1      44.970 130.612  22.711  1.00  0.00     0.005 N 
ATOM     22  N   UNL     1      44.836 130.244  23.876  1.00  0.00    -0.003 NA
ENDBRANCH  20  21
ENDBRANCH  11  20
ENDBRANCH   2   3
ENDBRANCH   1   2
BRANCH   1  23
ATOM     23  C   UNL     1      41.890 133.603  14.975  1.00  0.00     0.106 C 
BRANCH  23  24
ATOM     24  C   UNL     1      42.742 132.403  14.703  1.00  0.00     0.135 A 
ATOM     25  N   UNL     1      42.742 131.712  13.543  1.00  0.00     0.020 NA
ATOM     26  C   UNL     1      43.682 131.849  15.549  1.00  0.00     0.183 A 
ATOM     27  N   UNL     1      43.652 130.760  13.686  1.00  0.00    -0.017 N 
ATOM     28  N   UNL     1      44.224 130.818  14.878  1.00  0.00    -0.130 N 
ATOM     29  H   UNL     1      43.892 130.065  12.943  1.00  0.00     0.526 HD
BRANCH  28  30
ATOM     30  C   UNL     1      45.301 129.944  15.338  1.00  0.00     0.263 C 
BRANCH  30  31
ATOM     31  C   UNL     1      46.676 130.499  14.923  1.00  0.00     0.253 C 
BRANCH  31  32
ATOM     32  C   UNL     1      47.084 129.924  13.593  1.00  0.00     0.101 C 
ATOM     33  O   UNL     1      46.567 130.351  12.527  1.00  0.00    -0.544 OA
ATOM     34  O   UNL     1      48.028 128.906  13.537  1.00  0.00    -0.544 OA
ENDBRANCH  31  32
BRANCH  31  35
ATOM     35  N   UNL     1      46.664 131.966  14.861  1.00  0.00    -0.349 N 
ATOM     36  H   UNL     1      46.349 132.296  13.919  1.00  0.00     0.345 HD
ATOM     37  H   UNL     1      46.019 132.347  15.590  1.00  0.00     0.345 HD
ATOM     38  H   UNL     1      47.622 132.339  15.054  1.00  0.00     0.345 HD
ENDBRANCH  31  35
ENDBRANCH  30  31
ENDBRANCH  28  30
ENDBRANCH  23  24
ENDBRANCH   1  23
TORSDOF 13
ENDMDL
MODEL 2
REMARK VINA RESULT:      -5.6      4.070      7.632
REMARK SMILES [N-]=[N+]=Nc1cc(Cl)cc2c(C[NH2+]O)c(OCCc3cn(C[C@H]([NH3+])C(=O)[O-])[nH+]n3)ccc12
REMARK SMILES IDX 16 1 15 2 14 3 10 4 9 5 29 6 8 7 31 8 30 9 6 10 4 11 5 12
REMARK SMILES IDX 7 13 11 14 12 15 13 18 3 20 2 21 1 22 17 23 18 24 28 25
REMARK SMILES IDX 19 26 27 27 20 28 21 30 22 31 24 32 25 33 26 34 23 35
REMARK H PARENT 12 16 12 17 13 19 27 29 23 36 23 37 23 38
ROOT
ATOM      1  C   UNL     1      39.789 133.420  14.222  1.00  0.00     0.236 C 
ENDROOT
BRANCH   1   2
ATOM      2  O   UNL     1      41.164 133.755  14.427  1.00  0.00    -0.493 OA
BRANCH   2   3
ATOM      3  C   UNL     1      42.205 132.853  14.716  1.00  0.00     0.128 A 
ATOM      4  C   UNL     1      42.775 132.862  16.010  1.00  0.00     0.059 A 
ATOM      5  C   UNL     1      43.782 131.906  16.344  1.00  0.00    -0.004 A 
ATOM      6  C   UNL     1      42.689 131.958  13.750  1.00  0.00     0.047 A 
ATOM      7  C   UNL     1      44.333 131.815  17.641  1.00  0.00     0.030 A 
ATOM      8  C   UNL     1      44.250 131.002  15.347  1.00  0.00    -0.008 A 
ATOM      9  C   UNL     1      43.697 131.053  14.058  1.00  0.00     0.013 A 
ATOM     10  C   UNL     1      45.325 130.881  17.937  1.00  0.00     0.042 A 
ATOM     11  C   UNL     1      45.260 130.059  15.653  1.00  0.00     0.047 A 
ATOM     12  C   UNL     1      45.790 130.013  16.953  1.00  0.00     0.031 A 
ATOM     13  Cl  UNL     1      45.989 130.792  19.559  1.00  0.00    -0.084 Cl
BRANCH   4  14
ATOM     14  C   UNL     1      42.260 133.894  17.008  1.00  0.00     0.337 C 
BRANCH  14  15
ATOM     15  N   UNL     1      40.905 133.575  17.472  1.00  0.00    -0.200 N 
ATOM     16  H   UNL     1      40.184 133.904  16.786  1.00  0.00     0.386 HD
ATOM     17  H   UNL     1      40.740 134.056  18.386  1.00  0.00     0.386 HD
BRANCH  15  18
ATOM     18  O   UNL     1      40.795 132.235  17.693  1.00  0.00    -0.220 OA
ATOM     19  H   UNL     1      40.242 131.862  16.954  1.00  0.00     0.288 HD
ENDBRANCH  15  18
ENDBRANCH  14  15
ENDBRANCH   4  14
BRANCH  11  20
ATOM     20  N   UNL     1      45.732 129.157  14.638  1.00  0.00    -0.060 NA
BRANCH  20  21
ATOM     21  N   UNL     1      46.869 129.224  14.165  1.00  0.00     0.005 N 
ATOM     22  N   UNL     1      48.002 129.293  13.695  1.00  0.00    -0.003 NA
ENDBRANCH  20  21
ENDBRANCH  11  20
ENDBRANCH   2   3
ENDBRANCH   1   2
BRANCH   1  23
ATOM     23  C   UNL     1      38.907 134.672  14.154  1.00  0.00     0.106 C 
BRANCH  23  24
ATOM     24  C   UNL     1      38.515 135.139  15.520  1.00  0.00     0.135 A 
ATOM     25  N   UNL     1      37.846 134.389  16.422  1.00  0.00     0.020 NA
ATOM     26  C   UNL     1      38.810 136.361  16.092  1.00  0.00     0.183 A 
ATOM     27  N   UNL     1      37.731 135.140  17.507  1.00  0.00    -0.017 N 
ATOM     28  N   UNL     1      38.295 136.325  17.333  1.00  0.00    -0.130 N 
ATOM     29  H   UNL     1      37.266 134.826  18.388  1.00  0.00     0.526 HD
BRANCH  28  30
ATOM     30  C   UNL     1      38.387 137.370  18.349  1.00  0.00     0.263 C 
BRANCH  30  31
ATOM     31  C   UNL     1      37.918 136.849  19.720  1.00  0.00     0.253 C 
BRANCH  31  32
ATOM     32  C   UNL     1      38.935 137.190  20.776  1.00  0.00     0.101 C 
ATOM     33  O   UNL     1      40.162 137.222  20.494  1.00  0.00    -0.544 OA
ATOM     34  O   UNL     1      38.524 137.459  22.075  1.00  0.00    -0.544 OA
ENDBRANCH  31  32
BRANCH  31  35
ATOM     35  N   UNL     1      36.605 137.401  20.081  1.00  0.00    -0.349 N 
ATOM     36  H   UNL     1      36.440 138.314  19.596  1.00  0.00     0.345 HD
ATOM     37  H   UNL     1      35.851 136.729  19.813  1.00  0.00     0.345 HD
ATOM     38  H   UNL     1      36.552 137.547  21.116  1.00  0.00     0.345 HD
ENDBRANCH  31  35
ENDBRANCH  30  31
ENDBRANCH  28  30
ENDBRANCH  23  24
ENDBRANCH   1  23
TORSDOF 13
ENDMDL
MODEL 3
REMARK VINA RESULT:      -5.6      4.031      6.499
REMARK SMILES [N-]=[N+]=Nc1cc(Cl)cc2c(C[NH2+]O)c(OCCc3cn(C[C@H]([NH3+])C(=O)[O-])[nH+]n3)ccc12
REMARK SMILES IDX 16 1 15 2 14 3 10 4 9 5 29 6 8 7 31 8 30 9 6 10 4 11 5 12
REMARK SMILES IDX 7 13 11 14 12 15 13 18 3 20 2 21 1 22 17 23 18 24 28 25
REMARK SMILES IDX 19 26 27 27 20 28 21 30 22 31 24 32 25 33 26 34 23 35
REMARK H PARENT 12 16 12 17 13 19 27 29 23 36 23 37 23 38
ROOT
ATOM      1  C   UNL     1      43.042 138.741  17.011  1.00  0.00     0.236 C 
ENDROOT
BRANCH   1   2
ATOM      2  O   UNL     1      43.679 137.852  17.932  1.00  0.00    -0.493 OA
BRANCH   2   3
ATOM      3  C   UNL     1      43.923 136.480  17.728  1.00  0.00     0.128 A 
ATOM      4  C   UNL     1      44.137 135.653  18.854  1.00  0.00     0.059 A 
ATOM      5  C   UNL     1      44.315 134.247  18.672  1.00  0.00    -0.004 A 
ATOM      6  C   UNL     1      43.965 135.926  16.440  1.00  0.00     0.047 A 
ATOM      7  C   UNL     1      44.456 133.359  19.762  1.00  0.00     0.030 A 
ATOM      8  C   UNL     1      44.345 133.708  17.354  1.00  0.00    -0.008 A 
ATOM      9  C   UNL     1      44.178 134.566  16.256  1.00  0.00     0.013 A 
ATOM     10  C   UNL     1      44.642 131.993  19.555  1.00  0.00     0.042 A 
ATOM     11  C   UNL     1      44.538 132.320  17.152  1.00  0.00     0.047 A 
ATOM     12  C   UNL     1      44.688 131.476  18.264  1.00  0.00     0.031 A 
ATOM     13  Cl  UNL     1      44.813 130.915  20.931  1.00  0.00    -0.084 Cl
BRANCH   4  14
ATOM     14  C   UNL     1      44.145 136.309  20.230  1.00  0.00     0.337 C 
BRANCH  14  15
ATOM     15  N   UNL     1      45.328 137.156  20.424  1.00  0.00    -0.200 N 
ATOM     16  H   UNL     1      46.034 136.996  19.665  1.00  0.00     0.386 HD
ATOM     17  H   UNL     1      45.766 136.917  21.342  1.00  0.00     0.386 HD
BRANCH  15  18
ATOM     18  O   UNL     1      44.956 138.466  20.477  1.00  0.00    -0.220 OA
ATOM     19  H   UNL     1      44.154 138.566  19.898  1.00  0.00     0.288 HD
ENDBRANCH  15  18
ENDBRANCH  14  15
ENDBRANCH   4  14
BRANCH  11  20
ATOM     20  N   UNL     1      44.576 131.786  15.818  1.00  0.00    -0.060 NA
BRANCH  20  21
ATOM     21  N   UNL     1      45.611 131.737  15.151  1.00  0.00     0.005 N 
ATOM     22  N   UNL     1      46.643 131.689  14.485  1.00  0.00    -0.003 NA
ENDBRANCH  20  21
ENDBRANCH  11  20
ENDBRANCH   2   3
ENDBRANCH   1   2
BRANCH   1  23
ATOM     23  C   UNL     1      41.517 138.704  17.153  1.00  0.00     0.106 C 
BRANCH  23  24
ATOM     24  C   UNL     1      40.859 138.266  15.882  1.00  0.00     0.135 A 
ATOM     25  N   UNL     1      41.443 138.311  14.665  1.00  0.00     0.020 NA
ATOM     26  C   UNL     1      39.603 137.709  15.751  1.00  0.00     0.183 A 
ATOM     27  N   UNL     1      40.559 137.803  13.819  1.00  0.00    -0.017 N 
ATOM     28  N   UNL     1      39.450 137.440  14.443  1.00  0.00    -0.130 N 
ATOM     29  H   UNL     1      40.729 137.693  12.793  1.00  0.00     0.526 HD
BRANCH  28  30
ATOM     30  C   UNL     1      38.299 136.801  13.810  1.00  0.00     0.263 C 
BRANCH  30  31
ATOM     31  C   UNL     1      38.719 135.518  13.069  1.00  0.00     0.253 C 
BRANCH  31  32
ATOM     32  C   UNL     1      38.322 134.308  13.871  1.00  0.00     0.101 C 
ATOM     33  O   UNL     1      37.282 134.326  14.582  1.00  0.00    -0.544 OA
ATOM     34  O   UNL     1      39.110 133.165  13.839  1.00  0.00    -0.544 OA
ENDBRANCH  31  32
BRANCH  31  35
ATOM     35  N   UNL     1      38.126 135.458  11.727  1.00  0.00    -0.349 N 
ATOM     36  H   UNL     1      37.969 134.465  11.434  1.00  0.00     0.345 HD
ATOM     37  H   UNL     1      37.213 135.966  11.718  1.00  0.00     0.345 HD
ATOM     38  H   UNL     1      38.759 135.924  11.036  1.00  0.00     0.345 HD
ENDBRANCH  31  35
ENDBRANCH  30  31
ENDBRANCH  28  30
ENDBRANCH  23  24
ENDBRANCH   1  23
TORSDOF 13
ENDMDL
MODEL 4
REMARK VINA RESULT:      -5.2      3.161      3.969
REMARK SMILES [N-]=[N+]=Nc1cc(Cl)cc2c(C[NH2+]O)c(OCCc3cn(C[C@H]([NH3+])C(=O)[O-])[nH+]n3)ccc12
REMARK SMILES IDX 16 1 15 2 14 3 10 4 9 5 29 6 8 7 31 8 30 9 6 10 4 11 5 12
REMARK SMILES IDX 7 13 11 14 12 15 13 18 3 20 2 21 1 22 17 23 18 24 28 25
REMARK SMILES IDX 19 26 27 27 20 28 21 30 22 31 24 32 25 33 26 34 23 35
REMARK H PARENT 12 16 12 17 13 19 27 29 23 36 23 37 23 38
ROOT
ATOM      1  C   UNL     1      41.904 134.323  14.100  1.00  0.00     0.236 C 
ENDROOT
BRANCH   1   2
ATOM      2  O   UNL     1      41.527 135.289  15.084  1.00  0.00    -0.493 OA
BRANCH   2   3
ATOM      3  C   UNL     1      41.624 135.133  16.481  1.00  0.00     0.128 A 
ATOM      4  C   UNL     1      40.438 135.142  17.250  1.00  0.00     0.059 A 
ATOM      5  C   UNL     1      40.510 134.914  18.658  1.00  0.00    -0.004 A 
ATOM      6  C   UNL     1      42.865 134.980  17.117  1.00  0.00     0.047 A 
ATOM      7  C   UNL     1      39.355 134.833  19.468  1.00  0.00     0.030 A 
ATOM      8  C   UNL     1      41.783 134.752  19.279  1.00  0.00    -0.008 A 
ATOM      9  C   UNL     1      42.943 134.799  18.492  1.00  0.00     0.013 A 
ATOM     10  C   UNL     1      39.455 134.623  20.843  1.00  0.00     0.042 A 
ATOM     11  C   UNL     1      41.876 134.543  20.676  1.00  0.00     0.047 A 
ATOM     12  C   UNL     1      40.702 134.484  21.445  1.00  0.00     0.031 A 
ATOM     13  Cl  UNL     1      38.001 134.528  21.821  1.00  0.00    -0.084 Cl
BRANCH   4  14
ATOM     14  C   UNL     1      39.118 135.374  16.523  1.00  0.00     0.337 C 
BRANCH  14  15
ATOM     15  N   UNL     1      38.687 134.183  15.782  1.00  0.00    -0.200 N 
ATOM     16  H   UNL     1      38.807 133.316  16.360  1.00  0.00     0.386 HD
ATOM     17  H   UNL     1      39.273 134.093  14.921  1.00  0.00     0.386 HD
BRANCH  15  18
ATOM     18  O   UNL     1      37.393 134.330  15.382  1.00  0.00    -0.220 OA
ATOM     19  H   UNL     1      37.087 133.442  15.054  1.00  0.00     0.288 HD
ENDBRANCH  15  18
ENDBRANCH  14  15
ENDBRANCH   4  14
BRANCH  11  20
ATOM     20  N   UNL     1      43.164 134.389  21.296  1.00  0.00    -0.060 NA
BRANCH  20  21
ATOM     21  N   UNL     1      43.394 134.755  22.450  1.00  0.00     0.005 N 
ATOM     22  N   UNL     1      43.622 135.118  23.602  1.00  0.00    -0.003 NA
ENDBRANCH  20  21
ENDBRANCH  11  20
ENDBRANCH   2   3
ENDBRANCH   1   2
BRANCH   1  23
ATOM     23  C   UNL     1      41.817 132.895  14.649  1.00  0.00     0.106 C 
BRANCH  23  24
ATOM     24  C   UNL     1      43.093 132.145  14.427  1.00  0.00     0.135 A 
ATOM     25  N   UNL     1      43.241 131.131  13.547  1.00  0.00     0.020 NA
ATOM     26  C   UNL     1      44.311 132.391  15.028  1.00  0.00     0.183 A 
ATOM     27  N   UNL     1      44.513 130.769  13.620  1.00  0.00    -0.017 N 
ATOM     28  N   UNL     1      45.172 131.503  14.501  1.00  0.00    -0.130 N 
ATOM     29  H   UNL     1      44.937 130.008  13.042  1.00  0.00     0.526 HD
BRANCH  28  30
ATOM     30  C   UNL     1      46.601 131.394  14.787  1.00  0.00     0.263 C 
BRANCH  30  31
ATOM     31  C   UNL     1      46.964 129.969  15.244  1.00  0.00     0.253 C 
BRANCH  31  32
ATOM     32  C   UNL     1      45.854 129.399  16.086  1.00  0.00     0.101 C 
ATOM     33  O   UNL     1      45.651 129.831  17.252  1.00  0.00    -0.544 OA
ATOM     34  O   UNL     1      45.053 128.383  15.583  1.00  0.00    -0.544 OA
ENDBRANCH  31  32
BRANCH  31  35
ATOM     35  N   UNL     1      47.234 129.093  14.096  1.00  0.00    -0.349 N 
ATOM     36  H   UNL     1      47.709 129.622  13.328  1.00  0.00     0.345 HD
ATOM     37  H   UNL     1      47.842 128.297  14.392  1.00  0.00     0.345 HD
ATOM     38  H   UNL     1      46.337 128.694  13.734  1.00  0.00     0.345 HD
ENDBRANCH  31  35
ENDBRANCH  30  31
ENDBRANCH  28  30
ENDBRANCH  23  24
ENDBRANCH   1  23
TORSDOF 13
ENDMDL
MODEL 5
REMARK VINA RESULT:      -5.2      3.819      5.796
REMARK SMILES [N-]=[N+]=Nc1cc(Cl)cc2c(C[NH2+]O)c(OCCc3cn(C[C@H]([NH3+])C(=O)[O-])[nH+]n3)ccc12
REMARK SMILES IDX 16 1 15 2 14 3 10 4 9 5 29 6 8 7 31 8 30 9 6 10 4 11 5 12
REMARK SMILES IDX 7 13 11 14 12 15 13 18 3 20 2 21 1 22 17 23 18 24 28 25
REMARK SMILES IDX 19 26 27 27 20 28 21 30 22 31 24 32 25 33 26 34 23 35
REMARK H PARENT 12 16 12 17 13 19 27 29 23 36 23 37 23 38
ROOT
ATOM      1  C   UNL     1      44.187 131.606  18.506  1.00  0.00     0.236 C 
ENDROOT
BRANCH   1   2
ATOM      2  O   UNL     1      43.596 132.431  17.500  1.00  0.00    -0.493 OA
BRANCH   2   3
ATOM      3  C   UNL     1      42.263 132.885  17.476  1.00  0.00     0.128 A 
ATOM      4  C   UNL     1      41.768 133.482  16.293  1.00  0.00     0.059 A 
ATOM      5  C   UNL     1      40.399 133.883  16.226  1.00  0.00    -0.004 A 
ATOM      6  C   UNL     1      41.427 132.765  18.596  1.00  0.00     0.047 A 
ATOM      7  C   UNL     1      39.828 134.414  15.048  1.00  0.00     0.030 A 
ATOM      8  C   UNL     1      39.569 133.742  17.375  1.00  0.00    -0.008 A 
ATOM      9  C   UNL     1      40.106 133.191  18.549  1.00  0.00     0.013 A 
ATOM     10  C   UNL     1      38.491 134.810  15.013  1.00  0.00     0.042 A 
ATOM     11  C   UNL     1      38.214 134.151  17.333  1.00  0.00     0.047 A 
ATOM     12  C   UNL     1      37.691 134.686  16.145  1.00  0.00     0.031 A 
ATOM     13  Cl  UNL     1      37.811 135.465  13.533  1.00  0.00    -0.084 Cl
BRANCH   4  14
ATOM     14  C   UNL     1      42.731 133.649  15.123  1.00  0.00     0.337 C 
BRANCH  14  15
ATOM     15  N   UNL     1      42.773 132.451  14.277  1.00  0.00    -0.200 N 
ATOM     16  H   UNL     1      43.225 131.650  14.780  1.00  0.00     0.386 HD
ATOM     17  H   UNL     1      43.333 132.664  13.420  1.00  0.00     0.386 HD
BRANCH  15  18
ATOM     18  O   UNL     1      41.513 132.126  13.871  1.00  0.00    -0.220 OA
ATOM     19  H   UNL     1      41.014 132.980  13.759  1.00  0.00     0.288 HD
ENDBRANCH  15  18
ENDBRANCH  14  15
ENDBRANCH   4  14
BRANCH  11  20
ATOM     20  N   UNL     1      37.385 134.013  18.500  1.00  0.00    -0.060 NA
BRANCH  20  21
ATOM     21  N   UNL     1      37.146 134.953  19.261  1.00  0.00     0.005 N 
ATOM     22  N   UNL     1      36.907 135.890  20.020  1.00  0.00    -0.003 NA
ENDBRANCH  20  21
ENDBRANCH  11  20
ENDBRANCH   2   3
ENDBRANCH   1   2
BRANCH   1  23
ATOM     23  C   UNL     1      45.605 131.170  18.116  1.00  0.00     0.106 C 
BRANCH  23  24
ATOM     24  C   UNL     1      45.628 130.536  16.761  1.00  0.00     0.135 A 
ATOM     25  N   UNL     1      45.449 129.217  16.531  1.00  0.00     0.020 NA
ATOM     26  C   UNL     1      45.780 131.180  15.550  1.00  0.00     0.183 A 
ATOM     27  N   UNL     1      45.499 129.067  15.216  1.00  0.00    -0.017 N 
ATOM     28  N   UNL     1      45.701 130.225  14.608  1.00  0.00    -0.130 N 
ATOM     29  H   UNL     1      45.380 128.151  14.728  1.00  0.00     0.526 HD
BRANCH  28  30
ATOM     30  C   UNL     1      45.759 130.416  13.161  1.00  0.00     0.263 C 
BRANCH  30  31
ATOM     31  C   UNL     1      47.197 130.721  12.702  1.00  0.00     0.253 C 
BRANCH  31  32
ATOM     32  C   UNL     1      48.171 129.854  13.452  1.00  0.00     0.101 C 
ATOM     33  O   UNL     1      49.127 130.371  14.089  1.00  0.00    -0.544 OA
ATOM     34  O   UNL     1      48.027 128.473  13.435  1.00  0.00    -0.544 OA
ENDBRANCH  31  32
BRANCH  31  35
ATOM     35  N   UNL     1      47.349 130.525  11.254  1.00  0.00    -0.349 N 
ATOM     36  H   UNL     1      46.571 130.992  10.732  1.00  0.00     0.345 HD
ATOM     37  H   UNL     1      48.262 130.920  10.936  1.00  0.00     0.345 HD
ATOM     38  H   UNL     1      47.346 129.502  11.031  1.00  0.00     0.345 HD
ENDBRANCH  31  35
ENDBRANCH  30  31
ENDBRANCH  28  30
ENDBRANCH  23  24
ENDBRANCH   1  23
TORSDOF 13
ENDMDL
MODEL 6
REMARK VINA RESULT:      -5.1      2.596      3.151
REMARK SMILES [N-]=[N+]=Nc1cc(Cl)cc2c(C[NH2+]O)c(OCCc3cn(C[C@H]([NH3+])C(=O)[O-])[nH+]n3)ccc12
REMARK SMILES IDX 16 1 15 2 14 3 10 4 9 5 29 6 8 7 31 8 30 9 6 10 4 11 5 12
REMARK SMILES IDX 7 13 11 14 12 15 13 18 3 20 2 21 1 22 17 23 18 24 28 25
REMARK SMILES IDX 19 26 27 27 20 28 21 30 22 31 24 32 25 33 26 34 23 35
REMARK H PARENT 12 16 12 17 13 19 27 29 23 36 23 37 23 38
ROOT
ATOM      1  C   UNL     1      41.843 133.001  17.321  1.00  0.00     0.236 C 
ENDROOT
BRANCH   1   2
ATOM      2  O   UNL     1      42.019 132.681  18.703  1.00  0.00    -0.493 OA
BRANCH   2   3
ATOM      3  C   UNL     1      42.991 133.225  19.565  1.00  0.00     0.128 A 
ATOM      4  C   UNL     1      42.657 134.362  20.336  1.00  0.00     0.059 A 
ATOM      5  C   UNL     1      43.605 134.884  21.268  1.00  0.00    -0.004 A 
ATOM      6  C   UNL     1      44.275 132.669  19.667  1.00  0.00     0.047 A 
ATOM      7  C   UNL     1      43.303 135.970  22.120  1.00  0.00     0.030 A 
ATOM      8  C   UNL     1      44.899 134.296  21.357  1.00  0.00    -0.008 A 
ATOM      9  C   UNL     1      45.214 133.198  20.542  1.00  0.00     0.013 A 
ATOM     10  C   UNL     1      44.252 136.468  23.012  1.00  0.00     0.042 A 
ATOM     11  C   UNL     1      45.859 134.810  22.263  1.00  0.00     0.047 A 
ATOM     12  C   UNL     1      45.519 135.900  23.081  1.00  0.00     0.031 A 
ATOM     13  Cl  UNL     1      43.844 137.818  24.059  1.00  0.00    -0.084 Cl
BRANCH   4  14
ATOM     14  C   UNL     1      41.272 134.970  20.147  1.00  0.00     0.337 C 
BRANCH  14  15
ATOM     15  N   UNL     1      40.210 134.049  20.567  1.00  0.00    -0.200 N 
ATOM     16  H   UNL     1      40.466 133.055  20.350  1.00  0.00     0.386 HD
ATOM     17  H   UNL     1      39.333 134.287  20.050  1.00  0.00     0.386 HD
BRANCH  15  18
ATOM     18  O   UNL     1      39.956 134.210  21.896  1.00  0.00    -0.220 OA
ATOM     19  H   UNL     1      39.108 133.728  22.091  1.00  0.00     0.288 HD
ENDBRANCH  15  18
ENDBRANCH  14  15
ENDBRANCH   4  14
BRANCH  11  20
ATOM     20  N   UNL     1      47.165 134.215  22.341  1.00  0.00    -0.060 NA
BRANCH  20  21
ATOM     21  N   UNL     1      48.179 134.781  21.926  1.00  0.00     0.005 N 
ATOM     22  N   UNL     1      49.190 135.345  21.513  1.00  0.00    -0.003 NA
ENDBRANCH  20  21
ENDBRANCH  11  20
ENDBRANCH   2   3
ENDBRANCH   1   2
BRANCH   1  23
ATOM     23  C   UNL     1      43.000 133.854  16.788  1.00  0.00     0.106 C 
BRANCH  23  24
ATOM     24  C   UNL     1      43.942 133.039  15.959  1.00  0.00     0.135 A 
ATOM     25  N   UNL     1      45.282 133.207  15.937  1.00  0.00     0.020 NA
ATOM     26  C   UNL     1      43.615 131.976  15.141  1.00  0.00     0.183 A 
ATOM     27  N   UNL     1      45.752 132.276  15.121  1.00  0.00    -0.017 N 
ATOM     28  N   UNL     1      44.775 131.530  14.629  1.00  0.00    -0.130 N 
ATOM     29  H   UNL     1      46.767 132.143  14.908  1.00  0.00     0.526 HD
BRANCH  28  30
ATOM     30  C   UNL     1      44.956 130.387  13.738  1.00  0.00     0.263 C 
BRANCH  30  31
ATOM     31  C   UNL     1      46.044 129.437  14.273  1.00  0.00     0.253 C 
BRANCH  31  32
ATOM     32  C   UNL     1      47.354 129.717  13.587  1.00  0.00     0.101 C 
ATOM     33  O   UNL     1      47.376 130.198  12.423  1.00  0.00    -0.544 OA
ATOM     34  O   UNL     1      48.551 129.434  14.233  1.00  0.00    -0.544 OA
ENDBRANCH  31  32
BRANCH  31  35
ATOM     35  N   UNL     1      46.194 129.563  15.729  1.00  0.00    -0.349 N 
ATOM     36  H   UNL     1      45.540 128.915  16.227  1.00  0.00     0.345 HD
ATOM     37  H   UNL     1      47.176 129.340  16.006  1.00  0.00     0.345 HD
ATOM     38  H   UNL     1      45.993 130.547  16.024  1.00  0.00     0.345 HD
ENDBRANCH  31  35
ENDBRANCH  30  31
ENDBRANCH  28  30
ENDBRANCH  23  24
ENDBRANCH   1  23
TORSDOF 13
ENDMDL
MODEL 7
REMARK VINA RESULT:      -4.9      3.775      8.223
REMARK SMILES [N-]=[N+]=Nc1cc(Cl)cc2c(C[NH2+]O)c(OCCc3cn(C[C@H]([NH3+])C(=O)[O-])[nH+]n3)ccc12
REMARK SMILES IDX 16 1 15 2 14 3 10 4 9 5 29 6 8 7 31 8 30 9 6 10 4 11 5 12
REMARK SMILES IDX 7 13 11 14 12 15 13 18 3 20 2 21 1 22 17 23 18 24 28 25
REMARK SMILES IDX 19 26 27 27 20 28 21 30 22 31 24 32 25 33 26 34 23 35
REMARK H PARENT 12 16 12 17 13 19 27 29 23 36 23 37 23 38
ROOT
ATOM      1  C   UNL     1      44.693 131.160  21.573  1.00  0.00     0.236 C 
ENDROOT
BRANCH   1   2
ATOM      2  O   UNL     1      45.351 131.793  20.473  1.00  0.00    -0.493 OA
BRANCH   2   3
ATOM      3  C   UNL     1      45.061 131.599  19.109  1.00  0.00     0.128 A 
ATOM      4  C   UNL     1      44.064 132.399  18.504  1.00  0.00     0.059 A 
ATOM      5  C   UNL     1      43.806 132.267  17.106  1.00  0.00    -0.004 A 
ATOM      6  C   UNL     1      45.732 130.631  18.346  1.00  0.00     0.047 A 
ATOM      7  C   UNL     1      42.878 133.090  16.430  1.00  0.00     0.030 A 
ATOM      8  C   UNL     1      44.508 131.281  16.353  1.00  0.00    -0.008 A 
ATOM      9  C   UNL     1      45.456 130.471  16.995  1.00  0.00     0.013 A 
ATOM     10  C   UNL     1      42.636 132.931  15.067  1.00  0.00     0.042 A 
ATOM     11  C   UNL     1      44.254 131.123  14.969  1.00  0.00     0.047 A 
ATOM     12  C   UNL     1      43.312 131.955  14.341  1.00  0.00     0.031 A 
ATOM     13  Cl  UNL     1      41.477 133.971  14.256  1.00  0.00    -0.084 Cl
BRANCH   4  14
ATOM     14  C   UNL     1      43.318 133.394  19.386  1.00  0.00     0.337 C 
BRANCH  14  15
ATOM     15  N   UNL     1      41.951 132.946  19.677  1.00  0.00    -0.200 N 
ATOM     16  H   UNL     1      41.368 132.922  18.806  1.00  0.00     0.386 HD
ATOM     17  H   UNL     1      41.514 133.616  20.351  1.00  0.00     0.386 HD
BRANCH  15  18
ATOM     18  O   UNL     1      41.982 131.724  20.279  1.00  0.00    -0.220 OA
ATOM     19  H   UNL     1      42.177 131.878  21.243  1.00  0.00     0.288 HD
ENDBRANCH  15  18
ENDBRANCH  14  15
ENDBRANCH   4  14
BRANCH  11  20
ATOM     20  N   UNL     1      44.960 130.121  14.218  1.00  0.00    -0.060 NA
BRANCH  20  21
ATOM     21  N   UNL     1      45.894 130.393  13.462  1.00  0.00     0.005 N 
ATOM     22  N   UNL     1      46.826 130.665  12.707  1.00  0.00    -0.003 NA
ENDBRANCH  20  21
ENDBRANCH  11  20
ENDBRANCH   2   3
ENDBRANCH   1   2
BRANCH   1  23
ATOM     23  C   UNL     1      44.868 131.959  22.870  1.00  0.00     0.106 C 
BRANCH  23  24
ATOM     24  C   UNL     1      43.788 132.983  23.031  1.00  0.00     0.135 A 
ATOM     25  N   UNL     1      42.469 132.731  22.892  1.00  0.00     0.020 NA
ATOM     26  C   UNL     1      43.951 134.305  23.392  1.00  0.00     0.183 A 
ATOM     27  N   UNL     1      41.851 133.873  23.153  1.00  0.00    -0.017 N 
ATOM     28  N   UNL     1      42.715 134.830  23.450  1.00  0.00    -0.130 N 
ATOM     29  H   UNL     1      40.812 133.991  23.138  1.00  0.00     0.526 HD
BRANCH  28  30
ATOM     30  C   UNL     1      42.361 136.194  23.834  1.00  0.00     0.263 C 
BRANCH  30  31
ATOM     31  C   UNL     1      42.334 137.123  22.606  1.00  0.00     0.253 C 
BRANCH  31  32
ATOM     32  C   UNL     1      43.590 137.951  22.559  1.00  0.00     0.101 C 
ATOM     33  O   UNL     1      43.736 138.842  21.681  1.00  0.00    -0.544 OA
ATOM     34  O   UNL     1      44.603 137.727  23.482  1.00  0.00    -0.544 OA
ENDBRANCH  31  32
BRANCH  31  35
ATOM     35  N   UNL     1      42.181 136.359  21.361  1.00  0.00    -0.349 N 
ATOM     36  H   UNL     1      41.947 135.359  21.565  1.00  0.00     0.345 HD
ATOM     37  H   UNL     1      41.421 136.777  20.778  1.00  0.00     0.345 HD
ATOM     38  H   UNL     1      43.068 136.398  20.808  1.00  0.00     0.345 HD
ENDBRANCH  31  35
ENDBRANCH  30  31
ENDBRANCH  28  30
ENDBRANCH  23  24
ENDBRANCH   1  23
TORSDOF 13
ENDMDL
MODEL 8
REMARK VINA RESULT:      -4.9      4.054      7.735
REMARK SMILES [N-]=[N+]=Nc1cc(Cl)cc2c(C[NH2+]O)c(OCCc3cn(C[C@H]([NH3+])C(=O)[O-])[nH+]n3)ccc12
REMARK SMILES IDX 16 1 15 2 14 3 10 4 9 5 29 6 8 7 31 8 30 9 6 10 4 11 5 12
REMARK SMILES IDX 7 13 11 14 12 15 13 18 3 20 2 21 1 22 17 23 18 24 28 25
REMARK SMILES IDX 19 26 27 27 20 28 21 30 22 31 24 32 25 33 26 34 23 35
REMARK H PARENT 12 16 12 17 13 19 27 29 23 36 23 37 23 38
ROOT
ATOM      1  C   UNL     1      40.252 134.684  14.321  1.00  0.00     0.236 C 
ENDROOT
BRANCH   1   2
ATOM      2  O   UNL     1      40.498 133.462  15.021  1.00  0.00    -0.493 OA
BRANCH   2   3
ATOM      3  C   UNL     1      41.728 132.781  15.096  1.00  0.00     0.128 A 
ATOM      4  C   UNL     1      42.351 132.638  16.358  1.00  0.00     0.059 A 
ATOM      5  C   UNL     1      43.562 131.889  16.464  1.00  0.00    -0.004 A 
ATOM      6  C   UNL     1      42.346 132.254  13.952  1.00  0.00     0.047 A 
ATOM      7  C   UNL     1      44.190 131.646  17.707  1.00  0.00     0.030 A 
ATOM      8  C   UNL     1      44.165 131.357  15.288  1.00  0.00    -0.008 A 
ATOM      9  C   UNL     1      43.545 131.560  14.045  1.00  0.00     0.013 A 
ATOM     10  C   UNL     1      45.379 130.923  17.781  1.00  0.00     0.042 A 
ATOM     11  C   UNL     1      45.375 130.626  15.371  1.00  0.00     0.047 A 
ATOM     12  C   UNL     1      45.971 130.421  16.626  1.00  0.00     0.031 A 
ATOM     13  Cl  UNL     1      46.134 130.637  19.340  1.00  0.00    -0.084 Cl
BRANCH   4  14
ATOM     14  C   UNL     1      41.675 133.282  17.563  1.00  0.00     0.337 C 
BRANCH  14  15
ATOM     15  N   UNL     1      41.750 134.746  17.513  1.00  0.00    -0.200 N 
ATOM     16  H   UNL     1      41.287 135.176  18.349  1.00  0.00     0.386 HD
ATOM     17  H   UNL     1      41.259 135.079  16.652  1.00  0.00     0.386 HD
BRANCH  15  18
ATOM     18  O   UNL     1      43.051 135.140  17.418  1.00  0.00    -0.220 OA
ATOM     19  H   UNL     1      43.592 134.323  17.245  1.00  0.00     0.288 HD
ENDBRANCH  15  18
ENDBRANCH  14  15
ENDBRANCH   4  14
BRANCH  11  20
ATOM     20  N   UNL     1      45.980 130.100  14.179  1.00  0.00    -0.060 NA
BRANCH  20  21
ATOM     21  N   UNL     1      47.148 129.706  14.144  1.00  0.00     0.005 N 
ATOM     22  N   UNL     1      48.312 129.313  14.109  1.00  0.00    -0.003 NA
ENDBRANCH  20  21
ENDBRANCH  11  20
ENDBRANCH   2   3
ENDBRANCH   1   2
BRANCH   1  23
ATOM     23  C   UNL     1      38.759 135.032  14.301  1.00  0.00     0.106 C 
BRANCH  23  24
ATOM     24  C   UNL     1      38.460 136.211  15.174  1.00  0.00     0.135 A 
ATOM     25  N   UNL     1      38.590 137.499  14.790  1.00  0.00     0.020 NA
ATOM     26  C   UNL     1      37.965 136.180  16.462  1.00  0.00     0.183 A 
ATOM     27  N   UNL     1      38.193 138.228  15.821  1.00  0.00    -0.017 N 
ATOM     28  N   UNL     1      37.819 137.463  16.835  1.00  0.00    -0.130 N 
ATOM     29  H   UNL     1      38.167 139.273  15.823  1.00  0.00     0.526 HD
BRANCH  28  30
ATOM     30  C   UNL     1      37.282 137.950  18.103  1.00  0.00     0.263 C 
BRANCH  30  31
ATOM     31  C   UNL     1      37.889 137.180  19.291  1.00  0.00     0.253 C 
BRANCH  31  32
ATOM     32  C   UNL     1      38.950 138.014  19.957  1.00  0.00     0.101 C 
ATOM     33  O   UNL     1      39.553 138.914  19.314  1.00  0.00    -0.544 OA
ATOM     34  O   UNL     1      39.277 137.787  21.288  1.00  0.00    -0.544 OA
ENDBRANCH  31  32
BRANCH  31  35
ATOM     35  N   UNL     1      36.857 136.796  20.262  1.00  0.00    -0.349 N 
ATOM     36  H   UNL     1      36.321 137.635  20.586  1.00  0.00     0.345 HD
ATOM     37  H   UNL     1      36.195 136.114  19.827  1.00  0.00     0.345 HD
ATOM     38  H   UNL     1      37.300 136.331  21.088  1.00  0.00     0.345 HD
ENDBRANCH  31  35
ENDBRANCH  30  31
ENDBRANCH  28  30
ENDBRANCH  23  24
ENDBRANCH   1  23
TORSDOF 13
ENDMDL
MODEL 9
REMARK VINA RESULT:      -4.9      3.255      5.402
REMARK SMILES [N-]=[N+]=Nc1cc(Cl)cc2c(C[NH2+]O)c(OCCc3cn(C[C@H]([NH3+])C(=O)[O-])[nH+]n3)ccc12
REMARK SMILES IDX 16 1 15 2 14 3 10 4 9 5 29 6 8 7 31 8 30 9 6 10 4 11 5 12
REMARK SMILES IDX 7 13 11 14 12 15 13 18 3 20 2 21 1 22 17 23 18 24 28 25
REMARK SMILES IDX 19 26 27 27 20 28 21 30 22 31 24 32 25 33 26 34 23 35
REMARK H PARENT 12 16 12 17 13 19 27 29 23 36 23 37 23 38
ROOT
ATOM      1  C   UNL     1      44.212 132.938  15.435  1.00  0.00     0.236 C 
ENDROOT
BRANCH   1   2
ATOM      2  O   UNL     1      44.570 133.624  16.637  1.00  0.00    -0.493 OA
BRANCH   2   3
ATOM      3  C   UNL     1      44.351 133.167  17.951  1.00  0.00     0.128 A 
ATOM      4  C   UNL     1      43.753 134.043  18.886  1.00  0.00     0.059 A 
ATOM      5  C   UNL     1      43.458 133.574  20.203  1.00  0.00    -0.004 A 
ATOM      6  C   UNL     1      44.720 131.873  18.349  1.00  0.00     0.047 A 
ATOM      7  C   UNL     1      42.791 134.377  21.156  1.00  0.00     0.030 A 
ATOM      8  C   UNL     1      43.835 132.253  20.578  1.00  0.00    -0.008 A 
ATOM      9  C   UNL     1      44.472 131.426  19.640  1.00  0.00     0.013 A 
ATOM     10  C   UNL     1      42.527 133.899  22.438  1.00  0.00     0.042 A 
ATOM     11  C   UNL     1      43.567 131.776  21.884  1.00  0.00     0.047 A 
ATOM     12  C   UNL     1      42.914 132.613  22.804  1.00  0.00     0.031 A 
ATOM     13  Cl  UNL     1      41.697 134.921  23.599  1.00  0.00    -0.084 Cl
BRANCH   4  14
ATOM     14  C   UNL     1      43.427 135.460  18.427  1.00  0.00     0.337 C 
BRANCH  14  15
ATOM     15  N   UNL     1      42.117 135.532  17.769  1.00  0.00    -0.200 N 
ATOM     16  H   UNL     1      41.417 136.023  18.376  1.00  0.00     0.386 HD
ATOM     17  H   UNL     1      41.777 134.560  17.589  1.00  0.00     0.386 HD
BRANCH  15  18
ATOM     18  O   UNL     1      42.239 136.152  16.562  1.00  0.00    -0.220 OA
ATOM     19  H   UNL     1      42.627 135.488  15.931  1.00  0.00     0.288 HD
ENDBRANCH  15  18
ENDBRANCH  14  15
ENDBRANCH   4  14
BRANCH  11  20
ATOM     20  N   UNL     1      43.958 130.444  22.257  1.00  0.00    -0.060 NA
BRANCH  20  21
ATOM     21  N   UNL     1      43.223 129.690  22.899  1.00  0.00     0.005 N 
ATOM     22  N   UNL     1      42.490 128.939  23.539  1.00  0.00    -0.003 NA
ENDBRANCH  20  21
ENDBRANCH  11  20
ENDBRANCH   2   3
ENDBRANCH   1   2
BRANCH   1  23
ATOM     23  C   UNL     1      42.871 132.211  15.579  1.00  0.00     0.106 C 
BRANCH  23  24
ATOM     24  C   UNL     1      41.724 133.099  15.210  1.00  0.00     0.135 A 
ATOM     25  N   UNL     1      40.729 133.453  16.051  1.00  0.00     0.020 NA
ATOM     26  C   UNL     1      41.526 133.730  13.999  1.00  0.00     0.183 A 
ATOM     27  N   UNL     1      39.945 134.269  15.364  1.00  0.00    -0.017 N 
ATOM     28  N   UNL     1      40.397 134.447  14.134  1.00  0.00    -0.130 N 
ATOM     29  H   UNL     1      39.088 134.722  15.756  1.00  0.00     0.526 HD
BRANCH  28  30
ATOM     30  C   UNL     1      39.793 135.326  13.134  1.00  0.00     0.263 C 
BRANCH  30  31
ATOM     31  C   UNL     1      38.262 135.373  13.294  1.00  0.00     0.253 C 
BRANCH  31  32
ATOM     32  C   UNL     1      37.727 136.669  12.747  1.00  0.00     0.101 C 
ATOM     33  O   UNL     1      36.595 137.092  13.101  1.00  0.00    -0.544 OA
ATOM     34  O   UNL     1      38.478 137.401  11.837  1.00  0.00    -0.544 OA
ENDBRANCH  31  32
BRANCH  31  35
ATOM     35  N   UNL     1      37.621 134.233  12.624  1.00  0.00    -0.349 N 
ATOM     36  H   UNL     1      37.632 134.358  11.585  1.00  0.00     0.345 HD
ATOM     37  H   UNL     1      38.121 133.350  12.869  1.00  0.00     0.345 HD
ATOM     38  H   UNL     1      36.630 134.142  12.948  1.00  0.00     0.345 HD
ENDBRANCH  31  35
ENDBRANCH  30  31
ENDBRANCH  28  30
ENDBRANCH  23  24
ENDBRANCH   1  23
TORSDOF 13
ENDMDL


