REMARK SMILES C#C[C@@](O[C@H](C(=O)OC)[C@](C#N)(CC)c1ccc(C#N)cc1)(c1ccc2ccccc2c1)C(C)(C)C
REMARK SMILES IDX 5 1 4 2 3 3 2 4 1 5 23 6 24 7 32 8 25 9 31 10 26 11 30 12
REMARK SMILES IDX 27 13 29 14 28 15 33 16 34 17 35 18 36 19 6 20 7 21 8 22
REMARK SMILES IDX 9 23 10 24 11 25 12 26 13 27 14 28 15 29 16 30 22 31 17 32
REMARK SMILES IDX 21 33 18 34 19 35 20 36
REMARK H PARENT
ROOT
ATOM      1  C   UNL     1       1.747   0.047  -0.110  1.00  0.00     0.254 C 
ENDROOT
BRANCH   1   2
ATOM      2  O   UNL     1       1.512  -0.546   1.172  1.00  0.00    -0.341 OA
BRANCH   2   3
ATOM      3  C   UNL     1       0.448  -1.516   1.234  1.00  0.00     0.159 C 
BRANCH   3   4
ATOM      4  C   UNL     1       0.674  -2.596   0.227  1.00  0.00    -0.066 C 
ATOM      5  C   UNL     1       0.849  -3.478  -0.579  1.00  0.00     0.007 C 
ENDBRANCH   3   4
BRANCH   3   6
ATOM      6  C   UNL     1      -0.931  -0.851   0.991  1.00  0.00    -0.003 A 
ATOM      7  C   UNL     1      -1.198   0.435   1.497  1.00  0.00     0.008 A 
ATOM      8  C   UNL     1      -1.979  -1.524   0.314  1.00  0.00     0.016 A 
ATOM      9  C   UNL     1      -2.429   1.060   1.291  1.00  0.00     0.009 A 
ATOM     10  C   UNL     1      -3.220  -0.904   0.102  1.00  0.00    -0.018 A 
ATOM     11  C   UNL     1      -3.444   0.403   0.589  1.00  0.00    -0.018 A 
ATOM     12  C   UNL     1      -4.245  -1.573  -0.587  1.00  0.00     0.009 A 
ATOM     13  C   UNL     1      -4.685   1.023   0.376  1.00  0.00     0.009 A 
ATOM     14  C   UNL     1      -5.477  -0.945  -0.794  1.00  0.00     0.001 A 
ATOM     15  C   UNL     1      -5.697   0.348  -0.314  1.00  0.00     0.001 A 
ENDBRANCH   3   6
BRANCH   3  16
ATOM     16  C   UNL     1       0.503  -2.181   2.679  1.00  0.00     0.007 C 
ATOM     17  C   UNL     1       0.332  -1.127   3.801  1.00  0.00     0.015 C 
ATOM     18  C   UNL     1      -0.600  -3.255   2.866  1.00  0.00     0.015 C 
ATOM     19  C   UNL     1       1.881  -2.862   2.905  1.00  0.00     0.015 C 
ENDBRANCH   3  16
ENDBRANCH   2   3
ENDBRANCH   1   2
BRANCH   1  20
ATOM     20  C   UNL     1       2.625  -0.849  -0.958  1.00  0.00     0.337 C 
ATOM     21  O   UNL     1       3.586  -1.477  -0.433  1.00  0.00    -0.249 OA
BRANCH  20  22
ATOM     22  O   UNL     1       2.382  -0.940  -2.332  1.00  0.00    -0.467 OA
ATOM     23  C   UNL     1       3.195  -1.716  -3.203  1.00  0.00     0.282 C 
ENDBRANCH  20  22
ENDBRANCH   1  20
BRANCH   1  24
ATOM     24  C   UNL     1       2.443   1.447   0.051  1.00  0.00     0.119 C 
BRANCH  24  25
ATOM     25  C   UNL     1       3.698   1.261   0.827  1.00  0.00     0.077 C 
ATOM     26  N   UNL     1       4.672   1.115   1.435  1.00  0.00    -0.197 NA
ENDBRANCH  24  25
BRANCH  24  27
ATOM     27  C   UNL     1       1.547   2.414   0.881  1.00  0.00     0.027 C 
ATOM     28  C   UNL     1       2.077   3.852   0.956  1.00  0.00     0.006 C 
ENDBRANCH  24  27
BRANCH  24  29
ATOM     29  C   UNL     1       2.712   2.044  -1.349  1.00  0.00    -0.024 A 
ATOM     30  C   UNL     1       4.018   2.198  -1.872  1.00  0.00     0.007 A 
ATOM     31  C   UNL     1       1.623   2.393  -2.179  1.00  0.00     0.007 A 
ATOM     32  C   UNL     1       4.220   2.702  -3.160  1.00  0.00     0.020 A 
ATOM     33  C   UNL     1       1.831   2.897  -3.466  1.00  0.00     0.020 A 
ATOM     34  C   UNL     1       3.129   3.054  -3.958  1.00  0.00     0.052 A 
BRANCH  34  35
ATOM     35  C   UNL     1       3.341   3.569  -5.285  1.00  0.00     0.099 C 
ATOM     36  N   UNL     1       3.511   3.983  -6.352  1.00  0.00    -0.192 NA
ENDBRANCH  34  35
ENDBRANCH  24  29
ENDBRANCH   1  24
TORSDOF 12


