REMARK SMILES C[C@@H](C#N)N(C)CCCCc1cn(-c2cc(N=C=O)c3c4c(cccc24)C(=O)[N-]3)nn1
REMARK SMILES IDX 9 1 10 2 11 3 13 4 30 5 12 6 31 7 14 8 24 9 23 10 25 11
REMARK SMILES IDX 22 12 26 13 21 14 27 15 20 16 29 17 15 18 16 19 28 20 17 21
REMARK SMILES IDX 18 22 19 23 8 24 7 25 5 26 6 27 2 28 1 29 3 30 4 31
REMARK H PARENT
ROOT
ATOM      1  C   UNL     1      -0.484  -4.024   1.338  1.00  0.00     0.008 C 
ENDROOT
BRANCH   1   2
ATOM      2  C   UNL     1       0.800  -3.205   1.152  1.00  0.00     0.060 C 
BRANCH   2   3
ATOM      3  C   UNL     1       0.494  -1.894   0.501  1.00  0.00     0.083 A 
ATOM      4  N   UNL     1       0.036  -0.353  -0.965  1.00  0.00    -0.220 N 
ATOM      5  N   UNL     1      -0.065   0.160   0.252  1.00  0.00    -0.062 NA
ATOM      6  C   UNL     1       0.393  -1.645  -0.849  1.00  0.00     0.140 A 
ATOM      7  N   UNL     1       0.194  -0.763   1.168  1.00  0.00    -0.135 NA
BRANCH   4   8
ATOM      8  C   UNL     1      -0.131   0.390  -2.185  1.00  0.00     0.076 A 
ATOM      9  C   UNL     1      -3.115   2.687  -1.669  1.00  0.00     0.001 A 
ATOM     10  C   UNL     1      -3.091   3.380  -2.900  1.00  0.00     0.011 A 
ATOM     11  C   UNL     1      -2.153   1.685  -1.380  1.00  0.00     0.011 A 
ATOM     12  C   UNL     1      -2.093   3.041  -3.811  1.00  0.00     0.006 A 
ATOM     13  C   UNL     1      -1.143   1.376  -2.325  1.00  0.00     0.007 A 
ATOM     14  C   UNL     1      -1.177   2.082  -3.519  1.00  0.00    -0.019 A 
ATOM     15  C   UNL     1      -1.768   3.475  -5.163  1.00  0.00     0.086 C 
ATOM     16  C   UNL     1      -0.324   1.879  -4.567  1.00  0.00    -0.098 A 
ATOM     17  N   UNL     1      -0.640   2.743  -5.668  1.00  0.00    -0.620 NA
ATOM     18  C   UNL     1       0.759   0.155  -3.275  1.00  0.00     0.057 A 
ATOM     19  C   UNL     1       0.676   0.896  -4.477  1.00  0.00     0.064 A 
ATOM     20  O   UNL     1      -2.377   4.363  -5.814  1.00  0.00    -0.315 OA
BRANCH  19  21
ATOM     21  N   UNL     1       1.611   0.617  -5.533  1.00  0.00    -0.169 NA
BRANCH  21  22
ATOM     22  C   UNL     1       1.670   1.264  -6.627  1.00  0.00     0.240 C 
ATOM     23  O   UNL     1       1.731   1.893  -7.691  1.00  0.00    -0.211 OA
ENDBRANCH  21  22
ENDBRANCH  19  21
ENDBRANCH   4   8
ENDBRANCH   2   3
ENDBRANCH   1   2
BRANCH   1  24
ATOM     24  C   UNL     1      -0.228  -5.400   1.982  1.00  0.00     0.016 C 
BRANCH  24  25
ATOM     25  C   UNL     1      -0.179  -5.354   3.518  1.00  0.00     0.085 C 
BRANCH  25  26
ATOM     26  N   UNL     1       1.054  -4.673   3.991  1.00  0.00    -0.291 NA
ATOM     27  C   UNL     1       2.122  -5.672   4.206  1.00  0.00     0.106 C 
BRANCH  26  28
ATOM     28  C   UNL     1       0.798  -3.846   5.203  1.00  0.00     0.157 C 
ATOM     29  C   UNL     1       2.085  -3.241   5.792  1.00  0.00     0.041 C 
BRANCH  28  30
ATOM     30  C   UNL     1      -0.094  -2.720   4.862  1.00  0.00     0.081 C 
ATOM     31  N   UNL     1      -0.795  -1.838   4.593  1.00  0.00    -0.197 NA
ENDBRANCH  28  30
ENDBRANCH  26  28
ENDBRANCH  25  26
ENDBRANCH  24  25
ENDBRANCH   1  24
TORSDOF 10


