REMARK SMILES Cc1[nH+]nn(/C=C(/O)Nc2cccc(C#N)c2C)c1-c1cc2ccccc2c2ccccc12
REMARK SMILES IDX 7 1 8 2 6 4 5 5 4 6 19 7 3 8 2 9 1 11 20 12 21 13 33 14
REMARK SMILES IDX 22 15 32 16 28 17 23 18 27 19 31 20 29 21 24 22 26 23 30 24
REMARK SMILES IDX 25 25 9 26 10 28 11 29 17 30 12 31 14 32 13 33 18 34 15 35
REMARK SMILES IDX 16 36
REMARK H PARENT 8 3 3 10 9 27
ROOT
ATOM      1  C   UNL     1      -0.109  -2.230   2.219  1.00  0.00     0.232 C 
ENDROOT
BRANCH   1   2
ATOM      2  O   UNL     1      -1.308  -2.786   2.669  1.00  0.00    -0.492 OA
ATOM      3  H   UNL     1      -1.493  -3.781   2.618  1.00  0.00     0.295 HD
ENDBRANCH   1   2
BRANCH   1   4
ATOM      4  C   UNL     1       0.853  -3.032   1.733  1.00  0.00     0.298 C 
BRANCH   4   5
ATOM      5  N   UNL     1       2.104  -2.533   1.238  1.00  0.00    -0.096 N 
ATOM      6  N   UNL     1       3.279  -2.983   1.650  1.00  0.00     0.094 NA
ATOM      7  C   UNL     1       2.320  -1.624   0.259  1.00  0.00     0.207 A 
ATOM      8  N   UNL     1       4.252  -2.383   0.981  1.00  0.00    -0.147 N 
ATOM      9  C   UNL     1       3.690  -1.543   0.092  1.00  0.00     0.170 A 
ATOM     10  H   UNL     1       5.270  -2.567   1.118  1.00  0.00     0.342 HD
ATOM     11  C   UNL     1       4.446  -0.698  -0.883  1.00  0.00     0.100 C 
BRANCH   7  12
ATOM     12  C   UNL     1       1.285  -1.020  -0.609  1.00  0.00     0.036 A 
ATOM     13  C   UNL     1       0.565  -1.874  -1.443  1.00  0.00     0.022 A 
ATOM     14  C   UNL     1       1.014   0.369  -0.616  1.00  0.00    -0.006 A 
ATOM     15  C   UNL     1      -0.424  -1.384  -2.297  1.00  0.00    -0.017 A 
ATOM     16  C   UNL     1       1.721   1.246   0.237  1.00  0.00     0.009 A 
ATOM     17  C   UNL     1      -0.006   0.892  -1.469  1.00  0.00    -0.010 A 
ATOM     18  C   UNL     1      -1.126  -2.283  -3.117  1.00  0.00     0.009 A 
ATOM     19  C   UNL     1      -0.727   0.004  -2.327  1.00  0.00    -0.010 A 
ATOM     20  C   UNL     1       1.430   2.606   0.263  1.00  0.00     0.001 A 
ATOM     21  C   UNL     1      -0.275   2.283  -1.415  1.00  0.00     0.009 A 
ATOM     22  C   UNL     1      -2.125  -1.826  -3.971  1.00  0.00     0.001 A 
ATOM     23  C   UNL     1      -1.748   0.439  -3.210  1.00  0.00     0.009 A 
ATOM     24  C   UNL     1       0.437   3.121  -0.558  1.00  0.00     0.001 A 
ATOM     25  C   UNL     1      -2.434  -0.471  -4.018  1.00  0.00     0.001 A 
ENDBRANCH   7  12
ENDBRANCH   4   5
ENDBRANCH   1   4
BRANCH   1  26
ATOM     26  N   UNL     1       0.090  -0.811   2.326  1.00  0.00    -0.323 N 
ATOM     27  H   UNL     1       1.071  -0.465   2.427  1.00  0.00     0.170 HD
BRANCH  26  28
ATOM     28  C   UNL     1      -0.960   0.106   2.675  1.00  0.00     0.045 A 
ATOM     29  C   UNL     1      -0.733   0.988   3.741  1.00  0.00     0.026 A 
ATOM     30  C   UNL     1      -2.181   0.187   1.948  1.00  0.00    -0.010 A 
ATOM     31  C   UNL     1      -1.709   1.901   4.133  1.00  0.00     0.004 A 
ATOM     32  C   UNL     1      -3.173   1.104   2.376  1.00  0.00     0.057 A 
ATOM     33  C   UNL     1      -2.928   1.952   3.462  1.00  0.00     0.020 A 
ATOM     34  C   UNL     1      -2.441  -0.674   0.735  1.00  0.00     0.048 C 
BRANCH  32  35
ATOM     35  C   UNL     1      -4.451   1.199   1.709  1.00  0.00     0.099 C 
ATOM     36  N   UNL     1      -5.475   1.275   1.175  1.00  0.00    -0.192 NA
ENDBRANCH  32  35
ENDBRANCH  26  28
ENDBRANCH   1  26
TORSDOF 7


