MODEL 1
REMARK VINA RESULT:      -7.0      0.000      0.000
REMARK SMILES C#CCOC(=O)C[C@@H]1CC[C@H]2C(=O)[N-]c3c(N=[N+]=[N-])cc(Cl)c1c32
REMARK SMILES IDX 5 1 6 2 4 3 3 4 2 5 1 6 7 7 8 8 23 9 9 10 21 11 24 12 10 13
REMARK SMILES IDX 20 14 15 15 11 16 16 17 14 18 12 19 22 20 13 21 17 22 18 23
REMARK SMILES IDX 19 24
REMARK H PARENT
ROOT
ATOM      1  C   UNL     1      46.389 130.209  15.643  1.00  0.00     0.307 C 
ATOM      2  O   UNL     1      45.570 129.276  15.866  1.00  0.00    -0.252 OA
ENDROOT
BRANCH   1   3
ATOM      3  O   UNL     1      47.729 129.929  15.361  1.00  0.00    -0.452 OA
BRANCH   3   4
ATOM      4  C   UNL     1      48.153 129.383  14.117  1.00  0.00     0.322 C 
BRANCH   4   5
ATOM      5  C   UNL     1      47.479 130.089  13.027  1.00  0.00    -0.065 C 
ATOM      6  C   UNL     1      46.925 130.671  12.129  1.00  0.00     0.007 C 
ENDBRANCH   4   5
ENDBRANCH   3   4
ENDBRANCH   1   3
BRANCH   1   7
ATOM      7  C   UNL     1      45.915 131.630  15.643  1.00  0.00     0.131 C 
BRANCH   7   8
ATOM      8  C   UNL     1      44.418 131.726  16.014  1.00  0.00     0.032 C 
ATOM      9  C   UNL     1      44.225 132.782  17.098  1.00  0.00    -0.023 A 
ATOM     10  C   UNL     1      43.535 131.956  14.730  1.00  0.00     0.010 C 
ATOM     11  C   UNL     1      44.514 132.550  18.467  1.00  0.00     0.045 A 
ATOM     12  C   UNL     1      43.608 133.987  16.765  1.00  0.00    -0.048 A 
ATOM     13  C   UNL     1      42.424 133.018  14.881  1.00  0.00     0.015 C 
ATOM     14  C   UNL     1      44.119 133.492  19.442  1.00  0.00     0.029 A 
ATOM     15  C   UNL     1      43.119 134.847  17.724  1.00  0.00    -0.120 A 
ATOM     16  C   UNL     1      43.044 134.300  15.435  1.00  0.00     0.066 C 
ATOM     17  C   UNL     1      43.378 134.639  19.079  1.00  0.00     0.025 A 
ATOM     18  N   UNL     1      42.165 135.757  17.193  1.00  0.00    -0.626 NA
ATOM     19  C   UNL     1      42.076 135.377  15.820  1.00  0.00     0.062 C 
ATOM     20  Cl  UNL     1      45.277 131.062  19.012  1.00  0.00    -0.084 Cl
ATOM     21  O   UNL     1      41.287 135.935  15.013  1.00  0.00    -0.320 OA
BRANCH  17  22
ATOM     22  N   UNL     1      42.848 135.549  20.051  1.00  0.00    -0.062 NA
BRANCH  22  23
ATOM     23  N   UNL     1      43.324 136.671  20.227  1.00  0.00     0.005 N 
ATOM     24  N   UNL     1      43.799 137.793  20.402  1.00  0.00    -0.003 NA
ENDBRANCH  22  23
ENDBRANCH  17  22
ENDBRANCH   7   8
ENDBRANCH   1   7
TORSDOF 7
ENDMDL
MODEL 2
REMARK VINA RESULT:      -6.7      1.191      1.325
REMARK SMILES C#CCOC(=O)C[C@@H]1CC[C@H]2C(=O)[N-]c3c(N=[N+]=[N-])cc(Cl)c1c32
REMARK SMILES IDX 5 1 6 2 4 3 3 4 2 5 1 6 7 7 8 8 23 9 9 10 21 11 24 12 10 13
REMARK SMILES IDX 20 14 15 15 11 16 16 17 14 18 12 19 22 20 13 21 17 22 18 23
REMARK SMILES IDX 19 24
REMARK H PARENT
ROOT
ATOM      1  C   UNL     1      46.106 129.895  16.301  1.00  0.00     0.307 C 
ATOM      2  O   UNL     1      45.448 128.867  15.981  1.00  0.00    -0.252 OA
ENDROOT
BRANCH   1   3
ATOM      3  O   UNL     1      47.183 130.324  15.520  1.00  0.00    -0.452 OA
BRANCH   3   4
ATOM      4  C   UNL     1      47.718 129.543  14.457  1.00  0.00     0.322 C 
BRANCH   4   5
ATOM      5  C   UNL     1      47.326 130.138  13.179  1.00  0.00    -0.065 C 
ATOM      6  C   UNL     1      47.002 130.627  12.126  1.00  0.00     0.007 C 
ENDBRANCH   4   5
ENDBRANCH   3   4
ENDBRANCH   1   3
BRANCH   1   7
ATOM      7  C   UNL     1      45.708 130.686  17.508  1.00  0.00     0.131 C 
BRANCH   7   8
ATOM      8  C   UNL     1      44.341 131.377  17.304  1.00  0.00     0.032 C 
ATOM      9  C   UNL     1      44.303 132.683  18.093  1.00  0.00    -0.023 A 
ATOM     10  C   UNL     1      44.021 131.546  15.770  1.00  0.00     0.010 C 
ATOM     11  C   UNL     1      44.082 132.737  19.492  1.00  0.00     0.045 A 
ATOM     12  C   UNL     1      44.348 133.893  17.401  1.00  0.00    -0.048 A 
ATOM     13  C   UNL     1      43.445 132.921  15.369  1.00  0.00     0.015 C 
ATOM     14  C   UNL     1      43.852 133.979  20.124  1.00  0.00     0.029 A 
ATOM     15  C   UNL     1      44.008 135.088  17.995  1.00  0.00    -0.120 A 
ATOM     16  C   UNL     1      44.352 134.015  15.928  1.00  0.00     0.066 C 
ATOM     17  C   UNL     1      43.774 135.170  19.368  1.00  0.00     0.025 A 
ATOM     18  N   UNL     1      43.695 136.092  17.041  1.00  0.00    -0.626 NA
ATOM     19  C   UNL     1      43.842 135.417  15.791  1.00  0.00     0.062 C 
ATOM     20  Cl  UNL     1      43.989 131.278  20.472  1.00  0.00    -0.084 Cl
ATOM     21  O   UNL     1      43.605 135.975  14.688  1.00  0.00    -0.320 OA
BRANCH  17  22
ATOM     22  N   UNL     1      43.414 136.428  19.953  1.00  0.00    -0.062 NA
BRANCH  22  23
ATOM     23  N   UNL     1      42.738 136.504  20.980  1.00  0.00     0.005 N 
ATOM     24  N   UNL     1      42.061 136.579  22.004  1.00  0.00    -0.003 NA
ENDBRANCH  22  23
ENDBRANCH  17  22
ENDBRANCH   7   8
ENDBRANCH   1   7
TORSDOF 7
ENDMDL
MODEL 3
REMARK VINA RESULT:      -6.7      1.372      1.694
REMARK SMILES C#CCOC(=O)C[C@@H]1CC[C@H]2C(=O)[N-]c3c(N=[N+]=[N-])cc(Cl)c1c32
REMARK SMILES IDX 5 1 6 2 4 3 3 4 2 5 1 6 7 7 8 8 23 9 9 10 21 11 24 12 10 13
REMARK SMILES IDX 20 14 15 15 11 16 16 17 14 18 12 19 22 20 13 21 17 22 18 23
REMARK SMILES IDX 19 24
REMARK H PARENT
ROOT
ATOM      1  C   UNL     1      45.469 131.445  15.127  1.00  0.00     0.307 C 
ATOM      2  O   UNL     1      46.176 132.481  14.986  1.00  0.00    -0.252 OA
ENDROOT
BRANCH   1   3
ATOM      3  O   UNL     1      45.244 130.583  14.051  1.00  0.00    -0.452 OA
BRANCH   3   4
ATOM      4  C   UNL     1      46.073 130.568  12.894  1.00  0.00     0.322 C 
BRANCH   4   5
ATOM      5  C   UNL     1      47.344 129.921  13.221  1.00  0.00    -0.065 C 
ATOM      6  C   UNL     1      48.391 129.388  13.490  1.00  0.00     0.007 C 
ENDBRANCH   4   5
ENDBRANCH   3   4
ENDBRANCH   1   3
BRANCH   1   7
ATOM      7  C   UNL     1      44.896 131.114  16.471  1.00  0.00     0.131 C 
BRANCH   7   8
ATOM      8  C   UNL     1      43.635 131.956  16.770  1.00  0.00     0.032 C 
ATOM      9  C   UNL     1      44.013 133.159  17.630  1.00  0.00    -0.023 A 
ATOM     10  C   UNL     1      42.884 132.333  15.437  1.00  0.00     0.010 C 
ATOM     11  C   UNL     1      44.242 133.071  19.027  1.00  0.00     0.045 A 
ATOM     12  C   UNL     1      44.001 134.430  17.059  1.00  0.00    -0.048 A 
ATOM     13  C   UNL     1      42.397 133.796  15.351  1.00  0.00     0.015 C 
ATOM     14  C   UNL     1      44.382 134.247  19.796  1.00  0.00     0.029 A 
ATOM     15  C   UNL     1      44.019 135.575  17.823  1.00  0.00    -0.120 A 
ATOM     16  C   UNL     1      43.567 134.722  15.676  1.00  0.00     0.066 C 
ATOM     17  C   UNL     1      44.231 135.520  19.201  1.00  0.00     0.025 A 
ATOM     18  N   UNL     1      43.561 136.710  17.102  1.00  0.00    -0.626 NA
ATOM     19  C   UNL     1      43.227 136.174  15.821  1.00  0.00     0.062 C 
ATOM     20  Cl  UNL     1      44.266 131.524  19.866  1.00  0.00    -0.084 Cl
ATOM     21  O   UNL     1      42.737 136.878  14.899  1.00  0.00    -0.320 OA
BRANCH  17  22
ATOM     22  N   UNL     1      44.237 136.730  19.968  1.00  0.00    -0.062 NA
BRANCH  22  23
ATOM     23  N   UNL     1      44.919 136.859  20.986  1.00  0.00     0.005 N 
ATOM     24  N   UNL     1      45.601 136.988  22.001  1.00  0.00    -0.003 NA
ENDBRANCH  22  23
ENDBRANCH  17  22
ENDBRANCH   7   8
ENDBRANCH   1   7
TORSDOF 7
ENDMDL
MODEL 4
REMARK VINA RESULT:      -6.6      1.029      1.294
REMARK SMILES C#CCOC(=O)C[C@@H]1CC[C@H]2C(=O)[N-]c3c(N=[N+]=[N-])cc(Cl)c1c32
REMARK SMILES IDX 5 1 6 2 4 3 3 4 2 5 1 6 7 7 8 8 23 9 9 10 21 11 24 12 10 13
REMARK SMILES IDX 20 14 15 15 11 16 16 17 14 18 12 19 22 20 13 21 17 22 18 23
REMARK SMILES IDX 19 24
REMARK H PARENT
ROOT
ATOM      1  C   UNL     1      46.683 130.188  15.678  1.00  0.00     0.307 C 
ATOM      2  O   UNL     1      47.123 129.871  16.816  1.00  0.00    -0.252 OA
ENDROOT
BRANCH   1   3
ATOM      3  O   UNL     1      46.742 129.284  14.613  1.00  0.00    -0.452 OA
BRANCH   3   4
ATOM      4  C   UNL     1      47.829 129.250  13.696  1.00  0.00     0.322 C 
BRANCH   4   5
ATOM      5  C   UNL     1      47.508 130.084  12.538  1.00  0.00    -0.065 C 
ATOM      6  C   UNL     1      47.244 130.771  11.584  1.00  0.00     0.007 C 
ENDBRANCH   4   5
ENDBRANCH   3   4
ENDBRANCH   1   3
BRANCH   1   7
ATOM      7  C   UNL     1      46.056 131.533  15.472  1.00  0.00     0.131 C 
BRANCH   7   8
ATOM      8  C   UNL     1      44.537 131.495  15.750  1.00  0.00     0.032 C 
ATOM      9  C   UNL     1      44.166 132.611  16.724  1.00  0.00    -0.023 A 
ATOM     10  C   UNL     1      43.718 131.521  14.404  1.00  0.00     0.010 C 
ATOM     11  C   UNL     1      44.389 132.526  18.121  1.00  0.00     0.045 A 
ATOM     12  C   UNL     1      43.449 133.709  16.251  1.00  0.00    -0.048 A 
ATOM     13  C   UNL     1      42.496 132.464  14.399  1.00  0.00     0.015 C 
ATOM     14  C   UNL     1      43.836 133.497  18.985  1.00  0.00     0.029 A 
ATOM     15  C   UNL     1      42.814 134.588  17.101  1.00  0.00    -0.120 A 
ATOM     16  C   UNL     1      42.942 133.847  14.870  1.00  0.00     0.066 C 
ATOM     17  C   UNL     1      43.005 134.522  18.481  1.00  0.00     0.025 A 
ATOM     18  N   UNL     1      41.806 135.341  16.440  1.00  0.00    -0.626 NA
ATOM     19  C   UNL     1      41.845 134.841  15.103  1.00  0.00     0.062 C 
ATOM     20  Cl  UNL     1      45.266 131.180  18.839  1.00  0.00    -0.084 Cl
ATOM     21  O   UNL     1      41.055 135.240  14.207  1.00  0.00    -0.320 OA
BRANCH  17  22
ATOM     22  N   UNL     1      42.323 135.447  19.338  1.00  0.00    -0.062 NA
BRANCH  22  23
ATOM     23  N   UNL     1      41.445 135.087  20.124  1.00  0.00     0.005 N 
ATOM     24  N   UNL     1      40.568 134.729  20.908  1.00  0.00    -0.003 NA
ENDBRANCH  22  23
ENDBRANCH  17  22
ENDBRANCH   7   8
ENDBRANCH   1   7
TORSDOF 7
ENDMDL
MODEL 5
REMARK VINA RESULT:      -6.6      1.193      1.488
REMARK SMILES C#CCOC(=O)C[C@@H]1CC[C@H]2C(=O)[N-]c3c(N=[N+]=[N-])cc(Cl)c1c32
REMARK SMILES IDX 5 1 6 2 4 3 3 4 2 5 1 6 7 7 8 8 23 9 9 10 21 11 24 12 10 13
REMARK SMILES IDX 20 14 15 15 11 16 16 17 14 18 12 19 22 20 13 21 17 22 18 23
REMARK SMILES IDX 19 24
REMARK H PARENT
ROOT
ATOM      1  C   UNL     1      45.142 130.269  15.426  1.00  0.00     0.307 C 
ATOM      2  O   UNL     1      45.106 129.352  16.291  1.00  0.00    -0.252 OA
ENDROOT
BRANCH   1   3
ATOM      3  O   UNL     1      44.990 129.975  14.068  1.00  0.00    -0.452 OA
BRANCH   3   4
ATOM      4  C   UNL     1      45.859 130.498  13.069  1.00  0.00     0.322 C 
BRANCH   4   5
ATOM      5  C   UNL     1      47.207 129.969  13.280  1.00  0.00    -0.065 C 
ATOM      6  C   UNL     1      48.317 129.534  13.453  1.00  0.00     0.007 C 
ENDBRANCH   4   5
ENDBRANCH   3   4
ENDBRANCH   1   3
BRANCH   1   7
ATOM      7  C   UNL     1      45.310 131.693  15.860  1.00  0.00     0.131 C 
BRANCH   7   8
ATOM      8  C   UNL     1      43.950 132.346  16.192  1.00  0.00     0.032 C 
ATOM      9  C   UNL     1      44.146 133.433  17.246  1.00  0.00    -0.023 A 
ATOM     10  C   UNL     1      43.232 132.847  14.882  1.00  0.00     0.010 C 
ATOM     11  C   UNL     1      44.309 133.153  18.626  1.00  0.00     0.045 A 
ATOM     12  C   UNL     1      44.022 134.769  16.869  1.00  0.00    -0.048 A 
ATOM     13  C   UNL     1      42.590 134.248  14.980  1.00  0.00     0.015 C 
ATOM     14  C   UNL     1      44.277 134.204  19.568  1.00  0.00     0.029 A 
ATOM     15  C   UNL     1      43.873 135.778  17.795  1.00  0.00    -0.120 A 
ATOM     16  C   UNL     1      43.632 135.227  15.519  1.00  0.00     0.066 C 
ATOM     17  C   UNL     1      44.018 135.532  19.160  1.00  0.00     0.025 A 
ATOM     18  N   UNL     1      43.330 136.959  17.220  1.00  0.00    -0.626 NA
ATOM     19  C   UNL     1      43.126 136.596  15.854  1.00  0.00     0.062 C 
ATOM     20  Cl  UNL     1      44.461 131.506  19.225  1.00  0.00    -0.084 Cl
ATOM     21  O   UNL     1      42.610 137.380  15.015  1.00  0.00    -0.320 OA
BRANCH  17  22
ATOM     22  N   UNL     1      43.848 136.603  20.097  1.00  0.00    -0.062 NA
BRANCH  22  23
ATOM     23  N   UNL     1      43.056 136.533  21.038  1.00  0.00     0.005 N 
ATOM     24  N   UNL     1      42.266 136.463  21.978  1.00  0.00    -0.003 NA
ENDBRANCH  22  23
ENDBRANCH  17  22
ENDBRANCH   7   8
ENDBRANCH   1   7
TORSDOF 7
ENDMDL
MODEL 6
REMARK VINA RESULT:      -6.5      1.780      2.231
REMARK SMILES C#CCOC(=O)C[C@@H]1CC[C@H]2C(=O)[N-]c3c(N=[N+]=[N-])cc(Cl)c1c32
REMARK SMILES IDX 5 1 6 2 4 3 3 4 2 5 1 6 7 7 8 8 23 9 9 10 21 11 24 12 10 13
REMARK SMILES IDX 20 14 15 15 11 16 16 17 14 18 12 19 22 20 13 21 17 22 18 23
REMARK SMILES IDX 19 24
REMARK H PARENT
ROOT
ATOM      1  C   UNL     1      45.932 130.694  16.562  1.00  0.00     0.307 C 
ATOM      2  O   UNL     1      46.144 130.436  17.779  1.00  0.00    -0.252 OA
ENDROOT
BRANCH   1   3
ATOM      3  O   UNL     1      46.266 129.770  15.568  1.00  0.00    -0.452 OA
BRANCH   3   4
ATOM      4  C   UNL     1      47.459 129.868  14.799  1.00  0.00     0.322 C 
BRANCH   4   5
ATOM      5  C   UNL     1      47.122 130.291  13.440  1.00  0.00    -0.065 C 
ATOM      6  C   UNL     1      46.844 130.639  12.320  1.00  0.00     0.007 C 
ENDBRANCH   4   5
ENDBRANCH   3   4
ENDBRANCH   1   3
BRANCH   1   7
ATOM      7  C   UNL     1      45.282 131.989  16.180  1.00  0.00     0.131 C 
BRANCH   7   8
ATOM      8  C   UNL     1      43.750 131.835  16.054  1.00  0.00     0.032 C 
ATOM      9  C   UNL     1      43.058 132.976  16.794  1.00  0.00    -0.023 A 
ATOM     10  C   UNL     1      43.322 131.697  14.544  1.00  0.00     0.010 C 
ATOM     11  C   UNL     1      42.904 133.006  18.203  1.00  0.00     0.045 A 
ATOM     12  C   UNL     1      42.421 133.972  16.055  1.00  0.00    -0.048 A 
ATOM     13  C   UNL     1      42.084 132.526  14.136  1.00  0.00     0.015 C 
ATOM     14  C   UNL     1      42.076 133.979  18.803  1.00  0.00     0.029 A 
ATOM     15  C   UNL     1      41.523 134.846  16.628  1.00  0.00    -0.120 A 
ATOM     16  C   UNL     1      42.293 133.972  14.583  1.00  0.00     0.066 C 
ATOM     17  C   UNL     1      41.342 134.890  18.011  1.00  0.00     0.025 A 
ATOM     18  N   UNL     1      40.680 135.460  15.663  1.00  0.00    -0.626 NA
ATOM     19  C   UNL     1      41.109 134.877  14.432  1.00  0.00     0.062 C 
ATOM     20  Cl  UNL     1      43.647 131.794  19.241  1.00  0.00    -0.084 Cl
ATOM     21  O   UNL     1      40.562 135.143  13.330  1.00  0.00    -0.320 OA
BRANCH  17  22
ATOM     22  N   UNL     1      40.394 135.806  18.574  1.00  0.00    -0.062 NA
BRANCH  22  23
ATOM     23  N   UNL     1      39.228 135.483  18.805  1.00  0.00     0.005 N 
ATOM     24  N   UNL     1      38.064 135.159  19.036  1.00  0.00    -0.003 NA
ENDBRANCH  22  23
ENDBRANCH  17  22
ENDBRANCH   7   8
ENDBRANCH   1   7
TORSDOF 7
ENDMDL
MODEL 7
REMARK VINA RESULT:      -6.5      2.433      3.766
REMARK SMILES C#CCOC(=O)C[C@@H]1CC[C@H]2C(=O)[N-]c3c(N=[N+]=[N-])cc(Cl)c1c32
REMARK SMILES IDX 5 1 6 2 4 3 3 4 2 5 1 6 7 7 8 8 23 9 9 10 21 11 24 12 10 13
REMARK SMILES IDX 20 14 15 15 11 16 16 17 14 18 12 19 22 20 13 21 17 22 18 23
REMARK SMILES IDX 19 24
REMARK H PARENT
ROOT
ATOM      1  C   UNL     1      45.554 130.041  15.905  1.00  0.00     0.307 C 
ATOM      2  O   UNL     1      45.329 128.831  15.628  1.00  0.00    -0.252 OA
ENDROOT
BRANCH   1   3
ATOM      3  O   UNL     1      46.780 130.630  15.584  1.00  0.00    -0.452 OA
BRANCH   3   4
ATOM      4  C   UNL     1      46.910 131.630  14.579  1.00  0.00     0.322 C 
BRANCH   4   5
ATOM      5  C   UNL     1      47.016 130.985  13.270  1.00  0.00    -0.065 C 
ATOM      6  C   UNL     1      47.104 130.454  12.192  1.00  0.00     0.007 C 
ENDBRANCH   4   5
ENDBRANCH   3   4
ENDBRANCH   1   3
BRANCH   1   7
ATOM      7  C   UNL     1      44.483 130.867  16.550  1.00  0.00     0.131 C 
BRANCH   7   8
ATOM      8  C   UNL     1      45.040 131.683  17.738  1.00  0.00     0.032 C 
ATOM      9  C   UNL     1      44.010 132.721  18.174  1.00  0.00    -0.023 A 
ATOM     10  C   UNL     1      45.520 130.730  18.898  1.00  0.00     0.010 C 
ATOM     11  C   UNL     1      43.797 133.940  17.482  1.00  0.00     0.045 A 
ATOM     12  C   UNL     1      43.338 132.541  19.383  1.00  0.00    -0.048 A 
ATOM     13  C   UNL     1      45.109 131.171  20.320  1.00  0.00     0.015 C 
ATOM     14  C   UNL     1      42.983 134.944  18.052  1.00  0.00     0.029 A 
ATOM     15  C   UNL     1      42.643 133.562  19.991  1.00  0.00    -0.120 A 
ATOM     16  C   UNL     1      43.605 131.442  20.334  1.00  0.00     0.066 C 
ATOM     17  C   UNL     1      42.426 134.777  19.340  1.00  0.00     0.025 A 
ATOM     18  N   UNL     1      42.424 133.315  21.374  1.00  0.00    -0.626 NA
ATOM     19  C   UNL     1      43.067 132.058  21.589  1.00  0.00     0.062 C 
ATOM     20  Cl  UNL     1      44.599 134.290  15.955  1.00  0.00    -0.084 Cl
ATOM     21  O   UNL     1      43.127 131.513  22.722  1.00  0.00    -0.320 OA
BRANCH  17  22
ATOM     22  N   UNL     1      41.705 135.821  20.005  1.00  0.00    -0.062 NA
BRANCH  22  23
ATOM     23  N   UNL     1      40.664 136.294  19.545  1.00  0.00     0.005 N 
ATOM     24  N   UNL     1      39.626 136.767  19.085  1.00  0.00    -0.003 NA
ENDBRANCH  22  23
ENDBRANCH  17  22
ENDBRANCH   7   8
ENDBRANCH   1   7
TORSDOF 7
ENDMDL
MODEL 8
REMARK VINA RESULT:      -6.4      1.225      1.530
REMARK SMILES C#CCOC(=O)C[C@@H]1CC[C@H]2C(=O)[N-]c3c(N=[N+]=[N-])cc(Cl)c1c32
REMARK SMILES IDX 5 1 6 2 4 3 3 4 2 5 1 6 7 7 8 8 23 9 9 10 21 11 24 12 10 13
REMARK SMILES IDX 20 14 15 15 11 16 16 17 14 18 12 19 22 20 13 21 17 22 18 23
REMARK SMILES IDX 19 24
REMARK H PARENT
ROOT
ATOM      1  C   UNL     1      45.776 130.884  15.919  1.00  0.00     0.307 C 
ATOM      2  O   UNL     1      46.490 130.392  16.835  1.00  0.00    -0.252 OA
ENDROOT
BRANCH   1   3
ATOM      3  O   UNL     1      45.124 130.057  15.000  1.00  0.00    -0.452 OA
BRANCH   3   4
ATOM      4  C   UNL     1      44.924 130.427  13.641  1.00  0.00     0.322 C 
BRANCH   4   5
ATOM      5  C   UNL     1      46.221 130.505  12.968  1.00  0.00    -0.065 C 
ATOM      6  C   UNL     1      47.290 130.568  12.414  1.00  0.00     0.007 C 
ENDBRANCH   4   5
ENDBRANCH   3   4
ENDBRANCH   1   3
BRANCH   1   7
ATOM      7  C   UNL     1      45.594 132.369  15.835  1.00  0.00     0.131 C 
BRANCH   7   8
ATOM      8  C   UNL     1      44.143 132.779  16.173  1.00  0.00     0.032 C 
ATOM      9  C   UNL     1      44.154 133.885  17.224  1.00  0.00    -0.023 A 
ATOM     10  C   UNL     1      43.344 133.146  14.865  1.00  0.00     0.010 C 
ATOM     11  C   UNL     1      44.369 133.641  18.604  1.00  0.00     0.045 A 
ATOM     12  C   UNL     1      43.801 135.180  16.847  1.00  0.00    -0.048 A 
ATOM     13  C   UNL     1      42.472 134.416  14.965  1.00  0.00     0.015 C 
ATOM     14  C   UNL     1      44.161 134.672  19.545  1.00  0.00     0.029 A 
ATOM     15  C   UNL     1      43.485 136.150  17.772  1.00  0.00    -0.120 A 
ATOM     16  C   UNL     1      43.332 135.561  15.497  1.00  0.00     0.066 C 
ATOM     17  C   UNL     1      43.675 135.935  19.136  1.00  0.00     0.025 A 
ATOM     18  N   UNL     1      42.745 137.219  17.198  1.00  0.00    -0.626 NA
ATOM     19  C   UNL     1      42.600 136.824  15.833  1.00  0.00     0.062 C 
ATOM     20  Cl  UNL     1      44.804 132.045  19.205  1.00  0.00    -0.084 Cl
ATOM     21  O   UNL     1      41.953 137.506  14.996  1.00  0.00    -0.320 OA
BRANCH  17  22
ATOM     22  N   UNL     1      43.328 136.963  20.073  1.00  0.00    -0.062 NA
BRANCH  22  23
ATOM     23  N   UNL     1      44.174 137.536  20.761  1.00  0.00     0.005 N 
ATOM     24  N   UNL     1      45.020 138.108  21.446  1.00  0.00    -0.003 NA
ENDBRANCH  22  23
ENDBRANCH  17  22
ENDBRANCH   7   8
ENDBRANCH   1   7
TORSDOF 7
ENDMDL
MODEL 9
REMARK VINA RESULT:      -6.4      3.965      7.164
REMARK SMILES C#CCOC(=O)C[C@@H]1CC[C@H]2C(=O)[N-]c3c(N=[N+]=[N-])cc(Cl)c1c32
REMARK SMILES IDX 5 1 6 2 4 3 3 4 2 5 1 6 7 7 8 8 23 9 9 10 21 11 24 12 10 13
REMARK SMILES IDX 20 14 15 15 11 16 16 17 14 18 12 19 22 20 13 21 17 22 18 23
REMARK SMILES IDX 19 24
REMARK H PARENT
ROOT
ATOM      1  C   UNL     1      41.623 135.737  15.883  1.00  0.00     0.307 C 
ATOM      2  O   UNL     1      41.795 136.547  14.931  1.00  0.00    -0.252 OA
ENDROOT
BRANCH   1   3
ATOM      3  O   UNL     1      40.336 135.386  16.297  1.00  0.00    -0.452 OA
BRANCH   3   4
ATOM      4  C   UNL     1      39.165 135.975  15.743  1.00  0.00     0.322 C 
BRANCH   4   5
ATOM      5  C   UNL     1      38.479 134.988  14.908  1.00  0.00    -0.065 C 
ATOM      6  C   UNL     1      37.913 134.176  14.221  1.00  0.00     0.007 C 
ENDBRANCH   4   5
ENDBRANCH   3   4
ENDBRANCH   1   3
BRANCH   1   7
ATOM      7  C   UNL     1      42.811 135.116  16.553  1.00  0.00     0.131 C 
BRANCH   7   8
ATOM      8  C   UNL     1      42.500 133.681  17.034  1.00  0.00     0.032 C 
ATOM      9  C   UNL     1      43.410 132.690  16.314  1.00  0.00    -0.023 A 
ATOM     10  C   UNL     1      42.568 133.589  18.606  1.00  0.00     0.010 C 
ATOM     11  C   UNL     1      43.183 132.255  14.984  1.00  0.00     0.045 A 
ATOM     12  C   UNL     1      44.433 132.070  17.029  1.00  0.00    -0.048 A 
ATOM     13  C   UNL     1      43.301 132.347  19.158  1.00  0.00     0.015 C 
ATOM     14  C   UNL     1      43.937 131.186  14.452  1.00  0.00     0.029 A 
ATOM     15  C   UNL     1      45.085 130.954  16.553  1.00  0.00    -0.120 A 
ATOM     16  C   UNL     1      44.666 132.241  18.479  1.00  0.00     0.066 C 
ATOM     17  C   UNL     1      44.875 130.496  15.252  1.00  0.00     0.025 A 
ATOM     18  N   UNL     1      45.749 130.238  17.585  1.00  0.00    -0.626 NA
ATOM     19  C   UNL     1      45.436 130.987  18.760  1.00  0.00     0.062 C 
ATOM     20  Cl  UNL     1      41.911 132.951  13.987  1.00  0.00    -0.084 Cl
ATOM     21  O   UNL     1      45.818 130.638  19.907  1.00  0.00    -0.320 OA
BRANCH  17  22
ATOM     22  N   UNL     1      45.563 129.327  14.790  1.00  0.00    -0.062 NA
BRANCH  22  23
ATOM     23  N   UNL     1      46.608 129.395  14.141  1.00  0.00     0.005 N 
ATOM     24  N   UNL     1      47.652 129.461  13.494  1.00  0.00    -0.003 NA
ENDBRANCH  22  23
ENDBRANCH  17  22
ENDBRANCH   7   8
ENDBRANCH   1   7
TORSDOF 7
ENDMDL


