MODEL 1
REMARK VINA RESULT:      -7.2      0.000      0.000
REMARK SMILES C[C@@H](OC(=O)[C@H](C)C(F)(F)F)C(=O)[N-]N
REMARK SMILES IDX 3 1 4 2 5 3 6 4 7 5 8 6 9 7 10 8 11 9 2 10 1 11 12 12 13 13
REMARK SMILES IDX 14 14 15 15
REMARK H PARENT 15 16 15 17
ROOT
ATOM      1  O   UNL     1      45.396 132.186  14.832  1.00  0.00    -0.456 OA
ENDROOT
BRANCH   1   2
ATOM      2  C   UNL     1      45.183 130.981  14.152  1.00  0.00     0.318 C 
ATOM      3  O   UNL     1      44.045 130.703  13.680  1.00  0.00    -0.252 OA
BRANCH   2   4
ATOM      4  C   UNL     1      46.318 130.003  14.019  1.00  0.00     0.201 C 
ATOM      5  C   UNL     1      47.113 129.915  15.328  1.00  0.00     0.030 C 
BRANCH   4   6
ATOM      6  C   UNL     1      47.220 130.376  12.829  1.00  0.00     0.401 C 
ATOM      7  F   UNL     1      48.013 131.459  13.162  1.00  0.00    -0.170 F 
ATOM      8  F   UNL     1      48.035 129.313  12.479  1.00  0.00    -0.170 F 
ATOM      9  F   UNL     1      46.442 130.721  11.738  1.00  0.00    -0.170 F 
ENDBRANCH   4   6
ENDBRANCH   2   4
ENDBRANCH   1   2
BRANCH   1  10
ATOM     10  C   UNL     1      44.539 132.662  15.871  1.00  0.00     0.222 C 
ATOM     11  C   UNL     1      44.026 131.475  16.680  1.00  0.00     0.060 C 
BRANCH  10  12
ATOM     12  C   UNL     1      43.384 133.424  15.285  1.00  0.00     0.103 C 
ATOM     13  O   UNL     1      43.552 134.608  14.889  1.00  0.00    -0.315 OA
BRANCH  12  14
ATOM     14  N   UNL     1      42.091 132.814  15.211  1.00  0.00    -0.591 NA
BRANCH  14  15
ATOM     15  N   UNL     1      41.489 132.484  13.987  1.00  0.00    -0.410 NA
ATOM     16  H   UNL     1      42.121 131.815  13.491  1.00  0.00     0.100 HD
ATOM     17  H   UNL     1      40.594 131.985  14.197  1.00  0.00     0.100 HD
ENDBRANCH  14  15
ENDBRANCH  12  14
ENDBRANCH  10  12
ENDBRANCH   1  10
TORSDOF 7
ENDMDL
MODEL 2
REMARK VINA RESULT:      -6.8      0.556      1.207
REMARK SMILES C[C@@H](OC(=O)[C@H](C)C(F)(F)F)C(=O)[N-]N
REMARK SMILES IDX 3 1 4 2 5 3 6 4 7 5 8 6 9 7 10 8 11 9 2 10 1 11 12 12 13 13
REMARK SMILES IDX 14 14 15 15
REMARK H PARENT 15 16 15 17
ROOT
ATOM      1  O   UNL     1      45.528 132.146  14.785  1.00  0.00    -0.456 OA
ENDROOT
BRANCH   1   2
ATOM      2  C   UNL     1      45.278 130.942  14.117  1.00  0.00     0.318 C 
ATOM      3  O   UNL     1      44.118 130.667  13.702  1.00  0.00    -0.252 OA
BRANCH   2   4
ATOM      4  C   UNL     1      46.403 129.962  13.928  1.00  0.00     0.201 C 
ATOM      5  C   UNL     1      47.217 129.815  15.221  1.00  0.00     0.030 C 
BRANCH   4   6
ATOM      6  C   UNL     1      47.291 130.374  12.741  1.00  0.00     0.401 C 
ATOM      7  F   UNL     1      48.138 129.333  12.404  1.00  0.00    -0.170 F 
ATOM      8  F   UNL     1      46.518 130.698  11.639  1.00  0.00    -0.170 F 
ATOM      9  F   UNL     1      48.060 131.471  13.086  1.00  0.00    -0.170 F 
ENDBRANCH   4   6
ENDBRANCH   2   4
ENDBRANCH   1   2
BRANCH   1  10
ATOM     10  C   UNL     1      44.768 132.591  15.910  1.00  0.00     0.222 C 
ATOM     11  C   UNL     1      44.503 131.407  16.835  1.00  0.00     0.060 C 
BRANCH  10  12
ATOM     12  C   UNL     1      43.467 133.190  15.455  1.00  0.00     0.103 C 
ATOM     13  O   UNL     1      43.463 134.300  14.859  1.00  0.00    -0.315 OA
BRANCH  12  14
ATOM     14  N   UNL     1      42.235 132.515  15.732  1.00  0.00    -0.591 NA
BRANCH  14  15
ATOM     15  N   UNL     1      41.121 133.181  16.267  1.00  0.00    -0.410 NA
ATOM     16  H   UNL     1      40.814 133.898  15.570  1.00  0.00     0.100 HD
ATOM     17  H   UNL     1      40.351 132.481  16.367  1.00  0.00     0.100 HD
ENDBRANCH  14  15
ENDBRANCH  12  14
ENDBRANCH  10  12
ENDBRANCH   1  10
TORSDOF 7
ENDMDL
MODEL 3
REMARK VINA RESULT:      -6.8      1.434      2.027
REMARK SMILES C[C@@H](OC(=O)[C@H](C)C(F)(F)F)C(=O)[N-]N
REMARK SMILES IDX 3 1 4 2 5 3 6 4 7 5 8 6 9 7 10 8 11 9 2 10 1 11 12 12 13 13
REMARK SMILES IDX 14 14 15 15
REMARK H PARENT 15 16 15 17
ROOT
ATOM      1  O   UNL     1      44.972 132.883  15.033  1.00  0.00    -0.456 OA
ENDROOT
BRANCH   1   2
ATOM      2  C   UNL     1      45.390 131.592  15.376  1.00  0.00     0.318 C 
ATOM      3  O   UNL     1      45.889 131.360  16.512  1.00  0.00    -0.252 OA
BRANCH   2   4
ATOM      4  C   UNL     1      45.268 130.488  14.362  1.00  0.00     0.201 C 
ATOM      5  C   UNL     1      45.090 129.132  15.057  1.00  0.00     0.030 C 
BRANCH   4   6
ATOM      6  C   UNL     1      46.479 130.487  13.412  1.00  0.00     0.401 C 
ATOM      7  F   UNL     1      46.054 130.673  12.109  1.00  0.00    -0.170 F 
ATOM      8  F   UNL     1      47.365 131.497  13.744  1.00  0.00    -0.170 F 
ATOM      9  F   UNL     1      47.136 129.271  13.488  1.00  0.00    -0.170 F 
ENDBRANCH   4   6
ENDBRANCH   2   4
ENDBRANCH   1   2
BRANCH   1  10
ATOM     10  C   UNL     1      43.811 133.504  15.585  1.00  0.00     0.222 C 
ATOM     11  C   UNL     1      44.081 133.864  17.043  1.00  0.00     0.060 C 
BRANCH  10  12
ATOM     12  C   UNL     1      42.631 132.578  15.494  1.00  0.00     0.103 C 
ATOM     13  O   UNL     1      42.273 131.917  16.506  1.00  0.00    -0.315 OA
BRANCH  12  14
ATOM     14  N   UNL     1      41.941 132.422  14.250  1.00  0.00    -0.591 NA
BRANCH  14  15
ATOM     15  N   UNL     1      40.748 133.106  13.965  1.00  0.00    -0.410 NA
ATOM     16  H   UNL     1      40.595 133.061  12.931  1.00  0.00     0.100 HD
ATOM     17  H   UNL     1      39.966 132.587  14.428  1.00  0.00     0.100 HD
ENDBRANCH  14  15
ENDBRANCH  12  14
ENDBRANCH  10  12
ENDBRANCH   1  10
TORSDOF 7
ENDMDL
MODEL 4
REMARK VINA RESULT:      -6.7      1.168      1.625
REMARK SMILES C[C@@H](OC(=O)[C@H](C)C(F)(F)F)C(=O)[N-]N
REMARK SMILES IDX 3 1 4 2 5 3 6 4 7 5 8 6 9 7 10 8 11 9 2 10 1 11 12 12 13 13
REMARK SMILES IDX 14 14 15 15
REMARK H PARENT 15 16 15 17
ROOT
ATOM      1  O   UNL     1      44.719 131.780  15.366  1.00  0.00    -0.456 OA
ENDROOT
BRANCH   1   2
ATOM      2  C   UNL     1      44.825 130.871  14.307  1.00  0.00     0.318 C 
ATOM      3  O   UNL     1      43.883 130.740  13.477  1.00  0.00    -0.252 OA
BRANCH   2   4
ATOM      4  C   UNL     1      46.063 130.025  14.188  1.00  0.00     0.201 C 
ATOM      5  C   UNL     1      46.831 129.999  15.517  1.00  0.00     0.030 C 
BRANCH   4   6
ATOM      6  C   UNL     1      46.947 130.514  13.029  1.00  0.00     0.401 C 
ATOM      7  F   UNL     1      47.935 129.582  12.765  1.00  0.00    -0.170 F 
ATOM      8  F   UNL     1      46.194 130.706  11.883  1.00  0.00    -0.170 F 
ATOM      9  F   UNL     1      47.554 131.710  13.371  1.00  0.00    -0.170 F 
ENDBRANCH   4   6
ENDBRANCH   2   4
ENDBRANCH   1   2
BRANCH   1  10
ATOM     10  C   UNL     1      43.879 132.934  15.327  1.00  0.00     0.222 C 
ATOM     11  C   UNL     1      44.515 134.045  16.156  1.00  0.00     0.060 C 
BRANCH  10  12
ATOM     12  C   UNL     1      42.516 132.605  15.867  1.00  0.00     0.103 C 
ATOM     13  O   UNL     1      42.400 131.790  16.822  1.00  0.00    -0.315 OA
BRANCH  12  14
ATOM     14  N   UNL     1      41.352 133.190  15.274  1.00  0.00    -0.591 NA
BRANCH  14  15
ATOM     15  N   UNL     1      40.901 132.828  13.995  1.00  0.00    -0.410 NA
ATOM     16  H   UNL     1      40.199 133.541  13.692  1.00  0.00     0.100 HD
ATOM     17  H   UNL     1      41.717 132.883  13.343  1.00  0.00     0.100 HD
ENDBRANCH  14  15
ENDBRANCH  12  14
ENDBRANCH  10  12
ENDBRANCH   1  10
TORSDOF 7
ENDMDL
MODEL 5
REMARK VINA RESULT:      -6.7      2.495      2.839
REMARK SMILES C[C@@H](OC(=O)[C@H](C)C(F)(F)F)C(=O)[N-]N
REMARK SMILES IDX 3 1 4 2 5 3 6 4 7 5 8 6 9 7 10 8 11 9 2 10 1 11 12 12 13 13
REMARK SMILES IDX 14 14 15 15
REMARK H PARENT 15 16 15 17
ROOT
ATOM      1  O   UNL     1      45.734 130.611  15.808  1.00  0.00    -0.456 OA
ENDROOT
BRANCH   1   2
ATOM      2  C   UNL     1      45.821 129.462  15.013  1.00  0.00     0.318 C 
ATOM      3  O   UNL     1      45.092 128.459  15.253  1.00  0.00    -0.252 OA
BRANCH   2   4
ATOM      4  C   UNL     1      46.818 129.422  13.888  1.00  0.00     0.201 C 
ATOM      5  C   UNL     1      48.252 129.454  14.435  1.00  0.00     0.030 C 
BRANCH   4   6
ATOM      6  C   UNL     1      46.562 130.567  12.893  1.00  0.00     0.401 C 
ATOM      7  F   UNL     1      47.023 131.760  13.422  1.00  0.00    -0.170 F 
ATOM      8  F   UNL     1      47.209 130.328  11.693  1.00  0.00    -0.170 F 
ATOM      9  F   UNL     1      45.205 130.690  12.654  1.00  0.00    -0.170 F 
ENDBRANCH   4   6
ENDBRANCH   2   4
ENDBRANCH   1   2
BRANCH   1  10
ATOM     10  C   UNL     1      44.496 131.230  16.158  1.00  0.00     0.222 C 
ATOM     11  C   UNL     1      44.128 132.254  15.089  1.00  0.00     0.060 C 
BRANCH  10  12
ATOM     12  C   UNL     1      44.611 131.903  17.497  1.00  0.00     0.103 C 
ATOM     13  O   UNL     1      44.483 133.154  17.582  1.00  0.00    -0.315 OA
BRANCH  12  14
ATOM     14  N   UNL     1      44.899 131.126  18.664  1.00  0.00    -0.591 NA
BRANCH  14  15
ATOM     15  N   UNL     1      46.128 130.471  18.842  1.00  0.00    -0.410 NA
ATOM     16  H   UNL     1      46.871 131.203  18.915  1.00  0.00     0.100 HD
ATOM     17  H   UNL     1      46.087 129.963  19.755  1.00  0.00     0.100 HD
ENDBRANCH  14  15
ENDBRANCH  12  14
ENDBRANCH  10  12
ENDBRANCH   1  10
TORSDOF 7
ENDMDL
MODEL 6
REMARK VINA RESULT:      -6.7      1.858      2.227
REMARK SMILES C[C@@H](OC(=O)[C@H](C)C(F)(F)F)C(=O)[N-]N
REMARK SMILES IDX 3 1 4 2 5 3 6 4 7 5 8 6 9 7 10 8 11 9 2 10 1 11 12 12 13 13
REMARK SMILES IDX 14 14 15 15
REMARK H PARENT 15 16 15 17
ROOT
ATOM      1  O   UNL     1      45.114 132.174  14.945  1.00  0.00    -0.456 OA
ENDROOT
BRANCH   1   2
ATOM      2  C   UNL     1      44.990 131.011  14.176  1.00  0.00     0.318 C 
ATOM      3  O   UNL     1      43.905 130.741  13.590  1.00  0.00    -0.252 OA
BRANCH   2   4
ATOM      4  C   UNL     1      46.157 130.066  14.084  1.00  0.00     0.201 C 
ATOM      5  C   UNL     1      46.911 130.005  15.419  1.00  0.00     0.030 C 
BRANCH   4   6
ATOM      6  C   UNL     1      47.086 130.461  12.923  1.00  0.00     0.401 C 
ATOM      7  F   UNL     1      47.788 131.607  13.252  1.00  0.00    -0.170 F 
ATOM      8  F   UNL     1      47.987 129.447  12.648  1.00  0.00    -0.170 F 
ATOM      9  F   UNL     1      46.338 130.717  11.787  1.00  0.00    -0.170 F 
ENDBRANCH   4   6
ENDBRANCH   2   4
ENDBRANCH   1   2
BRANCH   1  10
ATOM     10  C   UNL     1      44.006 132.820  15.573  1.00  0.00     0.222 C 
ATOM     11  C   UNL     1      44.433 134.208  16.040  1.00  0.00     0.060 C 
BRANCH  10  12
ATOM     12  C   UNL     1      43.526 132.009  16.744  1.00  0.00     0.103 C 
ATOM     13  O   UNL     1      42.298 131.754  16.868  1.00  0.00    -0.315 OA
BRANCH  12  14
ATOM     14  N   UNL     1      44.460 131.559  17.731  1.00  0.00    -0.591 NA
BRANCH  14  15
ATOM     15  N   UNL     1      44.170 131.590  19.104  1.00  0.00    -0.410 NA
ATOM     16  H   UNL     1      44.849 132.245  19.557  1.00  0.00     0.100 HD
ATOM     17  H   UNL     1      43.212 131.992  19.218  1.00  0.00     0.100 HD
ENDBRANCH  14  15
ENDBRANCH  12  14
ENDBRANCH  10  12
ENDBRANCH   1  10
TORSDOF 7
ENDMDL
MODEL 7
REMARK VINA RESULT:      -6.7      1.707      2.448
REMARK SMILES C[C@@H](OC(=O)[C@H](C)C(F)(F)F)C(=O)[N-]N
REMARK SMILES IDX 3 1 4 2 5 3 6 4 7 5 8 6 9 7 10 8 11 9 2 10 1 11 12 12 13 13
REMARK SMILES IDX 14 14 15 15
REMARK H PARENT 15 16 15 17
ROOT
ATOM      1  O   UNL     1      45.680 132.843  15.581  1.00  0.00    -0.456 OA
ENDROOT
BRANCH   1   2
ATOM      2  C   UNL     1      46.024 131.506  15.350  1.00  0.00     0.318 C 
ATOM      3  O   UNL     1      46.717 130.868  16.191  1.00  0.00    -0.252 OA
BRANCH   2   4
ATOM      4  C   UNL     1      45.588 130.847  14.071  1.00  0.00     0.201 C 
ATOM      5  C   UNL     1      44.862 129.527  14.362  1.00  0.00     0.030 C 
BRANCH   4   6
ATOM      6  C   UNL     1      46.787 130.640  13.129  1.00  0.00     0.401 C 
ATOM      7  F   UNL     1      46.373 130.742  11.813  1.00  0.00    -0.170 F 
ATOM      8  F   UNL     1      47.766 131.590  13.365  1.00  0.00    -0.170 F 
ATOM      9  F   UNL     1      47.328 129.381  13.322  1.00  0.00    -0.170 F 
ENDBRANCH   4   6
ENDBRANCH   2   4
ENDBRANCH   1   2
BRANCH   1  10
ATOM     10  C   UNL     1      44.350 133.270  15.881  1.00  0.00     0.222 C 
ATOM     11  C   UNL     1      44.370 134.750  16.248  1.00  0.00     0.060 C 
BRANCH  10  12
ATOM     12  C   UNL     1      43.790 132.465  17.019  1.00  0.00     0.103 C 
ATOM     13  O   UNL     1      44.414 132.406  18.112  1.00  0.00    -0.315 OA
BRANCH  12  14
ATOM     14  N   UNL     1      42.567 131.740  16.846  1.00  0.00    -0.591 NA
BRANCH  14  15
ATOM     15  N   UNL     1      41.427 132.000  17.622  1.00  0.00    -0.410 NA
ATOM     16  H   UNL     1      40.597 131.978  16.985  1.00  0.00     0.100 HD
ATOM     17  H   UNL     1      41.324 131.217  18.309  1.00  0.00     0.100 HD
ENDBRANCH  14  15
ENDBRANCH  12  14
ENDBRANCH  10  12
ENDBRANCH   1  10
TORSDOF 7
ENDMDL
MODEL 8
REMARK VINA RESULT:      -6.5      1.497      2.131
REMARK SMILES C[C@@H](OC(=O)[C@H](C)C(F)(F)F)C(=O)[N-]N
REMARK SMILES IDX 3 1 4 2 5 3 6 4 7 5 8 6 9 7 10 8 11 9 2 10 1 11 12 12 13 13
REMARK SMILES IDX 14 14 15 15
REMARK H PARENT 15 16 15 17
ROOT
ATOM      1  O   UNL     1      45.570 133.090  15.496  1.00  0.00    -0.456 OA
ENDROOT
BRANCH   1   2
ATOM      2  C   UNL     1      45.836 131.720  15.394  1.00  0.00     0.318 C 
ATOM      3  O   UNL     1      46.419 131.108  16.331  1.00  0.00    -0.252 OA
BRANCH   2   4
ATOM      4  C   UNL     1      45.450 130.989  14.137  1.00  0.00     0.201 C 
ATOM      5  C   UNL     1      44.714 129.685  14.473  1.00  0.00     0.030 C 
BRANCH   4   6
ATOM      6  C   UNL     1      46.684 130.736  13.254  1.00  0.00     0.401 C 
ATOM      7  F   UNL     1      47.222 129.495  13.544  1.00  0.00    -0.170 F 
ATOM      8  F   UNL     1      46.344 130.774  11.912  1.00  0.00    -0.170 F 
ATOM      9  F   UNL     1      47.646 131.699  13.500  1.00  0.00    -0.170 F 
ENDBRANCH   4   6
ENDBRANCH   2   4
ENDBRANCH   1   2
BRANCH   1  10
ATOM     10  C   UNL     1      44.252 133.638  15.448  1.00  0.00     0.222 C 
ATOM     11  C   UNL     1      44.272 135.043  16.042  1.00  0.00     0.060 C 
BRANCH  10  12
ATOM     12  C   UNL     1      43.298 132.769  16.216  1.00  0.00     0.103 C 
ATOM     13  O   UNL     1      43.472 132.585  17.451  1.00  0.00    -0.315 OA
BRANCH  12  14
ATOM     14  N   UNL     1      42.215 132.123  15.536  1.00  0.00    -0.591 NA
BRANCH  14  15
ATOM     15  N   UNL     1      41.876 132.429  14.209  1.00  0.00    -0.410 NA
ATOM     16  H   UNL     1      40.914 132.057  14.034  1.00  0.00     0.100 HD
ATOM     17  H   UNL     1      41.838 133.470  14.123  1.00  0.00     0.100 HD
ENDBRANCH  14  15
ENDBRANCH  12  14
ENDBRANCH  10  12
ENDBRANCH   1  10
TORSDOF 7
ENDMDL
MODEL 9
REMARK VINA RESULT:      -6.5      1.478      1.795
REMARK SMILES C[C@@H](OC(=O)[C@H](C)C(F)(F)F)C(=O)[N-]N
REMARK SMILES IDX 3 1 4 2 5 3 6 4 7 5 8 6 9 7 10 8 11 9 2 10 1 11 12 12 13 13
REMARK SMILES IDX 14 14 15 15
REMARK H PARENT 15 16 15 17
ROOT
ATOM      1  O   UNL     1      45.750 132.279  15.055  1.00  0.00    -0.456 OA
ENDROOT
BRANCH   1   2
ATOM      2  C   UNL     1      45.350 131.148  14.332  1.00  0.00     0.318 C 
ATOM      3  O   UNL     1      44.150 131.013  13.966  1.00  0.00    -0.252 OA
BRANCH   2   4
ATOM      4  C   UNL     1      46.361 130.078  14.025  1.00  0.00     0.201 C 
ATOM      5  C   UNL     1      47.254 129.811  15.244  1.00  0.00     0.030 C 
BRANCH   4   6
ATOM      6  C   UNL     1      47.190 130.452  12.784  1.00  0.00     0.401 C 
ATOM      7  F   UNL     1      46.347 130.702  11.715  1.00  0.00    -0.170 F 
ATOM      8  F   UNL     1      47.955 131.580  13.025  1.00  0.00    -0.170 F 
ATOM      9  F   UNL     1      48.029 129.406  12.444  1.00  0.00    -0.170 F 
ENDBRANCH   4   6
ENDBRANCH   2   4
ENDBRANCH   1   2
BRANCH   1  10
ATOM     10  C   UNL     1      45.200 132.634  16.323  1.00  0.00     0.222 C 
ATOM     11  C   UNL     1      44.735 131.370  17.039  1.00  0.00     0.060 C 
BRANCH  10  12
ATOM     12  C   UNL     1      44.046 133.579  16.145  1.00  0.00     0.103 C 
ATOM     13  O   UNL     1      42.865 133.145  16.209  1.00  0.00    -0.315 OA
BRANCH  12  14
ATOM     14  N   UNL     1      44.292 134.962  15.867  1.00  0.00    -0.591 NA
BRANCH  14  15
ATOM     15  N   UNL     1      43.754 135.607  14.743  1.00  0.00    -0.410 NA
ATOM     16  H   UNL     1      44.207 135.197  13.894  1.00  0.00     0.100 HD
ATOM     17  H   UNL     1      42.734 135.378  14.703  1.00  0.00     0.100 HD
ENDBRANCH  14  15
ENDBRANCH  12  14
ENDBRANCH  10  12
ENDBRANCH   1  10
TORSDOF 7
ENDMDL


