MODEL 1
REMARK VINA RESULT:      -7.7      0.000      0.000
REMARK SMILES Cc1nnn([C@@H]2O[C@@]2(C#N)[NH2+]c2cccc(C#N)c2C)c1-c1cc2ccccc2c2ccccc12
REMARK SMILES IDX 11 1 8 4 6 5 7 6 5 7 2 8 3 9 21 10 4 11 1 12 22 13 23 14
REMARK SMILES IDX 35 15 24 16 34 17 30 18 25 19 29 20 33 21 31 22 26 23 28 24
REMARK SMILES IDX 32 25 27 26 9 27 10 28 12 29 13 30 19 31 14 32 16 33 15 34
REMARK SMILES IDX 20 35 17 36 18 37
REMARK H PARENT 11 2 11 3
ROOT
ATOM      1  N   UNL     1      43.442 131.524  17.169  1.00  0.00    -0.269 N 
ATOM      2  H   UNL     1      42.403 131.402  17.187  1.00  0.00     0.356 HD
ATOM      3  H   UNL     1      43.816 130.872  17.898  1.00  0.00     0.356 HD
ENDROOT
BRANCH   1   4
ATOM      4  C   UNL     1      43.821 132.899  17.539  1.00  0.00     0.344 C 
ATOM      5  C   UNL     1      43.336 133.449  18.836  1.00  0.00     0.354 C 
ATOM      6  O   UNL     1      44.631 132.911  18.694  1.00  0.00    -0.274 OA
BRANCH   5   7
ATOM      7  N   UNL     1      43.370 134.905  18.936  1.00  0.00    -0.205 N 
ATOM      8  C   UNL     1      42.912 137.029  18.763  1.00  0.00     0.088 A 
ATOM      9  N   UNL     1      44.104 136.903  19.384  1.00  0.00    -0.135 NA
ATOM     10  C   UNL     1      42.443 135.765  18.481  1.00  0.00     0.096 A 
ATOM     11  N   UNL     1      44.353 135.604  19.482  1.00  0.00    -0.064 NA
ATOM     12  C   UNL     1      42.284 138.331  18.389  1.00  0.00     0.071 C 
BRANCH  10  13
ATOM     13  C   UNL     1      41.212 135.394  17.752  1.00  0.00     0.010 A 
ATOM     14  C   UNL     1      41.254 135.399  16.360  1.00  0.00     0.019 A 
ATOM     15  C   UNL     1      40.031 135.002  18.423  1.00  0.00    -0.008 A 
ATOM     16  C   UNL     1      40.153 134.995  15.605  1.00  0.00    -0.017 A 
ATOM     17  C   UNL     1      39.969 135.010  19.834  1.00  0.00     0.009 A 
ATOM     18  C   UNL     1      38.881 134.610  17.672  1.00  0.00    -0.010 A 
ATOM     19  C   UNL     1      40.256 134.973  14.204  1.00  0.00     0.009 A 
ATOM     20  C   UNL     1      38.946 134.602  16.243  1.00  0.00    -0.010 A 
ATOM     21  C   UNL     1      38.809 134.625  20.499  1.00  0.00     0.001 A 
ATOM     22  C   UNL     1      37.714 134.236  18.383  1.00  0.00     0.009 A 
ATOM     23  C   UNL     1      39.175 134.570  13.423  1.00  0.00     0.001 A 
ATOM     24  C   UNL     1      37.861 134.207  15.421  1.00  0.00     0.009 A 
ATOM     25  C   UNL     1      37.688 134.240  19.777  1.00  0.00     0.001 A 
ATOM     26  C   UNL     1      37.982 134.192  14.029  1.00  0.00     0.001 A 
ENDBRANCH  10  13
ENDBRANCH   5   7
BRANCH   4  27
ATOM     27  C   UNL     1      44.426 133.761  16.507  1.00  0.00     0.167 C 
ATOM     28  N   UNL     1      44.902 134.437  15.696  1.00  0.00    -0.188 NA
ENDBRANCH   4  27
ENDBRANCH   1   4
BRANCH   1  29
ATOM     29  C   UNL     1      43.997 131.159  15.878  1.00  0.00     0.137 A 
ATOM     30  C   UNL     1      43.256 131.456  14.717  1.00  0.00     0.068 A 
ATOM     31  C   UNL     1      45.274 130.535  15.742  1.00  0.00     0.028 A 
ATOM     32  C   UNL     1      43.742 131.140  13.453  1.00  0.00     0.008 A 
ATOM     33  C   UNL     1      45.771 130.262  14.439  1.00  0.00     0.061 A 
ATOM     34  C   UNL     1      44.993 130.553  13.314  1.00  0.00     0.020 A 
ATOM     35  C   UNL     1      46.114 130.228  16.961  1.00  0.00     0.052 C 
BRANCH  33  36
ATOM     36  C   UNL     1      47.082 129.698  14.219  1.00  0.00     0.100 C 
ATOM     37  N   UNL     1      48.134 129.248  14.042  1.00  0.00    -0.192 NA
ENDBRANCH  33  36
ENDBRANCH   1  29
TORSDOF 6
ENDMDL
MODEL 2
REMARK VINA RESULT:      -7.7      2.886      6.325
REMARK SMILES Cc1nnn([C@@H]2O[C@@]2(C#N)[NH2+]c2cccc(C#N)c2C)c1-c1cc2ccccc2c2ccccc12
REMARK SMILES IDX 11 1 8 4 6 5 7 6 5 7 2 8 3 9 21 10 4 11 1 12 22 13 23 14
REMARK SMILES IDX 35 15 24 16 34 17 30 18 25 19 29 20 33 21 31 22 26 23 28 24
REMARK SMILES IDX 32 25 27 26 9 27 10 28 12 29 13 30 19 31 14 32 16 33 15 34
REMARK SMILES IDX 20 35 17 36 18 37
REMARK H PARENT 11 2 11 3
ROOT
ATOM      1  N   UNL     1      39.790 134.094  20.246  1.00  0.00    -0.269 N 
ATOM      2  H   UNL     1      39.358 133.216  20.614  1.00  0.00     0.356 HD
ATOM      3  H   UNL     1      39.610 134.825  20.973  1.00  0.00     0.356 HD
ENDROOT
BRANCH   1   4
ATOM      4  C   UNL     1      39.144 134.519  18.991  1.00  0.00     0.344 C 
ATOM      5  C   UNL     1      39.043 133.538  17.874  1.00  0.00     0.354 C 
ATOM      6  O   UNL     1      37.966 133.781  18.751  1.00  0.00    -0.274 OA
BRANCH   5   7
ATOM      7  N   UNL     1      38.806 134.128  16.560  1.00  0.00    -0.205 N 
ATOM      8  C   UNL     1      39.054 134.972  14.565  1.00  0.00     0.088 A 
ATOM      9  N   UNL     1      37.749 135.053  14.898  1.00  0.00    -0.135 NA
ATOM     10  C   UNL     1      39.726 134.383  15.614  1.00  0.00     0.096 A 
ATOM     11  N   UNL     1      37.626 134.528  16.111  1.00  0.00    -0.064 NA
ATOM     12  C   UNL     1      39.643 135.512  13.304  1.00  0.00     0.071 C 
BRANCH  10  13
ATOM     13  C   UNL     1      41.178 134.140  15.741  1.00  0.00     0.010 A 
ATOM     14  C   UNL     1      41.681 132.934  15.257  1.00  0.00     0.019 A 
ATOM     15  C   UNL     1      42.055 135.102  16.292  1.00  0.00    -0.008 A 
ATOM     16  C   UNL     1      43.049 132.664  15.279  1.00  0.00    -0.017 A 
ATOM     17  C   UNL     1      41.556 136.321  16.802  1.00  0.00     0.009 A 
ATOM     18  C   UNL     1      43.457 134.838  16.350  1.00  0.00    -0.010 A 
ATOM     19  C   UNL     1      43.515 131.454  14.740  1.00  0.00     0.009 A 
ATOM     20  C   UNL     1      43.961 133.603  15.833  1.00  0.00    -0.010 A 
ATOM     21  C   UNL     1      42.415 137.271  17.345  1.00  0.00     0.001 A 
ATOM     22  C   UNL     1      44.301 135.823  16.922  1.00  0.00     0.009 A 
ATOM     23  C   UNL     1      44.877 131.157  14.743  1.00  0.00     0.001 A 
ATOM     24  C   UNL     1      45.338 133.268  15.831  1.00  0.00     0.009 A 
ATOM     25  C   UNL     1      43.780 137.024  17.404  1.00  0.00     0.001 A 
ATOM     26  C   UNL     1      45.783 132.060  15.290  1.00  0.00     0.001 A 
ENDBRANCH  10  13
ENDBRANCH   5   7
BRANCH   4  27
ATOM     27  C   UNL     1      38.873 135.954  18.793  1.00  0.00     0.167 C 
ATOM     28  N   UNL     1      38.659 137.081  18.637  1.00  0.00    -0.188 NA
ENDBRANCH   4  27
ENDBRANCH   1   4
BRANCH   1  29
ATOM     29  C   UNL     1      41.224 133.947  20.070  1.00  0.00     0.137 A 
ATOM     30  C   UNL     1      41.707 132.810  19.392  1.00  0.00     0.068 A 
ATOM     31  C   UNL     1      42.158 134.921  20.535  1.00  0.00     0.028 A 
ATOM     32  C   UNL     1      43.069 132.620  19.184  1.00  0.00     0.008 A 
ATOM     33  C   UNL     1      43.541 134.730  20.272  1.00  0.00     0.061 A 
ATOM     34  C   UNL     1      43.980 133.576  19.615  1.00  0.00     0.020 A 
ATOM     35  C   UNL     1      41.679 136.170  21.240  1.00  0.00     0.052 C 
BRANCH  33  36
ATOM     36  C   UNL     1      44.537 135.704  20.650  1.00  0.00     0.100 C 
ATOM     37  N   UNL     1      45.334 136.488  20.951  1.00  0.00    -0.192 NA
ENDBRANCH  33  36
ENDBRANCH   1  29
TORSDOF 6
ENDMDL
MODEL 3
REMARK VINA RESULT:      -7.6      2.307      3.764
REMARK SMILES Cc1nnn([C@@H]2O[C@@]2(C#N)[NH2+]c2cccc(C#N)c2C)c1-c1cc2ccccc2c2ccccc12
REMARK SMILES IDX 11 1 8 4 6 5 7 6 5 7 2 8 3 9 21 10 4 11 1 12 22 13 23 14
REMARK SMILES IDX 35 15 24 16 34 17 30 18 25 19 29 20 33 21 31 22 26 23 28 24
REMARK SMILES IDX 32 25 27 26 9 27 10 28 12 29 13 30 19 31 14 32 16 33 15 34
REMARK SMILES IDX 20 35 17 36 18 37
REMARK H PARENT 11 2 11 3
ROOT
ATOM      1  N   UNL     1      42.984 131.752  19.750  1.00  0.00    -0.269 N 
ATOM      2  H   UNL     1      42.079 131.231  19.790  1.00  0.00     0.356 HD
ATOM      3  H   UNL     1      43.658 131.195  20.325  1.00  0.00     0.356 HD
ENDROOT
BRANCH   1   4
ATOM      4  C   UNL     1      42.854 133.090  20.355  1.00  0.00     0.344 C 
ATOM      5  C   UNL     1      41.487 133.630  20.604  1.00  0.00     0.354 C 
ATOM      6  O   UNL     1      42.242 133.016  21.624  1.00  0.00    -0.274 OA
BRANCH   5   7
ATOM      7  N   UNL     1      41.423 135.077  20.782  1.00  0.00    -0.205 N 
ATOM      8  C   UNL     1      41.193 137.221  20.460  1.00  0.00     0.088 A 
ATOM      9  N   UNL     1      41.607 137.027  21.730  1.00  0.00    -0.135 NA
ATOM     10  C   UNL     1      41.072 135.987  19.859  1.00  0.00     0.096 A 
ATOM     11  N   UNL     1      41.731 135.716  21.900  1.00  0.00    -0.064 NA
ATOM     12  C   UNL     1      40.992 138.559  19.829  1.00  0.00     0.071 C 
BRANCH  10  13
ATOM     13  C   UNL     1      40.711 135.693  18.456  1.00  0.00     0.010 A 
ATOM     14  C   UNL     1      39.375 135.418  18.172  1.00  0.00     0.019 A 
ATOM     15  C   UNL     1      41.664 135.726  17.412  1.00  0.00    -0.008 A 
ATOM     16  C   UNL     1      38.948 135.199  16.862  1.00  0.00    -0.017 A 
ATOM     17  C   UNL     1      43.024 135.986  17.689  1.00  0.00     0.009 A 
ATOM     18  C   UNL     1      41.256 135.478  16.066  1.00  0.00    -0.010 A 
ATOM     19  C   UNL     1      37.584 134.969  16.618  1.00  0.00     0.009 A 
ATOM     20  C   UNL     1      39.878 135.216  15.788  1.00  0.00    -0.010 A 
ATOM     21  C   UNL     1      43.966 136.020  16.665  1.00  0.00     0.001 A 
ATOM     22  C   UNL     1      42.245 135.508  15.051  1.00  0.00     0.009 A 
ATOM     23  C   UNL     1      37.126 134.751  15.320  1.00  0.00     0.001 A 
ATOM     24  C   UNL     1      39.383 134.980  14.481  1.00  0.00     0.009 A 
ATOM     25  C   UNL     1      43.578 135.782  15.354  1.00  0.00     0.001 A 
ATOM     26  C   UNL     1      38.022 134.754  14.257  1.00  0.00     0.001 A 
ENDBRANCH  10  13
ENDBRANCH   5   7
BRANCH   4  27
ATOM     27  C   UNL     1      44.053 133.942  20.437  1.00  0.00     0.167 C 
ATOM     28  N   UNL     1      44.995 134.614  20.502  1.00  0.00    -0.188 NA
ENDBRANCH   4  27
ENDBRANCH   1   4
BRANCH   1  29
ATOM     29  C   UNL     1      43.485 131.842  18.390  1.00  0.00     0.137 A 
ATOM     30  C   UNL     1      44.869 131.694  18.169  1.00  0.00     0.068 A 
ATOM     31  C   UNL     1      42.626 132.050  17.269  1.00  0.00     0.028 A 
ATOM     32  C   UNL     1      45.405 131.760  16.888  1.00  0.00     0.008 A 
ATOM     33  C   UNL     1      43.189 132.069  15.964  1.00  0.00     0.061 A 
ATOM     34  C   UNL     1      44.570 131.939  15.792  1.00  0.00     0.020 A 
ATOM     35  C   UNL     1      41.132 132.183  17.459  1.00  0.00     0.052 C 
BRANCH  33  36
ATOM     36  C   UNL     1      42.377 132.203  14.778  1.00  0.00     0.100 C 
ATOM     37  N   UNL     1      41.726 132.308  13.826  1.00  0.00    -0.192 NA
ENDBRANCH  33  36
ENDBRANCH   1  29
TORSDOF 6
ENDMDL
MODEL 4
REMARK VINA RESULT:      -7.5      2.843      5.961
REMARK SMILES Cc1nnn([C@@H]2O[C@@]2(C#N)[NH2+]c2cccc(C#N)c2C)c1-c1cc2ccccc2c2ccccc12
REMARK SMILES IDX 11 1 8 4 6 5 7 6 5 7 2 8 3 9 21 10 4 11 1 12 22 13 23 14
REMARK SMILES IDX 35 15 24 16 34 17 30 18 25 19 29 20 33 21 31 22 26 23 28 24
REMARK SMILES IDX 32 25 27 26 9 27 10 28 12 29 13 30 19 31 14 32 16 33 15 34
REMARK SMILES IDX 20 35 17 36 18 37
REMARK H PARENT 11 2 11 3
ROOT
ATOM      1  N   UNL     1      43.526 137.549  19.607  1.00  0.00    -0.269 N 
ATOM      2  H   UNL     1      44.448 138.033  19.699  1.00  0.00     0.356 HD
ATOM      3  H   UNL     1      42.802 138.283  19.788  1.00  0.00     0.356 HD
ENDROOT
BRANCH   1   4
ATOM      4  C   UNL     1      43.378 136.491  20.622  1.00  0.00     0.344 C 
ATOM      5  C   UNL     1      44.445 135.457  20.735  1.00  0.00     0.354 C 
ATOM      6  O   UNL     1      44.398 136.573  21.594  1.00  0.00    -0.274 OA
BRANCH   5   7
ATOM      7  N   UNL     1      44.043 134.234  21.424  1.00  0.00    -0.205 N 
ATOM      8  C   UNL     1      43.320 132.230  21.889  1.00  0.00     0.088 A 
ATOM      9  N   UNL     1      43.566 132.871  23.051  1.00  0.00    -0.135 NA
ATOM     10  C   UNL     1      43.625 133.090  20.856  1.00  0.00     0.096 A 
ATOM     11  N   UNL     1      44.010 134.082  22.739  1.00  0.00    -0.064 NA
ATOM     12  C   UNL     1      42.740 130.859  21.782  1.00  0.00     0.071 C 
BRANCH  10  13
ATOM     13  C   UNL     1      43.459 132.862  19.405  1.00  0.00     0.010 A 
ATOM     14  C   UNL     1      44.533 132.317  18.705  1.00  0.00     0.019 A 
ATOM     15  C   UNL     1      42.245 133.138  18.736  1.00  0.00    -0.008 A 
ATOM     16  C   UNL     1      44.428 132.010  17.349  1.00  0.00    -0.017 A 
ATOM     17  C   UNL     1      41.154 133.705  19.430  1.00  0.00     0.009 A 
ATOM     18  C   UNL     1      42.121 132.857  17.341  1.00  0.00    -0.010 A 
ATOM     19  C   UNL     1      45.522 131.422  16.694  1.00  0.00     0.009 A 
ATOM     20  C   UNL     1      43.226 132.281  16.640  1.00  0.00    -0.010 A 
ATOM     21  C   UNL     1      39.957 133.979  18.775  1.00  0.00     0.001 A 
ATOM     22  C   UNL     1      40.891 133.160  16.705  1.00  0.00     0.009 A 
ATOM     23  C   UNL     1      45.445 131.099  15.341  1.00  0.00     0.001 A 
ATOM     24  C   UNL     1      43.183 131.951  15.262  1.00  0.00     0.009 A 
ATOM     25  C   UNL     1      39.826 133.707  17.420  1.00  0.00     0.001 A 
ATOM     26  C   UNL     1      44.281 131.366  14.628  1.00  0.00     0.001 A 
ENDBRANCH  10  13
ENDBRANCH   5   7
BRANCH   4  27
ATOM     27  C   UNL     1      42.074 136.339  21.292  1.00  0.00     0.167 C 
ATOM     28  N   UNL     1      41.049 136.218  21.817  1.00  0.00    -0.188 NA
ENDBRANCH   4  27
ENDBRANCH   1   4
BRANCH   1  29
ATOM     29  C   UNL     1      43.335 137.017  18.269  1.00  0.00     0.137 A 
ATOM     30  C   UNL     1      44.380 136.275  17.683  1.00  0.00     0.068 A 
ATOM     31  C   UNL     1      42.123 137.197  17.538  1.00  0.00     0.028 A 
ATOM     32  C   UNL     1      44.252 135.733  16.409  1.00  0.00     0.008 A 
ATOM     33  C   UNL     1      41.996 136.596  16.257  1.00  0.00     0.061 A 
ATOM     34  C   UNL     1      43.065 135.886  15.703  1.00  0.00     0.020 A 
ATOM     35  C   UNL     1      40.966 137.960  18.144  1.00  0.00     0.052 C 
BRANCH  33  36
ATOM     36  C   UNL     1      40.775 136.674  15.489  1.00  0.00     0.100 C 
ATOM     37  N   UNL     1      39.796 136.736  14.875  1.00  0.00    -0.192 NA
ENDBRANCH  33  36
ENDBRANCH   1  29
TORSDOF 6
ENDMDL
MODEL 5
REMARK VINA RESULT:      -7.4      2.820      5.591
REMARK SMILES Cc1nnn([C@@H]2O[C@@]2(C#N)[NH2+]c2cccc(C#N)c2C)c1-c1cc2ccccc2c2ccccc12
REMARK SMILES IDX 11 1 8 4 6 5 7 6 5 7 2 8 3 9 21 10 4 11 1 12 22 13 23 14
REMARK SMILES IDX 35 15 24 16 34 17 30 18 25 19 29 20 33 21 31 22 26 23 28 24
REMARK SMILES IDX 32 25 27 26 9 27 10 28 12 29 13 30 19 31 14 32 16 33 15 34
REMARK SMILES IDX 20 35 17 36 18 37
REMARK H PARENT 11 2 11 3
ROOT
ATOM      1  N   UNL     1      43.609 133.829  15.595  1.00  0.00    -0.269 N 
ATOM      2  H   UNL     1      44.308 134.583  15.404  1.00  0.00     0.356 HD
ATOM      3  H   UNL     1      43.258 133.525  14.657  1.00  0.00     0.356 HD
ENDROOT
BRANCH   1   4
ATOM      4  C   UNL     1      42.469 134.345  16.372  1.00  0.00     0.344 C 
ATOM      5  C   UNL     1      42.519 135.751  16.864  1.00  0.00     0.354 C 
ATOM      6  O   UNL     1      41.823 135.398  15.690  1.00  0.00    -0.274 OA
BRANCH   5   7
ATOM      7  N   UNL     1      41.602 136.051  17.960  1.00  0.00    -0.205 N 
ATOM      8  C   UNL     1      40.709 136.330  19.929  1.00  0.00     0.088 A 
ATOM      9  N   UNL     1      39.759 136.560  18.998  1.00  0.00    -0.135 NA
ATOM     10  C   UNL     1      41.878 136.011  19.274  1.00  0.00     0.096 A 
ATOM     11  N   UNL     1      40.331 136.390  17.812  1.00  0.00    -0.064 NA
ATOM     12  C   UNL     1      40.473 136.347  21.403  1.00  0.00     0.071 C 
BRANCH  10  13
ATOM     13  C   UNL     1      43.174 135.618  19.868  1.00  0.00     0.010 A 
ATOM     14  C   UNL     1      44.209 136.549  19.846  1.00  0.00     0.019 A 
ATOM     15  C   UNL     1      43.367 134.360  20.484  1.00  0.00    -0.008 A 
ATOM     16  C   UNL     1      45.438 136.276  20.447  1.00  0.00    -0.017 A 
ATOM     17  C   UNL     1      42.331 133.400  20.498  1.00  0.00     0.009 A 
ATOM     18  C   UNL     1      44.624 134.046  21.083  1.00  0.00    -0.010 A 
ATOM     19  C   UNL     1      46.438 137.262  20.438  1.00  0.00     0.009 A 
ATOM     20  C   UNL     1      45.672 135.019  21.069  1.00  0.00    -0.010 A 
ATOM     21  C   UNL     1      42.516 132.161  21.103  1.00  0.00     0.001 A 
ATOM     22  C   UNL     1      44.781 132.769  21.679  1.00  0.00     0.009 A 
ATOM     23  C   UNL     1      47.673 137.020  21.036  1.00  0.00     0.001 A 
ATOM     24  C   UNL     1      46.942 134.799  21.658  1.00  0.00     0.009 A 
ATOM     25  C   UNL     1      43.734 131.847  21.690  1.00  0.00     0.001 A 
ATOM     26  C   UNL     1      47.924 135.792  21.640  1.00  0.00     0.001 A 
ENDBRANCH  10  13
ENDBRANCH   5   7
BRANCH   4  27
ATOM     27  C   UNL     1      41.462 133.387  16.862  1.00  0.00     0.167 C 
ATOM     28  N   UNL     1      40.669 132.634  17.245  1.00  0.00    -0.188 NA
ENDBRANCH   4  27
ENDBRANCH   1   4
BRANCH   1  29
ATOM     29  C   UNL     1      44.222 132.693  16.260  1.00  0.00     0.137 A 
ATOM     30  C   UNL     1      44.610 132.829  17.608  1.00  0.00     0.068 A 
ATOM     31  C   UNL     1      44.422 131.439  15.608  1.00  0.00     0.028 A 
ATOM     32  C   UNL     1      45.192 131.773  18.300  1.00  0.00     0.008 A 
ATOM     33  C   UNL     1      44.977 130.359  16.347  1.00  0.00     0.061 A 
ATOM     34  C   UNL     1      45.368 130.544  17.676  1.00  0.00     0.020 A 
ATOM     35  C   UNL     1      43.991 131.242  14.172  1.00  0.00     0.052 C 
BRANCH  33  36
ATOM     36  C   UNL     1      45.144 129.043  15.777  1.00  0.00     0.100 C 
ATOM     37  N   UNL     1      45.276 127.989  15.318  1.00  0.00    -0.192 NA
ENDBRANCH  33  36
ENDBRANCH   1  29
TORSDOF 6
ENDMDL
MODEL 6
REMARK VINA RESULT:      -7.3      2.915      6.314
REMARK SMILES Cc1nnn([C@@H]2O[C@@]2(C#N)[NH2+]c2cccc(C#N)c2C)c1-c1cc2ccccc2c2ccccc12
REMARK SMILES IDX 11 1 8 4 6 5 7 6 5 7 2 8 3 9 21 10 4 11 1 12 22 13 23 14
REMARK SMILES IDX 35 15 24 16 34 17 30 18 25 19 29 20 33 21 31 22 26 23 28 24
REMARK SMILES IDX 32 25 27 26 9 27 10 28 12 29 13 30 19 31 14 32 16 33 15 34
REMARK SMILES IDX 20 35 17 36 18 37
REMARK H PARENT 11 2 11 3
ROOT
ATOM      1  N   UNL     1      40.592 136.418  20.699  1.00  0.00    -0.269 N 
ATOM      2  H   UNL     1      40.379 135.839  21.543  1.00  0.00     0.356 HD
ATOM      3  H   UNL     1      40.571 137.412  21.026  1.00  0.00     0.356 HD
ENDROOT
BRANCH   1   4
ATOM      4  C   UNL     1      39.558 136.247  19.663  1.00  0.00     0.344 C 
ATOM      5  C   UNL     1      39.098 134.868  19.335  1.00  0.00     0.354 C 
ATOM      6  O   UNL     1      38.376 135.705  20.209  1.00  0.00    -0.274 OA
BRANCH   5   7
ATOM      7  N   UNL     1      38.428 134.736  18.045  1.00  0.00    -0.205 N 
ATOM      8  C   UNL     1      37.997 134.504  15.920  1.00  0.00     0.088 A 
ATOM      9  N   UNL     1      36.830 134.709  16.568  1.00  0.00    -0.135 NA
ATOM     10  C   UNL     1      39.010 134.517  16.854  1.00  0.00     0.096 A 
ATOM     11  N   UNL     1      37.122 134.840  17.856  1.00  0.00    -0.064 NA
ATOM     12  C   UNL     1      38.133 134.373  14.439  1.00  0.00     0.071 C 
BRANCH  10  13
ATOM     13  C   UNL     1      40.465 134.400  16.617  1.00  0.00     0.010 A 
ATOM     14  C   UNL     1      41.081 133.194  16.942  1.00  0.00     0.019 A 
ATOM     15  C   UNL     1      41.219 135.447  16.040  1.00  0.00    -0.008 A 
ATOM     16  C   UNL     1      42.436 132.985  16.683  1.00  0.00    -0.017 A 
ATOM     17  C   UNL     1      40.609 136.681  15.722  1.00  0.00     0.009 A 
ATOM     18  C   UNL     1      42.613 135.267  15.790  1.00  0.00    -0.010 A 
ATOM     19  C   UNL     1      43.005 131.737  16.988  1.00  0.00     0.009 A 
ATOM     20  C   UNL     1      43.228 134.017  16.112  1.00  0.00    -0.010 A 
ATOM     21  C   UNL     1      41.347 137.714  15.154  1.00  0.00     0.001 A 
ATOM     22  C   UNL     1      43.335 136.346  15.222  1.00  0.00     0.009 A 
ATOM     23  C   UNL     1      44.354 131.497  16.736  1.00  0.00     0.001 A 
ATOM     24  C   UNL     1      44.600 133.745  15.878  1.00  0.00     0.009 A 
ATOM     25  C   UNL     1      42.703 137.548  14.905  1.00  0.00     0.001 A 
ATOM     26  C   UNL     1      45.148 132.498  16.187  1.00  0.00     0.001 A 
ENDBRANCH  10  13
ENDBRANCH   5   7
BRANCH   4  27
ATOM     27  C   UNL     1      39.220 137.402  18.812  1.00  0.00     0.167 C 
ATOM     28  N   UNL     1      38.955 138.309  18.142  1.00  0.00    -0.188 NA
ENDBRANCH   4  27
ENDBRANCH   1   4
BRANCH   1  29
ATOM     29  C   UNL     1      41.912 136.122  20.172  1.00  0.00     0.137 A 
ATOM     30  C   UNL     1      42.610 137.140  19.490  1.00  0.00     0.068 A 
ATOM     31  C   UNL     1      42.538 134.850  20.339  1.00  0.00     0.028 A 
ATOM     32  C   UNL     1      43.881 136.919  18.972  1.00  0.00     0.008 A 
ATOM     33  C   UNL     1      43.855 134.660  19.842  1.00  0.00     0.061 A 
ATOM     34  C   UNL     1      44.503 135.690  19.153  1.00  0.00     0.020 A 
ATOM     35  C   UNL     1      41.836 133.742  21.091  1.00  0.00     0.052 C 
BRANCH  33  36
ATOM     36  C   UNL     1      44.579 133.426  20.035  1.00  0.00     0.100 C 
ATOM     37  N   UNL     1      45.161 132.437  20.188  1.00  0.00    -0.192 NA
ENDBRANCH  33  36
ENDBRANCH   1  29
TORSDOF 6
ENDMDL
MODEL 7
REMARK VINA RESULT:      -7.0      2.803      6.087
REMARK SMILES Cc1nnn([C@@H]2O[C@@]2(C#N)[NH2+]c2cccc(C#N)c2C)c1-c1cc2ccccc2c2ccccc12
REMARK SMILES IDX 11 1 8 4 6 5 7 6 5 7 2 8 3 9 21 10 4 11 1 12 22 13 23 14
REMARK SMILES IDX 35 15 24 16 34 17 30 18 25 19 29 20 33 21 31 22 26 23 28 24
REMARK SMILES IDX 32 25 27 26 9 27 10 28 12 29 13 30 19 31 14 32 16 33 15 34
REMARK SMILES IDX 20 35 17 36 18 37
REMARK H PARENT 11 2 11 3
ROOT
ATOM      1  N   UNL     1      43.661 137.574  20.550  1.00  0.00    -0.269 N 
ATOM      2  H   UNL     1      44.636 137.705  20.198  1.00  0.00     0.356 HD
ATOM      3  H   UNL     1      43.438 138.439  21.096  1.00  0.00     0.356 HD
ENDROOT
BRANCH   1   4
ATOM      4  C   UNL     1      43.576 136.417  21.458  1.00  0.00     0.344 C 
ATOM      5  C   UNL     1      44.596 135.337  21.336  1.00  0.00     0.354 C 
ATOM      6  O   UNL     1      44.700 136.353  22.307  1.00  0.00    -0.274 OA
BRANCH   5   7
ATOM      7  N   UNL     1      44.214 134.062  21.934  1.00  0.00    -0.205 N 
ATOM      8  C   UNL     1      43.478 132.035  22.259  1.00  0.00     0.088 A 
ATOM      9  N   UNL     1      43.817 132.558  23.456  1.00  0.00    -0.135 NA
ATOM     10  C   UNL     1      43.731 132.984  21.293  1.00  0.00     0.096 A 
ATOM     11  N   UNL     1      44.267 133.786  23.228  1.00  0.00    -0.064 NA
ATOM     12  C   UNL     1      42.861 130.690  22.065  1.00  0.00     0.071 C 
BRANCH  10  13
ATOM     13  C   UNL     1      43.461 132.897  19.842  1.00  0.00     0.010 A 
ATOM     14  C   UNL     1      44.467 132.389  19.022  1.00  0.00     0.019 A 
ATOM     15  C   UNL     1      42.216 133.270  19.286  1.00  0.00    -0.008 A 
ATOM     16  C   UNL     1      44.260 132.213  17.654  1.00  0.00    -0.017 A 
ATOM     17  C   UNL     1      41.195 133.802  20.103  1.00  0.00     0.009 A 
ATOM     18  C   UNL     1      41.990 133.124  17.883  1.00  0.00    -0.010 A 
ATOM     19  C   UNL     1      45.288 131.656  16.874  1.00  0.00     0.009 A 
ATOM     20  C   UNL     1      43.025 132.584  17.058  1.00  0.00    -0.010 A 
ATOM     21  C   UNL     1      39.968 134.171  19.560  1.00  0.00     0.001 A 
ATOM     22  C   UNL     1      40.732 133.522  17.364  1.00  0.00     0.009 A 
ATOM     23  C   UNL     1      45.109 131.464  15.506  1.00  0.00     0.001 A 
ATOM     24  C   UNL     1      42.878 132.386  15.662  1.00  0.00     0.009 A 
ATOM     25  C   UNL     1      39.738 134.031  18.199  1.00  0.00     0.001 A 
ATOM     26  C   UNL     1      43.911 131.830  14.902  1.00  0.00     0.001 A 
ENDBRANCH  10  13
ENDBRANCH   5   7
BRANCH   4  27
ATOM     27  C   UNL     1      42.349 136.239  22.255  1.00  0.00     0.167 C 
ATOM     28  N   UNL     1      41.385 136.099  22.883  1.00  0.00    -0.188 NA
ENDBRANCH   4  27
ENDBRANCH   1   4
BRANCH   1  29
ATOM     29  C   UNL     1      42.714 137.449  19.456  1.00  0.00     0.137 A 
ATOM     30  C   UNL     1      41.411 137.958  19.631  1.00  0.00     0.068 A 
ATOM     31  C   UNL     1      43.060 136.854  18.206  1.00  0.00     0.028 A 
ATOM     32  C   UNL     1      40.464 137.877  18.616  1.00  0.00     0.008 A 
ATOM     33  C   UNL     1      42.092 136.822  17.167  1.00  0.00     0.061 A 
ATOM     34  C   UNL     1      40.804 137.318  17.390  1.00  0.00     0.020 A 
ATOM     35  C   UNL     1      44.456 136.324  17.967  1.00  0.00     0.052 C 
BRANCH  33  36
ATOM     36  C   UNL     1      42.390 136.301  15.854  1.00  0.00     0.100 C 
ATOM     37  N   UNL     1      42.632 135.884  14.801  1.00  0.00    -0.192 NA
ENDBRANCH  33  36
ENDBRANCH   1  29
TORSDOF 6
ENDMDL
MODEL 8
REMARK VINA RESULT:      -7.0      2.572      5.374
REMARK SMILES Cc1nnn([C@@H]2O[C@@]2(C#N)[NH2+]c2cccc(C#N)c2C)c1-c1cc2ccccc2c2ccccc12
REMARK SMILES IDX 11 1 8 4 6 5 7 6 5 7 2 8 3 9 21 10 4 11 1 12 22 13 23 14
REMARK SMILES IDX 35 15 24 16 34 17 30 18 25 19 29 20 33 21 31 22 26 23 28 24
REMARK SMILES IDX 32 25 27 26 9 27 10 28 12 29 13 30 19 31 14 32 16 33 15 34
REMARK SMILES IDX 20 35 17 36 18 37
REMARK H PARENT 11 2 11 3
ROOT
ATOM      1  N   UNL     1      44.857 133.658  15.305  1.00  0.00    -0.269 N 
ATOM      2  H   UNL     1      45.654 134.321  15.442  1.00  0.00     0.356 HD
ATOM      3  H   UNL     1      44.879 133.394  14.293  1.00  0.00     0.356 HD
ENDROOT
BRANCH   1   4
ATOM      4  C   UNL     1      43.567 134.313  15.585  1.00  0.00     0.344 C 
ATOM      5  C   UNL     1      43.574 135.643  16.258  1.00  0.00     0.354 C 
ATOM      6  O   UNL     1      43.441 135.518  14.861  1.00  0.00    -0.274 OA
BRANCH   5   7
ATOM      7  N   UNL     1      42.310 136.020  16.885  1.00  0.00    -0.205 N 
ATOM      8  C   UNL     1      40.665 136.290  18.290  1.00  0.00     0.088 A 
ATOM      9  N   UNL     1      40.288 136.795  17.096  1.00  0.00    -0.135 NA
ATOM     10  C   UNL     1      41.947 135.801  18.159  1.00  0.00     0.096 A 
ATOM     11  N   UNL     1      41.309 136.624  16.265  1.00  0.00    -0.064 NA
ATOM     12  C   UNL     1      39.787 136.216  19.495  1.00  0.00     0.071 C 
BRANCH  10  13
ATOM     13  C   UNL     1      42.758 135.097  19.175  1.00  0.00     0.010 A 
ATOM     14  C   UNL     1      42.343 133.827  19.573  1.00  0.00     0.019 A 
ATOM     15  C   UNL     1      43.943 135.653  19.708  1.00  0.00    -0.008 A 
ATOM     16  C   UNL     1      43.094 133.074  20.475  1.00  0.00    -0.017 A 
ATOM     17  C   UNL     1      44.365 136.946  19.327  1.00  0.00     0.009 A 
ATOM     18  C   UNL     1      44.715 134.912  20.654  1.00  0.00    -0.010 A 
ATOM     19  C   UNL     1      42.661 131.781  20.813  1.00  0.00     0.009 A 
ATOM     20  C   UNL     1      44.287 133.603  21.038  1.00  0.00    -0.010 A 
ATOM     21  C   UNL     1      45.530 137.497  19.849  1.00  0.00     0.001 A 
ATOM     22  C   UNL     1      45.890 135.511  21.174  1.00  0.00     0.009 A 
ATOM     23  C   UNL     1      43.392 131.003  21.707  1.00  0.00     0.001 A 
ATOM     24  C   UNL     1      45.003 132.791  21.953  1.00  0.00     0.009 A 
ATOM     25  C   UNL     1      46.289 136.784  20.767  1.00  0.00     0.001 A 
ATOM     26  C   UNL     1      44.556 131.508  22.277  1.00  0.00     0.001 A 
ENDBRANCH  10  13
ENDBRANCH   5   7
BRANCH   4  27
ATOM     27  C   UNL     1      42.332 133.522  15.440  1.00  0.00     0.167 C 
ATOM     28  N   UNL     1      41.361 132.902  15.326  1.00  0.00    -0.188 NA
ENDBRANCH   4  27
ENDBRANCH   1   4
BRANCH   1  29
ATOM     29  C   UNL     1      45.018 132.460  16.110  1.00  0.00     0.137 A 
ATOM     30  C   UNL     1      45.138 132.597  17.507  1.00  0.00     0.068 A 
ATOM     31  C   UNL     1      45.034 131.151  15.541  1.00  0.00     0.028 A 
ATOM     32  C   UNL     1      45.284 131.485  18.330  1.00  0.00     0.008 A 
ATOM     33  C   UNL     1      45.138 130.027  16.403  1.00  0.00     0.061 A 
ATOM     34  C   UNL     1      45.277 130.208  17.782  1.00  0.00     0.020 A 
ATOM     35  C   UNL     1      44.876 130.959  14.049  1.00  0.00     0.052 C 
BRANCH  33  36
ATOM     36  C   UNL     1      45.090 128.671  15.908  1.00  0.00     0.100 C 
ATOM     37  N   UNL     1      45.053 127.583  15.514  1.00  0.00    -0.192 NA
ENDBRANCH  33  36
ENDBRANCH   1  29
TORSDOF 6
ENDMDL
MODEL 9
REMARK VINA RESULT:      -6.9      2.051      2.816
REMARK SMILES Cc1nnn([C@@H]2O[C@@]2(C#N)[NH2+]c2cccc(C#N)c2C)c1-c1cc2ccccc2c2ccccc12
REMARK SMILES IDX 11 1 8 4 6 5 7 6 5 7 2 8 3 9 21 10 4 11 1 12 22 13 23 14
REMARK SMILES IDX 35 15 24 16 34 17 30 18 25 19 29 20 33 21 31 22 26 23 28 24
REMARK SMILES IDX 32 25 27 26 9 27 10 28 12 29 13 30 19 31 14 32 16 33 15 34
REMARK SMILES IDX 20 35 17 36 18 37
REMARK H PARENT 11 2 11 3
ROOT
ATOM      1  N   UNL     1      43.123 132.145  20.676  1.00  0.00    -0.269 N 
ATOM      2  H   UNL     1      42.253 131.675  21.017  1.00  0.00     0.356 HD
ATOM      3  H   UNL     1      43.911 131.698  21.201  1.00  0.00     0.356 HD
ENDROOT
BRANCH   1   4
ATOM      4  C   UNL     1      43.110 133.583  20.996  1.00  0.00     0.344 C 
ATOM      5  C   UNL     1      41.839 134.195  21.479  1.00  0.00     0.354 C 
ATOM      6  O   UNL     1      42.858 133.796  22.368  1.00  0.00    -0.274 OA
BRANCH   5   7
ATOM      7  N   UNL     1      41.773 135.648  21.357  1.00  0.00    -0.205 N 
ATOM      8  C   UNL     1      41.483 137.679  20.620  1.00  0.00     0.088 A 
ATOM      9  N   UNL     1      42.023 137.751  21.855  1.00  0.00    -0.135 NA
ATOM     10  C   UNL     1      41.320 136.348  20.304  1.00  0.00     0.096 A 
ATOM     11  N   UNL     1      42.182 136.504  22.281  1.00  0.00    -0.064 NA
ATOM     12  C   UNL     1      41.202 138.857  19.747  1.00  0.00     0.071 C 
BRANCH  10  13
ATOM     13  C   UNL     1      40.827 135.769  19.036  1.00  0.00     0.010 A 
ATOM     14  C   UNL     1      41.626 135.909  17.903  1.00  0.00     0.019 A 
ATOM     15  C   UNL     1      39.609 135.055  18.960  1.00  0.00    -0.008 A 
ATOM     16  C   UNL     1      41.259 135.330  16.688  1.00  0.00    -0.017 A 
ATOM     17  C   UNL     1      38.783 134.921  20.097  1.00  0.00     0.009 A 
ATOM     18  C   UNL     1      39.199 134.476  17.721  1.00  0.00    -0.010 A 
ATOM     19  C   UNL     1      42.117 135.460  15.583  1.00  0.00     0.009 A 
ATOM     20  C   UNL     1      40.038 134.612  16.571  1.00  0.00    -0.010 A 
ATOM     21  C   UNL     1      37.584 134.219  20.027  1.00  0.00     0.001 A 
ATOM     22  C   UNL     1      37.966 133.779  17.684  1.00  0.00     0.009 A 
ATOM     23  C   UNL     1      41.780 134.889  14.358  1.00  0.00     0.001 A 
ATOM     24  C   UNL     1      39.719 134.052  15.308  1.00  0.00     0.009 A 
ATOM     25  C   UNL     1      37.177 133.651  18.827  1.00  0.00     0.001 A 
ATOM     26  C   UNL     1      40.585 134.191  14.221  1.00  0.00     0.001 A 
ENDBRANCH  10  13
ENDBRANCH   5   7
BRANCH   4  27
ATOM     27  C   UNL     1      44.257 134.407  20.574  1.00  0.00     0.167 C 
ATOM     28  N   UNL     1      45.160 135.053  20.243  1.00  0.00    -0.188 NA
ENDBRANCH   4  27
ENDBRANCH   1   4
BRANCH   1  29
ATOM     29  C   UNL     1      43.321 131.929  19.254  1.00  0.00     0.137 A 
ATOM     30  C   UNL     1      42.296 132.308  18.365  1.00  0.00     0.068 A 
ATOM     31  C   UNL     1      44.524 131.373  18.723  1.00  0.00     0.028 A 
ATOM     32  C   UNL     1      42.432 132.135  16.992  1.00  0.00     0.008 A 
ATOM     33  C   UNL     1      44.661 131.248  17.314  1.00  0.00     0.061 A 
ATOM     34  C   UNL     1      43.610 131.615  16.469  1.00  0.00     0.020 A 
ATOM     35  C   UNL     1      45.661 130.984  19.640  1.00  0.00     0.052 C 
BRANCH  33  36
ATOM     36  C   UNL     1      45.874 130.761  16.700  1.00  0.00     0.100 C 
ATOM     37  N   UNL     1      46.848 130.373  16.209  1.00  0.00    -0.192 NA
ENDBRANCH  33  36
ENDBRANCH   1  29
TORSDOF 6
ENDMDL


