REMARK SMILES C#CCOC(=O)C[C@@H]1CC[C@H]2C(O/C([O-])=C\CC)=NC(=O)c3c(N=[N+]=[N-])cc(Cl)c1c32
REMARK SMILES IDX 8 1 30 2 28 3 29 4 27 5 23 6 22 7 31 8 11 9 12 10 19 11
REMARK SMILES IDX 20 12 21 13 10 14 9 15 7 16 5 17 6 18 4 19 3 20 2 21 1 22
REMARK SMILES IDX 24 23 25 24 26 25 13 26 14 27 15 28 16 29 17 30 18 31
REMARK H PARENT
ROOT
ATOM      1  C   UNL     1      -2.819   1.090  -1.883  1.00  0.00     0.032 C 
ATOM      2  C   UNL     1      -1.670   2.087  -1.704  1.00  0.00    -0.021 A 
ATOM      3  C   UNL     1      -1.766   3.394  -2.229  1.00  0.00     0.045 A 
ATOM      4  Cl  UNL     1      -3.151   3.930  -3.178  1.00  0.00    -0.084 Cl
ATOM      5  C   UNL     1      -0.739   4.314  -2.018  1.00  0.00     0.032 A 
ATOM      6  C   UNL     1       0.416   3.959  -1.304  1.00  0.00     0.052 A 
ATOM      7  C   UNL     1       0.538   2.647  -0.794  1.00  0.00     0.056 A 
ATOM      8  C   UNL     1      -0.508   1.719  -0.985  1.00  0.00    -0.020 A 
ATOM      9  C   UNL     1      -0.414   0.312  -0.429  1.00  0.00     0.077 C 
ATOM     10  C   UNL     1       0.964  -0.084   0.058  1.00  0.00     0.091 C 
ATOM     11  N   UNL     1       1.907   0.794   0.219  1.00  0.00    -0.205 NA
ATOM     12  C   UNL     1       1.761   2.175  -0.103  1.00  0.00     0.278 C 
ATOM     13  O   UNL     1       2.695   2.966   0.193  1.00  0.00    -0.267 OA
ATOM     14  C   UNL     1      -0.922  -0.660  -1.498  1.00  0.00     0.016 C 
ATOM     15  C   UNL     1      -2.410  -0.415  -1.778  1.00  0.00     0.010 C 
ENDROOT
BRANCH   1  16
ATOM     16  C   UNL     1      -4.005   1.424  -0.941  1.00  0.00     0.131 C 
BRANCH  16  17
ATOM     17  C   UNL     1      -3.618   1.450   0.508  1.00  0.00     0.307 C 
ATOM     18  O   UNL     1      -3.291   2.542   1.048  1.00  0.00    -0.252 OA
BRANCH  17  19
ATOM     19  O   UNL     1      -3.594   0.261   1.240  1.00  0.00    -0.452 OA
BRANCH  19  20
ATOM     20  C   UNL     1      -3.175   0.201   2.598  1.00  0.00     0.322 C 
BRANCH  20  21
ATOM     21  C   UNL     1      -3.169  -1.193   3.038  1.00  0.00    -0.065 C 
ATOM     22  C   UNL     1      -3.158  -2.343   3.399  1.00  0.00     0.007 C 
ENDBRANCH  20  21
ENDBRANCH  19  20
ENDBRANCH  17  19
ENDBRANCH  16  17
ENDBRANCH   1  16
BRANCH   6  23
ATOM     23  N   UNL     1       1.473   4.914  -1.110  1.00  0.00    -0.060 NA
BRANCH  23  24
ATOM     24  N   UNL     1       1.415   6.068  -1.538  1.00  0.00     0.005 N 
ATOM     25  N   UNL     1       1.358   7.221  -1.964  1.00  0.00    -0.003 NA
ENDBRANCH  23  24
ENDBRANCH   6  23
BRANCH  10  26
ATOM     26  O   UNL     1       1.167  -1.423   0.420  1.00  0.00    -0.567 OA
BRANCH  26  27
ATOM     27  C   UNL     1       2.323  -1.950   1.011  1.00  0.00     0.053 C 
ATOM     28  O   UNL     1       3.446  -1.159   1.226  1.00  0.00    -0.547 OA
BRANCH  27  29
ATOM     29  C   UNL     1       2.353  -3.232   1.382  1.00  0.00    -0.003 C 
BRANCH  29  30
ATOM     30  C   UNL     1       1.187  -4.162   1.186  1.00  0.00     0.026 C 
ATOM     31  C   UNL     1       0.049  -3.848   2.156  1.00  0.00     0.008 C 
ENDBRANCH  29  30
ENDBRANCH  27  29
ENDBRANCH  26  27
ENDBRANCH  10  26
TORSDOF 11


