MODEL 1
REMARK VINA RESULT:      -7.2      0.000      0.000
REMARK SMILES [N-]=[N+]=NC(=O)c1cc2ccccc2cc1OC(=O)[C@]1(N=[N+]=[N-])C[C@@H](CO)C1
REMARK SMILES IDX 16 1 17 2 18 3 19 4 24 5 27 6 23 7 25 8 26 9 20 11 21 12
REMARK SMILES IDX 22 13 15 14 6 15 14 16 7 17 13 18 8 19 12 20 9 21 11 22
REMARK SMILES IDX 10 23 4 24 5 25 3 26 2 27 1 28
REMARK H PARENT 26 10
ROOT
ATOM      1  O   UNL     1      41.528 132.654  14.293  1.00  0.00    -0.425 OA
ENDROOT
BRANCH   1   2
ATOM      2  C   UNL     1      41.360 134.039  14.170  1.00  0.00     0.323 C 
ATOM      3  O   UNL     1      42.365 134.800  14.121  1.00  0.00    -0.251 OA
BRANCH   2   4
ATOM      4  C   UNL     1      39.964 134.615  14.073  1.00  0.00     0.147 C 
ATOM      5  C   UNL     1      38.418 134.351  15.562  1.00  0.00     0.017 C 
ATOM      6  C   UNL     1      38.847 133.591  14.306  1.00  0.00     0.031 C 
ATOM      7  C   UNL     1      39.531 135.377  15.329  1.00  0.00     0.031 C 
BRANCH   5   8
ATOM      8  C   UNL     1      37.002 134.940  15.470  1.00  0.00     0.159 C 
BRANCH   8   9
ATOM      9  O   UNL     1      36.414 134.996  16.741  1.00  0.00    -0.396 OA
ATOM     10  H   UNL     1      35.436 134.893  16.607  1.00  0.00     0.210 HD
ENDBRANCH   8   9
ENDBRANCH   5   8
BRANCH   4  11
ATOM     11  N   UNL     1      39.749 135.413  12.866  1.00  0.00    -0.075 NA
BRANCH  11  12
ATOM     12  N   UNL     1      39.102 136.461  12.897  1.00  0.00     0.002 N 
ATOM     13  N   UNL     1      38.456 137.508  12.929  1.00  0.00    -0.003 NA
ENDBRANCH  11  12
ENDBRANCH   4  11
ENDBRANCH   2   4
ENDBRANCH   1   2
BRANCH   1  14
ATOM     14  C   UNL     1      42.706 132.060  14.761  1.00  0.00     0.142 A 
ATOM     15  C   UNL     1      43.031 132.009  16.140  1.00  0.00     0.068 A 
ATOM     16  C   UNL     1      43.579 131.511  13.816  1.00  0.00     0.056 A 
ATOM     17  C   UNL     1      44.268 131.465  16.530  1.00  0.00     0.024 A 
ATOM     18  C   UNL     1      44.804 130.957  14.210  1.00  0.00    -0.015 A 
ATOM     19  C   UNL     1      45.155 130.943  15.579  1.00  0.00    -0.017 A 
ATOM     20  C   UNL     1      45.687 130.424  13.259  1.00  0.00     0.009 A 
ATOM     21  C   UNL     1      46.386 130.393  15.974  1.00  0.00     0.009 A 
ATOM     22  C   UNL     1      46.910 129.880  13.664  1.00  0.00     0.001 A 
ATOM     23  C   UNL     1      47.258 129.865  15.017  1.00  0.00     0.001 A 
BRANCH  15  24
ATOM     24  C   UNL     1      42.082 132.462  17.185  1.00  0.00     0.252 C 
ATOM     25  O   UNL     1      41.235 131.661  17.664  1.00  0.00    -0.287 OA
BRANCH  24  26
ATOM     26  N   UNL     1      42.147 133.805  17.676  1.00  0.00    -0.017 NA
BRANCH  26  27
ATOM     27  N   UNL     1      43.103 134.537  17.416  1.00  0.00     0.009 N 
ATOM     28  N   UNL     1      44.058 135.267  17.157  1.00  0.00    -0.003 NA
ENDBRANCH  26  27
ENDBRANCH  24  26
ENDBRANCH  15  24
ENDBRANCH   1  14
TORSDOF 10
ENDMDL
MODEL 2
REMARK VINA RESULT:      -7.0      2.812      3.445
REMARK SMILES [N-]=[N+]=NC(=O)c1cc2ccccc2cc1OC(=O)[C@]1(N=[N+]=[N-])C[C@@H](CO)C1
REMARK SMILES IDX 16 1 17 2 18 3 19 4 24 5 27 6 23 7 25 8 26 9 20 11 21 12
REMARK SMILES IDX 22 13 15 14 6 15 14 16 7 17 13 18 8 19 12 20 9 21 11 22
REMARK SMILES IDX 10 23 4 24 5 25 3 26 2 27 1 28
REMARK H PARENT 26 10
ROOT
ATOM      1  O   UNL     1      42.584 132.809  16.533  1.00  0.00    -0.425 OA
ENDROOT
BRANCH   1   2
ATOM      2  C   UNL     1      42.633 134.188  16.775  1.00  0.00     0.323 C 
ATOM      3  O   UNL     1      42.903 134.622  17.928  1.00  0.00    -0.251 OA
BRANCH   2   4
ATOM      4  C   UNL     1      42.381 135.154  15.637  1.00  0.00     0.147 C 
ATOM      5  C   UNL     1      42.572 137.303  15.781  1.00  0.00     0.017 C 
ATOM      6  C   UNL     1      41.432 136.305  15.991  1.00  0.00     0.031 C 
ATOM      7  C   UNL     1      43.520 136.155  15.424  1.00  0.00     0.031 C 
BRANCH   5   8
ATOM      8  C   UNL     1      42.323 138.285  14.626  1.00  0.00     0.159 C 
BRANCH   8   9
ATOM      9  O   UNL     1      42.290 139.602  15.105  1.00  0.00    -0.396 OA
ATOM     10  H   UNL     1      41.486 140.029  14.709  1.00  0.00     0.210 HD
ENDBRANCH   8   9
ENDBRANCH   5   8
BRANCH   4  11
ATOM     11  N   UNL     1      42.014 134.490  14.385  1.00  0.00    -0.075 NA
BRANCH  11  12
ATOM     12  N   UNL     1      40.909 133.964  14.239  1.00  0.00     0.002 N 
ATOM     13  N   UNL     1      39.806 133.440  14.093  1.00  0.00    -0.003 NA
ENDBRANCH  11  12
ENDBRANCH   4  11
ENDBRANCH   2   4
ENDBRANCH   1   2
BRANCH   1  14
ATOM     14  C   UNL     1      43.721 132.030  16.285  1.00  0.00     0.142 A 
ATOM     15  C   UNL     1      44.528 131.518  17.332  1.00  0.00     0.068 A 
ATOM     16  C   UNL     1      44.053 131.766  14.953  1.00  0.00     0.056 A 
ATOM     17  C   UNL     1      45.698 130.808  17.007  1.00  0.00     0.024 A 
ATOM     18  C   UNL     1      45.210 131.047  14.633  1.00  0.00    -0.015 A 
ATOM     19  C   UNL     1      46.046 130.572  15.670  1.00  0.00    -0.017 A 
ATOM     20  C   UNL     1      45.553 130.799  13.295  1.00  0.00     0.009 A 
ATOM     21  C   UNL     1      47.210 129.854  15.349  1.00  0.00     0.009 A 
ATOM     22  C   UNL     1      46.715 130.084  12.989  1.00  0.00     0.001 A 
ATOM     23  C   UNL     1      47.541 129.614  14.013  1.00  0.00     0.001 A 
BRANCH  15  24
ATOM     24  C   UNL     1      44.148 131.663  18.757  1.00  0.00     0.252 C 
ATOM     25  O   UNL     1      42.936 131.600  19.101  1.00  0.00    -0.287 OA
BRANCH  24  26
ATOM     26  N   UNL     1      45.160 131.845  19.753  1.00  0.00    -0.017 NA
BRANCH  26  27
ATOM     27  N   UNL     1      45.063 132.723  20.612  1.00  0.00     0.009 N 
ATOM     28  N   UNL     1      44.968 133.600  21.469  1.00  0.00    -0.003 NA
ENDBRANCH  26  27
ENDBRANCH  24  26
ENDBRANCH  15  24
ENDBRANCH   1  14
TORSDOF 10
ENDMDL
MODEL 3
REMARK VINA RESULT:      -7.0      2.690      3.188
REMARK SMILES [N-]=[N+]=NC(=O)c1cc2ccccc2cc1OC(=O)[C@]1(N=[N+]=[N-])C[C@@H](CO)C1
REMARK SMILES IDX 16 1 17 2 18 3 19 4 24 5 27 6 23 7 25 8 26 9 20 11 21 12
REMARK SMILES IDX 22 13 15 14 6 15 14 16 7 17 13 18 8 19 12 20 9 21 11 22
REMARK SMILES IDX 10 23 4 24 5 25 3 26 2 27 1 28
REMARK H PARENT 26 10
ROOT
ATOM      1  O   UNL     1      43.115 132.270  16.407  1.00  0.00    -0.425 OA
ENDROOT
BRANCH   1   2
ATOM      2  C   UNL     1      42.827 133.590  16.035  1.00  0.00     0.323 C 
ATOM      3  O   UNL     1      43.572 134.198  15.218  1.00  0.00    -0.251 OA
BRANCH   2   4
ATOM      4  C   UNL     1      41.603 134.274  16.604  1.00  0.00     0.147 C 
ATOM      5  C   UNL     1      41.225 134.567  18.713  1.00  0.00     0.017 C 
ATOM      6  C   UNL     1      40.889 133.472  17.699  1.00  0.00     0.031 C 
ATOM      7  C   UNL     1      41.935 135.371  17.620  1.00  0.00     0.031 C 
BRANCH   5   8
ATOM      8  C   UNL     1      39.986 135.267  19.293  1.00  0.00     0.159 C 
BRANCH   8   9
ATOM      9  O   UNL     1      40.287 135.833  20.540  1.00  0.00    -0.396 OA
ATOM     10  H   UNL     1      40.345 136.815  20.400  1.00  0.00     0.210 HD
ENDBRANCH   8   9
ENDBRANCH   5   8
BRANCH   4  11
ATOM     11  N   UNL     1      40.682 134.762  15.576  1.00  0.00    -0.075 NA
BRANCH  11  12
ATOM     12  N   UNL     1      40.134 133.988  14.789  1.00  0.00     0.002 N 
ATOM     13  N   UNL     1      39.587 133.216  14.003  1.00  0.00    -0.003 NA
ENDBRANCH  11  12
ENDBRANCH   4  11
ENDBRANCH   2   4
ENDBRANCH   1   2
BRANCH   1  14
ATOM     14  C   UNL     1      44.288 131.604  16.033  1.00  0.00     0.142 A 
ATOM     15  C   UNL     1      45.219 131.120  16.986  1.00  0.00     0.068 A 
ATOM     16  C   UNL     1      44.529 131.426  14.667  1.00  0.00     0.056 A 
ATOM     17  C   UNL     1      46.413 130.529  16.535  1.00  0.00     0.024 A 
ATOM     18  C   UNL     1      45.713 130.824  14.222  1.00  0.00    -0.015 A 
ATOM     19  C   UNL     1      46.667 130.380  15.165  1.00  0.00    -0.017 A 
ATOM     20  C   UNL     1      45.963 130.664  12.850  1.00  0.00     0.009 A 
ATOM     21  C   UNL     1      47.857 129.780  14.719  1.00  0.00     0.009 A 
ATOM     22  C   UNL     1      47.151 130.066  12.419  1.00  0.00     0.001 A 
ATOM     23  C   UNL     1      48.094 129.626  13.350  1.00  0.00     0.001 A 
BRANCH  15  24
ATOM     24  C   UNL     1      44.947 131.171  18.442  1.00  0.00     0.252 C 
ATOM     25  O   UNL     1      45.651 130.501  19.244  1.00  0.00    -0.287 OA
BRANCH  24  26
ATOM     26  N   UNL     1      43.900 132.009  18.946  1.00  0.00    -0.017 NA
BRANCH  26  27
ATOM     27  N   UNL     1      43.856 132.335  20.133  1.00  0.00     0.009 N 
ATOM     28  N   UNL     1      43.811 132.659  21.318  1.00  0.00    -0.003 NA
ENDBRANCH  26  27
ENDBRANCH  24  26
ENDBRANCH  15  24
ENDBRANCH   1  14
TORSDOF 10
ENDMDL
MODEL 4
REMARK VINA RESULT:      -7.0      3.266      4.588
REMARK SMILES [N-]=[N+]=NC(=O)c1cc2ccccc2cc1OC(=O)[C@]1(N=[N+]=[N-])C[C@@H](CO)C1
REMARK SMILES IDX 16 1 17 2 18 3 19 4 24 5 27 6 23 7 25 8 26 9 20 11 21 12
REMARK SMILES IDX 22 13 15 14 6 15 14 16 7 17 13 18 8 19 12 20 9 21 11 22
REMARK SMILES IDX 10 23 4 24 5 25 3 26 2 27 1 28
REMARK H PARENT 26 10
ROOT
ATOM      1  O   UNL     1      43.571 133.307  14.886  1.00  0.00    -0.425 OA
ENDROOT
BRANCH   1   2
ATOM      2  C   UNL     1      43.042 134.601  14.979  1.00  0.00     0.323 C 
ATOM      3  O   UNL     1      43.807 135.604  14.945  1.00  0.00    -0.251 OA
BRANCH   2   4
ATOM      4  C   UNL     1      41.545 134.789  15.099  1.00  0.00     0.147 C 
ATOM      5  C   UNL     1      40.197 135.035  13.426  1.00  0.00     0.017 C 
ATOM      6  C   UNL     1      40.999 135.988  14.315  1.00  0.00     0.031 C 
ATOM      7  C   UNL     1      40.739 133.837  14.212  1.00  0.00     0.031 C 
BRANCH   5   8
ATOM      8  C   UNL     1      38.677 135.219  13.546  1.00  0.00     0.159 C 
BRANCH   8   9
ATOM      9  O   UNL     1      38.222 136.140  12.592  1.00  0.00    -0.396 OA
ATOM     10  H   UNL     1      38.866 136.108  11.836  1.00  0.00     0.210 HD
ENDBRANCH   8   9
ENDBRANCH   5   8
BRANCH   4  11
ATOM     11  N   UNL     1      41.068 134.760  16.482  1.00  0.00    -0.075 NA
BRANCH  11  12
ATOM     12  N   UNL     1      40.415 133.809  16.915  1.00  0.00     0.002 N 
ATOM     13  N   UNL     1      39.763 132.859  17.346  1.00  0.00    -0.003 NA
ENDBRANCH  11  12
ENDBRANCH   4  11
ENDBRANCH   2   4
ENDBRANCH   1   2
BRANCH   1  14
ATOM     14  C   UNL     1      44.194 132.652  15.954  1.00  0.00     0.142 A 
ATOM     15  C   UNL     1      45.104 131.582  15.757  1.00  0.00     0.068 A 
ATOM     16  C   UNL     1      43.890 133.082  17.250  1.00  0.00     0.056 A 
ATOM     17  C   UNL     1      45.633 130.921  16.881  1.00  0.00     0.024 A 
ATOM     18  C   UNL     1      44.430 132.430  18.365  1.00  0.00    -0.015 A 
ATOM     19  C   UNL     1      45.303 131.334  18.178  1.00  0.00    -0.017 A 
ATOM     20  C   UNL     1      44.109 132.850  19.665  1.00  0.00     0.009 A 
ATOM     21  C   UNL     1      45.841 130.676  19.297  1.00  0.00     0.009 A 
ATOM     22  C   UNL     1      44.650 132.186  20.771  1.00  0.00     0.001 A 
ATOM     23  C   UNL     1      45.513 131.103  20.587  1.00  0.00     0.001 A 
BRANCH  15  24
ATOM     24  C   UNL     1      45.554 131.176  14.405  1.00  0.00     0.252 C 
ATOM     25  O   UNL     1      44.746 130.637  13.601  1.00  0.00    -0.287 OA
BRANCH  24  26
ATOM     26  N   UNL     1      46.904 131.425  13.995  1.00  0.00    -0.017 NA
BRANCH  26  27
ATOM     27  N   UNL     1      47.687 130.500  13.777  1.00  0.00     0.009 N 
ATOM     28  N   UNL     1      48.469 129.576  13.557  1.00  0.00    -0.003 NA
ENDBRANCH  26  27
ENDBRANCH  24  26
ENDBRANCH  15  24
ENDBRANCH   1  14
TORSDOF 10
ENDMDL
MODEL 5
REMARK VINA RESULT:      -7.0      2.060      2.717
REMARK SMILES [N-]=[N+]=NC(=O)c1cc2ccccc2cc1OC(=O)[C@]1(N=[N+]=[N-])C[C@@H](CO)C1
REMARK SMILES IDX 16 1 17 2 18 3 19 4 24 5 27 6 23 7 25 8 26 9 20 11 21 12
REMARK SMILES IDX 22 13 15 14 6 15 14 16 7 17 13 18 8 19 12 20 9 21 11 22
REMARK SMILES IDX 10 23 4 24 5 25 3 26 2 27 1 28
REMARK H PARENT 26 10
ROOT
ATOM      1  O   UNL     1      42.419 132.664  15.561  1.00  0.00    -0.425 OA
ENDROOT
BRANCH   1   2
ATOM      2  C   UNL     1      42.314 134.021  15.228  1.00  0.00     0.323 C 
ATOM      3  O   UNL     1      43.340 134.674  14.890  1.00  0.00    -0.251 OA
BRANCH   2   4
ATOM      4  C   UNL     1      40.959 134.693  15.256  1.00  0.00     0.147 C 
ATOM      5  C   UNL     1      39.424 134.432  13.756  1.00  0.00     0.017 C 
ATOM      6  C   UNL     1      40.586 135.406  13.951  1.00  0.00     0.031 C 
ATOM      7  C   UNL     1      39.792 133.721  15.062  1.00  0.00     0.031 C 
BRANCH   5   8
ATOM      8  C   UNL     1      38.044 135.108  13.786  1.00  0.00     0.159 C 
BRANCH   8   9
ATOM      9  O   UNL     1      37.179 134.489  12.873  1.00  0.00    -0.396 OA
ATOM     10  H   UNL     1      36.257 134.638  13.209  1.00  0.00     0.210 HD
ENDBRANCH   8   9
ENDBRANCH   5   8
BRANCH   4  11
ATOM     11  N   UNL     1      40.757 135.539  16.434  1.00  0.00    -0.075 NA
BRANCH  11  12
ATOM     12  N   UNL     1      40.766 135.066  17.571  1.00  0.00     0.002 N 
ATOM     13  N   UNL     1      40.774 134.593  18.707  1.00  0.00    -0.003 NA
ENDBRANCH  11  12
ENDBRANCH   4  11
ENDBRANCH   2   4
ENDBRANCH   1   2
BRANCH   1  14
ATOM     14  C   UNL     1      43.630 131.963  15.561  1.00  0.00     0.142 A 
ATOM     15  C   UNL     1      44.342 131.685  16.756  1.00  0.00     0.068 A 
ATOM     16  C   UNL     1      44.138 131.538  14.330  1.00  0.00     0.056 A 
ATOM     17  C   UNL     1      45.591 131.043  16.673  1.00  0.00     0.024 A 
ATOM     18  C   UNL     1      45.375 130.886  14.252  1.00  0.00    -0.015 A 
ATOM     19  C   UNL     1      46.112 130.645  15.434  1.00  0.00    -0.017 A 
ATOM     20  C   UNL     1      45.893 130.478  13.014  1.00  0.00     0.009 A 
ATOM     21  C   UNL     1      47.356 129.996  15.356  1.00  0.00     0.009 A 
ATOM     22  C   UNL     1      47.132 129.834  12.949  1.00  0.00     0.001 A 
ATOM     23  C   UNL     1      47.861 129.594  14.117  1.00  0.00     0.001 A 
BRANCH  15  24
ATOM     24  C   UNL     1      43.784 132.002  18.092  1.00  0.00     0.252 C 
ATOM     25  O   UNL     1      42.668 131.530  18.443  1.00  0.00    -0.287 OA
BRANCH  24  26
ATOM     26  N   UNL     1      44.526 132.821  19.002  1.00  0.00    -0.017 NA
BRANCH  26  27
ATOM     27  N   UNL     1      45.051 132.345  20.009  1.00  0.00     0.009 N 
ATOM     28  N   UNL     1      45.575 131.869  21.014  1.00  0.00    -0.003 NA
ENDBRANCH  26  27
ENDBRANCH  24  26
ENDBRANCH  15  24
ENDBRANCH   1  14
TORSDOF 10
ENDMDL
MODEL 6
REMARK VINA RESULT:      -6.9      2.525      3.061
REMARK SMILES [N-]=[N+]=NC(=O)c1cc2ccccc2cc1OC(=O)[C@]1(N=[N+]=[N-])C[C@@H](CO)C1
REMARK SMILES IDX 16 1 17 2 18 3 19 4 24 5 27 6 23 7 25 8 26 9 20 11 21 12
REMARK SMILES IDX 22 13 15 14 6 15 14 16 7 17 13 18 8 19 12 20 9 21 11 22
REMARK SMILES IDX 10 23 4 24 5 25 3 26 2 27 1 28
REMARK H PARENT 26 10
ROOT
ATOM      1  O   UNL     1      43.309 132.437  16.143  1.00  0.00    -0.425 OA
ENDROOT
BRANCH   1   2
ATOM      2  C   UNL     1      42.282 132.707  15.229  1.00  0.00     0.323 C 
ATOM      3  O   UNL     1      42.132 131.982  14.208  1.00  0.00    -0.251 OA
BRANCH   2   4
ATOM      4  C   UNL     1      41.339 133.863  15.487  1.00  0.00     0.147 C 
ATOM      5  C   UNL     1      40.800 135.362  14.025  1.00  0.00     0.017 C 
ATOM      6  C   UNL     1      41.900 135.231  15.081  1.00  0.00     0.031 C 
ATOM      7  C   UNL     1      40.237 133.997  14.434  1.00  0.00     0.031 C 
BRANCH   5   8
ATOM      8  C   UNL     1      39.838 136.532  14.283  1.00  0.00     0.159 C 
BRANCH   8   9
ATOM      9  O   UNL     1      39.837 137.410  13.191  1.00  0.00    -0.396 OA
ATOM     10  H   UNL     1      40.788 137.586  12.966  1.00  0.00     0.210 HD
ENDBRANCH   8   9
ENDBRANCH   5   8
BRANCH   4  11
ATOM     11  N   UNL     1      40.784 133.865  16.842  1.00  0.00    -0.075 NA
BRANCH  11  12
ATOM     12  N   UNL     1      39.625 134.221  17.058  1.00  0.00     0.002 N 
ATOM     13  N   UNL     1      38.467 134.577  17.273  1.00  0.00    -0.003 NA
ENDBRANCH  11  12
ENDBRANCH   4  11
ENDBRANCH   2   4
ENDBRANCH   1   2
BRANCH   1  14
ATOM     14  C   UNL     1      44.448 131.689  15.822  1.00  0.00     0.142 A 
ATOM     15  C   UNL     1      45.275 131.107  16.816  1.00  0.00     0.068 A 
ATOM     16  C   UNL     1      44.761 131.527  14.469  1.00  0.00     0.056 A 
ATOM     17  C   UNL     1      46.445 130.434  16.421  1.00  0.00     0.024 A 
ATOM     18  C   UNL     1      45.920 130.844  14.079  1.00  0.00    -0.015 A 
ATOM     19  C   UNL     1      46.774 130.300  15.066  1.00  0.00    -0.017 A 
ATOM     20  C   UNL     1      46.243 130.699  12.722  1.00  0.00     0.009 A 
ATOM     21  C   UNL     1      47.939 129.618  14.675  1.00  0.00     0.009 A 
ATOM     22  C   UNL     1      47.406 130.019  12.346  1.00  0.00     0.001 A 
ATOM     23  C   UNL     1      48.251 129.481  13.320  1.00  0.00     0.001 A 
BRANCH  15  24
ATOM     24  C   UNL     1      44.915 131.143  18.253  1.00  0.00     0.252 C 
ATOM     25  O   UNL     1      45.648 130.573  19.106  1.00  0.00    -0.287 OA
BRANCH  24  26
ATOM     26  N   UNL     1      43.747 131.852  18.681  1.00  0.00    -0.017 NA
BRANCH  26  27
ATOM     27  N   UNL     1      43.830 132.837  19.417  1.00  0.00     0.009 N 
ATOM     28  N   UNL     1      43.913 133.818  20.153  1.00  0.00    -0.003 NA
ENDBRANCH  26  27
ENDBRANCH  24  26
ENDBRANCH  15  24
ENDBRANCH   1  14
TORSDOF 10
ENDMDL
MODEL 7
REMARK VINA RESULT:      -6.8      3.282      4.570
REMARK SMILES [N-]=[N+]=NC(=O)c1cc2ccccc2cc1OC(=O)[C@]1(N=[N+]=[N-])C[C@@H](CO)C1
REMARK SMILES IDX 16 1 17 2 18 3 19 4 24 5 27 6 23 7 25 8 26 9 20 11 21 12
REMARK SMILES IDX 22 13 15 14 6 15 14 16 7 17 13 18 8 19 12 20 9 21 11 22
REMARK SMILES IDX 10 23 4 24 5 25 3 26 2 27 1 28
REMARK H PARENT 26 10
ROOT
ATOM      1  O   UNL     1      43.550 133.427  15.052  1.00  0.00    -0.425 OA
ENDROOT
BRANCH   1   2
ATOM      2  C   UNL     1      42.225 133.208  14.652  1.00  0.00     0.323 C 
ATOM      3  O   UNL     1      41.928 132.190  13.969  1.00  0.00    -0.251 OA
BRANCH   2   4
ATOM      4  C   UNL     1      41.150 134.190  15.063  1.00  0.00     0.147 C 
ATOM      5  C   UNL     1      40.242 135.644  13.745  1.00  0.00     0.017 C 
ATOM      6  C   UNL     1      41.452 135.645  14.681  1.00  0.00     0.031 C 
ATOM      7  C   UNL     1      39.937 134.193  14.129  1.00  0.00     0.031 C 
BRANCH   5   8
ATOM      8  C   UNL     1      39.145 136.638  14.159  1.00  0.00     0.159 C 
BRANCH   8   9
ATOM      9  O   UNL     1      39.368 137.885  13.559  1.00  0.00    -0.396 OA
ATOM     10  H   UNL     1      40.345 138.054  13.607  1.00  0.00     0.210 HD
ENDBRANCH   8   9
ENDBRANCH   5   8
BRANCH   4  11
ATOM     11  N   UNL     1      40.744 134.051  16.463  1.00  0.00    -0.075 NA
BRANCH  11  12
ATOM     12  N   UNL     1      39.563 133.889  16.774  1.00  0.00     0.002 N 
ATOM     13  N   UNL     1      38.384 133.726  17.084  1.00  0.00    -0.003 NA
ENDBRANCH  11  12
ENDBRANCH   4  11
ENDBRANCH   2   4
ENDBRANCH   1   2
BRANCH   1  14
ATOM     14  C   UNL     1      44.141 132.781  16.144  1.00  0.00     0.142 A 
ATOM     15  C   UNL     1      44.958 131.632  15.991  1.00  0.00     0.068 A 
ATOM     16  C   UNL     1      43.898 133.302  17.419  1.00  0.00     0.056 A 
ATOM     17  C   UNL     1      45.455 130.990  17.140  1.00  0.00     0.024 A 
ATOM     18  C   UNL     1      44.407 132.669  18.560  1.00  0.00    -0.015 A 
ATOM     19  C   UNL     1      45.185 131.497  18.419  1.00  0.00    -0.017 A 
ATOM     20  C   UNL     1      44.147 133.181  19.840  1.00  0.00     0.009 A 
ATOM     21  C   UNL     1      45.691 130.858  19.563  1.00  0.00     0.009 A 
ATOM     22  C   UNL     1      44.656 132.536  20.971  1.00  0.00     0.001 A 
ATOM     23  C   UNL     1      45.424 131.378  20.833  1.00  0.00     0.001 A 
BRANCH  15  24
ATOM     24  C   UNL     1      45.346 131.120  14.656  1.00  0.00     0.252 C 
ATOM     25  O   UNL     1      44.520 130.470  13.960  1.00  0.00    -0.287 OA
BRANCH  24  26
ATOM     26  N   UNL     1      46.654 131.389  14.139  1.00  0.00    -0.017 NA
BRANCH  26  27
ATOM     27  N   UNL     1      46.993 130.998  13.021  1.00  0.00     0.009 N 
ATOM     28  N   UNL     1      47.333 130.607  11.906  1.00  0.00    -0.003 NA
ENDBRANCH  26  27
ENDBRANCH  24  26
ENDBRANCH  15  24
ENDBRANCH   1  14
TORSDOF 10
ENDMDL
MODEL 8
REMARK VINA RESULT:      -6.8      2.480      3.342
REMARK SMILES [N-]=[N+]=NC(=O)c1cc2ccccc2cc1OC(=O)[C@]1(N=[N+]=[N-])C[C@@H](CO)C1
REMARK SMILES IDX 16 1 17 2 18 3 19 4 24 5 27 6 23 7 25 8 26 9 20 11 21 12
REMARK SMILES IDX 22 13 15 14 6 15 14 16 7 17 13 18 8 19 12 20 9 21 11 22
REMARK SMILES IDX 10 23 4 24 5 25 3 26 2 27 1 28
REMARK H PARENT 26 10
ROOT
ATOM      1  O   UNL     1      42.231 132.392  16.081  1.00  0.00    -0.425 OA
ENDROOT
BRANCH   1   2
ATOM      2  C   UNL     1      41.570 133.265  15.207  1.00  0.00     0.323 C 
ATOM      3  O   UNL     1      41.212 132.868  14.064  1.00  0.00    -0.251 OA
BRANCH   2   4
ATOM      4  C   UNL     1      41.268 134.679  15.652  1.00  0.00     0.147 C 
ATOM      5  C   UNL     1      42.239 136.448  14.874  1.00  0.00     0.017 C 
ATOM      6  C   UNL     1      42.509 135.492  16.038  1.00  0.00     0.031 C 
ATOM      7  C   UNL     1      40.997 135.639  14.490  1.00  0.00     0.031 C 
BRANCH   5   8
ATOM      8  C   UNL     1      41.930 137.885  15.320  1.00  0.00     0.159 C 
BRANCH   8   9
ATOM      9  O   UNL     1      42.650 138.802  14.540  1.00  0.00    -0.396 OA
ATOM     10  H   UNL     1      42.954 139.520  15.154  1.00  0.00     0.210 HD
ENDBRANCH   8   9
ENDBRANCH   5   8
BRANCH   4  11
ATOM     11  N   UNL     1      40.212 134.755  16.662  1.00  0.00    -0.075 NA
BRANCH  11  12
ATOM     12  N   UNL     1      40.478 134.790  17.865  1.00  0.00     0.002 N 
ATOM     13  N   UNL     1      40.743 134.826  19.066  1.00  0.00    -0.003 NA
ENDBRANCH  11  12
ENDBRANCH   4  11
ENDBRANCH   2   4
ENDBRANCH   1   2
BRANCH   1  14
ATOM     14  C   UNL     1      43.523 131.905  15.851  1.00  0.00     0.142 A 
ATOM     15  C   UNL     1      44.506 131.857  16.872  1.00  0.00     0.068 A 
ATOM     16  C   UNL     1      43.833 131.462  14.561  1.00  0.00     0.056 A 
ATOM     17  C   UNL     1      45.806 131.427  16.549  1.00  0.00     0.024 A 
ATOM     18  C   UNL     1      45.124 131.020  14.247  1.00  0.00    -0.015 A 
ATOM     19  C   UNL     1      46.122 131.012  15.248  1.00  0.00    -0.017 A 
ATOM     20  C   UNL     1      45.438 130.594  12.948  1.00  0.00     0.009 A 
ATOM     21  C   UNL     1      47.419 130.574  14.932  1.00  0.00     0.009 A 
ATOM     22  C   UNL     1      46.733 130.162  12.645  1.00  0.00     0.001 A 
ATOM     23  C   UNL     1      47.720 130.152  13.634  1.00  0.00     0.001 A 
BRANCH  15  24
ATOM     24  C   UNL     1      44.189 132.195  18.280  1.00  0.00     0.252 C 
ATOM     25  O   UNL     1      44.044 131.281  19.136  1.00  0.00    -0.287 OA
BRANCH  24  26
ATOM     26  N   UNL     1      44.078 133.566  18.679  1.00  0.00    -0.017 NA
BRANCH  26  27
ATOM     27  N   UNL     1      43.992 133.882  19.867  1.00  0.00     0.009 N 
ATOM     28  N   UNL     1      43.905 134.197  21.052  1.00  0.00    -0.003 NA
ENDBRANCH  26  27
ENDBRANCH  24  26
ENDBRANCH  15  24
ENDBRANCH   1  14
TORSDOF 10
ENDMDL
MODEL 9
REMARK VINA RESULT:      -6.7      2.999      5.970
REMARK SMILES [N-]=[N+]=NC(=O)c1cc2ccccc2cc1OC(=O)[C@]1(N=[N+]=[N-])C[C@@H](CO)C1
REMARK SMILES IDX 16 1 17 2 18 3 19 4 24 5 27 6 23 7 25 8 26 9 20 11 21 12
REMARK SMILES IDX 22 13 15 14 6 15 14 16 7 17 13 18 8 19 12 20 9 21 11 22
REMARK SMILES IDX 10 23 4 24 5 25 3 26 2 27 1 28
REMARK H PARENT 26 10
ROOT
ATOM      1  O   UNL     1      43.608 131.924  17.387  1.00  0.00    -0.425 OA
ENDROOT
BRANCH   1   2
ATOM      2  C   UNL     1      43.976 132.991  18.218  1.00  0.00     0.323 C 
ATOM      3  O   UNL     1      44.365 134.082  17.717  1.00  0.00    -0.251 OA
BRANCH   2   4
ATOM      4  C   UNL     1      43.882 132.833  19.720  1.00  0.00     0.147 C 
ATOM      5  C   UNL     1      44.619 131.127  20.827  1.00  0.00     0.017 C 
ATOM      6  C   UNL     1      43.286 131.495  20.173  1.00  0.00     0.031 C 
ATOM      7  C   UNL     1      45.215 132.465  20.379  1.00  0.00     0.031 C 
BRANCH   5   8
ATOM      8  C   UNL     1      44.531 130.968  22.352  1.00  0.00     0.159 C 
BRANCH   8   9
ATOM      9  O   UNL     1      45.488 131.775  22.982  1.00  0.00    -0.396 OA
ATOM     10  H   UNL     1      45.684 131.353  23.859  1.00  0.00     0.210 HD
ENDBRANCH   8   9
ENDBRANCH   5   8
BRANCH   4  11
ATOM     11  N   UNL     1      43.258 133.978  20.384  1.00  0.00    -0.075 NA
BRANCH  11  12
ATOM     12  N   UNL     1      43.511 134.253  21.559  1.00  0.00     0.002 N 
ATOM     13  N   UNL     1      43.763 134.526  22.732  1.00  0.00    -0.003 NA
ENDBRANCH  11  12
ENDBRANCH   4  11
ENDBRANCH   2   4
ENDBRANCH   1   2
BRANCH   1  14
ATOM     14  C   UNL     1      44.279 131.605  16.201  1.00  0.00     0.142 A 
ATOM     15  C   UNL     1      43.734 131.892  14.924  1.00  0.00     0.068 A 
ATOM     16  C   UNL     1      45.525 130.979  16.305  1.00  0.00     0.056 A 
ATOM     17  C   UNL     1      44.429 131.474  13.775  1.00  0.00     0.024 A 
ATOM     18  C   UNL     1      46.222 130.577  15.159  1.00  0.00    -0.015 A 
ATOM     19  C   UNL     1      45.664 130.819  13.882  1.00  0.00    -0.017 A 
ATOM     20  C   UNL     1      47.463 129.932  15.265  1.00  0.00     0.009 A 
ATOM     21  C   UNL     1      46.360 130.411  12.732  1.00  0.00     0.009 A 
ATOM     22  C   UNL     1      48.145 129.530  14.112  1.00  0.00     0.001 A 
ATOM     23  C   UNL     1      47.595 129.769  12.851  1.00  0.00     0.001 A 
BRANCH  15  24
ATOM     24  C   UNL     1      42.480 132.666  14.764  1.00  0.00     0.252 C 
ATOM     25  O   UNL     1      41.515 132.185  14.111  1.00  0.00    -0.287 OA
BRANCH  24  26
ATOM     26  N   UNL     1      42.349 133.953  15.379  1.00  0.00    -0.017 NA
BRANCH  26  27
ATOM     27  N   UNL     1      41.350 134.251  16.033  1.00  0.00     0.009 N 
ATOM     28  N   UNL     1      40.351 134.550  16.685  1.00  0.00    -0.003 NA
ENDBRANCH  26  27
ENDBRANCH  24  26
ENDBRANCH  15  24
ENDBRANCH   1  14
TORSDOF 10
ENDMDL


