REMARK SMILES C#C[C@@](O)(c1cc(N=[N+]=[N-])cc(OC(=O)[C@]2(N)C[C@@H](CO)C2)c(C(=O)N=[N+]=[N-])cc2cc1CC2)C(C)(C)C
REMARK SMILES IDX 13 1 12 2 5 3 6 4 32 5 7 6 31 7 33 8 11 9 30 10 34 11 29 12
REMARK SMILES IDX 23 13 3 14 2 15 1 16 4 17 35 19 36 20 37 21 38 22 8 23 9 24
REMARK SMILES IDX 10 25 24 26 25 27 26 28 27 29 28 30 14 31 15 32 16 33 22 34
REMARK SMILES IDX 18 35 19 36 17 37 20 40 21 41
REMARK H PARENT 4 18 17 38 17 39 21 42
ROOT
ATOM      1  O   UNL     1       1.502   0.396   1.857  1.00  0.00    -0.424 OA
ENDROOT
BRANCH   1   2
ATOM      2  C   UNL     1       0.519   1.012   1.072  1.00  0.00     0.142 A 
ATOM      3  C   UNL     1      -0.816  -0.094  -2.804  1.00  0.00    -0.000 A 
ATOM      4  C   UNL     1       0.355  -0.638  -2.194  1.00  0.00     0.018 A 
ATOM      5  C   UNL     1      -1.822   0.537  -2.020  1.00  0.00    -0.040 A 
ATOM      6  C   UNL     1       0.965  -0.263  -0.965  1.00  0.00     0.042 A 
ATOM      7  C   UNL     1      -1.962   0.344  -0.659  1.00  0.00     0.008 A 
ATOM      8  C   UNL     1      -2.534   1.802  -2.411  1.00  0.00     0.041 C 
ATOM      9  C   UNL     1       0.678   0.960  -0.324  1.00  0.00     0.058 A 
ATOM     10  C   UNL     1      -2.346   1.523  -0.077  1.00  0.00    -0.047 A 
ATOM     11  C   UNL     1      -3.038   2.370  -1.083  1.00  0.00     0.040 C 
ATOM     12  C   UNL     1      -1.787   2.068   1.090  1.00  0.00     0.019 A 
ATOM     13  C   UNL     1      -0.546   1.728   1.696  1.00  0.00     0.067 A 
BRANCH   3  14
ATOM     14  C   UNL     1      -1.032  -0.363  -4.323  1.00  0.00     0.155 C 
BRANCH  14  15
ATOM     15  C   UNL     1      -1.440   0.881  -5.027  1.00  0.00    -0.066 C 
ATOM     16  C   UNL     1      -1.749   1.883  -5.625  1.00  0.00     0.007 C 
ENDBRANCH  14  15
BRANCH  14  17
ATOM     17  O   UNL     1       0.189  -0.762  -4.914  1.00  0.00    -0.373 OA
ATOM     18  H   UNL     1       0.854  -0.031  -4.795  1.00  0.00     0.213 HD
ENDBRANCH  14  17
BRANCH  14  19
ATOM     19  C   UNL     1      -2.093  -1.516  -4.586  1.00  0.00     0.006 C 
ATOM     20  C   UNL     1      -1.714  -2.795  -3.799  1.00  0.00     0.015 C 
ATOM     21  C   UNL     1      -2.126  -1.884  -6.095  1.00  0.00     0.015 C 
ATOM     22  C   UNL     1      -3.533  -1.111  -4.174  1.00  0.00     0.015 C 
ENDBRANCH  14  19
ENDBRANCH   3  14
BRANCH   6  23
ATOM     23  N   UNL     1       1.884  -1.170  -0.337  1.00  0.00    -0.061 NA
BRANCH  23  24
ATOM     24  N   UNL     1       1.808  -2.387  -0.504  1.00  0.00     0.005 N 
ATOM     25  N   UNL     1       1.716  -3.602  -0.665  1.00  0.00    -0.003 NA
ENDBRANCH  23  24
ENDBRANCH   6  23
BRANCH  13  26
ATOM     26  C   UNL     1      -0.313   2.281   3.053  1.00  0.00     0.252 C 
ATOM     27  O   UNL     1      -0.199   1.504   4.037  1.00  0.00    -0.287 OA
BRANCH  26  28
ATOM     28  N   UNL     1      -0.246   3.693   3.279  1.00  0.00    -0.017 NA
BRANCH  28  29
ATOM     29  N   UNL     1      -0.293   4.500   2.348  1.00  0.00     0.009 N 
ATOM     30  N   UNL     1      -0.338   5.307   1.421  1.00  0.00    -0.003 NA
ENDBRANCH  28  29
ENDBRANCH  26  28
ENDBRANCH  13  26
ENDBRANCH   1   2
BRANCH   1  31
ATOM     31  C   UNL     1       1.245  -0.655   2.747  1.00  0.00     0.331 C 
ATOM     32  O   UNL     1       0.114  -1.219   2.755  1.00  0.00    -0.250 OA
BRANCH  31  33
ATOM     33  C   UNL     1       2.346  -1.130   3.672  1.00  0.00     0.116 C 
ATOM     34  C   UNL     1       3.070   0.012   4.401  1.00  0.00     0.040 C 
ATOM     35  C   UNL     1       3.646  -1.489   2.945  1.00  0.00     0.040 C 
ATOM     36  C   UNL     1       4.353  -0.319   3.635  1.00  0.00     0.019 C 
BRANCH  33  37
ATOM     37  N   UNL     1       1.925  -2.184   4.598  1.00  0.00    -0.316 NA
ATOM     38  H   UNL     1       1.126  -1.823   5.168  1.00  0.00     0.119 HD
ATOM     39  H   UNL     1       1.575  -2.998   4.043  1.00  0.00     0.119 HD
ENDBRANCH  33  37
BRANCH  36  40
ATOM     40  C   UNL     1       5.529  -0.744   4.522  1.00  0.00     0.159 C 
BRANCH  40  41
ATOM     41  O   UNL     1       5.983   0.362   5.256  1.00  0.00    -0.396 OA
ATOM     42  H   UNL     1       6.925   0.168   5.503  1.00  0.00     0.210 HD
ENDBRANCH  40  41
ENDBRANCH  36  40
ENDBRANCH  31  33
ENDBRANCH   1  31
TORSDOF 15


