MODEL 1
REMARK VINA RESULT:      -7.7      0.000      0.000
REMARK SMILES [N-]=[N+]=Nc1ccc2c3c(cc(/C(O)=N/[NH+]=[N-])c(OC(=O)[C@]4(N)C[C@@H](CO)C4)c13)C=C2
REMARK SMILES IDX 18 1 17 2 11 3 10 4 9 5 28 6 8 7 29 8 4 9 7 10 30 11 5 12
REMARK SMILES IDX 6 13 12 14 13 15 14 17 15 18 16 20 3 21 2 22 1 23 19 24
REMARK SMILES IDX 20 25 21 26 23 27 27 28 24 29 22 30 25 33 26 34
REMARK H PARENT 13 16 15 19 22 31 22 32 26 35
ROOT
ATOM      1  O   UNL     1      43.570 131.745  16.433  1.00  0.00    -0.424 OA
ENDROOT
BRANCH   1   2
ATOM      2  C   UNL     1      42.607 132.619  16.952  1.00  0.00     0.150 A 
ATOM      3  C   UNL     1      41.707 133.329  16.081  1.00  0.00     0.062 A 
ATOM      4  C   UNL     1      40.703 134.168  16.632  1.00  0.00     0.024 A 
ATOM      5  C   UNL     1      40.636 134.300  18.015  1.00  0.00    -0.016 A 
ATOM      6  C   UNL     1      42.520 132.808  18.356  1.00  0.00     0.036 A 
ATOM      7  C   UNL     1      41.517 133.648  18.812  1.00  0.00     0.000 A 
ATOM      8  C   UNL     1      39.759 135.082  18.892  1.00  0.00     0.009 C 
ATOM      9  C   UNL     1      43.347 132.203  19.341  1.00  0.00     0.049 A 
ATOM     10  C   UNL     1      41.284 133.934  20.118  1.00  0.00    -0.017 A 
ATOM     11  C   UNL     1      40.148 134.861  20.159  1.00  0.00     0.009 C 
ATOM     12  C   UNL     1      43.112 132.497  20.721  1.00  0.00     0.011 A 
ATOM     13  C   UNL     1      42.073 133.369  21.115  1.00  0.00     0.009 A 
BRANCH   3  14
ATOM     14  C   UNL     1      41.842 133.258  14.608  1.00  0.00     0.172 C 
BRANCH  14  15
ATOM     15  O   UNL     1      41.848 132.021  13.960  1.00  0.00    -0.506 OA
ATOM     16  H   UNL     1      42.603 131.359  14.079  1.00  0.00     0.293 HD
ENDBRANCH  14  15
BRANCH  14  17
ATOM     17  N   UNL     1      41.945 134.354  13.918  1.00  0.00    -0.151 NA
BRANCH  17  18
ATOM     18  N   UNL     1      40.832 135.078  13.463  1.00  0.00    -0.169 N 
ATOM     19  H   UNL     1      40.877 136.112  13.321  1.00  0.00     0.475 HD
ATOM     20  N   UNL     1      39.741 134.471  13.240  1.00  0.00    -0.151 NA
ENDBRANCH  17  18
ENDBRANCH  14  17
ENDBRANCH   3  14
BRANCH   9  21
ATOM     21  N   UNL     1      44.404 131.315  18.948  1.00  0.00    -0.060 NA
BRANCH  21  22
ATOM     22  N   UNL     1      45.385 131.098  19.662  1.00  0.00     0.005 N 
ATOM     23  N   UNL     1      46.363 130.883  20.375  1.00  0.00    -0.003 NA
ENDBRANCH  21  22
ENDBRANCH   9  21
ENDBRANCH   1   2
BRANCH   1  24
ATOM     24  C   UNL     1      44.808 132.173  15.939  1.00  0.00     0.331 C 
ATOM     25  O   UNL     1      45.065 133.406  15.848  1.00  0.00    -0.250 OA
BRANCH  24  26
ATOM     26  C   UNL     1      45.840 131.151  15.509  1.00  0.00     0.116 C 
ATOM     27  C   UNL     1      45.340 130.163  14.449  1.00  0.00     0.040 C 
ATOM     28  C   UNL     1      46.874 131.696  14.518  1.00  0.00     0.040 C 
ATOM     29  C   UNL     1      46.369 130.712  13.459  1.00  0.00     0.019 C 
BRANCH  26  30
ATOM     30  N   UNL     1      46.480 130.462  16.634  1.00  0.00    -0.316 NA
ATOM     31  H   UNL     1      46.837 129.536  16.302  1.00  0.00     0.119 HD
ATOM     32  H   UNL     1      47.305 131.024  16.947  1.00  0.00     0.119 HD
ENDBRANCH  26  30
BRANCH  29  33
ATOM     33  C   UNL     1      47.417 129.676  13.025  1.00  0.00     0.159 C 
BRANCH  33  34
ATOM     34  O   UNL     1      47.666 128.771  14.066  1.00  0.00    -0.396 OA
ATOM     35  H   UNL     1      47.630 129.291  14.910  1.00  0.00     0.210 HD
ENDBRANCH  33  34
ENDBRANCH  29  33
ENDBRANCH  24  26
ENDBRANCH   1  24
TORSDOF 12
ENDMDL
MODEL 2
REMARK VINA RESULT:      -7.0      2.517      5.115
REMARK SMILES [N-]=[N+]=Nc1ccc2c3c(cc(/C(O)=N/[NH+]=[N-])c(OC(=O)[C@]4(N)C[C@@H](CO)C4)c13)C=C2
REMARK SMILES IDX 18 1 17 2 11 3 10 4 9 5 28 6 8 7 29 8 4 9 7 10 30 11 5 12
REMARK SMILES IDX 6 13 12 14 13 15 14 17 15 18 16 20 3 21 2 22 1 23 19 24
REMARK SMILES IDX 20 25 21 26 23 27 27 28 24 29 22 30 25 33 26 34
REMARK H PARENT 13 16 15 19 22 31 22 32 26 35
ROOT
ATOM      1  O   UNL     1      43.876 131.856  17.112  1.00  0.00    -0.424 OA
ENDROOT
BRANCH   1   2
ATOM      2  C   UNL     1      44.000 133.026  17.871  1.00  0.00     0.150 A 
ATOM      3  C   UNL     1      44.439 132.976  19.241  1.00  0.00     0.062 A 
ATOM      4  C   UNL     1      44.610 134.180  19.974  1.00  0.00     0.024 A 
ATOM      5  C   UNL     1      44.318 135.385  19.345  1.00  0.00    -0.016 A 
ATOM      6  C   UNL     1      43.686 134.277  17.280  1.00  0.00     0.036 A 
ATOM      7  C   UNL     1      43.873 135.404  18.065  1.00  0.00     0.000 A 
ATOM      8  C   UNL     1      44.362 136.777  19.805  1.00  0.00     0.009 C 
ATOM      9  C   UNL     1      43.218 134.491  15.954  1.00  0.00     0.049 A 
ATOM     10  C   UNL     1      43.633 136.676  17.660  1.00  0.00    -0.017 A 
ATOM     11  C   UNL     1      43.951 137.555  18.790  1.00  0.00     0.009 C 
ATOM     12  C   UNL     1      42.961 135.828  15.516  1.00  0.00     0.011 A 
ATOM     13  C   UNL     1      43.169 136.930  16.373  1.00  0.00     0.009 A 
BRANCH   3  14
ATOM     14  C   UNL     1      44.659 131.686  19.934  1.00  0.00     0.172 C 
BRANCH  14  15
ATOM     15  O   UNL     1      45.935 131.121  19.985  1.00  0.00    -0.506 OA
ATOM     16  H   UNL     1      46.771 131.691  19.987  1.00  0.00     0.293 HD
ENDBRANCH  14  15
BRANCH  14  17
ATOM     17  N   UNL     1      43.658 131.085  20.506  1.00  0.00    -0.151 NA
BRANCH  17  18
ATOM     18  N   UNL     1      43.610 130.822  21.883  1.00  0.00    -0.169 N 
ATOM     19  H   UNL     1      42.757 130.417  22.330  1.00  0.00     0.475 HD
ATOM     20  N   UNL     1      44.613 131.100  22.608  1.00  0.00    -0.151 NA
ENDBRANCH  17  18
ENDBRANCH  14  17
ENDBRANCH   3  14
BRANCH   9  21
ATOM     21  N   UNL     1      43.005 133.375  15.077  1.00  0.00    -0.060 NA
BRANCH  21  22
ATOM     22  N   UNL     1      41.917 133.149  14.546  1.00  0.00     0.005 N 
ATOM     23  N   UNL     1      40.831 132.923  14.014  1.00  0.00    -0.003 NA
ENDBRANCH  21  22
ENDBRANCH   9  21
ENDBRANCH   1   2
BRANCH   1  24
ATOM     24  C   UNL     1      44.968 131.063  16.741  1.00  0.00     0.331 C 
ATOM     25  O   UNL     1      45.343 130.110  17.480  1.00  0.00    -0.250 OA
BRANCH  24  26
ATOM     26  C   UNL     1      45.703 131.351  15.449  1.00  0.00     0.116 C 
ATOM     27  C   UNL     1      46.915 130.446  15.201  1.00  0.00     0.040 C 
ATOM     28  C   UNL     1      45.016 130.777  14.205  1.00  0.00     0.040 C 
ATOM     29  C   UNL     1      46.226 129.870  13.963  1.00  0.00     0.019 C 
BRANCH  26  30
ATOM     30  N   UNL     1      46.039 132.768  15.275  1.00  0.00    -0.316 NA
ATOM     31  H   UNL     1      45.537 133.325  16.005  1.00  0.00     0.119 HD
ATOM     32  H   UNL     1      47.066 132.892  15.436  1.00  0.00     0.119 HD
ENDBRANCH  26  30
BRANCH  29  33
ATOM     33  C   UNL     1      46.971 130.165  12.652  1.00  0.00     0.159 C 
BRANCH  33  34
ATOM     34  O   UNL     1      47.772 131.307  12.794  1.00  0.00    -0.396 OA
ATOM     35  H   UNL     1      47.868 131.467  13.770  1.00  0.00     0.210 HD
ENDBRANCH  33  34
ENDBRANCH  29  33
ENDBRANCH  24  26
ENDBRANCH   1  24
TORSDOF 12
ENDMDL
MODEL 3
REMARK VINA RESULT:      -7.0      1.573      4.814
REMARK SMILES [N-]=[N+]=Nc1ccc2c3c(cc(/C(O)=N/[NH+]=[N-])c(OC(=O)[C@]4(N)C[C@@H](CO)C4)c13)C=C2
REMARK SMILES IDX 18 1 17 2 11 3 10 4 9 5 28 6 8 7 29 8 4 9 7 10 30 11 5 12
REMARK SMILES IDX 6 13 12 14 13 15 14 17 15 18 16 20 3 21 2 22 1 23 19 24
REMARK SMILES IDX 20 25 21 26 23 27 27 28 24 29 22 30 25 33 26 34
REMARK H PARENT 13 16 15 19 22 31 22 32 26 35
ROOT
ATOM      1  O   UNL     1      44.065 131.657  17.174  1.00  0.00    -0.424 OA
ENDROOT
BRANCH   1   2
ATOM      2  C   UNL     1      43.667 132.469  18.243  1.00  0.00     0.150 A 
ATOM      3  C   UNL     1      44.384 132.455  19.490  1.00  0.00     0.062 A 
ATOM      4  C   UNL     1      43.996 133.328  20.541  1.00  0.00     0.024 A 
ATOM      5  C   UNL     1      42.902 134.162  20.337  1.00  0.00    -0.016 A 
ATOM      6  C   UNL     1      42.539 133.317  18.091  1.00  0.00     0.036 A 
ATOM      7  C   UNL     1      42.222 134.133  19.165  1.00  0.00     0.000 A 
ATOM      8  C   UNL     1      42.236 135.146  21.197  1.00  0.00     0.009 C 
ATOM      9  C   UNL     1      41.715 133.428  16.937  1.00  0.00     0.049 A 
ATOM     10  C   UNL     1      41.186 135.009  19.191  1.00  0.00    -0.017 A 
ATOM     11  C   UNL     1      41.204 135.657  20.506  1.00  0.00     0.009 C 
ATOM     12  C   UNL     1      40.620 134.348  16.952  1.00  0.00     0.011 A 
ATOM     13  C   UNL     1      40.352 135.145  18.086  1.00  0.00     0.009 A 
BRANCH   3  14
ATOM     14  C   UNL     1      45.489 131.498  19.735  1.00  0.00     0.172 C 
BRANCH  14  15
ATOM     15  O   UNL     1      45.757 130.483  18.815  1.00  0.00    -0.506 OA
ATOM     16  H   UNL     1      46.240 129.635  19.081  1.00  0.00     0.293 HD
ENDBRANCH  14  15
BRANCH  14  17
ATOM     17  N   UNL     1      46.214 131.615  20.806  1.00  0.00    -0.151 NA
BRANCH  17  18
ATOM     18  N   UNL     1      46.095 130.752  21.907  1.00  0.00    -0.169 N 
ATOM     19  H   UNL     1      46.884 130.134  22.200  1.00  0.00     0.475 HD
ATOM     20  N   UNL     1      45.002 130.703  22.548  1.00  0.00    -0.151 NA
ENDBRANCH  17  18
ENDBRANCH  14  17
ENDBRANCH   3  14
BRANCH   9  21
ATOM     21  N   UNL     1      41.983 132.621  15.780  1.00  0.00    -0.060 NA
BRANCH  21  22
ATOM     22  N   UNL     1      41.687 132.982  14.640  1.00  0.00     0.005 N 
ATOM     23  N   UNL     1      41.392 133.344  13.503  1.00  0.00    -0.003 NA
ENDBRANCH  21  22
ENDBRANCH   9  21
ENDBRANCH   1   2
BRANCH   1  24
ATOM     24  C   UNL     1      44.863 132.113  16.118  1.00  0.00     0.331 C 
ATOM     25  O   UNL     1      45.245 133.317  16.083  1.00  0.00    -0.250 OA
BRANCH  24  26
ATOM     26  C   UNL     1      45.265 131.160  15.012  1.00  0.00     0.116 C 
ATOM     27  C   UNL     1      46.610 131.494  14.356  1.00  0.00     0.040 C 
ATOM     28  C   UNL     1      45.838 129.832  15.518  1.00  0.00     0.040 C 
ATOM     29  C   UNL     1      47.182 130.170  14.866  1.00  0.00     0.019 C 
BRANCH  26  30
ATOM     30  N   UNL     1      44.211 130.950  14.014  1.00  0.00    -0.316 NA
ATOM     31  H   UNL     1      43.417 130.440  14.466  1.00  0.00     0.119 HD
ATOM     32  H   UNL     1      43.851 131.882  13.704  1.00  0.00     0.119 HD
ENDBRANCH  26  30
BRANCH  29  33
ATOM     33  C   UNL     1      47.588 129.203  13.743  1.00  0.00     0.159 C 
BRANCH  33  34
ATOM     34  O   UNL     1      48.982 129.171  13.609  1.00  0.00    -0.396 OA
ATOM     35  H   UNL     1      49.302 128.395  14.139  1.00  0.00     0.210 HD
ENDBRANCH  33  34
ENDBRANCH  29  33
ENDBRANCH  24  26
ENDBRANCH   1  24
TORSDOF 12
ENDMDL
MODEL 4
REMARK VINA RESULT:      -7.0      2.682      5.238
REMARK SMILES [N-]=[N+]=Nc1ccc2c3c(cc(/C(O)=N/[NH+]=[N-])c(OC(=O)[C@]4(N)C[C@@H](CO)C4)c13)C=C2
REMARK SMILES IDX 18 1 17 2 11 3 10 4 9 5 28 6 8 7 29 8 4 9 7 10 30 11 5 12
REMARK SMILES IDX 6 13 12 14 13 15 14 17 15 18 16 20 3 21 2 22 1 23 19 24
REMARK SMILES IDX 20 25 21 26 23 27 27 28 24 29 22 30 25 33 26 34
REMARK H PARENT 13 16 15 19 22 31 22 32 26 35
ROOT
ATOM      1  O   UNL     1      43.623 132.416  17.370  1.00  0.00    -0.424 OA
ENDROOT
BRANCH   1   2
ATOM      2  C   UNL     1      43.752 133.715  17.877  1.00  0.00     0.150 A 
ATOM      3  C   UNL     1      44.175 133.942  19.234  1.00  0.00     0.062 A 
ATOM      4  C   UNL     1      44.351 135.268  19.709  1.00  0.00     0.024 A 
ATOM      5  C   UNL     1      44.079 136.322  18.844  1.00  0.00    -0.016 A 
ATOM      6  C   UNL     1      43.457 134.823  17.040  1.00  0.00     0.036 A 
ATOM      7  C   UNL     1      43.648 136.084  17.582  1.00  0.00     0.000 A 
ATOM      8  C   UNL     1      44.133 137.778  19.012  1.00  0.00     0.009 C 
ATOM      9  C   UNL     1      43.006 134.766  15.693  1.00  0.00     0.049 A 
ATOM     10  C   UNL     1      43.426 137.249  16.923  1.00  0.00    -0.017 A 
ATOM     11  C   UNL     1      43.742 138.336  17.855  1.00  0.00     0.009 C 
ATOM     12  C   UNL     1      42.768 135.987  14.988  1.00  0.00     0.011 A 
ATOM     13  C   UNL     1      42.979 137.239  15.606  1.00  0.00     0.009 A 
BRANCH   3  14
ATOM     14  C   UNL     1      44.373 132.817  20.178  1.00  0.00     0.172 C 
BRANCH  14  15
ATOM     15  O   UNL     1      43.351 131.891  20.395  1.00  0.00    -0.506 OA
ATOM     16  H   UNL     1      42.449 131.977  19.946  1.00  0.00     0.293 HD
ENDBRANCH  14  15
BRANCH  14  17
ATOM     17  N   UNL     1      45.509 132.691  20.798  1.00  0.00    -0.151 NA
BRANCH  17  18
ATOM     18  N   UNL     1      45.952 133.598  21.773  1.00  0.00    -0.169 N 
ATOM     19  H   UNL     1      45.314 133.941  22.526  1.00  0.00     0.475 HD
ATOM     20  N   UNL     1      47.143 134.031  21.729  1.00  0.00    -0.151 NA
ENDBRANCH  17  18
ENDBRANCH  14  17
ENDBRANCH   3  14
BRANCH   9  21
ATOM     21  N   UNL     1      42.791 133.496  15.058  1.00  0.00    -0.060 NA
BRANCH  21  22
ATOM     22  N   UNL     1      41.719 133.193  14.532  1.00  0.00     0.005 N 
ATOM     23  N   UNL     1      40.650 132.892  14.005  1.00  0.00    -0.003 NA
ENDBRANCH  21  22
ENDBRANCH   9  21
ENDBRANCH   1   2
BRANCH   1  24
ATOM     24  C   UNL     1      44.701 131.533  17.241  1.00  0.00     0.331 C 
ATOM     25  O   UNL     1      45.040 130.796  18.209  1.00  0.00    -0.250 OA
BRANCH  24  26
ATOM     26  C   UNL     1      45.466 131.465  15.935  1.00  0.00     0.116 C 
ATOM     27  C   UNL     1      46.684 130.535  15.970  1.00  0.00     0.040 C 
ATOM     28  C   UNL     1      44.809 130.570  14.880  1.00  0.00     0.040 C 
ATOM     29  C   UNL     1      46.025 129.640  14.920  1.00  0.00     0.019 C 
BRANCH  26  30
ATOM     30  N   UNL     1      45.805 132.784  15.391  1.00  0.00    -0.316 NA
ATOM     31  H   UNL     1      46.613 132.680  14.735  1.00  0.00     0.119 HD
ATOM     32  H   UNL     1      44.992 133.138  14.836  1.00  0.00     0.119 HD
ENDBRANCH  26  30
BRANCH  29  33
ATOM     33  C   UNL     1      46.800 129.574  13.595  1.00  0.00     0.159 C 
BRANCH  33  34
ATOM     34  O   UNL     1      47.941 128.773  13.738  1.00  0.00    -0.396 OA
ATOM     35  H   UNL     1      47.621 127.854  13.935  1.00  0.00     0.210 HD
ENDBRANCH  33  34
ENDBRANCH  29  33
ENDBRANCH  24  26
ENDBRANCH   1  24
TORSDOF 12
ENDMDL
MODEL 5
REMARK VINA RESULT:      -6.8      2.778      5.847
REMARK SMILES [N-]=[N+]=Nc1ccc2c3c(cc(/C(O)=N/[NH+]=[N-])c(OC(=O)[C@]4(N)C[C@@H](CO)C4)c13)C=C2
REMARK SMILES IDX 18 1 17 2 11 3 10 4 9 5 28 6 8 7 29 8 4 9 7 10 30 11 5 12
REMARK SMILES IDX 6 13 12 14 13 15 14 17 15 18 16 20 3 21 2 22 1 23 19 24
REMARK SMILES IDX 20 25 21 26 23 27 27 28 24 29 22 30 25 33 26 34
REMARK H PARENT 13 16 15 19 22 31 22 32 26 35
ROOT
ATOM      1  O   UNL     1      42.328 132.422  16.003  1.00  0.00    -0.424 OA
ENDROOT
BRANCH   1   2
ATOM      2  C   UNL     1      43.338 131.990  16.872  1.00  0.00     0.150 A 
ATOM      3  C   UNL     1      44.583 131.478  16.363  1.00  0.00     0.062 A 
ATOM      4  C   UNL     1      45.614 131.097  17.262  1.00  0.00     0.024 A 
ATOM      5  C   UNL     1      45.374 131.209  18.627  1.00  0.00    -0.016 A 
ATOM      6  C   UNL     1      43.128 132.058  18.274  1.00  0.00     0.036 A 
ATOM      7  C   UNL     1      44.181 131.662  19.083  1.00  0.00     0.000 A 
ATOM      8  C   UNL     1      46.191 130.892  19.804  1.00  0.00     0.009 C 
ATOM      9  C   UNL     1      41.951 132.513  18.930  1.00  0.00     0.049 A 
ATOM     10  C   UNL     1      44.158 131.670  20.440  1.00  0.00    -0.017 A 
ATOM     11  C   UNL     1      45.459 131.171  20.895  1.00  0.00     0.009 C 
ATOM     12  C   UNL     1      41.915 132.527  20.359  1.00  0.00     0.011 A 
ATOM     13  C   UNL     1      43.025 132.102  21.122  1.00  0.00     0.009 A 
BRANCH   3  14
ATOM     14  C   UNL     1      44.798 131.274  14.911  1.00  0.00     0.172 C 
BRANCH  14  15
ATOM     15  O   UNL     1      43.790 130.715  14.122  1.00  0.00    -0.506 OA
ATOM     16  H   UNL     1      43.263 131.267  13.459  1.00  0.00     0.293 HD
ENDBRANCH  14  15
BRANCH  14  17
ATOM     17  N   UNL     1      45.926 131.628  14.373  1.00  0.00    -0.151 NA
BRANCH  17  18
ATOM     18  N   UNL     1      46.621 130.823  13.456  1.00  0.00    -0.169 N 
ATOM     19  H   UNL     1      47.045 131.227  12.591  1.00  0.00     0.475 HD
ATOM     20  N   UNL     1      46.718 129.576  13.667  1.00  0.00    -0.151 NA
ENDBRANCH  17  18
ENDBRANCH  14  17
ENDBRANCH   3  14
BRANCH   9  21
ATOM     21  N   UNL     1      40.820 132.947  18.161  1.00  0.00    -0.060 NA
BRANCH  21  22
ATOM     22  N   UNL     1      39.973 133.721  18.610  1.00  0.00     0.005 N 
ATOM     23  N   UNL     1      39.127 134.492  19.060  1.00  0.00    -0.003 NA
ENDBRANCH  21  22
ENDBRANCH   9  21
ENDBRANCH   1   2
BRANCH   1  24
ATOM     24  C   UNL     1      42.314 133.691  15.413  1.00  0.00     0.331 C 
ATOM     25  O   UNL     1      43.316 134.453  15.519  1.00  0.00    -0.250 OA
BRANCH  24  26
ATOM     26  C   UNL     1      41.091 134.152  14.649  1.00  0.00     0.116 C 
ATOM     27  C   UNL     1      40.223 135.164  15.406  1.00  0.00     0.040 C 
ATOM     28  C   UNL     1      41.391 135.207  13.578  1.00  0.00     0.040 C 
ATOM     29  C   UNL     1      40.529 136.217  14.339  1.00  0.00     0.019 C 
BRANCH  26  30
ATOM     30  N   UNL     1      40.291 133.047  14.111  1.00  0.00    -0.316 NA
ATOM     31  H   UNL     1      40.892 132.193  14.054  1.00  0.00     0.119 HD
ATOM     32  H   UNL     1      39.512 132.840  14.779  1.00  0.00     0.119 HD
ENDBRANCH  26  30
BRANCH  29  33
ATOM     33  C   UNL     1      39.287 136.683  13.563  1.00  0.00     0.159 C 
BRANCH  33  34
ATOM     34  O   UNL     1      39.536 137.913  12.940  1.00  0.00    -0.396 OA
ATOM     35  H   UNL     1      39.810 138.544  13.656  1.00  0.00     0.210 HD
ENDBRANCH  33  34
ENDBRANCH  29  33
ENDBRANCH  24  26
ENDBRANCH   1  24
TORSDOF 12
ENDMDL
MODEL 6
REMARK VINA RESULT:      -6.8      2.527      6.209
REMARK SMILES [N-]=[N+]=Nc1ccc2c3c(cc(/C(O)=N/[NH+]=[N-])c(OC(=O)[C@]4(N)C[C@@H](CO)C4)c13)C=C2
REMARK SMILES IDX 18 1 17 2 11 3 10 4 9 5 28 6 8 7 29 8 4 9 7 10 30 11 5 12
REMARK SMILES IDX 6 13 12 14 13 15 14 17 15 18 16 20 3 21 2 22 1 23 19 24
REMARK SMILES IDX 20 25 21 26 23 27 27 28 24 29 22 30 25 33 26 34
REMARK H PARENT 13 16 15 19 22 31 22 32 26 35
ROOT
ATOM      1  O   UNL     1      41.980 133.643  17.095  1.00  0.00    -0.424 OA
ENDROOT
BRANCH   1   2
ATOM      2  C   UNL     1      42.685 132.817  16.211  1.00  0.00     0.150 A 
ATOM      3  C   UNL     1      42.376 132.801  14.806  1.00  0.00     0.062 A 
ATOM      4  C   UNL     1      43.141 131.996  13.921  1.00  0.00     0.024 A 
ATOM      5  C   UNL     1      44.163 131.217  14.452  1.00  0.00    -0.016 A 
ATOM      6  C   UNL     1      43.719 131.983  16.712  1.00  0.00     0.036 A 
ATOM      7  C   UNL     1      44.413 131.223  15.784  1.00  0.00     0.000 A 
ATOM      8  C   UNL     1      45.109 130.277  13.841  1.00  0.00     0.009 C 
ATOM      9  C   UNL     1      44.126 131.866  18.069  1.00  0.00     0.049 A 
ATOM     10  C   UNL     1      45.433 130.380  16.084  1.00  0.00    -0.017 A 
ATOM     11  C   UNL     1      45.875 129.774  14.823  1.00  0.00     0.009 C 
ATOM     12  C   UNL     1      45.200 130.981  18.398  1.00  0.00     0.011 A 
ATOM     13  C   UNL     1      45.860 130.231  17.400  1.00  0.00     0.009 A 
BRANCH   3  14
ATOM     14  C   UNL     1      41.227 133.560  14.260  1.00  0.00     0.172 C 
BRANCH  14  15
ATOM     15  O   UNL     1      39.962 132.973  14.193  1.00  0.00    -0.506 OA
ATOM     16  H   UNL     1      39.553 132.495  14.985  1.00  0.00     0.293 HD
ENDBRANCH  14  15
BRANCH  14  17
ATOM     17  N   UNL     1      41.400 134.782  13.852  1.00  0.00    -0.151 NA
BRANCH  17  18
ATOM     18  N   UNL     1      40.344 135.694  13.702  1.00  0.00    -0.169 N 
ATOM     19  H   UNL     1      40.212 136.488  14.368  1.00  0.00     0.475 HD
ATOM     20  N   UNL     1      39.518 135.542  12.752  1.00  0.00    -0.151 NA
ENDBRANCH  17  18
ENDBRANCH  14  17
ENDBRANCH   3  14
BRANCH   9  21
ATOM     21  N   UNL     1      43.461 132.626  19.089  1.00  0.00    -0.060 NA
BRANCH  21  22
ATOM     22  N   UNL     1      43.528 132.331  20.284  1.00  0.00     0.005 N 
ATOM     23  N   UNL     1      43.593 132.037  21.476  1.00  0.00    -0.003 NA
ENDBRANCH  21  22
ENDBRANCH   9  21
ENDBRANCH   1   2
BRANCH   1  24
ATOM     24  C   UNL     1      42.223 135.016  17.221  1.00  0.00     0.331 C 
ATOM     25  O   UNL     1      43.392 135.472  17.070  1.00  0.00    -0.250 OA
BRANCH  24  26
ATOM     26  C   UNL     1      41.081 135.956  17.543  1.00  0.00     0.116 C 
ATOM     27  C   UNL     1      40.667 135.957  19.019  1.00  0.00     0.040 C 
ATOM     28  C   UNL     1      41.502 137.425  17.657  1.00  0.00     0.040 C 
ATOM     29  C   UNL     1      41.093 137.422  19.133  1.00  0.00     0.019 C 
BRANCH  26  30
ATOM     30  N   UNL     1      39.925 135.792  16.656  1.00  0.00    -0.316 NA
ATOM     31  H   UNL     1      40.269 135.656  15.677  1.00  0.00     0.119 HD
ATOM     32  H   UNL     1      39.410 134.923  16.932  1.00  0.00     0.119 HD
ENDBRANCH  26  30
BRANCH  29  33
ATOM     33  C   UNL     1      39.932 138.376  19.457  1.00  0.00     0.159 C 
BRANCH  33  34
ATOM     34  O   UNL     1      40.362 139.385  20.329  1.00  0.00    -0.396 OA
ATOM     35  H   UNL     1      40.623 138.938  21.176  1.00  0.00     0.210 HD
ENDBRANCH  33  34
ENDBRANCH  29  33
ENDBRANCH  24  26
ENDBRANCH   1  24
TORSDOF 12
ENDMDL
MODEL 7
REMARK VINA RESULT:      -6.7      2.427      6.336
REMARK SMILES [N-]=[N+]=Nc1ccc2c3c(cc(/C(O)=N/[NH+]=[N-])c(OC(=O)[C@]4(N)C[C@@H](CO)C4)c13)C=C2
REMARK SMILES IDX 18 1 17 2 11 3 10 4 9 5 28 6 8 7 29 8 4 9 7 10 30 11 5 12
REMARK SMILES IDX 6 13 12 14 13 15 14 17 15 18 16 20 3 21 2 22 1 23 19 24
REMARK SMILES IDX 20 25 21 26 23 27 27 28 24 29 22 30 25 33 26 34
REMARK H PARENT 13 16 15 19 22 31 22 32 26 35
ROOT
ATOM      1  O   UNL     1      42.160 133.406  17.298  1.00  0.00    -0.424 OA
ENDROOT
BRANCH   1   2
ATOM      2  C   UNL     1      42.828 132.682  16.302  1.00  0.00     0.150 A 
ATOM      3  C   UNL     1      42.432 132.784  14.922  1.00  0.00     0.062 A 
ATOM      4  C   UNL     1      43.158 132.084  13.923  1.00  0.00     0.024 A 
ATOM      5  C   UNL     1      44.228 131.288  14.319  1.00  0.00    -0.016 A 
ATOM      6  C   UNL     1      43.908 131.835  16.662  1.00  0.00     0.036 A 
ATOM      7  C   UNL     1      44.560 131.181  15.628  1.00  0.00     0.000 A 
ATOM      8  C   UNL     1      45.155 130.434  13.569  1.00  0.00     0.009 C 
ATOM      9  C   UNL     1      44.402 131.608  17.976  1.00  0.00     0.049 A 
ATOM     10  C   UNL     1      45.615 130.343  15.788  1.00  0.00    -0.017 A 
ATOM     11  C   UNL     1      45.991 129.866  14.453  1.00  0.00     0.009 C 
ATOM     12  C   UNL     1      45.514 130.727  18.157  1.00  0.00     0.011 A 
ATOM     13  C   UNL     1      46.127 130.089  17.056  1.00  0.00     0.009 A 
BRANCH   3  14
ATOM     14  C   UNL     1      41.235 133.557  14.518  1.00  0.00     0.172 C 
BRANCH  14  15
ATOM     15  O   UNL     1      40.131 132.907  13.962  1.00  0.00    -0.506 OA
ATOM     16  H   UNL     1      39.495 132.358  14.525  1.00  0.00     0.293 HD
ENDBRANCH  14  15
BRANCH  14  17
ATOM     17  N   UNL     1      41.212 134.845  14.694  1.00  0.00    -0.151 NA
BRANCH  17  18
ATOM     18  N   UNL     1      42.323 135.668  14.453  1.00  0.00    -0.169 N 
ATOM     19  H   UNL     1      42.692 135.814  13.486  1.00  0.00     0.475 HD
ATOM     20  N   UNL     1      42.909 136.229  15.428  1.00  0.00    -0.151 NA
ENDBRANCH  17  18
ENDBRANCH  14  17
ENDBRANCH   3  14
BRANCH   9  21
ATOM     21  N   UNL     1      43.784 132.254  19.099  1.00  0.00    -0.060 NA
BRANCH  21  22
ATOM     22  N   UNL     1      44.426 132.918  19.915  1.00  0.00     0.005 N 
ATOM     23  N   UNL     1      45.069 133.580  20.727  1.00  0.00    -0.003 NA
ENDBRANCH  21  22
ENDBRANCH   9  21
ENDBRANCH   1   2
BRANCH   1  24
ATOM     24  C   UNL     1      40.848 133.129  17.698  1.00  0.00     0.331 C 
ATOM     25  O   UNL     1      40.492 131.941  17.936  1.00  0.00    -0.250 OA
BRANCH  24  26
ATOM     26  C   UNL     1      39.851 134.260  17.842  1.00  0.00     0.116 C 
ATOM     27  C   UNL     1      38.471 133.959  17.247  1.00  0.00     0.040 C 
ATOM     28  C   UNL     1      39.230 134.364  19.239  1.00  0.00     0.040 C 
ATOM     29  C   UNL     1      37.853 134.057  18.643  1.00  0.00     0.019 C 
BRANCH  26  30
ATOM     30  N   UNL     1      40.369 135.553  17.382  1.00  0.00    -0.316 NA
ATOM     31  H   UNL     1      40.658 136.115  18.216  1.00  0.00     0.119 HD
ATOM     32  H   UNL     1      41.224 135.386  16.803  1.00  0.00     0.119 HD
ENDBRANCH  26  30
BRANCH  29  33
ATOM     33  C   UNL     1      36.843 135.206  18.788  1.00  0.00     0.159 C 
BRANCH  33  34
ATOM     34  O   UNL     1      37.308 136.348  18.122  1.00  0.00    -0.396 OA
ATOM     35  H   UNL     1      37.053 136.244  17.168  1.00  0.00     0.210 HD
ENDBRANCH  33  34
ENDBRANCH  29  33
ENDBRANCH  24  26
ENDBRANCH   1  24
TORSDOF 12
ENDMDL
MODEL 8
REMARK VINA RESULT:      -6.7      3.055      5.682
REMARK SMILES [N-]=[N+]=Nc1ccc2c3c(cc(/C(O)=N/[NH+]=[N-])c(OC(=O)[C@]4(N)C[C@@H](CO)C4)c13)C=C2
REMARK SMILES IDX 18 1 17 2 11 3 10 4 9 5 28 6 8 7 29 8 4 9 7 10 30 11 5 12
REMARK SMILES IDX 6 13 12 14 13 15 14 17 15 18 16 20 3 21 2 22 1 23 19 24
REMARK SMILES IDX 20 25 21 26 23 27 27 28 24 29 22 30 25 33 26 34
REMARK H PARENT 13 16 15 19 22 31 22 32 26 35
ROOT
ATOM      1  O   UNL     1      44.074 134.540  15.678  1.00  0.00    -0.424 OA
ENDROOT
BRANCH   1   2
ATOM      2  C   UNL     1      44.078 134.119  17.014  1.00  0.00     0.150 A 
ATOM      3  C   UNL     1      43.537 134.953  18.054  1.00  0.00     0.062 A 
ATOM      4  C   UNL     1      43.503 134.483  19.393  1.00  0.00     0.024 A 
ATOM      5  C   UNL     1      44.025 133.223  19.665  1.00  0.00    -0.016 A 
ATOM      6  C   UNL     1      44.626 132.852  17.343  1.00  0.00     0.036 A 
ATOM      7  C   UNL     1      44.560 132.470  18.674  1.00  0.00     0.000 A 
ATOM      8  C   UNL     1      44.165 132.458  20.909  1.00  0.00     0.009 C 
ATOM      9  C   UNL     1      45.218 131.927  16.440  1.00  0.00     0.049 A 
ATOM     10  C   UNL     1      45.025 131.293  19.163  1.00  0.00    -0.017 A 
ATOM     11  C   UNL     1      44.765 131.296  20.607  1.00  0.00     0.009 C 
ATOM     12  C   UNL     1      45.711 130.684  16.944  1.00  0.00     0.011 A 
ATOM     13  C   UNL     1      45.615 130.362  18.315  1.00  0.00     0.009 A 
BRANCH   3  14
ATOM     14  C   UNL     1      43.069 136.331  17.774  1.00  0.00     0.172 C 
BRANCH  14  15
ATOM     15  O   UNL     1      43.944 137.276  17.235  1.00  0.00    -0.506 OA
ATOM     16  H   UNL     1      44.892 137.379  17.571  1.00  0.00     0.293 HD
ENDBRANCH  14  15
BRANCH  14  17
ATOM     17  N   UNL     1      41.835 136.653  18.023  1.00  0.00    -0.151 NA
BRANCH  17  18
ATOM     18  N   UNL     1      41.479 137.720  18.862  1.00  0.00    -0.169 N 
ATOM     19  H   UNL     1      40.968 138.554  18.493  1.00  0.00     0.475 HD
ATOM     20  N   UNL     1      41.801 137.687  20.088  1.00  0.00    -0.151 NA
ENDBRANCH  17  18
ENDBRANCH  14  17
ENDBRANCH   3  14
BRANCH   9  21
ATOM     21  N   UNL     1      45.317 132.247  15.044  1.00  0.00    -0.060 NA
BRANCH  21  22
ATOM     22  N   UNL     1      45.450 131.383  14.175  1.00  0.00     0.005 N 
ATOM     23  N   UNL     1      45.580 130.520  13.310  1.00  0.00    -0.003 NA
ENDBRANCH  21  22
ENDBRANCH   9  21
ENDBRANCH   1   2
BRANCH   1  24
ATOM     24  C   UNL     1      42.930 135.020  15.028  1.00  0.00     0.331 C 
ATOM     25  O   UNL     1      42.863 136.228  14.666  1.00  0.00    -0.250 OA
BRANCH  24  26
ATOM     26  C   UNL     1      41.768 134.086  14.763  1.00  0.00     0.116 C 
ATOM     27  C   UNL     1      40.631 134.195  15.786  1.00  0.00     0.040 C 
ATOM     28  C   UNL     1      40.824 134.571  13.658  1.00  0.00     0.040 C 
ATOM     29  C   UNL     1      39.691 134.684  14.681  1.00  0.00     0.019 C 
BRANCH  26  30
ATOM     30  N   UNL     1      42.178 132.693  14.553  1.00  0.00    -0.316 NA
ATOM     31  H   UNL     1      41.402 132.064  14.865  1.00  0.00     0.119 HD
ATOM     32  H   UNL     1      42.319 132.536  13.529  1.00  0.00     0.119 HD
ENDBRANCH  26  30
BRANCH  29  33
ATOM     33  C   UNL     1      38.514 133.734  14.412  1.00  0.00     0.159 C 
BRANCH  33  34
ATOM     34  O   UNL     1      37.341 134.466  14.185  1.00  0.00    -0.396 OA
ATOM     35  H   UNL     1      36.587 133.824  14.253  1.00  0.00     0.210 HD
ENDBRANCH  33  34
ENDBRANCH  29  33
ENDBRANCH  24  26
ENDBRANCH   1  24
TORSDOF 12
ENDMDL
MODEL 9
REMARK VINA RESULT:      -6.7      2.565      6.286
REMARK SMILES [N-]=[N+]=Nc1ccc2c3c(cc(/C(O)=N/[NH+]=[N-])c(OC(=O)[C@]4(N)C[C@@H](CO)C4)c13)C=C2
REMARK SMILES IDX 18 1 17 2 11 3 10 4 9 5 28 6 8 7 29 8 4 9 7 10 30 11 5 12
REMARK SMILES IDX 6 13 12 14 13 15 14 17 15 18 16 20 3 21 2 22 1 23 19 24
REMARK SMILES IDX 20 25 21 26 23 27 27 28 24 29 22 30 25 33 26 34
REMARK H PARENT 13 16 15 19 22 31 22 32 26 35
ROOT
ATOM      1  O   UNL     1      42.383 133.584  18.008  1.00  0.00    -0.424 OA
ENDROOT
BRANCH   1   2
ATOM      2  C   UNL     1      42.849 132.868  16.899  1.00  0.00     0.150 A 
ATOM      3  C   UNL     1      42.268 133.057  15.597  1.00  0.00     0.062 A 
ATOM      4  C   UNL     1      42.793 132.361  14.477  1.00  0.00     0.024 A 
ATOM      5  C   UNL     1      43.852 131.483  14.682  1.00  0.00    -0.016 A 
ATOM      6  C   UNL     1      43.911 131.940  17.065  1.00  0.00     0.036 A 
ATOM      7  C   UNL     1      44.361 131.295  15.924  1.00  0.00     0.000 A 
ATOM      8  C   UNL     1      44.601 130.608  13.774  1.00  0.00     0.009 C 
ATOM      9  C   UNL     1      44.571 131.622  18.284  1.00  0.00     0.049 A 
ATOM     10  C   UNL     1      45.369 130.387  15.897  1.00  0.00    -0.017 A 
ATOM     11  C   UNL     1      45.516 129.950  14.504  1.00  0.00     0.009 C 
ATOM     12  C   UNL     1      45.635 130.666  18.267  1.00  0.00     0.011 A 
ATOM     13  C   UNL     1      46.039 130.043  17.066  1.00  0.00     0.009 A 
BRANCH   3  14
ATOM     14  C   UNL     1      41.080 133.922  15.401  1.00  0.00     0.172 C 
BRANCH  14  15
ATOM     15  O   UNL     1      39.908 133.681  16.120  1.00  0.00    -0.506 OA
ATOM     16  H   UNL     1      39.723 132.787  16.557  1.00  0.00     0.293 HD
ENDBRANCH  14  15
BRANCH  14  17
ATOM     17  N   UNL     1      41.138 134.913  14.563  1.00  0.00    -0.151 NA
BRANCH  17  18
ATOM     18  N   UNL     1      40.241 135.992  14.592  1.00  0.00    -0.169 N 
ATOM     19  H   UNL     1      39.210 135.839  14.652  1.00  0.00     0.475 HD
ATOM     20  N   UNL     1      40.687 137.177  14.521  1.00  0.00    -0.151 NA
ENDBRANCH  17  18
ENDBRANCH  14  17
ENDBRANCH   3  14
BRANCH   9  21
ATOM     21  N   UNL     1      44.167 132.252  19.508  1.00  0.00    -0.060 NA
BRANCH  21  22
ATOM     22  N   UNL     1      43.498 131.669  20.363  1.00  0.00     0.005 N 
ATOM     23  N   UNL     1      42.828 131.087  21.214  1.00  0.00    -0.003 NA
ENDBRANCH  21  22
ENDBRANCH   9  21
ENDBRANCH   1   2
BRANCH   1  24
ATOM     24  C   UNL     1      42.566 134.964  18.162  1.00  0.00     0.331 C 
ATOM     25  O   UNL     1      43.688 135.488  17.918  1.00  0.00    -0.250 OA
BRANCH  24  26
ATOM     26  C   UNL     1      41.412 135.828  18.627  1.00  0.00     0.116 C 
ATOM     27  C   UNL     1      40.396 135.095  19.510  1.00  0.00     0.040 C 
ATOM     28  C   UNL     1      41.765 136.753  19.796  1.00  0.00     0.040 C 
ATOM     29  C   UNL     1      40.753 136.016  20.678  1.00  0.00     0.019 C 
BRANCH  26  30
ATOM     30  N   UNL     1      40.757 136.559  17.537  1.00  0.00    -0.316 NA
ATOM     31  H   UNL     1      39.744 136.299  17.520  1.00  0.00     0.119 HD
ATOM     32  H   UNL     1      40.816 137.584  17.737  1.00  0.00     0.119 HD
ENDBRANCH  26  30
BRANCH  29  33
ATOM     33  C   UNL     1      39.582 136.894  21.147  1.00  0.00     0.159 C 
BRANCH  33  34
ATOM     34  O   UNL     1      39.636 137.075  22.536  1.00  0.00    -0.396 OA
ATOM     35  H   UNL     1      40.121 137.927  22.693  1.00  0.00     0.210 HD
ENDBRANCH  33  34
ENDBRANCH  29  33
ENDBRANCH  24  26
ENDBRANCH   1  24
TORSDOF 12
ENDMDL


