REMARK SMILES C#CCO/C(O)=C\[C@H]1CC[C@@H]2C(OC(=O)[C@H](C)C(F)(F)F)=Nc3c(N=[N+]=[N-])cc(Cl)c1c32
REMARK SMILES IDX 8 1 31 2 29 3 30 4 28 5 24 6 23 7 32 8 11 9 12 10 22 11
REMARK SMILES IDX 10 12 9 13 7 14 5 15 4 16 3 17 2 18 1 19 6 20 25 22 26 23
REMARK SMILES IDX 27 24 13 25 14 26 15 27 16 28 17 29 18 30 19 31 20 32 21 33
REMARK H PARENT 6 21
ROOT
ATOM      1  C   UNL     1      -2.190  -1.230   0.297  1.00  0.00     0.051 C 
ATOM      2  C   UNL     1      -2.548   0.225   0.010  1.00  0.00    -0.016 A 
ATOM      3  C   UNL     1      -3.668   0.869   0.594  1.00  0.00     0.045 A 
ATOM      4  Cl  UNL     1      -4.902  -0.039   1.460  1.00  0.00    -0.084 Cl
ATOM      5  C   UNL     1      -3.769   2.278   0.561  1.00  0.00     0.033 A 
ATOM      6  C   UNL     1      -2.727   3.061   0.012  1.00  0.00     0.065 A 
ATOM      7  C   UNL     1      -1.659   2.392  -0.584  1.00  0.00     0.081 A 
ATOM      8  C   UNL     1      -1.631   1.027  -0.667  1.00  0.00    -0.004 A 
ATOM      9  C   UNL     1      -0.303   0.602  -1.146  1.00  0.00     0.109 C 
ATOM     10  C   UNL     1       0.395   1.936  -1.159  1.00  0.00     0.206 C 
ATOM     11  N   UNL     1      -0.385   2.942  -0.886  1.00  0.00    -0.216 NA
ATOM     12  C   UNL     1       0.249  -0.438  -0.172  1.00  0.00     0.019 C 
ATOM     13  C   UNL     1      -0.735  -1.627  -0.124  1.00  0.00     0.014 C 
ENDROOT
BRANCH   1  14
ATOM     14  C   UNL     1      -3.189  -2.151  -0.363  1.00  0.00     0.069 C 
BRANCH  14  15
ATOM     15  C   UNL     1      -3.384  -3.408   0.043  1.00  0.00     0.273 C 
BRANCH  15  16
ATOM     16  O   UNL     1      -2.664  -3.909   1.136  1.00  0.00    -0.453 OA
BRANCH  16  17
ATOM     17  C   UNL     1      -2.803  -5.234   1.630  1.00  0.00     0.322 C 
BRANCH  17  18
ATOM     18  C   UNL     1      -1.920  -5.411   2.784  1.00  0.00    -0.065 C 
ATOM     19  C   UNL     1      -1.194  -5.557   3.736  1.00  0.00     0.007 C 
ENDBRANCH  17  18
ENDBRANCH  16  17
ENDBRANCH  15  16
BRANCH  15  20
ATOM     20  O   UNL     1      -4.311  -4.197  -0.641  1.00  0.00    -0.481 OA
ATOM     21  H   UNL     1      -4.508  -5.153  -0.378  1.00  0.00     0.296 HD
ENDBRANCH  15  20
ENDBRANCH  14  15
ENDBRANCH   1  14
BRANCH   6  22
ATOM     22  N   UNL     1      -2.715   4.492   0.095  1.00  0.00    -0.058 NA
BRANCH  22  23
ATOM     23  N   UNL     1      -3.628   5.125   0.626  1.00  0.00     0.005 N 
ATOM     24  N   UNL     1      -4.540   5.759   1.155  1.00  0.00    -0.003 NA
ENDBRANCH  22  23
ENDBRANCH   6  22
BRANCH  10  25
ATOM     25  O   UNL     1       1.750   2.073  -1.484  1.00  0.00    -0.410 OA
BRANCH  25  26
ATOM     26  C   UNL     1       2.463   3.280  -1.476  1.00  0.00     0.324 C 
ATOM     27  O   UNL     1       1.908   4.363  -1.144  1.00  0.00    -0.251 OA
BRANCH  26  28
ATOM     28  C   UNL     1       3.918   3.282  -1.860  1.00  0.00     0.201 C 
ATOM     29  C   UNL     1       4.083   2.774  -3.297  1.00  0.00     0.030 C 
BRANCH  28  30
ATOM     30  C   UNL     1       4.747   2.451  -0.866  1.00  0.00     0.401 C 
ATOM     31  F   UNL     1       4.365   1.120  -0.898  1.00  0.00    -0.170 F 
ATOM     32  F   UNL     1       4.568   2.938   0.417  1.00  0.00    -0.170 F 
ATOM     33  F   UNL     1       6.091   2.538  -1.185  1.00  0.00    -0.170 F 
ENDBRANCH  28  30
ENDBRANCH  26  28
ENDBRANCH  25  26
ENDBRANCH  10  25
TORSDOF 12


