REMARK SMILES CC[C@H]1C[C@]1([NH3+])C(=O)Oc1ccccc(O)c(NC2(CF)COC2)c(N=[N+]=[N-])c(Cl)c1Cl
REMARK SMILES IDX 15 1 14 2 13 3 12 4 11 5 10 6 31 7 32 8 29 9 30 10 25 11
REMARK SMILES IDX 17 12 16 13 18 15 19 17 22 18 24 19 23 20 20 21 21 22 26 23
REMARK SMILES IDX 27 24 28 25 9 26 7 27 8 28 5 29 4 30 3 31 6 32 2 36 1 37
REMARK H PARENT 16 14 18 16 6 33 6 34 6 35
ROOT
ATOM      1  C   UNL     1       0.892  -3.630   0.413  1.00  0.00     0.139 A 
ATOM      2  C   UNL     1       1.769  -3.747   1.519  1.00  0.00     0.048 A 
ATOM      3  C   UNL     1       1.780  -2.924   2.662  1.00  0.00     0.004 A 
ATOM      4  C   UNL     1       1.214  -1.648   2.725  1.00  0.00     0.004 A 
ATOM      5  C   UNL     1       1.107  -0.829   1.599  1.00  0.00     0.049 A 
ATOM      6  C   UNL     1      -0.026  -0.050   1.313  1.00  0.00     0.151 A 
ATOM      7  C   UNL     1      -1.331  -0.397   1.732  1.00  0.00     0.102 A 
ATOM      8  Cl  UNL     1      -2.499   0.926   1.802  1.00  0.00    -0.079 Cl
ATOM      9  C   UNL     1      -1.781  -1.712   2.042  1.00  0.00     0.075 A 
ATOM     10  Cl  UNL     1      -3.307  -1.880   2.918  1.00  0.00    -0.082 Cl
ATOM     11  C   UNL     1      -1.113  -2.903   1.654  1.00  0.00     0.085 A 
ATOM     12  C   UNL     1      -0.369  -2.989   0.458  1.00  0.00     0.088 A 
ENDROOT
BRANCH   1  13
ATOM     13  O   UNL     1       1.293  -4.180  -0.804  1.00  0.00    -0.506 OA
ATOM     14  H   UNL     1       2.186  -4.648  -0.912  1.00  0.00     0.293 HD
ENDBRANCH   1  13
BRANCH  12  15
ATOM     15  N   UNL     1      -0.912  -2.470  -0.770  1.00  0.00    -0.369 N 
ATOM     16  H   UNL     1      -0.233  -2.021  -1.426  1.00  0.00     0.161 HD
BRANCH  15  17
ATOM     17  C   UNL     1      -2.232  -2.870  -1.291  1.00  0.00     0.113 C 
ATOM     18  C   UNL     1      -3.343  -1.902  -0.939  1.00  0.00     0.193 C 
ATOM     19  C   UNL     1      -2.499  -2.377  -2.704  1.00  0.00     0.193 C 
ATOM     20  O   UNL     1      -3.533  -1.521  -2.281  1.00  0.00    -0.376 OA
BRANCH  17  21
ATOM     21  C   UNL     1      -2.575  -4.358  -1.085  1.00  0.00     0.247 C 
ATOM     22  F   UNL     1      -1.596  -5.150  -1.656  1.00  0.00    -0.248 F 
ENDBRANCH  17  21
ENDBRANCH  15  17
ENDBRANCH  12  15
BRANCH  11  23
ATOM     23  N   UNL     1      -1.149  -4.075   2.488  1.00  0.00    -0.057 NA
BRANCH  23  24
ATOM     24  N   UNL     1      -1.382  -4.027   3.697  1.00  0.00     0.005 N 
ATOM     25  N   UNL     1      -1.610  -3.982   4.905  1.00  0.00    -0.003 NA
ENDBRANCH  23  24
ENDBRANCH  11  23
BRANCH   6  26
ATOM     26  O   UNL     1       0.096   1.081   0.488  1.00  0.00    -0.420 OA
BRANCH  26  27
ATOM     27  C   UNL     1       1.260   1.838   0.304  1.00  0.00     0.373 C 
ATOM     28  O   UNL     1       2.240   1.733   1.090  1.00  0.00    -0.244 OA
BRANCH  27  29
ATOM     29  C   UNL     1       1.337   2.797  -0.844  1.00  0.00     0.196 C 
ATOM     30  C   UNL     1       0.109   3.672  -1.100  1.00  0.00     0.092 C 
ATOM     31  C   UNL     1       1.368   4.284  -0.479  1.00  0.00     0.069 C 
BRANCH  29  32
ATOM     32  N   UNL     1       2.094   2.368  -2.029  1.00  0.00    -0.343 N 
ATOM     33  H   UNL     1       1.762   2.825  -2.907  1.00  0.00     0.345 HD
ATOM     34  H   UNL     1       3.108   2.576  -1.885  1.00  0.00     0.345 HD
ATOM     35  H   UNL     1       1.986   1.335  -2.152  1.00  0.00     0.345 HD
ENDBRANCH  29  32
BRANCH  31  36
ATOM     36  C   UNL     1       2.153   5.243  -1.391  1.00  0.00     0.007 C 
ATOM     37  C   UNL     1       1.744   6.686  -1.119  1.00  0.00     0.004 C 
ENDBRANCH  31  36
ENDBRANCH  27  29
ENDBRANCH  26  27
ENDBRANCH   6  26
TORSDOF 11


