REMARK SMILES CCc1n[nH+]n(CC2(C#N)CCCC2)c1C[N+](C)(C)Cc1cccc2ccccc12
REMARK SMILES IDX 3 1 4 2 5 3 6 4 15 5 2 7 1 8 16 9 17 10 18 11 19 12 20 13
REMARK SMILES IDX 21 14 22 15 30 16 23 17 29 18 25 19 24 20 28 21 26 22 27 23
REMARK SMILES IDX 7 24 8 25 11 26 14 27 12 28 13 29 9 30 10 31
REMARK H PARENT 5 6
ROOT
ATOM      1  C   UNL     1      -0.462   3.385  -0.918  1.00  0.00     0.141 A 
ATOM      2  N   UNL     1       0.651   4.145  -0.894  1.00  0.00     0.020 NA
ATOM      3  N   UNL     1       1.514   3.525  -0.106  1.00  0.00    -0.017 N 
ATOM      4  N   UNL     1       1.026   2.381   0.350  1.00  0.00    -0.126 N 
ATOM      5  C   UNL     1      -0.245   2.273  -0.111  1.00  0.00     0.160 A 
ATOM      6  H   UNL     1       2.473   3.886   0.096  1.00  0.00     0.526 HD
ENDROOT
BRANCH   1   7
ATOM      7  C   UNL     1      -1.582   3.620  -1.888  1.00  0.00     0.062 C 
ATOM      8  C   UNL     1      -1.247   3.009  -3.244  1.00  0.00     0.011 C 
ENDBRANCH   1   7
BRANCH   5   9
ATOM      9  C   UNL     1      -1.213   1.134   0.173  1.00  0.00     0.327 C 
BRANCH   9  10
ATOM     10  N   UNL     1      -2.123   1.337   1.349  1.00  0.00    -0.319 N 
ATOM     11  C   UNL     1      -3.073   2.444   1.070  1.00  0.00     0.334 C 
ATOM     12  C   UNL     1      -1.365   1.695   2.575  1.00  0.00     0.334 C 
BRANCH  10  13
ATOM     13  C   UNL     1      -2.943   0.100   1.586  1.00  0.00     0.301 C 
BRANCH  13  14
ATOM     14  C   UNL     1      -2.143  -1.148   1.974  1.00  0.00     0.014 A 
ATOM     15  C   UNL     1      -1.879  -1.351   3.342  1.00  0.00     0.010 A 
ATOM     16  C   UNL     1      -1.660  -2.110   1.033  1.00  0.00    -0.010 A 
ATOM     17  C   UNL     1      -1.110  -2.427   3.779  1.00  0.00     0.001 A 
ATOM     18  C   UNL     1      -1.937  -2.034  -0.352  1.00  0.00     0.009 A 
ATOM     19  C   UNL     1      -0.862  -3.195   1.496  1.00  0.00    -0.018 A 
ATOM     20  C   UNL     1      -0.595  -3.339   2.863  1.00  0.00     0.009 A 
ATOM     21  C   UNL     1      -1.407  -2.973  -1.242  1.00  0.00     0.001 A 
ATOM     22  C   UNL     1      -0.341  -4.131   0.587  1.00  0.00     0.009 A 
ATOM     23  C   UNL     1      -0.609  -4.014  -0.775  1.00  0.00     0.001 A 
ENDBRANCH  13  14
ENDBRANCH  10  13
ENDBRANCH   9  10
ENDBRANCH   5   9
BRANCH   4  24
ATOM     24  C   UNL     1       1.837   1.384   1.069  1.00  0.00     0.214 C 
BRANCH  24  25
ATOM     25  C   UNL     1       2.828   0.638   0.131  1.00  0.00     0.081 C 
ATOM     26  C   UNL     1       3.534  -0.509   0.865  1.00  0.00     0.024 C 
ATOM     27  C   UNL     1       2.134  -0.068  -1.039  1.00  0.00     0.024 C 
ATOM     28  C   UNL     1       3.912  -1.528  -0.209  1.00  0.00     0.002 C 
ATOM     29  C   UNL     1       3.051  -1.219  -1.434  1.00  0.00     0.002 C 
BRANCH  25  30
ATOM     30  C   UNL     1       3.849   1.576  -0.389  1.00  0.00     0.071 C 
ATOM     31  N   UNL     1       4.650   2.305  -0.799  1.00  0.00    -0.198 NA
ENDBRANCH  25  30
ENDBRANCH  24  25
ENDBRANCH   4  24
TORSDOF 8


