MODEL 1
REMARK VINA RESULT:      -6.5      0.000      0.000
REMARK SMILES CC[C@H]1C[C@]1(N)C(=O)Oc1ccccc(O)c(NC2(CF)COC2)c(N=[N+]=[N-])c(Cl)c1Cl
REMARK SMILES IDX 15 1 14 2 13 3 12 4 11 5 10 6 31 7 32 8 29 9 30 10 25 11
REMARK SMILES IDX 17 12 16 13 18 15 19 17 22 18 24 19 23 20 20 21 21 22 26 23
REMARK SMILES IDX 27 24 28 25 9 26 7 27 8 28 5 29 4 30 3 31 6 32 2 35 1 36
REMARK H PARENT 16 14 18 16 6 33 6 34
ROOT
ATOM      1  C   UNL     1      41.668 136.166  15.107  1.00  0.00     0.139 A 
ATOM      2  C   UNL     1      42.897 136.862  15.127  1.00  0.00     0.048 A 
ATOM      3  C   UNL     1      44.015 136.572  15.934  1.00  0.00     0.004 A 
ATOM      4  C   UNL     1      44.238 135.348  16.569  1.00  0.00     0.004 A 
ATOM      5  C   UNL     1      43.772 134.142  16.042  1.00  0.00     0.049 A 
ATOM      6  C   UNL     1      43.245 133.111  16.835  1.00  0.00     0.151 A 
ATOM      7  C   UNL     1      42.561 133.346  18.051  1.00  0.00     0.102 A 
ATOM      8  Cl  UNL     1      42.495 131.984  19.177  1.00  0.00    -0.079 Cl
ATOM      9  C   UNL     1      41.887 134.549  18.408  1.00  0.00     0.075 A 
ATOM     10  Cl  UNL     1      41.381 134.748  20.087  1.00  0.00    -0.082 Cl
ATOM     11  C   UNL     1      41.557 135.591  17.505  1.00  0.00     0.085 A 
ATOM     12  C   UNL     1      41.197 135.343  16.163  1.00  0.00     0.088 A 
ENDROOT
BRANCH   1  13
ATOM     13  O   UNL     1      40.890 136.303  13.958  1.00  0.00    -0.506 OA
ATOM     14  H   UNL     1      40.502 135.505  13.467  1.00  0.00     0.293 HD
ENDBRANCH   1  13
BRANCH  12  15
ATOM     15  N   UNL     1      40.370 134.217  15.822  1.00  0.00    -0.369 N 
ATOM     16  H   UNL     1      40.832 133.455  15.287  1.00  0.00     0.161 HD
BRANCH  15  17
ATOM     17  C   UNL     1      38.900 134.198  15.948  1.00  0.00     0.113 C 
ATOM     18  C   UNL     1      38.183 134.003  14.628  1.00  0.00     0.193 C 
ATOM     19  C   UNL     1      38.288 135.591  15.862  1.00  0.00     0.193 C 
ATOM     20  O   UNL     1      37.650 135.306  14.641  1.00  0.00    -0.376 OA
BRANCH  17  21
ATOM     21  C   UNL     1      38.356 133.369  17.131  1.00  0.00     0.247 C 
ATOM     22  F   UNL     1      39.211 133.443  18.214  1.00  0.00    -0.248 F 
ENDBRANCH  17  21
ENDBRANCH  15  17
ENDBRANCH  12  15
BRANCH  11  23
ATOM     23  N   UNL     1      41.623 136.966  17.921  1.00  0.00    -0.057 NA
BRANCH  23  24
ATOM     24  N   UNL     1      40.621 137.623  18.202  1.00  0.00     0.005 N 
ATOM     25  N   UNL     1      39.628 138.290  18.481  1.00  0.00    -0.003 NA
ENDBRANCH  23  24
ENDBRANCH  11  23
BRANCH   6  26
ATOM     26  O   UNL     1      43.292 131.781  16.382  1.00  0.00    -0.424 OA
BRANCH  26  27
ATOM     27  C   UNL     1      44.416 130.945  16.395  1.00  0.00     0.331 C 
ATOM     28  O   UNL     1      45.106 130.785  17.437  1.00  0.00    -0.250 OA
BRANCH  27  29
ATOM     29  C   UNL     1      44.785 130.214  15.141  1.00  0.00     0.118 C 
ATOM     30  C   UNL     1      44.023 130.552  13.867  1.00  0.00     0.040 C 
ATOM     31  C   UNL     1      45.463 131.038  14.050  1.00  0.00     0.022 C 
BRANCH  29  32
ATOM     32  N   UNL     1      45.203 128.819  15.260  1.00  0.00    -0.316 NA
ATOM     33  H   UNL     1      46.047 128.687  14.659  1.00  0.00     0.119 HD
ATOM     34  H   UNL     1      44.443 128.225  14.859  1.00  0.00     0.119 HD
ENDBRANCH  29  32
BRANCH  31  35
ATOM     35  C   UNL     1      46.512 130.326  13.182  1.00  0.00     0.003 C 
ATOM     36  C   UNL     1      47.769 131.179  13.062  1.00  0.00     0.004 C 
ENDBRANCH  31  35
ENDBRANCH  27  29
ENDBRANCH  26  27
ENDBRANCH   6  26
TORSDOF 11
ENDMDL
MODEL 2
REMARK VINA RESULT:      -6.1      2.522      3.855
REMARK SMILES CC[C@H]1C[C@]1(N)C(=O)Oc1ccccc(O)c(NC2(CF)COC2)c(N=[N+]=[N-])c(Cl)c1Cl
REMARK SMILES IDX 15 1 14 2 13 3 12 4 11 5 10 6 31 7 32 8 29 9 30 10 25 11
REMARK SMILES IDX 17 12 16 13 18 15 19 17 22 18 24 19 23 20 20 21 21 22 26 23
REMARK SMILES IDX 27 24 28 25 9 26 7 27 8 28 5 29 4 30 3 31 6 32 2 35 1 36
REMARK H PARENT 16 14 18 16 6 33 6 34
ROOT
ATOM      1  C   UNL     1      42.753 134.965  19.654  1.00  0.00     0.139 A 
ATOM      2  C   UNL     1      42.409 133.923  20.544  1.00  0.00     0.048 A 
ATOM      3  C   UNL     1      42.016 132.616  20.197  1.00  0.00     0.004 A 
ATOM      4  C   UNL     1      42.254 132.020  18.956  1.00  0.00     0.004 A 
ATOM      5  C   UNL     1      43.361 132.351  18.173  1.00  0.00     0.049 A 
ATOM      6  C   UNL     1      43.304 132.472  16.776  1.00  0.00     0.151 A 
ATOM      7  C   UNL     1      42.144 132.892  16.084  1.00  0.00     0.102 A 
ATOM      8  Cl  UNL     1      42.051 132.431  14.379  1.00  0.00    -0.079 Cl
ATOM      9  C   UNL     1      41.093 133.686  16.627  1.00  0.00     0.075 A 
ATOM     10  Cl  UNL     1      39.596 133.823  15.702  1.00  0.00    -0.082 Cl
ATOM     11  C   UNL     1      41.170 134.410  17.844  1.00  0.00     0.085 A 
ATOM     12  C   UNL     1      42.366 135.013  18.290  1.00  0.00     0.088 A 
ENDROOT
BRANCH   1  13
ATOM     13  O   UNL     1      43.535 135.998  20.172  1.00  0.00    -0.506 OA
ATOM     14  H   UNL     1      43.399 136.967  19.905  1.00  0.00     0.293 HD
ENDBRANCH   1  13
BRANCH  12  15
ATOM     15  N   UNL     1      43.251 135.661  17.360  1.00  0.00    -0.369 N 
ATOM     16  H   UNL     1      44.187 135.224  17.238  1.00  0.00     0.161 HD
BRANCH  15  17
ATOM     17  C   UNL     1      43.021 137.004  16.794  1.00  0.00     0.113 C 
ATOM     18  C   UNL     1      41.562 137.303  16.519  1.00  0.00     0.193 C 
ATOM     19  C   UNL     1      43.119 137.022  15.274  1.00  0.00     0.193 C 
ATOM     20  O   UNL     1      41.751 137.312  15.124  1.00  0.00    -0.376 OA
BRANCH  17  21
ATOM     21  C   UNL     1      43.819 138.142  17.467  1.00  0.00     0.247 C 
ATOM     22  F   UNL     1      42.968 139.032  18.092  1.00  0.00    -0.248 F 
ENDBRANCH  17  21
ENDBRANCH  15  17
ENDBRANCH  12  15
BRANCH  11  23
ATOM     23  N   UNL     1      40.022 134.519  18.702  1.00  0.00    -0.057 NA
BRANCH  23  24
ATOM     24  N   UNL     1      39.456 135.589  18.921  1.00  0.00     0.005 N 
ATOM     25  N   UNL     1      38.893 136.661  19.128  1.00  0.00    -0.003 NA
ENDBRANCH  23  24
ENDBRANCH  11  23
BRANCH   6  26
ATOM     26  O   UNL     1      44.463 132.273  16.005  1.00  0.00    -0.424 OA
BRANCH  26  27
ATOM     27  C   UNL     1      45.322 131.168  16.078  1.00  0.00     0.331 C 
ATOM     28  O   UNL     1      45.926 130.873  17.143  1.00  0.00    -0.250 OA
BRANCH  27  29
ATOM     29  C   UNL     1      45.503 130.315  14.861  1.00  0.00     0.118 C 
ATOM     30  C   UNL     1      44.896 130.800  13.552  1.00  0.00     0.040 C 
ATOM     31  C   UNL     1      46.409 130.877  13.768  1.00  0.00     0.022 C 
BRANCH  29  32
ATOM     32  N   UNL     1      45.516 128.865  15.037  1.00  0.00    -0.316 NA
ATOM     33  H   UNL     1      46.507 128.544  14.967  1.00  0.00     0.119 HD
ATOM     34  H   UNL     1      44.998 128.444  14.234  1.00  0.00     0.119 HD
ENDBRANCH  29  32
BRANCH  31  35
ATOM     35  C   UNL     1      47.240 129.870  12.959  1.00  0.00     0.003 C 
ATOM     36  C   UNL     1      48.567 129.594  13.655  1.00  0.00     0.004 C 
ENDBRANCH  31  35
ENDBRANCH  27  29
ENDBRANCH  26  27
ENDBRANCH   6  26
TORSDOF 11
ENDMDL
MODEL 3
REMARK VINA RESULT:      -6.1      3.103      4.521
REMARK SMILES CC[C@H]1C[C@]1(N)C(=O)Oc1ccccc(O)c(NC2(CF)COC2)c(N=[N+]=[N-])c(Cl)c1Cl
REMARK SMILES IDX 15 1 14 2 13 3 12 4 11 5 10 6 31 7 32 8 29 9 30 10 25 11
REMARK SMILES IDX 17 12 16 13 18 15 19 17 22 18 24 19 23 20 20 21 21 22 26 23
REMARK SMILES IDX 27 24 28 25 9 26 7 27 8 28 5 29 4 30 3 31 6 32 2 35 1 36
REMARK H PARENT 16 14 18 16 6 33 6 34
ROOT
ATOM      1  C   UNL     1      43.828 133.911  20.222  1.00  0.00     0.139 A 
ATOM      2  C   UNL     1      43.455 132.667  20.780  1.00  0.00     0.048 A 
ATOM      3  C   UNL     1      42.577 131.722  20.214  1.00  0.00     0.004 A 
ATOM      4  C   UNL     1      42.223 131.677  18.864  1.00  0.00     0.004 A 
ATOM      5  C   UNL     1      43.085 132.110  17.855  1.00  0.00     0.049 A 
ATOM      6  C   UNL     1      42.650 132.820  16.726  1.00  0.00     0.151 A 
ATOM      7  C   UNL     1      41.534 133.689  16.744  1.00  0.00     0.102 A 
ATOM      8  Cl  UNL     1      40.785 134.020  15.176  1.00  0.00    -0.079 Cl
ATOM      9  C   UNL     1      41.011 134.349  17.893  1.00  0.00     0.075 A 
ATOM     10  Cl  UNL     1      39.431 135.124  17.757  1.00  0.00    -0.082 Cl
ATOM     11  C   UNL     1      41.681 134.462  19.138  1.00  0.00     0.085 A 
ATOM     12  C   UNL     1      43.083 134.600  19.231  1.00  0.00     0.088 A 
ENDROOT
BRANCH   1  13
ATOM     13  O   UNL     1      45.019 134.472  20.685  1.00  0.00    -0.506 OA
ATOM     14  H   UNL     1      45.593 134.020  21.389  1.00  0.00     0.293 HD
ENDBRANCH   1  13
BRANCH  12  15
ATOM     15  N   UNL     1      43.803 135.415  18.291  1.00  0.00    -0.369 N 
ATOM     16  H   UNL     1      44.432 134.910  17.634  1.00  0.00     0.161 HD
BRANCH  15  17
ATOM     17  C   UNL     1      43.906 136.885  18.374  1.00  0.00     0.113 C 
ATOM     18  C   UNL     1      42.817 137.520  19.214  1.00  0.00     0.193 C 
ATOM     19  C   UNL     1      43.179 137.587  17.235  1.00  0.00     0.193 C 
ATOM     20  O   UNL     1      42.219 138.142  18.101  1.00  0.00    -0.376 OA
BRANCH  17  21
ATOM     21  C   UNL     1      45.331 137.428  18.611  1.00  0.00     0.247 C 
ATOM     22  F   UNL     1      45.303 138.789  18.847  1.00  0.00    -0.248 F 
ENDBRANCH  17  21
ENDBRANCH  15  17
ENDBRANCH  12  15
BRANCH  11  23
ATOM     23  N   UNL     1      40.947 134.395  20.372  1.00  0.00    -0.057 NA
BRANCH  23  24
ATOM     24  N   UNL     1      40.447 135.387  20.902  1.00  0.00     0.005 N 
ATOM     25  N   UNL     1      39.937 136.374  21.427  1.00  0.00    -0.003 NA
ENDBRANCH  23  24
ENDBRANCH  11  23
BRANCH   6  26
ATOM     26  O   UNL     1      43.392 132.768  15.533  1.00  0.00    -0.424 OA
BRANCH  26  27
ATOM     27  C   UNL     1      44.723 132.352  15.407  1.00  0.00     0.331 C 
ATOM     28  O   UNL     1      45.682 133.127  15.670  1.00  0.00    -0.250 OA
BRANCH  27  29
ATOM     29  C   UNL     1      45.002 130.948  14.969  1.00  0.00     0.118 C 
ATOM     30  C   UNL     1      44.387 130.473  13.660  1.00  0.00     0.040 C 
ATOM     31  C   UNL     1      45.884 130.786  13.733  1.00  0.00     0.022 C 
BRANCH  29  32
ATOM     32  N   UNL     1      45.130 129.922  16.001  1.00  0.00    -0.316 NA
ATOM     33  H   UNL     1      46.128 129.902  16.309  1.00  0.00     0.119 HD
ATOM     34  H   UNL     1      44.927 128.999  15.557  1.00  0.00     0.119 HD
ENDBRANCH  29  32
BRANCH  31  35
ATOM     35  C   UNL     1      46.813 129.563  13.690  1.00  0.00     0.003 C 
ATOM     36  C   UNL     1      48.266 130.004  13.565  1.00  0.00     0.004 C 
ENDBRANCH  31  35
ENDBRANCH  27  29
ENDBRANCH  26  27
ENDBRANCH   6  26
TORSDOF 11
ENDMDL
MODEL 4
REMARK VINA RESULT:      -6.0      1.643      1.933
REMARK SMILES CC[C@H]1C[C@]1(N)C(=O)Oc1ccccc(O)c(NC2(CF)COC2)c(N=[N+]=[N-])c(Cl)c1Cl
REMARK SMILES IDX 15 1 14 2 13 3 12 4 11 5 10 6 31 7 32 8 29 9 30 10 25 11
REMARK SMILES IDX 17 12 16 13 18 15 19 17 22 18 24 19 23 20 20 21 21 22 26 23
REMARK SMILES IDX 27 24 28 25 9 26 7 27 8 28 5 29 4 30 3 31 6 32 2 35 1 36
REMARK H PARENT 16 14 18 16 6 33 6 34
ROOT
ATOM      1  C   UNL     1      42.393 136.709  16.329  1.00  0.00     0.139 A 
ATOM      2  C   UNL     1      43.410 137.456  16.964  1.00  0.00     0.048 A 
ATOM      3  C   UNL     1      44.184 137.051  18.070  1.00  0.00     0.004 A 
ATOM      4  C   UNL     1      44.338 135.728  18.487  1.00  0.00     0.004 A 
ATOM      5  C   UNL     1      44.284 134.656  17.595  1.00  0.00     0.049 A 
ATOM      6  C   UNL     1      43.663 133.435  17.900  1.00  0.00     0.151 A 
ATOM      7  C   UNL     1      42.554 133.329  18.771  1.00  0.00     0.102 A 
ATOM      8  Cl  UNL     1      42.284 131.737  19.491  1.00  0.00    -0.079 Cl
ATOM      9  C   UNL     1      41.624 134.368  19.065  1.00  0.00     0.075 A 
ATOM     10  Cl  UNL     1      40.514 134.129  20.416  1.00  0.00    -0.082 Cl
ATOM     11  C   UNL     1      41.497 135.573  18.329  1.00  0.00     0.085 A 
ATOM     12  C   UNL     1      41.695 135.630  16.932  1.00  0.00     0.088 A 
ENDROOT
BRANCH   1  13
ATOM     13  O   UNL     1      42.079 137.068  15.018  1.00  0.00    -0.506 OA
ATOM     14  H   UNL     1      41.196 136.819  14.585  1.00  0.00     0.293 HD
ENDBRANCH   1  13
BRANCH  12  15
ATOM     15  N   UNL     1      41.229 134.569  16.082  1.00  0.00    -0.369 N 
ATOM     16  H   UNL     1      41.962 133.956  15.671  1.00  0.00     0.161 HD
BRANCH  15  17
ATOM     17  C   UNL     1      39.851 134.464  15.565  1.00  0.00     0.113 C 
ATOM     18  C   UNL     1      38.977 135.645  15.930  1.00  0.00     0.193 C 
ATOM     19  C   UNL     1      38.924 133.720  16.517  1.00  0.00     0.193 C 
ATOM     20  O   UNL     1      38.164 134.873  16.782  1.00  0.00    -0.376 OA
BRANCH  17  21
ATOM     21  C   UNL     1      39.738 133.978  14.104  1.00  0.00     0.247 C 
ATOM     22  F   UNL     1      38.521 133.360  13.887  1.00  0.00    -0.248 F 
ENDBRANCH  17  21
ENDBRANCH  15  17
ENDBRANCH  12  15
BRANCH  11  23
ATOM     23  N   UNL     1      41.199 136.810  18.999  1.00  0.00    -0.057 NA
BRANCH  23  24
ATOM     24  N   UNL     1      41.560 137.043  20.153  1.00  0.00     0.005 N 
ATOM     25  N   UNL     1      41.928 137.269  21.302  1.00  0.00    -0.003 NA
ENDBRANCH  23  24
ENDBRANCH  11  23
BRANCH   6  26
ATOM     26  O   UNL     1      44.071 132.257  17.250  1.00  0.00    -0.424 OA
BRANCH  26  27
ATOM     27  C   UNL     1      44.539 132.161  15.933  1.00  0.00     0.331 C 
ATOM     28  O   UNL     1      44.324 133.073  15.090  1.00  0.00    -0.250 OA
BRANCH  27  29
ATOM     29  C   UNL     1      45.326 130.952  15.533  1.00  0.00     0.118 C 
ATOM     30  C   UNL     1      44.570 129.773  14.936  1.00  0.00     0.040 C 
ATOM     31  C   UNL     1      45.423 130.670  14.036  1.00  0.00     0.022 C 
BRANCH  29  32
ATOM     32  N   UNL     1      46.489 130.595  16.341  1.00  0.00    -0.316 NA
ATOM     33  H   UNL     1      47.140 130.043  15.737  1.00  0.00     0.119 HD
ATOM     34  H   UNL     1      46.164 129.959  17.103  1.00  0.00     0.119 HD
ENDBRANCH  29  32
BRANCH  31  35
ATOM     35  C   UNL     1      46.726 130.038  13.524  1.00  0.00     0.003 C 
ATOM     36  C   UNL     1      47.176 130.718  12.236  1.00  0.00     0.004 C 
ENDBRANCH  31  35
ENDBRANCH  27  29
ENDBRANCH  26  27
ENDBRANCH   6  26
TORSDOF 11
ENDMDL
MODEL 5
REMARK VINA RESULT:      -5.9      2.921      4.592
REMARK SMILES CC[C@H]1C[C@]1(N)C(=O)Oc1ccccc(O)c(NC2(CF)COC2)c(N=[N+]=[N-])c(Cl)c1Cl
REMARK SMILES IDX 15 1 14 2 13 3 12 4 11 5 10 6 31 7 32 8 29 9 30 10 25 11
REMARK SMILES IDX 17 12 16 13 18 15 19 17 22 18 24 19 23 20 20 21 21 22 26 23
REMARK SMILES IDX 27 24 28 25 9 26 7 27 8 28 5 29 4 30 3 31 6 32 2 35 1 36
REMARK H PARENT 16 14 18 16 6 33 6 34
ROOT
ATOM      1  C   UNL     1      43.856 133.993  20.228  1.00  0.00     0.139 A 
ATOM      2  C   UNL     1      43.495 132.792  20.880  1.00  0.00     0.048 A 
ATOM      3  C   UNL     1      42.599 131.815  20.404  1.00  0.00     0.004 A 
ATOM      4  C   UNL     1      42.209 131.679  19.071  1.00  0.00     0.004 A 
ATOM      5  C   UNL     1      43.045 132.038  18.011  1.00  0.00     0.049 A 
ATOM      6  C   UNL     1      42.581 132.671  16.848  1.00  0.00     0.151 A 
ATOM      7  C   UNL     1      41.468 133.544  16.836  1.00  0.00     0.102 A 
ATOM      8  Cl  UNL     1      40.678 133.770  15.270  1.00  0.00    -0.079 Cl
ATOM      9  C   UNL     1      40.978 134.283  17.951  1.00  0.00     0.075 A 
ATOM     10  Cl  UNL     1      39.397 135.055  17.804  1.00  0.00    -0.082 Cl
ATOM     11  C   UNL     1      41.682 134.479  19.166  1.00  0.00     0.085 A 
ATOM     12  C   UNL     1      43.087 134.616  19.212  1.00  0.00     0.088 A 
ENDROOT
BRANCH   1  13
ATOM     13  O   UNL     1      45.060 134.579  20.620  1.00  0.00    -0.506 OA
ATOM     14  H   UNL     1      45.297 134.732  21.595  1.00  0.00     0.293 HD
ENDBRANCH   1  13
BRANCH  12  15
ATOM     15  N   UNL     1      43.783 135.361  18.200  1.00  0.00    -0.369 N 
ATOM     16  H   UNL     1      44.406 134.812  17.573  1.00  0.00     0.161 HD
BRANCH  15  17
ATOM     17  C   UNL     1      43.873 136.834  18.167  1.00  0.00     0.113 C 
ATOM     18  C   UNL     1      45.221 137.368  18.606  1.00  0.00     0.193 C 
ATOM     19  C   UNL     1      43.403 137.478  19.465  1.00  0.00     0.193 C 
ATOM     20  O   UNL     1      44.693 137.942  19.779  1.00  0.00    -0.376 OA
BRANCH  17  21
ATOM     21  C   UNL     1      43.272 137.497  16.909  1.00  0.00     0.247 C 
ATOM     22  F   UNL     1      42.114 136.850  16.521  1.00  0.00    -0.248 F 
ENDBRANCH  17  21
ENDBRANCH  15  17
ENDBRANCH  12  15
BRANCH  11  23
ATOM     23  N   UNL     1      40.981 134.499  20.421  1.00  0.00    -0.057 NA
BRANCH  23  24
ATOM     24  N   UNL     1      39.753 134.461  20.496  1.00  0.00     0.005 N 
ATOM     25  N   UNL     1      38.527 134.421  20.559  1.00  0.00    -0.003 NA
ENDBRANCH  23  24
ENDBRANCH  11  23
BRANCH   6  26
ATOM     26  O   UNL     1      43.290 132.533  15.642  1.00  0.00    -0.424 OA
BRANCH  26  27
ATOM     27  C   UNL     1      44.683 132.491  15.505  1.00  0.00     0.331 C 
ATOM     28  O   UNL     1      45.391 133.523  15.655  1.00  0.00    -0.250 OA
BRANCH  27  29
ATOM     29  C   UNL     1      45.337 131.181  15.192  1.00  0.00     0.118 C 
ATOM     30  C   UNL     1      44.501 130.112  14.503  1.00  0.00     0.040 C 
ATOM     31  C   UNL     1      45.568 130.874  13.714  1.00  0.00     0.022 C 
BRANCH  29  32
ATOM     32  N   UNL     1      46.339 130.676  16.128  1.00  0.00    -0.316 NA
ATOM     33  H   UNL     1      45.966 129.796  16.550  1.00  0.00     0.119 HD
ATOM     34  H   UNL     1      46.431 131.372  16.901  1.00  0.00     0.119 HD
ENDBRANCH  29  32
BRANCH  31  35
ATOM     35  C   UNL     1      46.822 130.064  13.354  1.00  0.00     0.003 C 
ATOM     36  C   UNL     1      47.929 130.988  12.861  1.00  0.00     0.004 C 
ENDBRANCH  31  35
ENDBRANCH  27  29
ENDBRANCH  26  27
ENDBRANCH   6  26
TORSDOF 11
ENDMDL
MODEL 6
REMARK VINA RESULT:      -5.8      1.580      1.772
REMARK SMILES CC[C@H]1C[C@]1(N)C(=O)Oc1ccccc(O)c(NC2(CF)COC2)c(N=[N+]=[N-])c(Cl)c1Cl
REMARK SMILES IDX 15 1 14 2 13 3 12 4 11 5 10 6 31 7 32 8 29 9 30 10 25 11
REMARK SMILES IDX 17 12 16 13 18 15 19 17 22 18 24 19 23 20 20 21 21 22 26 23
REMARK SMILES IDX 27 24 28 25 9 26 7 27 8 28 5 29 4 30 3 31 6 32 2 35 1 36
REMARK H PARENT 16 14 18 16 6 33 6 34
ROOT
ATOM      1  C   UNL     1      42.437 137.068  16.101  1.00  0.00     0.139 A 
ATOM      2  C   UNL     1      43.265 137.944  16.839  1.00  0.00     0.048 A 
ATOM      3  C   UNL     1      43.932 137.653  18.045  1.00  0.00     0.004 A 
ATOM      4  C   UNL     1      44.191 136.365  18.517  1.00  0.00     0.004 A 
ATOM      5  C   UNL     1      44.384 135.282  17.656  1.00  0.00     0.049 A 
ATOM      6  C   UNL     1      43.882 133.998  17.914  1.00  0.00     0.151 A 
ATOM      7  C   UNL     1      42.690 133.766  18.640  1.00  0.00     0.102 A 
ATOM      8  Cl  UNL     1      42.525 132.162  19.365  1.00  0.00    -0.079 Cl
ATOM      9  C   UNL     1      41.611 134.685  18.783  1.00  0.00     0.075 A 
ATOM     10  Cl  UNL     1      40.372 134.327  19.989  1.00  0.00    -0.082 Cl
ATOM     11  C   UNL     1      41.434 135.856  18.002  1.00  0.00     0.085 A 
ATOM     12  C   UNL     1      41.804 135.919  16.641  1.00  0.00     0.088 A 
ENDROOT
BRANCH   1  13
ATOM     13  O   UNL     1      42.255 137.369  14.751  1.00  0.00    -0.506 OA
ATOM     14  H   UNL     1      42.302 136.660  14.027  1.00  0.00     0.293 HD
ENDBRANCH   1  13
BRANCH  12  15
ATOM     15  N   UNL     1      41.585 134.797  15.770  1.00  0.00    -0.369 N 
ATOM     16  H   UNL     1      42.437 134.357  15.367  1.00  0.00     0.161 HD
BRANCH  15  17
ATOM     17  C   UNL     1      40.269 134.416  15.222  1.00  0.00     0.113 C 
ATOM     18  C   UNL     1      40.356 133.616  13.939  1.00  0.00     0.193 C 
ATOM     19  C   UNL     1      39.688 135.481  14.300  1.00  0.00     0.193 C 
ATOM     20  O   UNL     1      39.799 134.654  13.168  1.00  0.00    -0.376 OA
BRANCH  17  21
ATOM     21  C   UNL     1      39.254 133.896  16.263  1.00  0.00     0.247 C 
ATOM     22  F   UNL     1      38.485 134.932  16.756  1.00  0.00    -0.248 F 
ENDBRANCH  17  21
ENDBRANCH  15  17
ENDBRANCH  12  15
BRANCH  11  23
ATOM     23  N   UNL     1      40.904 137.054  18.593  1.00  0.00    -0.057 NA
BRANCH  23  24
ATOM     24  N   UNL     1      41.093 137.353  19.773  1.00  0.00     0.005 N 
ATOM     25  N   UNL     1      41.291 137.642  20.950  1.00  0.00    -0.003 NA
ENDBRANCH  23  24
ENDBRANCH  11  23
BRANCH   6  26
ATOM     26  O   UNL     1      44.511 132.871  17.355  1.00  0.00    -0.424 OA
BRANCH  26  27
ATOM     27  C   UNL     1      44.601 132.569  15.991  1.00  0.00     0.331 C 
ATOM     28  O   UNL     1      44.168 133.361  15.111  1.00  0.00    -0.250 OA
BRANCH  27  29
ATOM     29  C   UNL     1      45.245 131.282  15.578  1.00  0.00     0.118 C 
ATOM     30  C   UNL     1      44.368 130.220  14.930  1.00  0.00     0.040 C 
ATOM     31  C   UNL     1      45.349 131.027  14.076  1.00  0.00     0.022 C 
BRANCH  29  32
ATOM     32  N   UNL     1      46.333 130.766  16.405  1.00  0.00    -0.316 NA
ATOM     33  H   UNL     1      47.048 131.522  16.500  1.00  0.00     0.119 HD
ATOM     34  H   UNL     1      46.784 129.982  15.882  1.00  0.00     0.119 HD
ENDBRANCH  29  32
BRANCH  31  35
ATOM     35  C   UNL     1      46.579 130.251  13.580  1.00  0.00     0.003 C 
ATOM     36  C   UNL     1      47.667 131.216  13.125  1.00  0.00     0.004 C 
ENDBRANCH  31  35
ENDBRANCH  27  29
ENDBRANCH  26  27
ENDBRANCH   6  26
TORSDOF 11
ENDMDL
MODEL 7
REMARK VINA RESULT:      -5.7      2.338      3.444
REMARK SMILES CC[C@H]1C[C@]1(N)C(=O)Oc1ccccc(O)c(NC2(CF)COC2)c(N=[N+]=[N-])c(Cl)c1Cl
REMARK SMILES IDX 15 1 14 2 13 3 12 4 11 5 10 6 31 7 32 8 29 9 30 10 25 11
REMARK SMILES IDX 17 12 16 13 18 15 19 17 22 18 24 19 23 20 20 21 21 22 26 23
REMARK SMILES IDX 27 24 28 25 9 26 7 27 8 28 5 29 4 30 3 31 6 32 2 35 1 36
REMARK H PARENT 16 14 18 16 6 33 6 34
ROOT
ATOM      1  C   UNL     1      38.748 134.697  16.193  1.00  0.00     0.139 A 
ATOM      2  C   UNL     1      38.233 135.111  14.945  1.00  0.00     0.048 A 
ATOM      3  C   UNL     1      38.979 135.462  13.802  1.00  0.00     0.004 A 
ATOM      4  C   UNL     1      40.313 135.110  13.588  1.00  0.00     0.004 A 
ATOM      5  C   UNL     1      40.866 133.939  14.111  1.00  0.00     0.049 A 
ATOM      6  C   UNL     1      42.167 133.871  14.633  1.00  0.00     0.151 A 
ATOM      7  C   UNL     1      42.806 134.968  15.257  1.00  0.00     0.102 A 
ATOM      8  Cl  UNL     1      44.572 134.905  15.314  1.00  0.00    -0.079 Cl
ATOM      9  C   UNL     1      42.151 136.069  15.880  1.00  0.00     0.075 A 
ATOM     10  Cl  UNL     1      43.123 137.479  16.308  1.00  0.00    -0.082 Cl
ATOM     11  C   UNL     1      40.774 136.107  16.218  1.00  0.00     0.085 A 
ATOM     12  C   UNL     1      40.068 134.960  16.643  1.00  0.00     0.088 A 
ENDROOT
BRANCH   1  13
ATOM     13  O   UNL     1      37.886 133.972  17.016  1.00  0.00    -0.506 OA
ATOM     14  H   UNL     1      37.449 133.107  16.715  1.00  0.00     0.293 HD
ENDBRANCH   1  13
BRANCH  12  15
ATOM     15  N   UNL     1      40.687 134.000  17.515  1.00  0.00    -0.369 N 
ATOM     16  H   UNL     1      40.775 133.033  17.143  1.00  0.00     0.161 HD
BRANCH  15  17
ATOM     17  C   UNL     1      40.952 134.230  18.949  1.00  0.00     0.113 C 
ATOM     18  C   UNL     1      39.703 134.210  19.805  1.00  0.00     0.193 C 
ATOM     19  C   UNL     1      40.954 135.709  19.313  1.00  0.00     0.193 C 
ATOM     20  O   UNL     1      39.793 135.585  20.098  1.00  0.00    -0.376 OA
BRANCH  17  21
ATOM     21  C   UNL     1      42.164 133.463  19.520  1.00  0.00     0.247 C 
ATOM     22  F   UNL     1      41.836 132.145  19.768  1.00  0.00    -0.248 F 
ENDBRANCH  17  21
ENDBRANCH  15  17
ENDBRANCH  12  15
BRANCH  11  23
ATOM     23  N   UNL     1      40.025 137.327  16.095  1.00  0.00    -0.057 NA
BRANCH  23  24
ATOM     24  N   UNL     1      39.527 137.902  17.063  1.00  0.00     0.005 N 
ATOM     25  N   UNL     1      39.020 138.471  18.027  1.00  0.00    -0.003 NA
ENDBRANCH  23  24
ENDBRANCH  11  23
BRANCH   6  26
ATOM     26  O   UNL     1      42.857 132.646  14.644  1.00  0.00    -0.424 OA
BRANCH  26  27
ATOM     27  C   UNL     1      43.254 131.933  15.782  1.00  0.00     0.331 C 
ATOM     28  O   UNL     1      42.534 131.891  16.816  1.00  0.00    -0.250 OA
BRANCH  27  29
ATOM     29  C   UNL     1      44.554 131.193  15.753  1.00  0.00     0.118 C 
ATOM     30  C   UNL     1      44.673 129.994  14.822  1.00  0.00     0.040 C 
ATOM     31  C   UNL     1      45.371 131.309  14.468  1.00  0.00     0.022 C 
BRANCH  29  32
ATOM     32  N   UNL     1      45.309 131.085  16.999  1.00  0.00    -0.316 NA
ATOM     33  H   UNL     1      44.634 131.185  17.790  1.00  0.00     0.119 HD
ATOM     34  H   UNL     1      45.960 131.901  17.046  1.00  0.00     0.119 HD
ENDBRANCH  29  32
BRANCH  31  35
ATOM     35  C   UNL     1      46.902 131.297  14.607  1.00  0.00     0.003 C 
ATOM     36  C   UNL     1      47.558 131.185  13.236  1.00  0.00     0.004 C 
ENDBRANCH  31  35
ENDBRANCH  27  29
ENDBRANCH  26  27
ENDBRANCH   6  26
TORSDOF 11
ENDMDL
MODEL 8
REMARK VINA RESULT:      -5.7      3.262      4.775
REMARK SMILES CC[C@H]1C[C@]1(N)C(=O)Oc1ccccc(O)c(NC2(CF)COC2)c(N=[N+]=[N-])c(Cl)c1Cl
REMARK SMILES IDX 15 1 14 2 13 3 12 4 11 5 10 6 31 7 32 8 29 9 30 10 25 11
REMARK SMILES IDX 17 12 16 13 18 15 19 17 22 18 24 19 23 20 20 21 21 22 26 23
REMARK SMILES IDX 27 24 28 25 9 26 7 27 8 28 5 29 4 30 3 31 6 32 2 35 1 36
REMARK H PARENT 16 14 18 16 6 33 6 34
ROOT
ATOM      1  C   UNL     1      45.212 134.692  20.657  1.00  0.00     0.139 A 
ATOM      2  C   UNL     1      45.508 133.501  21.357  1.00  0.00     0.048 A 
ATOM      3  C   UNL     1      44.874 132.254  21.198  1.00  0.00     0.004 A 
ATOM      4  C   UNL     1      44.117 131.886  20.084  1.00  0.00     0.004 A 
ATOM      5  C   UNL     1      44.374 132.395  18.809  1.00  0.00     0.049 A 
ATOM      6  C   UNL     1      43.360 132.746  17.904  1.00  0.00     0.151 A 
ATOM      7  C   UNL     1      42.091 133.219  18.312  1.00  0.00     0.102 A 
ATOM      8  Cl  UNL     1      40.785 133.047  17.132  1.00  0.00    -0.079 Cl
ATOM      9  C   UNL     1      41.801 133.861  19.550  1.00  0.00     0.075 A 
ATOM     10  Cl  UNL     1      40.106 134.079  19.993  1.00  0.00    -0.082 Cl
ATOM     11  C   UNL     1      42.774 134.374  20.445  1.00  0.00     0.085 A 
ATOM     12  C   UNL     1      43.983 134.950  19.997  1.00  0.00     0.088 A 
ENDROOT
BRANCH   1  13
ATOM     13  O   UNL     1      46.217 135.660  20.618  1.00  0.00    -0.506 OA
ATOM     14  H   UNL     1      46.226 136.404  19.928  1.00  0.00     0.293 HD
ENDBRANCH   1  13
BRANCH  12  15
ATOM     15  N   UNL     1      44.008 135.785  18.828  1.00  0.00    -0.369 N 
ATOM     16  H   UNL     1      44.652 135.490  18.067  1.00  0.00     0.161 HD
BRANCH  15  17
ATOM     17  C   UNL     1      43.399 137.128  18.753  1.00  0.00     0.113 C 
ATOM     18  C   UNL     1      44.370 138.209  18.329  1.00  0.00     0.193 C 
ATOM     19  C   UNL     1      43.447 137.866  20.084  1.00  0.00     0.193 C 
ATOM     20  O   UNL     1      44.341 138.833  19.591  1.00  0.00    -0.376 OA
BRANCH  17  21
ATOM     21  C   UNL     1      42.010 137.178  18.081  1.00  0.00     0.247 C 
ATOM     22  F   UNL     1      42.088 136.765  16.765  1.00  0.00    -0.248 F 
ENDBRANCH  17  21
ENDBRANCH  15  17
ENDBRANCH  12  15
BRANCH  11  23
ATOM     23  N   UNL     1      42.580 134.283  21.866  1.00  0.00    -0.057 NA
BRANCH  23  24
ATOM     24  N   UNL     1      42.371 135.269  22.573  1.00  0.00     0.005 N 
ATOM     25  N   UNL     1      42.150 136.253  23.273  1.00  0.00    -0.003 NA
ENDBRANCH  23  24
ENDBRANCH  11  23
BRANCH   6  26
ATOM     26  O   UNL     1      43.617 132.733  16.522  1.00  0.00    -0.424 OA
BRANCH  26  27
ATOM     27  C   UNL     1      44.875 132.613  15.918  1.00  0.00     0.331 C 
ATOM     28  O   UNL     1      45.601 133.620  15.703  1.00  0.00    -0.250 OA
BRANCH  27  29
ATOM     29  C   UNL     1      45.366 131.250  15.540  1.00  0.00     0.118 C 
ATOM     30  C   UNL     1      44.354 130.254  14.990  1.00  0.00     0.040 C 
ATOM     31  C   UNL     1      45.364 130.917  14.050  1.00  0.00     0.022 C 
BRANCH  29  32
ATOM     32  N   UNL     1      46.439 130.664  16.339  1.00  0.00    -0.316 NA
ATOM     33  H   UNL     1      47.136 131.416  16.538  1.00  0.00     0.119 HD
ATOM     34  H   UNL     1      46.920 129.949  15.748  1.00  0.00     0.119 HD
ENDBRANCH  29  32
BRANCH  31  35
ATOM     35  C   UNL     1      46.483 129.999  13.535  1.00  0.00     0.003 C 
ATOM     36  C   UNL     1      47.132 130.597  12.292  1.00  0.00     0.004 C 
ENDBRANCH  31  35
ENDBRANCH  27  29
ENDBRANCH  26  27
ENDBRANCH   6  26
TORSDOF 11
ENDMDL
MODEL 9
REMARK VINA RESULT:      -5.6      2.362      3.347
REMARK SMILES CC[C@H]1C[C@]1(N)C(=O)Oc1ccccc(O)c(NC2(CF)COC2)c(N=[N+]=[N-])c(Cl)c1Cl
REMARK SMILES IDX 15 1 14 2 13 3 12 4 11 5 10 6 31 7 32 8 29 9 30 10 25 11
REMARK SMILES IDX 17 12 16 13 18 15 19 17 22 18 24 19 23 20 20 21 21 22 26 23
REMARK SMILES IDX 27 24 28 25 9 26 7 27 8 28 5 29 4 30 3 31 6 32 2 35 1 36
REMARK H PARENT 16 14 18 16 6 33 6 34
ROOT
ATOM      1  C   UNL     1      43.928 137.086  19.190  1.00  0.00     0.139 A 
ATOM      2  C   UNL     1      44.363 136.857  20.514  1.00  0.00     0.048 A 
ATOM      3  C   UNL     1      44.254 135.654  21.239  1.00  0.00     0.004 A 
ATOM      4  C   UNL     1      44.044 134.399  20.664  1.00  0.00     0.004 A 
ATOM      5  C   UNL     1      44.503 134.081  19.384  1.00  0.00     0.049 A 
ATOM      6  C   UNL     1      43.765 133.309  18.474  1.00  0.00     0.151 A 
ATOM      7  C   UNL     1      42.351 133.296  18.442  1.00  0.00     0.102 A 
ATOM      8  Cl  UNL     1      41.607 131.883  17.682  1.00  0.00    -0.079 Cl
ATOM      9  C   UNL     1      41.497 134.334  18.914  1.00  0.00     0.075 A 
ATOM     10  Cl  UNL     1      39.775 133.982  19.078  1.00  0.00    -0.082 Cl
ATOM     11  C   UNL     1      41.921 135.650  19.231  1.00  0.00     0.085 A 
ATOM     12  C   UNL     1      42.952 136.304  18.521  1.00  0.00     0.088 A 
ENDROOT
BRANCH   1  13
ATOM     13  O   UNL     1      44.522 138.151  18.512  1.00  0.00    -0.506 OA
ATOM     14  H   UNL     1      45.529 138.242  18.422  1.00  0.00     0.293 HD
ENDBRANCH   1  13
BRANCH  12  15
ATOM     15  N   UNL     1      43.065 136.159  17.095  1.00  0.00    -0.369 N 
ATOM     16  H   UNL     1      43.967 135.780  16.743  1.00  0.00     0.161 HD
BRANCH  15  17
ATOM     17  C   UNL     1      42.119 136.742  16.124  1.00  0.00     0.113 C 
ATOM     18  C   UNL     1      42.797 137.410  14.945  1.00  0.00     0.193 C 
ATOM     19  C   UNL     1      41.729 138.173  16.473  1.00  0.00     0.193 C 
ATOM     20  O   UNL     1      42.380 138.696  15.341  1.00  0.00    -0.376 OA
BRANCH  17  21
ATOM     21  C   UNL     1      40.906 135.851  15.777  1.00  0.00     0.247 C 
ATOM     22  F   UNL     1      41.277 134.835  14.918  1.00  0.00    -0.248 F 
ENDBRANCH  17  21
ENDBRANCH  15  17
ENDBRANCH  12  15
BRANCH  11  23
ATOM     23  N   UNL     1      41.336 136.360  20.335  1.00  0.00    -0.057 NA
BRANCH  23  24
ATOM     24  N   UNL     1      40.535 137.282  20.183  1.00  0.00     0.005 N 
ATOM     25  N   UNL     1      39.731 138.199  20.041  1.00  0.00    -0.003 NA
ENDBRANCH  23  24
ENDBRANCH  11  23
BRANCH   6  26
ATOM     26  O   UNL     1      44.427 132.583  17.469  1.00  0.00    -0.424 OA
BRANCH  26  27
ATOM     27  C   UNL     1      45.167 131.408  17.652  1.00  0.00     0.331 C 
ATOM     28  O   UNL     1      45.307 130.889  18.792  1.00  0.00    -0.250 OA
BRANCH  27  29
ATOM     29  C   UNL     1      45.786 130.752  16.458  1.00  0.00     0.118 C 
ATOM     30  C   UNL     1      44.868 130.329  15.319  1.00  0.00     0.040 C 
ATOM     31  C   UNL     1      45.771 131.554  15.159  1.00  0.00     0.022 C 
BRANCH  29  32
ATOM     32  N   UNL     1      46.941 129.884  16.675  1.00  0.00    -0.316 NA
ATOM     33  H   UNL     1      47.716 130.474  17.055  1.00  0.00     0.119 HD
ATOM     34  H   UNL     1      47.253 129.531  15.742  1.00  0.00     0.119 HD
ENDBRANCH  29  32
BRANCH  31  35
ATOM     35  C   UNL     1      46.963 131.372  14.207  1.00  0.00     0.003 C 
ATOM     36  C   UNL     1      46.516 130.685  12.922  1.00  0.00     0.004 C 
ENDBRANCH  31  35
ENDBRANCH  27  29
ENDBRANCH  26  27
ENDBRANCH   6  26
TORSDOF 11
ENDMDL


