MODEL 1
REMARK VINA RESULT:      -5.1      0.000      0.000
REMARK SMILES C[N+]1(C)Cc2cc3ccc(-n4cc(CCN5C[C@@H](CN=[N+]=[N-])CN5C(=O)c5ccc(N)cc5)n[nH+]4)cc3cc2C1
REMARK SMILES IDX 24 1 16 2 17 3 18 4 23 5 25 6 26 7 27 8 28 9 29 10 30 11
REMARK SMILES IDX 33 12 32 13 31 14 15 17 14 18 13 19 34 20 12 21 35 22 11 23
REMARK SMILES IDX 10 25 9 26 36 27 8 28 37 29 7 30 38 31 6 32 39 33 5 34 40 35
REMARK SMILES IDX 4 36 2 37 1 38 3 39 19 40 20 41 21 42 22 43
REMARK H PARENT 31 15 31 16 35 24
ROOT
ATOM      1  N   UNL     1      45.266 137.551  23.523  1.00  0.00    -0.271 N 
ATOM      2  N   UNL     1      45.336 136.152  23.362  1.00  0.00    -0.218 NA
ATOM      3  C   UNL     1      46.731 135.817  23.696  1.00  0.00     0.114 C 
ATOM      4  C   UNL     1      47.251 136.918  24.623  1.00  0.00     0.032 C 
ATOM      5  C   UNL     1      46.385 138.117  24.268  1.00  0.00     0.145 C 
ENDROOT
BRANCH   1   6
ATOM      6  C   UNL     1      44.556 138.340  22.552  1.00  0.00     0.268 C 
ATOM      7  O   UNL     1      44.220 139.517  22.854  1.00  0.00    -0.268 OA
BRANCH   6   8
ATOM      8  C   UNL     1      44.205 137.814  21.208  1.00  0.00     0.041 A 
ATOM      9  C   UNL     1      42.867 137.590  20.838  1.00  0.00     0.016 A 
ATOM     10  C   UNL     1      42.556 137.058  19.583  1.00  0.00     0.026 A 
ATOM     11  C   UNL     1      43.577 136.714  18.689  1.00  0.00     0.031 A 
ATOM     12  C   UNL     1      45.225 137.454  20.309  1.00  0.00     0.016 A 
ATOM     13  C   UNL     1      44.913 136.911  19.059  1.00  0.00     0.026 A 
BRANCH  11  14
ATOM     14  N   UNL     1      43.260 136.137  17.419  1.00  0.00    -0.399 N 
ATOM     15  H   UNL     1      44.017 135.875  16.747  1.00  0.00     0.156 HD
ATOM     16  H   UNL     1      42.268 135.976  17.137  1.00  0.00     0.156 HD
ENDBRANCH  11  14
ENDBRANCH   6   8
ENDBRANCH   1   6
BRANCH   2  17
ATOM     17  C   UNL     1      44.398 135.508  24.309  1.00  0.00     0.115 C 
BRANCH  17  18
ATOM     18  C   UNL     1      42.964 135.457  23.749  1.00  0.00     0.082 C 
BRANCH  18  19
ATOM     19  C   UNL     1      42.756 134.293  22.827  1.00  0.00     0.134 A 
ATOM     20  N   UNL     1      41.933 133.257  23.076  1.00  0.00     0.020 NA
ATOM     21  C   UNL     1      43.334 134.106  21.592  1.00  0.00     0.190 A 
ATOM     22  N   UNL     1      41.994 132.475  22.010  1.00  0.00    -0.012 N 
ATOM     23  N   UNL     1      42.818 132.965  21.090  1.00  0.00    -0.104 N 
ATOM     24  H   UNL     1      41.450 131.588  21.928  1.00  0.00     0.527 HD
BRANCH  23  25
ATOM     25  C   UNL     1      42.995 132.447  19.750  1.00  0.00     0.107 A 
ATOM     26  C   UNL     1      41.941 132.488  18.815  1.00  0.00     0.033 A 
ATOM     27  C   UNL     1      44.255 131.976  19.326  1.00  0.00     0.041 A 
ATOM     28  C   UNL     1      42.140 132.095  17.490  1.00  0.00     0.011 A 
ATOM     29  C   UNL     1      44.472 131.603  17.993  1.00  0.00    -0.016 A 
ATOM     30  C   UNL     1      43.400 131.666  17.061  1.00  0.00    -0.018 A 
ATOM     31  C   UNL     1      45.749 131.194  17.562  1.00  0.00     0.019 A 
ATOM     32  C   UNL     1      43.620 131.320  15.713  1.00  0.00     0.018 A 
ATOM     33  C   UNL     1      45.929 130.871  16.217  1.00  0.00     0.016 A 
ATOM     34  C   UNL     1      44.903 130.932  15.325  1.00  0.00     0.016 A 
ATOM     35  C   UNL     1      47.172 130.424  15.553  1.00  0.00     0.301 C 
ATOM     36  C   UNL     1      45.360 130.534  13.977  1.00  0.00     0.301 C 
ATOM     37  N   UNL     1      46.838 130.317  14.096  1.00  0.00    -0.321 N 
ATOM     38  C   UNL     1      47.212 128.983  13.573  1.00  0.00     0.334 C 
ATOM     39  C   UNL     1      47.569 131.355  13.330  1.00  0.00     0.334 C 
ENDBRANCH  23  25
ENDBRANCH  18  19
ENDBRANCH  17  18
ENDBRANCH   2  17
BRANCH   4  40
ATOM     40  C   UNL     1      48.752 137.196  24.451  1.00  0.00     0.097 C 
BRANCH  40  41
ATOM     41  N   UNL     1      49.104 137.179  23.035  1.00  0.00    -0.094 NA
BRANCH  41  42
ATOM     42  N   UNL     1      49.769 136.260  22.558  1.00  0.00     0.001 N 
ATOM     43  N   UNL     1      50.436 135.341  22.083  1.00  0.00    -0.003 NA
ENDBRANCH  41  42
ENDBRANCH  40  41
ENDBRANCH   4  40
TORSDOF 10
ENDMDL
MODEL 2
REMARK VINA RESULT:      -4.7      2.164      4.824
REMARK SMILES C[N+]1(C)Cc2cc3ccc(-n4cc(CCN5C[C@@H](CN=[N+]=[N-])CN5C(=O)c5ccc(N)cc5)n[nH+]4)cc3cc2C1
REMARK SMILES IDX 24 1 16 2 17 3 18 4 23 5 25 6 26 7 27 8 28 9 29 10 30 11
REMARK SMILES IDX 33 12 32 13 31 14 15 17 14 18 13 19 34 20 12 21 35 22 11 23
REMARK SMILES IDX 10 25 9 26 36 27 8 28 37 29 7 30 38 31 6 32 39 33 5 34 40 35
REMARK SMILES IDX 4 36 2 37 1 38 3 39 19 40 20 41 21 42 22 43
REMARK H PARENT 31 15 31 16 35 24
ROOT
ATOM      1  N   UNL     1      44.247 138.066  20.226  1.00  0.00    -0.271 N 
ATOM      2  N   UNL     1      43.181 138.949  20.495  1.00  0.00    -0.218 NA
ATOM      3  C   UNL     1      42.597 139.228  19.173  1.00  0.00     0.114 C 
ATOM      4  C   UNL     1      42.935 138.040  18.269  1.00  0.00     0.032 C 
ATOM      5  C   UNL     1      44.196 137.466  18.897  1.00  0.00     0.145 C 
ENDROOT
BRANCH   1   6
ATOM      6  C   UNL     1      45.503 138.247  20.903  1.00  0.00     0.268 C 
ATOM      7  O   UNL     1      45.862 139.414  21.216  1.00  0.00    -0.268 OA
BRANCH   6   8
ATOM      8  C   UNL     1      46.390 137.105  21.245  1.00  0.00     0.041 A 
ATOM      9  C   UNL     1      47.760 137.125  20.929  1.00  0.00     0.016 A 
ATOM     10  C   UNL     1      48.572 136.025  21.222  1.00  0.00     0.026 A 
ATOM     11  C   UNL     1      48.025 134.878  21.810  1.00  0.00     0.031 A 
ATOM     12  C   UNL     1      45.845 135.944  21.824  1.00  0.00     0.016 A 
ATOM     13  C   UNL     1      46.657 134.841  22.106  1.00  0.00     0.026 A 
BRANCH  11  14
ATOM     14  N   UNL     1      48.850 133.741  22.079  1.00  0.00    -0.399 N 
ATOM     15  H   UNL     1      49.753 133.846  22.593  1.00  0.00     0.156 HD
ATOM     16  H   UNL     1      48.569 132.788  21.757  1.00  0.00     0.156 HD
ENDBRANCH  11  14
ENDBRANCH   6   8
ENDBRANCH   1   6
BRANCH   2  17
ATOM     17  C   UNL     1      42.201 138.271  21.372  1.00  0.00     0.115 C 
BRANCH  17  18
ATOM     18  C   UNL     1      42.665 136.855  21.763  1.00  0.00     0.082 C 
BRANCH  18  19
ATOM     19  C   UNL     1      42.224 135.819  20.773  1.00  0.00     0.134 A 
ATOM     20  N   UNL     1      40.947 135.432  20.588  1.00  0.00     0.020 NA
ATOM     21  C   UNL     1      43.023 135.128  19.891  1.00  0.00     0.190 A 
ATOM     22  N   UNL     1      40.970 134.547  19.604  1.00  0.00    -0.012 N 
ATOM     23  N   UNL     1      42.204 134.352  19.151  1.00  0.00    -0.104 N 
ATOM     24  H   UNL     1      40.111 134.077  19.247  1.00  0.00     0.527 HD
BRANCH  23  25
ATOM     25  C   UNL     1      42.565 133.574  17.985  1.00  0.00     0.107 A 
ATOM     26  C   UNL     1      41.682 133.462  16.891  1.00  0.00     0.033 A 
ATOM     27  C   UNL     1      43.844 132.989  17.882  1.00  0.00     0.041 A 
ATOM     28  C   UNL     1      42.069 132.808  15.719  1.00  0.00     0.011 A 
ATOM     29  C   UNL     1      44.251 132.353  16.702  1.00  0.00    -0.016 A 
ATOM     30  C   UNL     1      43.352 132.264  15.604  1.00  0.00    -0.018 A 
ATOM     31  C   UNL     1      45.552 131.827  16.583  1.00  0.00     0.019 A 
ATOM     32  C   UNL     1      43.767 131.651  14.405  1.00  0.00     0.018 A 
ATOM     33  C   UNL     1      45.928 131.239  15.376  1.00  0.00     0.016 A 
ATOM     34  C   UNL     1      45.068 131.155  14.325  1.00  0.00     0.016 A 
ATOM     35  C   UNL     1      47.232 130.631  15.033  1.00  0.00     0.301 C 
ATOM     36  C   UNL     1      45.712 130.484  13.176  1.00  0.00     0.301 C 
ATOM     37  N   UNL     1      47.134 130.249  13.588  1.00  0.00    -0.321 N 
ATOM     38  C   UNL     1      47.501 128.826  13.400  1.00  0.00     0.334 C 
ATOM     39  C   UNL     1      48.045 131.091  12.777  1.00  0.00     0.334 C 
ENDBRANCH  23  25
ENDBRANCH  18  19
ENDBRANCH  17  18
ENDBRANCH   2  17
BRANCH   4  40
ATOM     40  C   UNL     1      43.130 138.435  16.798  1.00  0.00     0.097 C 
BRANCH  40  41
ATOM     41  N   UNL     1      42.579 137.402  15.926  1.00  0.00    -0.094 NA
BRANCH  41  42
ATOM     42  N   UNL     1      41.636 137.644  15.174  1.00  0.00     0.001 N 
ATOM     43  N   UNL     1      40.693 137.888  14.421  1.00  0.00    -0.003 NA
ENDBRANCH  41  42
ENDBRANCH  40  41
ENDBRANCH   4  40
TORSDOF 10
ENDMDL
MODEL 3
REMARK VINA RESULT:      -4.1      3.910      5.691
REMARK SMILES C[N+]1(C)Cc2cc3ccc(-n4cc(CCN5C[C@@H](CN=[N+]=[N-])CN5C(=O)c5ccc(N)cc5)n[nH+]4)cc3cc2C1
REMARK SMILES IDX 24 1 16 2 17 3 18 4 23 5 25 6 26 7 27 8 28 9 29 10 30 11
REMARK SMILES IDX 33 12 32 13 31 14 15 17 14 18 13 19 34 20 12 21 35 22 11 23
REMARK SMILES IDX 10 25 9 26 36 27 8 28 37 29 7 30 38 31 6 32 39 33 5 34 40 35
REMARK SMILES IDX 4 36 2 37 1 38 3 39 19 40 20 41 21 42 22 43
REMARK H PARENT 31 15 31 16 35 24
ROOT
ATOM      1  N   UNL     1      38.962 135.833  20.444  1.00  0.00    -0.271 N 
ATOM      2  N   UNL     1      38.795 137.114  21.008  1.00  0.00    -0.218 NA
ATOM      3  C   UNL     1      39.473 137.028  22.313  1.00  0.00     0.114 C 
ATOM      4  C   UNL     1      40.526 135.924  22.203  1.00  0.00     0.032 C 
ATOM      5  C   UNL     1      39.984 135.026  21.102  1.00  0.00     0.145 C 
ENDROOT
BRANCH   1   6
ATOM      6  C   UNL     1      37.857 135.209  19.766  1.00  0.00     0.268 C 
ATOM      7  O   UNL     1      37.061 134.493  20.433  1.00  0.00    -0.268 OA
BRANCH   6   8
ATOM      8  C   UNL     1      37.623 135.381  18.309  1.00  0.00     0.041 A 
ATOM      9  C   UNL     1      36.559 134.730  17.661  1.00  0.00     0.016 A 
ATOM     10  C   UNL     1      36.375 134.871  16.282  1.00  0.00     0.026 A 
ATOM     11  C   UNL     1      37.267 135.640  15.525  1.00  0.00     0.031 A 
ATOM     12  C   UNL     1      38.521 136.142  17.541  1.00  0.00     0.016 A 
ATOM     13  C   UNL     1      38.343 136.272  16.160  1.00  0.00     0.026 A 
BRANCH  11  14
ATOM     14  N   UNL     1      37.099 135.756  14.109  1.00  0.00    -0.399 N 
ATOM     15  H   UNL     1      37.885 136.083  13.503  1.00  0.00     0.156 HD
ATOM     16  H   UNL     1      36.186 135.524  13.657  1.00  0.00     0.156 HD
ENDBRANCH  11  14
ENDBRANCH   6   8
ENDBRANCH   1   6
BRANCH   2  17
ATOM     17  C   UNL     1      39.452 138.115  20.138  1.00  0.00     0.115 C 
BRANCH  17  18
ATOM     18  C   UNL     1      40.921 138.349  20.541  1.00  0.00     0.082 C 
BRANCH  18  19
ATOM     19  C   UNL     1      41.873 137.541  19.711  1.00  0.00     0.134 A 
ATOM     20  N   UNL     1      43.215 137.645  19.767  1.00  0.00     0.020 NA
ATOM     21  C   UNL     1      41.547 136.565  18.798  1.00  0.00     0.190 A 
ATOM     22  N   UNL     1      43.688 136.739  18.926  1.00  0.00    -0.012 N 
ATOM     23  N   UNL     1      42.710 136.060  18.337  1.00  0.00    -0.104 N 
ATOM     24  H   UNL     1      44.709 136.596  18.767  1.00  0.00     0.527 HD
BRANCH  23  25
ATOM     25  C   UNL     1      42.878 134.901  17.486  1.00  0.00     0.107 A 
ATOM     26  C   UNL     1      41.772 134.322  16.830  1.00  0.00     0.033 A 
ATOM     27  C   UNL     1      44.164 134.384  17.225  1.00  0.00     0.041 A 
ATOM     28  C   UNL     1      41.944 133.276  15.921  1.00  0.00     0.011 A 
ATOM     29  C   UNL     1      44.349 133.351  16.296  1.00  0.00    -0.016 A 
ATOM     30  C   UNL     1      43.224 132.791  15.632  1.00  0.00    -0.018 A 
ATOM     31  C   UNL     1      45.643 132.884  15.993  1.00  0.00     0.019 A 
ATOM     32  C   UNL     1      43.407 131.773  14.677  1.00  0.00     0.018 A 
ATOM     33  C   UNL     1      45.783 131.883  15.032  1.00  0.00     0.016 A 
ATOM     34  C   UNL     1      44.706 131.348  14.396  1.00  0.00     0.016 A 
ATOM     35  C   UNL     1      47.034 131.251  14.561  1.00  0.00     0.301 C 
ATOM     36  C   UNL     1      45.131 130.307  13.436  1.00  0.00     0.301 C 
ATOM     37  N   UNL     1      46.629 130.322  13.458  1.00  0.00    -0.321 N 
ATOM     38  C   UNL     1      47.159 128.961  13.703  1.00  0.00     0.334 C 
ATOM     39  C   UNL     1      47.152 130.814  12.161  1.00  0.00     0.334 C 
ENDBRANCH  23  25
ENDBRANCH  18  19
ENDBRANCH  17  18
ENDBRANCH   2  17
BRANCH   4  40
ATOM     40  C   UNL     1      40.756 135.174  23.524  1.00  0.00     0.097 C 
BRANCH  40  41
ATOM     41  N   UNL     1      42.123 134.666  23.579  1.00  0.00    -0.094 NA
BRANCH  41  42
ATOM     42  N   UNL     1      42.367 133.480  23.361  1.00  0.00     0.001 N 
ATOM     43  N   UNL     1      42.612 132.294  23.141  1.00  0.00    -0.003 NA
ENDBRANCH  41  42
ENDBRANCH  40  41
ENDBRANCH   4  40
TORSDOF 10
ENDMDL
MODEL 4
REMARK VINA RESULT:      -4.1      2.242      3.765
REMARK SMILES C[N+]1(C)Cc2cc3ccc(-n4cc(CCN5C[C@@H](CN=[N+]=[N-])CN5C(=O)c5ccc(N)cc5)n[nH+]4)cc3cc2C1
REMARK SMILES IDX 24 1 16 2 17 3 18 4 23 5 25 6 26 7 27 8 28 9 29 10 30 11
REMARK SMILES IDX 33 12 32 13 31 14 15 17 14 18 13 19 34 20 12 21 35 22 11 23
REMARK SMILES IDX 10 25 9 26 36 27 8 28 37 29 7 30 38 31 6 32 39 33 5 34 40 35
REMARK SMILES IDX 4 36 2 37 1 38 3 39 19 40 20 41 21 42 22 43
REMARK H PARENT 31 15 31 16 35 24
ROOT
ATOM      1  N   UNL     1      44.647 136.178  22.908  1.00  0.00    -0.271 N 
ATOM      2  N   UNL     1      44.015 137.289  23.502  1.00  0.00    -0.218 NA
ATOM      3  C   UNL     1      45.034 138.351  23.462  1.00  0.00     0.114 C 
ATOM      4  C   UNL     1      45.986 138.021  22.311  1.00  0.00     0.032 C 
ATOM      5  C   UNL     1      45.858 136.512  22.168  1.00  0.00     0.145 C 
ENDROOT
BRANCH   1   6
ATOM      6  C   UNL     1      44.479 134.874  23.492  1.00  0.00     0.268 C 
ATOM      7  O   UNL     1      43.884 134.776  24.600  1.00  0.00    -0.268 OA
BRANCH   6   8
ATOM      8  C   UNL     1      44.981 133.640  22.834  1.00  0.00     0.041 A 
ATOM      9  C   UNL     1      45.350 133.637  21.477  1.00  0.00     0.016 A 
ATOM     10  C   UNL     1      45.784 132.459  20.862  1.00  0.00     0.026 A 
ATOM     11  C   UNL     1      45.830 131.260  21.584  1.00  0.00     0.031 A 
ATOM     12  C   UNL     1      45.018 132.430  23.549  1.00  0.00     0.016 A 
ATOM     13  C   UNL     1      45.441 131.250  22.929  1.00  0.00     0.026 A 
BRANCH  11  14
ATOM     14  N   UNL     1      46.240 130.048  20.945  1.00  0.00    -0.399 N 
ATOM     15  H   UNL     1      47.244 129.757  20.946  1.00  0.00     0.156 HD
ATOM     16  H   UNL     1      45.547 129.436  20.459  1.00  0.00     0.156 HD
ENDBRANCH  11  14
ENDBRANCH   6   8
ENDBRANCH   1   6
BRANCH   2  17
ATOM     17  C   UNL     1      42.833 137.663  22.694  1.00  0.00     0.115 C 
BRANCH  17  18
ATOM     18  C   UNL     1      43.235 138.238  21.323  1.00  0.00     0.082 C 
BRANCH  18  19
ATOM     19  C   UNL     1      42.809 137.354  20.189  1.00  0.00     0.134 A 
ATOM     20  N   UNL     1      41.976 137.726  19.198  1.00  0.00     0.020 NA
ATOM     21  C   UNL     1      43.208 136.057  19.961  1.00  0.00     0.190 A 
ATOM     22  N   UNL     1      41.892 136.690  18.380  1.00  0.00    -0.012 N 
ATOM     23  N   UNL     1      42.634 135.672  18.802  1.00  0.00    -0.104 N 
ATOM     24  H   UNL     1      41.307 136.699  17.516  1.00  0.00     0.527 HD
BRANCH  23  25
ATOM     25  C   UNL     1      42.891 134.451  18.068  1.00  0.00     0.107 A 
ATOM     26  C   UNL     1      41.859 133.520  17.832  1.00  0.00     0.033 A 
ATOM     27  C   UNL     1      44.159 134.213  17.497  1.00  0.00     0.041 A 
ATOM     28  C   UNL     1      42.074 132.397  17.029  1.00  0.00     0.011 A 
ATOM     29  C   UNL     1      44.378 133.103  16.670  1.00  0.00    -0.016 A 
ATOM     30  C   UNL     1      43.320 132.184  16.431  1.00  0.00    -0.018 A 
ATOM     31  C   UNL     1      45.628 132.906  16.051  1.00  0.00     0.019 A 
ATOM     32  C   UNL     1      43.527 131.083  15.577  1.00  0.00     0.018 A 
ATOM     33  C   UNL     1      45.789 131.810  15.204  1.00  0.00     0.016 A 
ATOM     34  C   UNL     1      44.776 130.931  14.973  1.00  0.00     0.016 A 
ATOM     35  C   UNL     1      47.001 131.416  14.456  1.00  0.00     0.301 C 
ATOM     36  C   UNL     1      45.211 129.864  14.048  1.00  0.00     0.301 C 
ATOM     37  N   UNL     1      46.600 130.235  13.626  1.00  0.00    -0.321 N 
ATOM     38  C   UNL     1      47.530 129.104  13.848  1.00  0.00     0.334 C 
ATOM     39  C   UNL     1      46.617 130.595  12.188  1.00  0.00     0.334 C 
ENDBRANCH  23  25
ENDBRANCH  18  19
ENDBRANCH  17  18
ENDBRANCH   2  17
BRANCH   4  40
ATOM     40  C   UNL     1      47.431 138.473  22.570  1.00  0.00     0.097 C 
BRANCH  40  41
ATOM     41  N   UNL     1      47.912 139.276  21.452  1.00  0.00    -0.094 NA
BRANCH  41  42
ATOM     42  N   UNL     1      47.217 139.450  20.451  1.00  0.00     0.001 N 
ATOM     43  N   UNL     1      46.522 139.625  19.450  1.00  0.00    -0.003 NA
ENDBRANCH  41  42
ENDBRANCH  40  41
ENDBRANCH   4  40
TORSDOF 10
ENDMDL
MODEL 5
REMARK VINA RESULT:      -4.0      3.650      5.231
REMARK SMILES C[N+]1(C)Cc2cc3ccc(-n4cc(CCN5C[C@@H](CN=[N+]=[N-])CN5C(=O)c5ccc(N)cc5)n[nH+]4)cc3cc2C1
REMARK SMILES IDX 24 1 16 2 17 3 18 4 23 5 25 6 26 7 27 8 28 9 29 10 30 11
REMARK SMILES IDX 33 12 32 13 31 14 15 17 14 18 13 19 34 20 12 21 35 22 11 23
REMARK SMILES IDX 10 25 9 26 36 27 8 28 37 29 7 30 38 31 6 32 39 33 5 34 40 35
REMARK SMILES IDX 4 36 2 37 1 38 3 39 19 40 20 41 21 42 22 43
REMARK H PARENT 31 15 31 16 35 24
ROOT
ATOM      1  N   UNL     1      39.622 135.968  21.118  1.00  0.00    -0.271 N 
ATOM      2  N   UNL     1      39.935 137.011  22.013  1.00  0.00    -0.218 NA
ATOM      3  C   UNL     1      40.523 136.327  23.177  1.00  0.00     0.114 C 
ATOM      4  C   UNL     1      41.095 134.998  22.679  1.00  0.00     0.032 C 
ATOM      5  C   UNL     1      40.268 134.701  21.437  1.00  0.00     0.145 C 
ENDROOT
BRANCH   1   6
ATOM      6  C   UNL     1      38.369 135.997  20.410  1.00  0.00     0.268 C 
ATOM      7  O   UNL     1      37.348 136.443  21.000  1.00  0.00    -0.268 OA
BRANCH   6   8
ATOM      8  C   UNL     1      38.241 135.520  19.009  1.00  0.00     0.041 A 
ATOM      9  C   UNL     1      37.289 136.074  18.135  1.00  0.00     0.016 A 
ATOM     10  C   UNL     1      37.154 135.587  16.831  1.00  0.00     0.026 A 
ATOM     11  C   UNL     1      37.948 134.521  16.388  1.00  0.00     0.031 A 
ATOM     12  C   UNL     1      39.026 134.443  18.561  1.00  0.00     0.016 A 
ATOM     13  C   UNL     1      38.881 133.949  17.260  1.00  0.00     0.026 A 
BRANCH  11  14
ATOM     14  N   UNL     1      37.785 134.001  15.066  1.00  0.00    -0.399 N 
ATOM     15  H   UNL     1      36.833 133.812  14.680  1.00  0.00     0.156 HD
ATOM     16  H   UNL     1      38.615 133.792  14.467  1.00  0.00     0.156 HD
ENDBRANCH  11  14
ENDBRANCH   6   8
ENDBRANCH   1   6
BRANCH   2  17
ATOM     17  C   UNL     1      40.922 137.913  21.378  1.00  0.00     0.115 C 
BRANCH  17  18
ATOM     18  C   UNL     1      41.080 137.622  19.874  1.00  0.00     0.082 C 
BRANCH  18  19
ATOM     19  C   UNL     1      42.098 136.555  19.605  1.00  0.00     0.134 A 
ATOM     20  N   UNL     1      43.121 136.250  20.425  1.00  0.00     0.020 NA
ATOM     21  C   UNL     1      42.141 135.710  18.519  1.00  0.00     0.190 A 
ATOM     22  N   UNL     1      43.754 135.233  19.862  1.00  0.00    -0.012 N 
ATOM     23  N   UNL     1      43.180 134.873  18.719  1.00  0.00    -0.104 N 
ATOM     24  H   UNL     1      44.596 134.788  20.286  1.00  0.00     0.527 HD
BRANCH  23  25
ATOM     25  C   UNL     1      43.519 133.707  17.932  1.00  0.00     0.107 A 
ATOM     26  C   UNL     1      42.610 132.637  17.799  1.00  0.00     0.033 A 
ATOM     27  C   UNL     1      44.729 133.659  17.209  1.00  0.00     0.041 A 
ATOM     28  C   UNL     1      42.885 131.563  16.950  1.00  0.00     0.011 A 
ATOM     29  C   UNL     1      45.003 132.597  16.336  1.00  0.00    -0.016 A 
ATOM     30  C   UNL     1      44.066 131.535  16.202  1.00  0.00    -0.018 A 
ATOM     31  C   UNL     1      46.184 132.587  15.568  1.00  0.00     0.019 A 
ATOM     32  C   UNL     1      44.324 130.481  15.305  1.00  0.00     0.018 A 
ATOM     33  C   UNL     1      46.396 131.531  14.682  1.00  0.00     0.016 A 
ATOM     34  C   UNL     1      45.499 130.516  14.554  1.00  0.00     0.016 A 
ATOM     35  C   UNL     1      47.553 131.321  13.786  1.00  0.00     0.301 C 
ATOM     36  C   UNL     1      45.967 129.529  13.559  1.00  0.00     0.301 C 
ATOM     37  N   UNL     1      47.228 130.099  12.983  1.00  0.00    -0.321 N 
ATOM     38  C   UNL     1      48.330 129.114  13.066  1.00  0.00     0.334 C 
ATOM     39  C   UNL     1      47.018 130.466  11.562  1.00  0.00     0.334 C 
ENDBRANCH  23  25
ENDBRANCH  18  19
ENDBRANCH  17  18
ENDBRANCH   2  17
BRANCH   4  40
ATOM     40  C   UNL     1      41.021 133.876  23.725  1.00  0.00     0.097 C 
BRANCH  40  41
ATOM     41  N   UNL     1      42.299 133.176  23.799  1.00  0.00    -0.094 NA
BRANCH  41  42
ATOM     42  N   UNL     1      42.364 132.016  24.208  1.00  0.00     0.001 N 
ATOM     43  N   UNL     1      42.429 130.857  24.615  1.00  0.00    -0.003 NA
ENDBRANCH  41  42
ENDBRANCH  40  41
ENDBRANCH   4  40
TORSDOF 10
ENDMDL
MODEL 6
REMARK VINA RESULT:      -3.9      2.783      4.399
REMARK SMILES C[N+]1(C)Cc2cc3ccc(-n4cc(CCN5C[C@@H](CN=[N+]=[N-])CN5C(=O)c5ccc(N)cc5)n[nH+]4)cc3cc2C1
REMARK SMILES IDX 24 1 16 2 17 3 18 4 23 5 25 6 26 7 27 8 28 9 29 10 30 11
REMARK SMILES IDX 33 12 32 13 31 14 15 17 14 18 13 19 34 20 12 21 35 22 11 23
REMARK SMILES IDX 10 25 9 26 36 27 8 28 37 29 7 30 38 31 6 32 39 33 5 34 40 35
REMARK SMILES IDX 4 36 2 37 1 38 3 39 19 40 20 41 21 42 22 43
REMARK H PARENT 31 15 31 16 35 24
ROOT
ATOM      1  N   UNL     1      41.926 134.285  22.592  1.00  0.00    -0.271 N 
ATOM      2  N   UNL     1      40.898 134.711  23.458  1.00  0.00    -0.218 NA
ATOM      3  C   UNL     1      41.283 136.081  23.834  1.00  0.00     0.114 C 
ATOM      4  C   UNL     1      42.171 136.625  22.713  1.00  0.00     0.032 C 
ATOM      5  C   UNL     1      42.762 135.370  22.090  1.00  0.00     0.145 C 
ENDROOT
BRANCH   1   6
ATOM      6  C   UNL     1      42.450 132.951  22.718  1.00  0.00     0.268 C 
ATOM      7  O   UNL     1      41.922 132.168  23.553  1.00  0.00    -0.268 OA
BRANCH   6   8
ATOM      8  C   UNL     1      43.589 132.467  21.896  1.00  0.00     0.041 A 
ATOM      9  C   UNL     1      43.382 131.893  20.630  1.00  0.00     0.016 A 
ATOM     10  C   UNL     1      44.461 131.406  19.886  1.00  0.00     0.026 A 
ATOM     11  C   UNL     1      45.760 131.459  20.407  1.00  0.00     0.031 A 
ATOM     12  C   UNL     1      44.894 132.506  22.418  1.00  0.00     0.016 A 
ATOM     13  C   UNL     1      45.971 132.007  21.677  1.00  0.00     0.026 A 
BRANCH  11  14
ATOM     14  N   UNL     1      46.859 130.930  19.661  1.00  0.00    -0.399 N 
ATOM     15  H   UNL     1      47.589 130.344  20.126  1.00  0.00     0.156 HD
ATOM     16  H   UNL     1      46.958 131.127  18.639  1.00  0.00     0.156 HD
ENDBRANCH  11  14
ENDBRANCH   6   8
ENDBRANCH   1   6
BRANCH   2  17
ATOM     17  C   UNL     1      39.613 134.707  22.723  1.00  0.00     0.115 C 
BRANCH  17  18
ATOM     18  C   UNL     1      39.657 135.629  21.489  1.00  0.00     0.082 C 
BRANCH  18  19
ATOM     19  C   UNL     1      39.588 134.861  20.204  1.00  0.00     0.134 A 
ATOM     20  N   UNL     1      38.455 134.616  19.518  1.00  0.00     0.020 NA
ATOM     21  C   UNL     1      40.645 134.316  19.511  1.00  0.00     0.190 A 
ATOM     22  N   UNL     1      38.819 133.960  18.428  1.00  0.00    -0.012 N 
ATOM     23  N   UNL     1      40.134 133.776  18.385  1.00  0.00    -0.104 N 
ATOM     24  H   UNL     1      38.136 133.639  17.708  1.00  0.00     0.527 HD
BRANCH  23  25
ATOM     25  C   UNL     1      40.877 133.237  17.265  1.00  0.00     0.107 A 
ATOM     26  C   UNL     1      40.486 133.515  15.940  1.00  0.00     0.033 A 
ATOM     27  C   UNL     1      42.060 132.501  17.479  1.00  0.00     0.041 A 
ATOM     28  C   UNL     1      41.263 133.094  14.858  1.00  0.00     0.011 A 
ATOM     29  C   UNL     1      42.860 132.095  16.402  1.00  0.00    -0.016 A 
ATOM     30  C   UNL     1      42.457 132.399  15.073  1.00  0.00    -0.018 A 
ATOM     31  C   UNL     1      44.073 131.416  16.626  1.00  0.00     0.019 A 
ATOM     32  C   UNL     1      43.271 132.019  13.988  1.00  0.00     0.018 A 
ATOM     33  C   UNL     1      44.857 131.067  15.526  1.00  0.00     0.016 A 
ATOM     34  C   UNL     1      44.472 131.359  14.254  1.00  0.00     0.016 A 
ATOM     35  C   UNL     1      46.155 130.359  15.529  1.00  0.00     0.301 C 
ATOM     36  C   UNL     1      45.474 130.876  13.282  1.00  0.00     0.301 C 
ATOM     37  N   UNL     1      46.607 130.336  14.101  1.00  0.00    -0.321 N 
ATOM     38  C   UNL     1      46.939 128.955  13.683  1.00  0.00     0.334 C 
ATOM     39  C   UNL     1      47.808 131.190  13.935  1.00  0.00     0.334 C 
ENDBRANCH  23  25
ENDBRANCH  18  19
ENDBRANCH  17  18
ENDBRANCH   2  17
BRANCH   4  40
ATOM     40  C   UNL     1      43.245 137.604  23.212  1.00  0.00     0.097 C 
BRANCH  40  41
ATOM     41  N   UNL     1      43.881 137.077  24.414  1.00  0.00    -0.094 NA
BRANCH  41  42
ATOM     42  N   UNL     1      45.038 136.657  24.387  1.00  0.00     0.001 N 
ATOM     43  N   UNL     1      46.195 136.237  24.362  1.00  0.00    -0.003 NA
ENDBRANCH  41  42
ENDBRANCH  40  41
ENDBRANCH   4  40
TORSDOF 10
ENDMDL
MODEL 7
REMARK VINA RESULT:      -3.7      2.911      3.879
REMARK SMILES C[N+]1(C)Cc2cc3ccc(-n4cc(CCN5C[C@@H](CN=[N+]=[N-])CN5C(=O)c5ccc(N)cc5)n[nH+]4)cc3cc2C1
REMARK SMILES IDX 24 1 16 2 17 3 18 4 23 5 25 6 26 7 27 8 28 9 29 10 30 11
REMARK SMILES IDX 33 12 32 13 31 14 15 17 14 18 13 19 34 20 12 21 35 22 11 23
REMARK SMILES IDX 10 25 9 26 36 27 8 28 37 29 7 30 38 31 6 32 39 33 5 34 40 35
REMARK SMILES IDX 4 36 2 37 1 38 3 39 19 40 20 41 21 42 22 43
REMARK H PARENT 31 15 31 16 35 24
ROOT
ATOM      1  N   UNL     1      40.528 136.935  23.789  1.00  0.00    -0.271 N 
ATOM      2  N   UNL     1      41.216 135.892  23.137  1.00  0.00    -0.218 NA
ATOM      3  C   UNL     1      42.578 136.417  22.947  1.00  0.00     0.114 C 
ATOM      4  C   UNL     1      42.808 137.478  24.026  1.00  0.00     0.032 C 
ATOM      5  C   UNL     1      41.403 137.955  24.357  1.00  0.00     0.145 C 
ENDROOT
BRANCH   1   6
ATOM      6  C   UNL     1      39.187 137.261  23.383  1.00  0.00     0.268 C 
ATOM      7  O   UNL     1      38.437 137.868  24.195  1.00  0.00    -0.268 OA
BRANCH   6   8
ATOM      8  C   UNL     1      38.658 136.907  22.040  1.00  0.00     0.041 A 
ATOM      9  C   UNL     1      37.764 135.835  21.869  1.00  0.00     0.016 A 
ATOM     10  C   UNL     1      37.306 135.490  20.593  1.00  0.00     0.026 A 
ATOM     11  C   UNL     1      37.755 136.192  19.467  1.00  0.00     0.031 A 
ATOM     12  C   UNL     1      39.113 137.599  20.904  1.00  0.00     0.016 A 
ATOM     13  C   UNL     1      38.663 137.245  19.628  1.00  0.00     0.026 A 
BRANCH  11  14
ATOM     14  N   UNL     1      37.313 135.817  18.160  1.00  0.00    -0.399 N 
ATOM     15  H   UNL     1      37.608 136.363  17.319  1.00  0.00     0.156 HD
ATOM     16  H   UNL     1      36.681 134.996  18.023  1.00  0.00     0.156 HD
ENDBRANCH  11  14
ENDBRANCH   6   8
ENDBRANCH   1   6
BRANCH   2  17
ATOM     17  C   UNL     1      41.228 134.699  24.012  1.00  0.00     0.115 C 
BRANCH  17  18
ATOM     18  C   UNL     1      41.849 133.477  23.307  1.00  0.00     0.082 C 
BRANCH  18  19
ATOM     19  C   UNL     1      41.593 133.483  21.830  1.00  0.00     0.134 A 
ATOM     20  N   UNL     1      40.703 134.282  21.211  1.00  0.00     0.020 NA
ATOM     21  C   UNL     1      42.227 132.715  20.880  1.00  0.00     0.190 A 
ATOM     22  N   UNL     1      40.811 134.020  19.918  1.00  0.00    -0.012 N 
ATOM     23  N   UNL     1      41.731 133.091  19.683  1.00  0.00    -0.104 N 
ATOM     24  H   UNL     1      40.233 134.499  19.195  1.00  0.00     0.527 HD
BRANCH  23  25
ATOM     25  C   UNL     1      42.211 132.684  18.378  1.00  0.00     0.107 A 
ATOM     26  C   UNL     1      41.476 132.986  17.214  1.00  0.00     0.033 A 
ATOM     27  C   UNL     1      43.468 132.060  18.241  1.00  0.00     0.041 A 
ATOM     28  C   UNL     1      41.987 132.698  15.947  1.00  0.00     0.011 A 
ATOM     29  C   UNL     1      44.001 131.789  16.973  1.00  0.00    -0.016 A 
ATOM     30  C   UNL     1      43.252 132.115  15.810  1.00  0.00    -0.018 A 
ATOM     31  C   UNL     1      45.284 131.224  16.842  1.00  0.00     0.019 A 
ATOM     32  C   UNL     1      43.795 131.872  14.534  1.00  0.00     0.018 A 
ATOM     33  C   UNL     1      45.792 131.009  15.560  1.00  0.00     0.016 A 
ATOM     34  C   UNL     1      45.075 131.323  14.447  1.00  0.00     0.016 A 
ATOM     35  C   UNL     1      47.103 130.435  15.192  1.00  0.00     0.301 C 
ATOM     36  C   UNL     1      45.837 130.990  13.225  1.00  0.00     0.301 C 
ATOM     37  N   UNL     1      47.181 130.527  13.698  1.00  0.00    -0.321 N 
ATOM     38  C   UNL     1      47.512 129.207  13.113  1.00  0.00     0.334 C 
ATOM     39  C   UNL     1      48.225 131.503  13.303  1.00  0.00     0.334 C 
ENDBRANCH  23  25
ENDBRANCH  18  19
ENDBRANCH  17  18
ENDBRANCH   2  17
BRANCH   4  40
ATOM     40  C   UNL     1      43.731 138.617  23.568  1.00  0.00     0.097 C 
BRANCH  40  41
ATOM     41  N   UNL     1      43.719 138.716  22.112  1.00  0.00    -0.094 NA
BRANCH  41  42
ATOM     42  N   UNL     1      44.767 138.816  21.475  1.00  0.00     0.001 N 
ATOM     43  N   UNL     1      45.816 138.917  20.839  1.00  0.00    -0.003 NA
ENDBRANCH  41  42
ENDBRANCH  40  41
ENDBRANCH   4  40
TORSDOF 10
ENDMDL
MODEL 8
REMARK VINA RESULT:      -3.4      3.846      5.684
REMARK SMILES C[N+]1(C)Cc2cc3ccc(-n4cc(CCN5C[C@@H](CN=[N+]=[N-])CN5C(=O)c5ccc(N)cc5)n[nH+]4)cc3cc2C1
REMARK SMILES IDX 24 1 16 2 17 3 18 4 23 5 25 6 26 7 27 8 28 9 29 10 30 11
REMARK SMILES IDX 33 12 32 13 31 14 15 17 14 18 13 19 34 20 12 21 35 22 11 23
REMARK SMILES IDX 10 25 9 26 36 27 8 28 37 29 7 30 38 31 6 32 39 33 5 34 40 35
REMARK SMILES IDX 4 36 2 37 1 38 3 39 19 40 20 41 21 42 22 43
REMARK H PARENT 31 15 31 16 35 24
ROOT
ATOM      1  N   UNL     1      41.393 137.767  17.345  1.00  0.00    -0.271 N 
ATOM      2  N   UNL     1      40.786 137.041  18.389  1.00  0.00    -0.218 NA
ATOM      3  C   UNL     1      41.462 137.521  19.606  1.00  0.00     0.114 C 
ATOM      4  C   UNL     1      41.988 138.926  19.307  1.00  0.00     0.032 C 
ATOM      5  C   UNL     1      42.154 138.927  17.795  1.00  0.00     0.145 C 
ENDROOT
BRANCH   1   6
ATOM      6  C   UNL     1      41.737 137.092  16.122  1.00  0.00     0.268 C 
ATOM      7  O   UNL     1      42.955 136.968  15.818  1.00  0.00    -0.268 OA
BRANCH   6   8
ATOM      8  C   UNL     1      40.707 136.537  15.206  1.00  0.00     0.041 A 
ATOM      9  C   UNL     1      40.476 135.152  15.123  1.00  0.00     0.016 A 
ATOM     10  C   UNL     1      39.530 134.643  14.228  1.00  0.00     0.026 A 
ATOM     11  C   UNL     1      38.821 135.505  13.382  1.00  0.00     0.031 A 
ATOM     12  C   UNL     1      39.999 137.395  14.346  1.00  0.00     0.016 A 
ATOM     13  C   UNL     1      39.062 136.883  13.443  1.00  0.00     0.026 A 
BRANCH  11  14
ATOM     14  N   UNL     1      37.879 134.981  12.443  1.00  0.00    -0.399 N 
ATOM     15  H   UNL     1      37.215 135.614  11.942  1.00  0.00     0.156 HD
ATOM     16  H   UNL     1      37.830 133.955  12.248  1.00  0.00     0.156 HD
ENDBRANCH  11  14
ENDBRANCH   6   8
ENDBRANCH   1   6
BRANCH   2  17
ATOM     17  C   UNL     1      39.342 137.363  18.427  1.00  0.00     0.115 C 
BRANCH  17  18
ATOM     18  C   UNL     1      38.480 136.107  18.660  1.00  0.00     0.082 C 
BRANCH  18  19
ATOM     19  C   UNL     1      39.247 134.841  18.422  1.00  0.00     0.134 A 
ATOM     20  N   UNL     1      38.696 133.675  18.033  1.00  0.00     0.020 NA
ATOM     21  C   UNL     1      40.608 134.668  18.530  1.00  0.00     0.190 A 
ATOM     22  N   UNL     1      39.700 132.825  17.887  1.00  0.00    -0.012 N 
ATOM     23  N   UNL     1      40.868 133.395  18.164  1.00  0.00    -0.104 N 
ATOM     24  H   UNL     1      39.563 131.835  17.589  1.00  0.00     0.527 HD
BRANCH  23  25
ATOM     25  C   UNL     1      42.171 132.800  17.957  1.00  0.00     0.107 A 
ATOM     26  C   UNL     1      42.847 132.157  19.014  1.00  0.00     0.033 A 
ATOM     27  C   UNL     1      42.749 132.773  16.671  1.00  0.00     0.041 A 
ATOM     28  C   UNL     1      44.050 131.484  18.793  1.00  0.00     0.011 A 
ATOM     29  C   UNL     1      43.944 132.079  16.434  1.00  0.00    -0.016 A 
ATOM     30  C   UNL     1      44.602 131.423  17.510  1.00  0.00    -0.018 A 
ATOM     31  C   UNL     1      44.481 132.002  15.134  1.00  0.00     0.019 A 
ATOM     32  C   UNL     1      45.787 130.700  17.271  1.00  0.00     0.018 A 
ATOM     33  C   UNL     1      45.651 131.267  14.938  1.00  0.00     0.016 A 
ATOM     34  C   UNL     1      46.280 130.637  15.967  1.00  0.00     0.016 A 
ATOM     35  C   UNL     1      46.381 131.053  13.670  1.00  0.00     0.301 C 
ATOM     36  C   UNL     1      47.492 129.940  15.489  1.00  0.00     0.301 C 
ATOM     37  N   UNL     1      47.497 130.109  14.001  1.00  0.00    -0.321 N 
ATOM     38  C   UNL     1      48.795 130.659  13.545  1.00  0.00     0.334 C 
ATOM     39  C   UNL     1      47.271 128.803  13.338  1.00  0.00     0.334 C 
ENDBRANCH  23  25
ENDBRANCH  18  19
ENDBRANCH  17  18
ENDBRANCH   2  17
BRANCH   4  40
ATOM     40  C   UNL     1      43.292 139.256  20.049  1.00  0.00     0.097 C 
BRANCH  40  41
ATOM     41  N   UNL     1      43.281 138.646  21.374  1.00  0.00    -0.094 NA
BRANCH  41  42
ATOM     42  N   UNL     1      42.623 139.136  22.292  1.00  0.00     0.001 N 
ATOM     43  N   UNL     1      41.964 139.625  23.209  1.00  0.00    -0.003 NA
ENDBRANCH  41  42
ENDBRANCH  40  41
ENDBRANCH   4  40
TORSDOF 10
ENDMDL
MODEL 9
REMARK VINA RESULT:      -3.3      4.968      6.636
REMARK SMILES C[N+]1(C)Cc2cc3ccc(-n4cc(CCN5C[C@@H](CN=[N+]=[N-])CN5C(=O)c5ccc(N)cc5)n[nH+]4)cc3cc2C1
REMARK SMILES IDX 24 1 16 2 17 3 18 4 23 5 25 6 26 7 27 8 28 9 29 10 30 11
REMARK SMILES IDX 33 12 32 13 31 14 15 17 14 18 13 19 34 20 12 21 35 22 11 23
REMARK SMILES IDX 10 25 9 26 36 27 8 28 37 29 7 30 38 31 6 32 39 33 5 34 40 35
REMARK SMILES IDX 4 36 2 37 1 38 3 39 19 40 20 41 21 42 22 43
REMARK H PARENT 31 15 31 16 35 24
ROOT
ATOM      1  N   UNL     1      39.615 137.465  21.078  1.00  0.00    -0.271 N 
ATOM      2  N   UNL     1      38.429 138.095  20.647  1.00  0.00    -0.218 NA
ATOM      3  C   UNL     1      37.730 138.445  21.894  1.00  0.00     0.114 C 
ATOM      4  C   UNL     1      38.791 138.569  22.989  1.00  0.00     0.032 C 
ATOM      5  C   UNL     1      39.921 137.683  22.487  1.00  0.00     0.145 C 
ENDROOT
BRANCH   1   6
ATOM      6  C   UNL     1      40.073 136.281  20.401  1.00  0.00     0.268 C 
ATOM      7  O   UNL     1      41.310 136.132  20.207  1.00  0.00    -0.268 OA
BRANCH   6   8
ATOM      8  C   UNL     1      39.139 135.230  19.924  1.00  0.00     0.041 A 
ATOM      9  C   UNL     1      39.538 134.278  18.969  1.00  0.00     0.016 A 
ATOM     10  C   UNL     1      38.634 133.319  18.501  1.00  0.00     0.026 A 
ATOM     11  C   UNL     1      37.310 133.313  18.959  1.00  0.00     0.031 A 
ATOM     12  C   UNL     1      37.805 135.224  20.370  1.00  0.00     0.016 A 
ATOM     13  C   UNL     1      36.899 134.272  19.892  1.00  0.00     0.026 A 
BRANCH  11  14
ATOM     14  N   UNL     1      36.377 132.353  18.455  1.00  0.00    -0.399 N 
ATOM     15  H   UNL     1      35.806 132.560  17.604  1.00  0.00     0.156 HD
ATOM     16  H   UNL     1      36.243 131.434  18.933  1.00  0.00     0.156 HD
ENDBRANCH  11  14
ENDBRANCH   6   8
ENDBRANCH   1   6
BRANCH   2  17
ATOM     17  C   UNL     1      38.779 139.311  19.880  1.00  0.00     0.115 C 
BRANCH  17  18
ATOM     18  C   UNL     1      38.550 139.121  18.368  1.00  0.00     0.082 C 
BRANCH  18  19
ATOM     19  C   UNL     1      39.676 138.380  17.712  1.00  0.00     0.134 A 
ATOM     20  N   UNL     1      40.959 138.790  17.701  1.00  0.00     0.020 NA
ATOM     21  C   UNL     1      39.597 137.175  17.052  1.00  0.00     0.190 A 
ATOM     22  N   UNL     1      41.641 137.848  17.071  1.00  0.00    -0.012 N 
ATOM     23  N   UNL     1      40.853 136.852  16.680  1.00  0.00    -0.104 N 
ATOM     24  H   UNL     1      42.671 137.905  16.916  1.00  0.00     0.527 HD
BRANCH  23  25
ATOM     25  C   UNL     1      41.294 135.598  16.108  1.00  0.00     0.107 A 
ATOM     26  C   UNL     1      40.508 134.926  15.150  1.00  0.00     0.033 A 
ATOM     27  C   UNL     1      42.562 135.071  16.430  1.00  0.00     0.041 A 
ATOM     28  C   UNL     1      40.979 133.777  14.512  1.00  0.00     0.011 A 
ATOM     29  C   UNL     1      43.055 133.932  15.777  1.00  0.00    -0.016 A 
ATOM     30  C   UNL     1      42.253 133.278  14.802  1.00  0.00    -0.018 A 
ATOM     31  C   UNL     1      44.347 133.449  16.057  1.00  0.00     0.019 A 
ATOM     32  C   UNL     1      42.755 132.151  14.122  1.00  0.00     0.018 A 
ATOM     33  C   UNL     1      44.812 132.337  15.354  1.00  0.00     0.016 A 
ATOM     34  C   UNL     1      44.046 131.712  14.420  1.00  0.00     0.016 A 
ATOM     35  C   UNL     1      46.124 131.669  15.485  1.00  0.00     0.301 C 
ATOM     36  C   UNL     1      44.770 130.565  13.834  1.00  0.00     0.301 C 
ATOM     37  N   UNL     1      46.143 130.604  14.431  1.00  0.00    -0.321 N 
ATOM     38  C   UNL     1      46.489 129.292  15.026  1.00  0.00     0.334 C 
ATOM     39  C   UNL     1      47.144 130.938  13.390  1.00  0.00     0.334 C 
ENDBRANCH  23  25
ENDBRANCH  18  19
ENDBRANCH  17  18
ENDBRANCH   2  17
BRANCH   4  40
ATOM     40  C   UNL     1      38.282 138.152  24.377  1.00  0.00     0.097 C 
BRANCH  40  41
ATOM     41  N   UNL     1      38.471 136.719  24.570  1.00  0.00    -0.094 NA
BRANCH  41  42
ATOM     42  N   UNL     1      37.750 135.901  23.999  1.00  0.00     0.001 N 
ATOM     43  N   UNL     1      37.030 135.083  23.427  1.00  0.00    -0.003 NA
ENDBRANCH  41  42
ENDBRANCH  40  41
ENDBRANCH   4  40
TORSDOF 10
ENDMDL


