REMARK SMILES Cc1nnn(/C=C2\C[C@@H](C)OC2=O)c1-c1c2ccccc2cc2c(N=[N+]=[N-])cccc12
REMARK SMILES IDX 15 1 16 2 17 3 18 4 19 5 20 6 21 7 22 8 23 9 24 10 28 11
REMARK SMILES IDX 29 12 30 13 31 14 14 15 5 16 4 17 3 18 2 19 1 20 6 21 7 22
REMARK SMILES IDX 12 23 8 24 11 25 9 26 13 27 10 28 25 29 26 30 27 31
REMARK H PARENT
ROOT
ATOM      1  C   UNL     1      -0.852   1.028  -0.619  1.00  0.00     0.018 A 
ATOM      2  C   UNL     1      -2.174   1.520  -0.474  1.00  0.00    -0.008 A 
ATOM      3  C   UNL     1      -3.270   0.658  -0.245  1.00  0.00     0.009 A 
ATOM      4  C   UNL     1      -4.562   1.169  -0.109  1.00  0.00     0.001 A 
ATOM      5  C   UNL     1      -4.787   2.542  -0.191  1.00  0.00     0.001 A 
ATOM      6  C   UNL     1      -3.718   3.413  -0.406  1.00  0.00     0.009 A 
ATOM      7  C   UNL     1      -2.412   2.915  -0.545  1.00  0.00    -0.017 A 
ATOM      8  C   UNL     1      -1.350   3.801  -0.747  1.00  0.00     0.018 A 
ATOM      9  C   UNL     1      -0.033   3.333  -0.884  1.00  0.00    -0.008 A 
ATOM     10  C   UNL     1       1.037   4.240  -1.083  1.00  0.00     0.045 A 
ATOM     11  C   UNL     1       2.345   3.745  -1.224  1.00  0.00     0.011 A 
ATOM     12  C   UNL     1       2.594   2.377  -1.173  1.00  0.00     0.001 A 
ATOM     13  C   UNL     1       1.548   1.479  -0.978  1.00  0.00     0.009 A 
ATOM     14  C   UNL     1       0.222   1.935  -0.823  1.00  0.00    -0.008 A 
ENDROOT
BRANCH   1  15
ATOM     15  C   UNL     1      -0.591  -0.431  -0.554  1.00  0.00     0.098 A 
ATOM     16  N   UNL     1      -0.064  -1.093   0.492  1.00  0.00    -0.219 N 
ATOM     17  N   UNL     1       0.006  -2.375   0.164  1.00  0.00    -0.062 NA
ATOM     18  N   UNL     1      -0.453  -2.571  -1.066  1.00  0.00    -0.135 NA
ATOM     19  C   UNL     1      -0.822  -1.365  -1.540  1.00  0.00     0.088 A 
ATOM     20  C   UNL     1      -1.442  -1.134  -2.879  1.00  0.00     0.071 C 
BRANCH  16  21
ATOM     21  C   UNL     1       0.324  -0.522   1.755  1.00  0.00     0.126 C 
BRANCH  21  22
ATOM     22  C   UNL     1       0.922  -1.218   2.734  1.00  0.00     0.059 C 
ATOM     23  C   UNL     1       1.337  -0.666   4.003  1.00  0.00     0.335 C 
ATOM     24  C   UNL     1       1.310  -2.664   2.732  1.00  0.00     0.089 C 
ATOM     25  O   UNL     1       1.940  -1.626   4.785  1.00  0.00    -0.459 OA
ATOM     26  C   UNL     1       1.967  -2.888   4.124  1.00  0.00     0.178 C 
ATOM     27  O   UNL     1       1.183   0.530   4.367  1.00  0.00    -0.247 OA
ATOM     28  C   UNL     1       3.407  -3.385   4.012  1.00  0.00     0.053 C 
ENDBRANCH  21  22
ENDBRANCH  16  21
ENDBRANCH   1  15
BRANCH  10  29
ATOM     29  N   UNL     1       0.780   5.654  -1.139  1.00  0.00    -0.060 NA
BRANCH  29  30
ATOM     30  N   UNL     1       1.675   6.486  -1.299  1.00  0.00     0.005 N 
ATOM     31  N   UNL     1       2.567   7.317  -1.460  1.00  0.00    -0.003 NA
ENDBRANCH  29  30
ENDBRANCH  10  29
TORSDOF 5


