REMARK SMILES CC[C@H]1C[C@]1(N)C(=O)Oc1ccccc(O)c(NC2(CF)COC2)c(N=[N+]=[N-])c(Cl)c1Cl
REMARK SMILES IDX 15 1 14 2 13 3 12 4 11 5 10 6 31 7 32 8 29 9 30 10 25 11
REMARK SMILES IDX 17 12 16 13 18 15 19 17 22 18 24 19 23 20 20 21 21 22 26 23
REMARK SMILES IDX 27 24 28 25 9 26 7 27 8 28 5 29 4 30 3 31 6 32 2 35 1 36
REMARK H PARENT 16 14 18 16 6 33 6 34
ROOT
ATOM      1  C   UNL     1      -1.504   2.511  -1.755  1.00  0.00     0.139 A 
ATOM      2  C   UNL     1      -0.467   3.274  -2.345  1.00  0.00     0.048 A 
ATOM      3  C   UNL     1       0.720   2.768  -2.908  1.00  0.00     0.004 A 
ATOM      4  C   UNL     1       1.248   1.502  -2.639  1.00  0.00     0.004 A 
ATOM      5  C   UNL     1       1.035   0.853  -1.421  1.00  0.00     0.049 A 
ATOM      6  C   UNL     1       0.760  -0.520  -1.312  1.00  0.00     0.151 A 
ATOM      7  C   UNL     1       0.099  -1.260  -2.321  1.00  0.00     0.102 A 
ATOM      8  Cl  UNL     1       0.325  -3.011  -2.272  1.00  0.00    -0.079 Cl
ATOM      9  C   UNL     1      -0.752  -0.719  -3.326  1.00  0.00     0.075 A 
ATOM     10  Cl  UNL     1      -1.119  -1.728  -4.730  1.00  0.00    -0.082 Cl
ATOM     11  C   UNL     1      -1.373   0.556  -3.253  1.00  0.00     0.085 A 
ATOM     12  C   UNL     1      -1.737   1.142  -2.022  1.00  0.00     0.088 A 
ENDROOT
BRANCH   1  13
ATOM     13  O   UNL     1      -2.351   3.143  -0.844  1.00  0.00    -0.506 OA
ATOM     14  H   UNL     1      -2.237   4.120  -0.596  1.00  0.00     0.293 HD
ENDBRANCH   1  13
BRANCH  12  15
ATOM     15  N   UNL     1      -2.392   0.357  -1.008  1.00  0.00    -0.369 N 
ATOM     16  H   UNL     1      -2.118   0.534  -0.013  1.00  0.00     0.161 HD
BRANCH  15  17
ATOM     17  C   UNL     1      -3.561  -0.507  -1.240  1.00  0.00     0.113 C 
ATOM     18  C   UNL     1      -4.507  -0.046  -2.338  1.00  0.00     0.193 C 
ATOM     19  C   UNL     1      -4.724  -0.131  -0.337  1.00  0.00     0.193 C 
ATOM     20  O   UNL     1      -5.534   0.254  -1.423  1.00  0.00    -0.376 OA
BRANCH  17  21
ATOM     21  C   UNL     1      -3.219  -2.007  -1.240  1.00  0.00     0.247 C 
ATOM     22  F   UNL     1      -4.361  -2.790  -1.296  1.00  0.00    -0.248 F 
ENDBRANCH  17  21
ENDBRANCH  15  17
ENDBRANCH  12  15
BRANCH  11  23
ATOM     23  N   UNL     1      -1.624   1.325  -4.443  1.00  0.00    -0.057 NA
BRANCH  23  24
ATOM     24  N   UNL     1      -1.006   1.149  -5.494  1.00  0.00     0.005 N 
ATOM     25  N   UNL     1      -0.387   0.979  -6.543  1.00  0.00    -0.003 NA
ENDBRANCH  23  24
ENDBRANCH  11  23
BRANCH   6  26
ATOM     26  O   UNL     1       1.056  -1.202  -0.120  1.00  0.00    -0.424 OA
BRANCH  26  27
ATOM     27  C   UNL     1       2.024  -0.829   0.823  1.00  0.00     0.331 C 
ATOM     28  O   UNL     1       2.882   0.059   0.568  1.00  0.00    -0.250 OA
BRANCH  27  29
ATOM     29  C   UNL     1       2.046  -1.516   2.152  1.00  0.00     0.118 C 
ATOM     30  C   UNL     1       2.179  -3.033   2.125  1.00  0.00     0.040 C 
ATOM     31  C   UNL     1       3.352  -2.171   2.598  1.00  0.00     0.022 C 
BRANCH  29  32
ATOM     32  N   UNL     1       1.158  -1.013   3.197  1.00  0.00    -0.316 NA
ATOM     33  H   UNL     1       1.390  -0.005   3.353  1.00  0.00     0.119 HD
ATOM     34  H   UNL     1       0.180  -1.049   2.829  1.00  0.00     0.119 HD
ENDBRANCH  29  32
BRANCH  31  35
ATOM     35  C   UNL     1       3.639  -2.261   4.105  1.00  0.00     0.003 C 
ATOM     36  C   UNL     1       4.389  -1.021   4.578  1.00  0.00     0.004 C 
ENDBRANCH  31  35
ENDBRANCH  27  29
ENDBRANCH  26  27
ENDBRANCH   6  26
TORSDOF 11


