REMARK SMILES CC[C@H]1C[C@]1(N)C(=O)Oc1ccccc(O)c(NC2(CF)COC2)c(N=[N+]=[N-])c(Cl)c1Cl
REMARK SMILES IDX 15 1 14 2 13 3 12 4 11 5 10 6 31 7 32 8 29 9 30 10 25 11
REMARK SMILES IDX 17 12 16 13 18 15 19 17 22 18 24 19 23 20 20 21 21 22 26 23
REMARK SMILES IDX 27 24 28 25 9 26 7 27 8 28 5 29 4 30 3 31 6 32 2 35 1 36
REMARK H PARENT 16 14 18 16 6 33 6 34
ROOT
ATOM      1  C   UNL     1      -2.253   1.983  -0.946  1.00  0.00     0.139 A 
ATOM      2  C   UNL     1      -2.835   2.599   0.184  1.00  0.00     0.048 A 
ATOM      3  C   UNL     1      -2.814   2.111   1.505  1.00  0.00     0.004 A 
ATOM      4  C   UNL     1      -1.904   1.165   1.988  1.00  0.00     0.004 A 
ATOM      5  C   UNL     1      -0.619   1.033   1.458  1.00  0.00     0.049 A 
ATOM      6  C   UNL     1      -0.004  -0.208   1.222  1.00  0.00     0.151 A 
ATOM      7  C   UNL     1      -0.729  -1.386   0.926  1.00  0.00     0.102 A 
ATOM      8  Cl  UNL     1       0.120  -2.909   1.209  1.00  0.00    -0.079 Cl
ATOM      9  C   UNL     1      -2.042  -1.437   0.378  1.00  0.00     0.075 A 
ATOM     10  Cl  UNL     1      -2.923  -2.965   0.490  1.00  0.00    -0.082 Cl
ATOM     11  C   UNL     1      -2.672  -0.362  -0.304  1.00  0.00     0.085 A 
ATOM     12  C   UNL     1      -1.937   0.603  -1.027  1.00  0.00     0.088 A 
ENDROOT
BRANCH   1  13
ATOM     13  O   UNL     1      -1.982   2.807  -2.039  1.00  0.00    -0.506 OA
ATOM     14  H   UNL     1      -1.611   2.446  -2.911  1.00  0.00     0.293 HD
ENDBRANCH   1  13
BRANCH  12  15
ATOM     15  N   UNL     1      -0.838   0.201  -1.865  1.00  0.00    -0.369 N 
ATOM     16  H   UNL     1       0.025   0.791  -1.839  1.00  0.00     0.161 HD
BRANCH  15  17
ATOM     17  C   UNL     1      -0.913  -0.844  -2.899  1.00  0.00     0.113 C 
ATOM     18  C   UNL     1      -0.476  -0.322  -4.258  1.00  0.00     0.193 C 
ATOM     19  C   UNL     1      -2.261  -0.977  -3.591  1.00  0.00     0.193 C 
ATOM     20  O   UNL     1      -1.757  -0.498  -4.816  1.00  0.00    -0.376 OA
BRANCH  17  21
ATOM     21  C   UNL     1      -0.244  -2.165  -2.483  1.00  0.00     0.247 C 
ATOM     22  F   UNL     1      -0.177  -3.058  -3.541  1.00  0.00    -0.248 F 
ENDBRANCH  17  21
ENDBRANCH  15  17
ENDBRANCH  12  15
BRANCH  11  23
ATOM     23  N   UNL     1      -4.099  -0.189  -0.252  1.00  0.00    -0.057 NA
BRANCH  23  24
ATOM     24  N   UNL     1      -4.796  -0.659   0.649  1.00  0.00     0.005 N 
ATOM     25  N   UNL     1      -5.495  -1.123   1.548  1.00  0.00    -0.003 NA
ENDBRANCH  23  24
ENDBRANCH  11  23
BRANCH   6  26
ATOM     26  O   UNL     1       1.396  -0.299   1.167  1.00  0.00    -0.424 OA
BRANCH  26  27
ATOM     27  C   UNL     1       2.307   0.585   1.760  1.00  0.00     0.331 C 
ATOM     28  O   UNL     1       1.937   1.436   2.614  1.00  0.00    -0.250 OA
BRANCH  27  29
ATOM     29  C   UNL     1       3.749   0.505   1.372  1.00  0.00     0.118 C 
ATOM     30  C   UNL     1       4.758   0.191   2.469  1.00  0.00     0.040 C 
ATOM     31  C   UNL     1       4.400  -0.876   1.432  1.00  0.00     0.022 C 
BRANCH  29  32
ATOM     32  N   UNL     1       4.232   1.415   0.338  1.00  0.00    -0.316 NA
ATOM     33  H   UNL     1       4.077   2.392   0.676  1.00  0.00     0.119 HD
ATOM     34  H   UNL     1       3.631   1.284  -0.508  1.00  0.00     0.119 HD
ENDBRANCH  29  32
BRANCH  31  35
ATOM     35  C   UNL     1       5.519  -1.196   0.430  1.00  0.00     0.003 C 
ATOM     36  C   UNL     1       4.935  -1.809  -0.837  1.00  0.00     0.004 C 
ENDBRANCH  31  35
ENDBRANCH  27  29
ENDBRANCH  26  27
ENDBRANCH   6  26
TORSDOF 11


