MODEL 1
REMARK VINA RESULT:      -7.8      0.000      0.000
REMARK SMILES CC/C=C(/O)OC1=NC(=O)c2ccc(-n3cc(CCc4ccc(F)cc4C)n[nH+]3)c3cccc1c23
REMARK SMILES IDX 7 1 8 2 9 3 10 4 11 5 12 6 13 7 14 8 30 9 31 10 32 11 33 12
REMARK SMILES IDX 34 13 35 14 6 15 4 16 5 17 3 19 2 20 1 21 15 22 16 23 29 24
REMARK SMILES IDX 17 25 28 26 18 28 19 29 20 30 21 31 26 32 22 33 25 34 23 35
REMARK SMILES IDX 27 36 24 37
REMARK H PARENT 5 18 29 27
ROOT
ATOM      1  C   UNL     1      40.368 137.394  14.944  1.00  0.00     0.234 C 
ATOM      2  N   UNL     1      40.786 138.435  15.607  1.00  0.00    -0.172 NA
ATOM      3  C   UNL     1      41.837 138.354  16.576  1.00  0.00     0.280 C 
ATOM      4  O   UNL     1      42.204 139.394  17.185  1.00  0.00    -0.267 OA
ATOM      5  C   UNL     1      42.472 137.048  16.844  1.00  0.00     0.051 A 
ATOM      6  C   UNL     1      43.512 136.917  17.774  1.00  0.00     0.017 A 
ATOM      7  C   UNL     1      44.084 135.668  18.015  1.00  0.00     0.034 A 
ATOM      8  C   UNL     1      43.631 134.526  17.342  1.00  0.00     0.115 A 
ATOM      9  C   UNL     1      42.606 134.650  16.370  1.00  0.00     0.013 A 
ATOM     10  C   UNL     1      42.174 133.551  15.602  1.00  0.00     0.011 A 
ATOM     11  C   UNL     1      41.154 133.697  14.662  1.00  0.00     0.002 A 
ATOM     12  C   UNL     1      40.556 134.939  14.455  1.00  0.00     0.014 A 
ATOM     13  C   UNL     1      40.986 136.061  15.179  1.00  0.00     0.046 A 
ATOM     14  C   UNL     1      42.019 135.920  16.134  1.00  0.00     0.009 A 
ENDROOT
BRANCH   1  15
ATOM     15  O   UNL     1      39.337 137.510  14.000  1.00  0.00    -0.407 OA
BRANCH  15  16
ATOM     16  C   UNL     1      37.966 137.575  14.286  1.00  0.00     0.279 C 
BRANCH  16  17
ATOM     17  O   UNL     1      37.096 138.281  13.452  1.00  0.00    -0.481 OA
ATOM     18  H   UNL     1      37.128 138.195  12.443  1.00  0.00     0.296 HD
ENDBRANCH  16  17
BRANCH  16  19
ATOM     19  C   UNL     1      37.486 136.949  15.367  1.00  0.00     0.061 C 
BRANCH  19  20
ATOM     20  C   UNL     1      37.570 137.536  16.748  1.00  0.00     0.031 C 
ATOM     21  C   UNL     1      36.375 138.439  17.044  1.00  0.00     0.008 C 
ENDBRANCH  19  20
ENDBRANCH  16  19
ENDBRANCH  15  16
ENDBRANCH   1  15
BRANCH   8  22
ATOM     22  N   UNL     1      44.208 133.254  17.682  1.00  0.00    -0.104 N 
ATOM     23  C   UNL     1      44.963 132.469  16.893  1.00  0.00     0.190 A 
ATOM     24  N   UNL     1      43.982 132.598  18.810  1.00  0.00    -0.012 N 
ATOM     25  C   UNL     1      45.199 131.316  17.613  1.00  0.00     0.133 A 
ATOM     26  N   UNL     1      44.584 131.419  18.810  1.00  0.00     0.020 NA
ATOM     27  H   UNL     1      43.409 132.962  19.605  1.00  0.00     0.527 HD
BRANCH  25  28
ATOM     28  C   UNL     1      46.050 130.158  17.190  1.00  0.00     0.069 C 
BRANCH  28  29
ATOM     29  C   UNL     1      45.416 129.376  16.031  1.00  0.00     0.042 C 
BRANCH  29  30
ATOM     30  C   UNL     1      46.013 129.755  14.689  1.00  0.00    -0.044 A 
ATOM     31  C   UNL     1      47.339 129.374  14.419  1.00  0.00     0.007 A 
ATOM     32  C   UNL     1      45.279 130.455  13.693  1.00  0.00    -0.045 A 
ATOM     33  C   UNL     1      47.934 129.674  13.193  1.00  0.00     0.039 A 
ATOM     34  C   UNL     1      45.901 130.761  12.469  1.00  0.00     0.043 A 
ATOM     35  C   UNL     1      47.215 130.366  12.219  1.00  0.00     0.123 A 
ATOM     36  C   UNL     1      43.856 130.896  13.914  1.00  0.00     0.045 C 
ATOM     37  F   UNL     1      47.795 130.656  11.028  1.00  0.00    -0.207 F 
ENDBRANCH  29  30
ENDBRANCH  28  29
ENDBRANCH  25  28
ENDBRANCH   8  22
TORSDOF 9
ENDMDL
MODEL 2
REMARK VINA RESULT:      -7.8      4.691      8.508
REMARK SMILES CC/C=C(/O)OC1=NC(=O)c2ccc(-n3cc(CCc4ccc(F)cc4C)n[nH+]3)c3cccc1c23
REMARK SMILES IDX 7 1 8 2 9 3 10 4 11 5 12 6 13 7 14 8 30 9 31 10 32 11 33 12
REMARK SMILES IDX 34 13 35 14 6 15 4 16 5 17 3 19 2 20 1 21 15 22 16 23 29 24
REMARK SMILES IDX 17 25 28 26 18 28 19 29 20 30 21 31 26 32 22 33 25 34 23 35
REMARK SMILES IDX 27 36 24 37
REMARK H PARENT 5 18 29 27
ROOT
ATOM      1  C   UNL     1      44.001 131.330  15.037  1.00  0.00     0.234 C 
ATOM      2  N   UNL     1      42.992 131.912  14.454  1.00  0.00    -0.172 NA
ATOM      3  C   UNL     1      42.023 132.675  15.182  1.00  0.00     0.280 C 
ATOM      4  O   UNL     1      41.069 133.220  14.565  1.00  0.00    -0.267 OA
ATOM      5  C   UNL     1      42.160 132.806  16.646  1.00  0.00     0.051 A 
ATOM      6  C   UNL     1      41.246 133.550  17.403  1.00  0.00     0.017 A 
ATOM      7  C   UNL     1      41.394 133.646  18.786  1.00  0.00     0.034 A 
ATOM      8  C   UNL     1      42.449 133.001  19.444  1.00  0.00     0.115 A 
ATOM      9  C   UNL     1      43.405 132.277  18.687  1.00  0.00     0.013 A 
ATOM     10  C   UNL     1      44.533 131.684  19.287  1.00  0.00     0.011 A 
ATOM     11  C   UNL     1      45.450 130.965  18.520  1.00  0.00     0.002 A 
ATOM     12  C   UNL     1      45.274 130.836  17.144  1.00  0.00     0.014 A 
ATOM     13  C   UNL     1      44.180 131.443  16.510  1.00  0.00     0.046 A 
ATOM     14  C   UNL     1      43.245 132.173  17.280  1.00  0.00     0.009 A 
ENDROOT
BRANCH   1  15
ATOM     15  O   UNL     1      44.933 130.592  14.293  1.00  0.00    -0.407 OA
BRANCH  15  16
ATOM     16  C   UNL     1      46.137 131.082  13.768  1.00  0.00     0.279 C 
BRANCH  16  17
ATOM     17  O   UNL     1      46.857 132.073  14.439  1.00  0.00    -0.481 OA
ATOM     18  H   UNL     1      46.416 132.713  15.089  1.00  0.00     0.296 HD
ENDBRANCH  16  17
BRANCH  16  19
ATOM     19  C   UNL     1      46.603 130.591  12.614  1.00  0.00     0.061 C 
BRANCH  19  20
ATOM     20  C   UNL     1      47.871 129.787  12.526  1.00  0.00     0.031 C 
ATOM     21  C   UNL     1      48.274 129.232  13.890  1.00  0.00     0.008 C 
ENDBRANCH  19  20
ENDBRANCH  16  19
ENDBRANCH  15  16
ENDBRANCH   1  15
BRANCH   8  22
ATOM     22  N   UNL     1      42.512 133.075  20.878  1.00  0.00    -0.104 N 
ATOM     23  C   UNL     1      42.971 134.100  21.618  1.00  0.00     0.190 A 
ATOM     24  N   UNL     1      42.227 132.077  21.700  1.00  0.00    -0.012 N 
ATOM     25  C   UNL     1      42.926 133.676  22.930  1.00  0.00     0.133 A 
ATOM     26  N   UNL     1      42.452 132.413  22.961  1.00  0.00     0.020 NA
ATOM     27  H   UNL     1      41.864 131.144  21.400  1.00  0.00     0.527 HD
BRANCH  25  28
ATOM     28  C   UNL     1      43.271 134.486  24.142  1.00  0.00     0.069 C 
BRANCH  28  29
ATOM     29  C   UNL     1      44.708 134.220  24.616  1.00  0.00     0.042 C 
BRANCH  29  30
ATOM     30  C   UNL     1      45.741 134.764  23.647  1.00  0.00    -0.044 A 
ATOM     31  C   UNL     1      46.304 133.880  22.711  1.00  0.00     0.007 A 
ATOM     32  C   UNL     1      46.139 136.128  23.636  1.00  0.00    -0.045 A 
ATOM     33  C   UNL     1      47.241 134.328  21.778  1.00  0.00     0.039 A 
ATOM     34  C   UNL     1      47.095 136.557  22.697  1.00  0.00     0.043 A 
ATOM     35  C   UNL     1      47.636 135.665  21.771  1.00  0.00     0.123 A 
ATOM     36  C   UNL     1      45.578 137.131  24.610  1.00  0.00     0.045 C 
ATOM     37  F   UNL     1      48.546 136.097  20.865  1.00  0.00    -0.207 F 
ENDBRANCH  29  30
ENDBRANCH  28  29
ENDBRANCH  25  28
ENDBRANCH   8  22
TORSDOF 9
ENDMDL
MODEL 3
REMARK VINA RESULT:      -7.1      4.990      9.123
REMARK SMILES CC/C=C(/O)OC1=NC(=O)c2ccc(-n3cc(CCc4ccc(F)cc4C)n[nH+]3)c3cccc1c23
REMARK SMILES IDX 7 1 8 2 9 3 10 4 11 5 12 6 13 7 14 8 30 9 31 10 32 11 33 12
REMARK SMILES IDX 34 13 35 14 6 15 4 16 5 17 3 19 2 20 1 21 15 22 16 23 29 24
REMARK SMILES IDX 17 25 28 26 18 28 19 29 20 30 21 31 26 32 22 33 25 34 23 35
REMARK SMILES IDX 27 36 24 37
REMARK H PARENT 5 18 29 27
ROOT
ATOM      1  C   UNL     1      44.671 130.664  15.515  1.00  0.00     0.234 C 
ATOM      2  N   UNL     1      43.843 131.120  14.618  1.00  0.00    -0.172 NA
ATOM      3  C   UNL     1      42.810 132.059  14.938  1.00  0.00     0.280 C 
ATOM      4  O   UNL     1      42.040 132.470  14.030  1.00  0.00    -0.267 OA
ATOM      5  C   UNL     1      42.666 132.527  16.331  1.00  0.00     0.051 A 
ATOM      6  C   UNL     1      41.679 133.453  16.694  1.00  0.00     0.017 A 
ATOM      7  C   UNL     1      41.560 133.868  18.020  1.00  0.00     0.034 A 
ATOM      8  C   UNL     1      42.414 133.367  19.011  1.00  0.00     0.115 A 
ATOM      9  C   UNL     1      43.443 132.459  18.652  1.00  0.00     0.013 A 
ATOM     10  C   UNL     1      44.383 131.993  19.591  1.00  0.00     0.011 A 
ATOM     11  C   UNL     1      45.376 131.089  19.215  1.00  0.00     0.002 A 
ATOM     12  C   UNL     1      45.465 130.645  17.896  1.00  0.00     0.014 A 
ATOM     13  C   UNL     1      44.565 131.116  16.928  1.00  0.00     0.046 A 
ATOM     14  C   UNL     1      43.555 132.031  17.303  1.00  0.00     0.009 A 
ENDROOT
BRANCH   1  15
ATOM     15  O   UNL     1      45.674 129.747  15.166  1.00  0.00    -0.407 OA
BRANCH  15  16
ATOM     16  C   UNL     1      47.027 130.049  14.958  1.00  0.00     0.279 C 
BRANCH  16  17
ATOM     17  O   UNL     1      48.010 129.541  15.809  1.00  0.00    -0.481 OA
ATOM     18  H   UNL     1      48.442 128.637  15.656  1.00  0.00     0.296 HD
ENDBRANCH  16  17
BRANCH  16  19
ATOM     19  C   UNL     1      47.378 130.829  13.929  1.00  0.00     0.061 C 
BRANCH  19  20
ATOM     20  C   UNL     1      46.675 130.784  12.600  1.00  0.00     0.031 C 
ATOM     21  C   UNL     1      47.626 130.370  11.480  1.00  0.00     0.008 C 
ENDBRANCH  19  20
ENDBRANCH  16  19
ENDBRANCH  15  16
ENDBRANCH   1  15
BRANCH   8  22
ATOM     22  N   UNL     1      42.199 133.774  20.373  1.00  0.00    -0.104 N 
ATOM     23  C   UNL     1      42.353 135.009  20.884  1.00  0.00     0.190 A 
ATOM     24  N   UNL     1      41.922 132.952  21.373  1.00  0.00    -0.012 N 
ATOM     25  C   UNL     1      42.131 134.892  22.241  1.00  0.00     0.133 A 
ATOM     26  N   UNL     1      41.857 133.602  22.525  1.00  0.00     0.020 NA
ATOM     27  H   UNL     1      41.766 131.924  21.273  1.00  0.00     0.527 HD
BRANCH  25  28
ATOM     28  C   UNL     1      42.121 136.006  23.242  1.00  0.00     0.069 C 
BRANCH  28  29
ATOM     29  C   UNL     1      43.038 137.163  22.820  1.00  0.00     0.042 C 
BRANCH  29  30
ATOM     30  C   UNL     1      44.499 136.872  23.110  1.00  0.00    -0.044 A 
ATOM     31  C   UNL     1      44.820 136.210  24.308  1.00  0.00     0.007 A 
ATOM     32  C   UNL     1      45.543 137.220  22.211  1.00  0.00    -0.045 A 
ATOM     33  C   UNL     1      46.143 135.894  24.617  1.00  0.00     0.039 A 
ATOM     34  C   UNL     1      46.872 136.905  22.547  1.00  0.00     0.043 A 
ATOM     35  C   UNL     1      47.168 136.240  23.737  1.00  0.00     0.123 A 
ATOM     36  C   UNL     1      45.273 137.931  20.911  1.00  0.00     0.045 C 
ATOM     37  F   UNL     1      48.453 135.932  24.040  1.00  0.00    -0.207 F 
ENDBRANCH  29  30
ENDBRANCH  28  29
ENDBRANCH  25  28
ENDBRANCH   8  22
TORSDOF 9
ENDMDL
MODEL 4
REMARK VINA RESULT:      -7.1      2.587      3.561
REMARK SMILES CC/C=C(/O)OC1=NC(=O)c2ccc(-n3cc(CCc4ccc(F)cc4C)n[nH+]3)c3cccc1c23
REMARK SMILES IDX 7 1 8 2 9 3 10 4 11 5 12 6 13 7 14 8 30 9 31 10 32 11 33 12
REMARK SMILES IDX 34 13 35 14 6 15 4 16 5 17 3 19 2 20 1 21 15 22 16 23 29 24
REMARK SMILES IDX 17 25 28 26 18 28 19 29 20 30 21 31 26 32 22 33 25 34 23 35
REMARK SMILES IDX 27 36 24 37
REMARK H PARENT 5 18 29 27
ROOT
ATOM      1  C   UNL     1      38.150 134.832  14.255  1.00  0.00     0.234 C 
ATOM      2  N   UNL     1      37.187 135.089  15.094  1.00  0.00    -0.172 NA
ATOM      3  C   UNL     1      37.340 134.924  16.508  1.00  0.00     0.280 C 
ATOM      4  O   UNL     1      36.376 135.191  17.274  1.00  0.00    -0.267 OA
ATOM      5  C   UNL     1      38.629 134.441  17.043  1.00  0.00     0.051 A 
ATOM      6  C   UNL     1      38.835 134.273  18.418  1.00  0.00     0.017 A 
ATOM      7  C   UNL     1      40.059 133.803  18.893  1.00  0.00     0.034 A 
ATOM      8  C   UNL     1      41.100 133.486  18.011  1.00  0.00     0.115 A 
ATOM      9  C   UNL     1      40.920 133.688  16.619  1.00  0.00     0.013 A 
ATOM     10  C   UNL     1      41.962 133.470  15.696  1.00  0.00     0.011 A 
ATOM     11  C   UNL     1      41.754 133.663  14.330  1.00  0.00     0.002 A 
ATOM     12  C   UNL     1      40.515 134.091  13.858  1.00  0.00     0.014 A 
ATOM     13  C   UNL     1      39.466 134.351  14.752  1.00  0.00     0.046 A 
ATOM     14  C   UNL     1      39.669 134.157  16.138  1.00  0.00     0.009 A 
ENDROOT
BRANCH   1  15
ATOM     15  O   UNL     1      37.966 135.007  12.875  1.00  0.00    -0.407 OA
BRANCH  15  16
ATOM     16  C   UNL     1      37.581 136.198  12.242  1.00  0.00     0.279 C 
BRANCH  16  17
ATOM     17  O   UNL     1      37.733 137.428  12.885  1.00  0.00    -0.481 OA
ATOM     18  H   UNL     1      38.585 137.972  12.816  1.00  0.00     0.296 HD
ENDBRANCH  16  17
BRANCH  16  19
ATOM     19  C   UNL     1      37.068 136.154  11.007  1.00  0.00     0.061 C 
BRANCH  19  20
ATOM     20  C   UNL     1      37.799 135.537   9.847  1.00  0.00     0.031 C 
ATOM     21  C   UNL     1      39.075 136.307   9.518  1.00  0.00     0.008 C 
ENDBRANCH  19  20
ENDBRANCH  16  19
ENDBRANCH  15  16
ENDBRANCH   1  15
BRANCH   8  22
ATOM     22  N   UNL     1      42.314 132.938  18.550  1.00  0.00    -0.104 N 
ATOM     23  C   UNL     1      43.370 132.473  17.859  1.00  0.00     0.190 A 
ATOM     24  N   UNL     1      42.532 132.700  19.834  1.00  0.00    -0.012 N 
ATOM     25  C   UNL     1      44.246 131.962  18.796  1.00  0.00     0.133 A 
ATOM     26  N   UNL     1      43.708 132.120  20.023  1.00  0.00     0.020 NA
ATOM     27  H   UNL     1      41.870 132.943  20.605  1.00  0.00     0.527 HD
BRANCH  25  28
ATOM     28  C   UNL     1      45.603 131.388  18.528  1.00  0.00     0.069 C 
BRANCH  28  29
ATOM     29  C   UNL     1      45.522 130.064  17.754  1.00  0.00     0.042 C 
BRANCH  29  30
ATOM     30  C   UNL     1      45.805 130.247  16.275  1.00  0.00    -0.044 A 
ATOM     31  C   UNL     1      46.348 131.472  15.848  1.00  0.00     0.007 A 
ATOM     32  C   UNL     1      45.567 129.226  15.316  1.00  0.00    -0.045 A 
ATOM     33  C   UNL     1      46.652 131.690  14.504  1.00  0.00     0.039 A 
ATOM     34  C   UNL     1      45.867 129.470  13.963  1.00  0.00     0.043 A 
ATOM     35  C   UNL     1      46.412 130.690  13.563  1.00  0.00     0.123 A 
ATOM     36  C   UNL     1      44.986 127.891  15.701  1.00  0.00     0.045 C 
ATOM     37  F   UNL     1      46.709 130.904  12.257  1.00  0.00    -0.207 F 
ENDBRANCH  29  30
ENDBRANCH  28  29
ENDBRANCH  25  28
ENDBRANCH   8  22
TORSDOF 9
ENDMDL
MODEL 5
REMARK VINA RESULT:      -7.0      3.966      8.830
REMARK SMILES CC/C=C(/O)OC1=NC(=O)c2ccc(-n3cc(CCc4ccc(F)cc4C)n[nH+]3)c3cccc1c23
REMARK SMILES IDX 7 1 8 2 9 3 10 4 11 5 12 6 13 7 14 8 30 9 31 10 32 11 33 12
REMARK SMILES IDX 34 13 35 14 6 15 4 16 5 17 3 19 2 20 1 21 15 22 16 23 29 24
REMARK SMILES IDX 17 25 28 26 18 28 19 29 20 30 21 31 26 32 22 33 25 34 23 35
REMARK SMILES IDX 27 36 24 37
REMARK H PARENT 5 18 29 27
ROOT
ATOM      1  C   UNL     1      45.162 131.293  16.751  1.00  0.00     0.234 C 
ATOM      2  N   UNL     1      45.589 130.861  17.903  1.00  0.00    -0.172 NA
ATOM      3  C   UNL     1      45.189 131.461  19.141  1.00  0.00     0.280 C 
ATOM      4  O   UNL     1      45.631 130.999  20.227  1.00  0.00    -0.267 OA
ATOM      5  C   UNL     1      44.267 132.613  19.120  1.00  0.00     0.051 A 
ATOM      6  C   UNL     1      43.836 133.228  20.302  1.00  0.00     0.017 A 
ATOM      7  C   UNL     1      42.974 134.323  20.251  1.00  0.00     0.034 A 
ATOM      8  C   UNL     1      42.527 134.830  19.024  1.00  0.00     0.115 A 
ATOM      9  C   UNL     1      42.922 134.194  17.820  1.00  0.00     0.013 A 
ATOM     10  C   UNL     1      42.432 134.607  16.566  1.00  0.00     0.011 A 
ATOM     11  C   UNL     1      42.849 133.973  15.396  1.00  0.00     0.002 A 
ATOM     12  C   UNL     1      43.744 132.906  15.450  1.00  0.00     0.014 A 
ATOM     13  C   UNL     1      44.225 132.447  16.685  1.00  0.00     0.046 A 
ATOM     14  C   UNL     1      43.809 133.086  17.876  1.00  0.00     0.009 A 
ENDROOT
BRANCH   1  15
ATOM     15  O   UNL     1      45.572 130.681  15.557  1.00  0.00    -0.407 OA
BRANCH  15  16
ATOM     16  C   UNL     1      46.896 130.400  15.190  1.00  0.00     0.279 C 
BRANCH  16  17
ATOM     17  O   UNL     1      47.727 129.659  16.032  1.00  0.00    -0.481 OA
ATOM     18  H   UNL     1      48.670 129.956  16.257  1.00  0.00     0.296 HD
ENDBRANCH  16  17
BRANCH  16  19
ATOM     19  C   UNL     1      47.365 130.845  14.019  1.00  0.00     0.061 C 
BRANCH  19  20
ATOM     20  C   UNL     1      47.660 129.930  12.863  1.00  0.00     0.031 C 
ATOM     21  C   UNL     1      47.446 130.634  11.525  1.00  0.00     0.008 C 
ENDBRANCH  19  20
ENDBRANCH  16  19
ENDBRANCH  15  16
ENDBRANCH   1  15
BRANCH   8  22
ATOM     22  N   UNL     1      41.697 136.004  19.028  1.00  0.00    -0.104 N 
ATOM     23  C   UNL     1      40.367 136.056  19.224  1.00  0.00     0.190 A 
ATOM     24  N   UNL     1      42.110 137.223  18.719  1.00  0.00    -0.012 N 
ATOM     25  C   UNL     1      40.004 137.374  19.039  1.00  0.00     0.133 A 
ATOM     26  N   UNL     1      41.107 138.088  18.732  1.00  0.00     0.020 NA
ATOM     27  H   UNL     1      43.099 137.478  18.500  1.00  0.00     0.527 HD
BRANCH  25  28
ATOM     28  C   UNL     1      38.635 137.956  19.213  1.00  0.00     0.069 C 
BRANCH  28  29
ATOM     29  C   UNL     1      37.991 138.317  17.867  1.00  0.00     0.042 C 
BRANCH  29  30
ATOM     30  C   UNL     1      38.091 137.184  16.862  1.00  0.00    -0.044 A 
ATOM     31  C   UNL     1      38.966 137.338  15.772  1.00  0.00     0.007 A 
ATOM     32  C   UNL     1      37.357 135.974  16.993  1.00  0.00    -0.045 A 
ATOM     33  C   UNL     1      39.119 136.321  14.829  1.00  0.00     0.039 A 
ATOM     34  C   UNL     1      37.514 134.967  16.024  1.00  0.00     0.043 A 
ATOM     35  C   UNL     1      38.394 135.136  14.955  1.00  0.00     0.123 A 
ATOM     36  C   UNL     1      36.401 135.742  18.134  1.00  0.00     0.045 C 
ATOM     37  F   UNL     1      38.544 134.150  14.038  1.00  0.00    -0.207 F 
ENDBRANCH  29  30
ENDBRANCH  28  29
ENDBRANCH  25  28
ENDBRANCH   8  22
TORSDOF 9
ENDMDL
MODEL 6
REMARK VINA RESULT:      -7.0      4.497      8.551
REMARK SMILES CC/C=C(/O)OC1=NC(=O)c2ccc(-n3cc(CCc4ccc(F)cc4C)n[nH+]3)c3cccc1c23
REMARK SMILES IDX 7 1 8 2 9 3 10 4 11 5 12 6 13 7 14 8 30 9 31 10 32 11 33 12
REMARK SMILES IDX 34 13 35 14 6 15 4 16 5 17 3 19 2 20 1 21 15 22 16 23 29 24
REMARK SMILES IDX 17 25 28 26 18 28 19 29 20 30 21 31 26 32 22 33 25 34 23 35
REMARK SMILES IDX 27 36 24 37
REMARK H PARENT 5 18 29 27
ROOT
ATOM      1  C   UNL     1      43.795 131.271  14.803  1.00  0.00     0.234 C 
ATOM      2  N   UNL     1      42.867 131.881  14.121  1.00  0.00    -0.172 NA
ATOM      3  C   UNL     1      41.964 132.814  14.724  1.00  0.00     0.280 C 
ATOM      4  O   UNL     1      41.088 133.378  14.015  1.00  0.00    -0.267 OA
ATOM      5  C   UNL     1      42.075 133.097  16.168  1.00  0.00     0.051 A 
ATOM      6  C   UNL     1      41.224 134.010  16.804  1.00  0.00     0.017 A 
ATOM      7  C   UNL     1      41.345 134.248  18.172  1.00  0.00     0.034 A 
ATOM      8  C   UNL     1      42.310 133.580  18.936  1.00  0.00     0.115 A 
ATOM      9  C   UNL     1      43.206 132.683  18.301  1.00  0.00     0.013 A 
ATOM     10  C   UNL     1      44.250 132.053  19.004  1.00  0.00     0.011 A 
ATOM     11  C   UNL     1      45.108 131.163  18.357  1.00  0.00     0.002 A 
ATOM     12  C   UNL     1      44.955 130.896  16.997  1.00  0.00     0.014 A 
ATOM     13  C   UNL     1      43.947 131.533  16.260  1.00  0.00     0.046 A 
ATOM     14  C   UNL     1      43.072 132.435  16.909  1.00  0.00     0.009 A 
ENDROOT
BRANCH   1  15
ATOM     15  O   UNL     1      44.665 130.364  14.180  1.00  0.00    -0.407 OA
BRANCH  15  16
ATOM     16  C   UNL     1      46.047 130.533  14.015  1.00  0.00     0.279 C 
BRANCH  16  17
ATOM     17  O   UNL     1      46.623 131.803  14.080  1.00  0.00    -0.481 OA
ATOM     18  H   UNL     1      47.623 131.938  14.178  1.00  0.00     0.296 HD
ENDBRANCH  16  17
BRANCH  16  19
ATOM     19  C   UNL     1      46.822 129.463  13.798  1.00  0.00     0.061 C 
BRANCH  19  20
ATOM     20  C   UNL     1      48.069 129.522  12.961  1.00  0.00     0.031 C 
ATOM     21  C   UNL     1      49.324 129.550  13.830  1.00  0.00     0.008 C 
ENDBRANCH  19  20
ENDBRANCH  16  19
ENDBRANCH  15  16
ENDBRANCH   1  15
BRANCH   8  22
ATOM     22  N   UNL     1      42.343 133.810  20.355  1.00  0.00    -0.104 N 
ATOM     23  C   UNL     1      43.087 134.718  21.012  1.00  0.00     0.190 A 
ATOM     24  N   UNL     1      41.717 133.069  21.256  1.00  0.00    -0.012 N 
ATOM     25  C   UNL     1      42.859 134.500  22.355  1.00  0.00     0.133 A 
ATOM     26  N   UNL     1      41.996 133.472  22.487  1.00  0.00     0.020 NA
ATOM     27  H   UNL     1      41.079 132.273  21.032  1.00  0.00     0.527 HD
BRANCH  25  28
ATOM     28  C   UNL     1      43.409 135.301  23.495  1.00  0.00     0.069 C 
BRANCH  28  29
ATOM     29  C   UNL     1      44.914 135.065  23.687  1.00  0.00     0.042 C 
BRANCH  29  30
ATOM     30  C   UNL     1      45.753 136.006  22.842  1.00  0.00    -0.044 A 
ATOM     31  C   UNL     1      45.559 137.390  22.995  1.00  0.00     0.007 A 
ATOM     32  C   UNL     1      46.737 135.543  21.926  1.00  0.00    -0.045 A 
ATOM     33  C   UNL     1      46.318 138.303  22.262  1.00  0.00     0.039 A 
ATOM     34  C   UNL     1      47.482 136.479  21.187  1.00  0.00     0.043 A 
ATOM     35  C   UNL     1      47.279 137.849  21.360  1.00  0.00     0.123 A 
ATOM     36  C   UNL     1      46.997 134.075  21.710  1.00  0.00     0.045 C 
ATOM     37  F   UNL     1      48.016 138.738  20.650  1.00  0.00    -0.207 F 
ENDBRANCH  29  30
ENDBRANCH  28  29
ENDBRANCH  25  28
ENDBRANCH   8  22
TORSDOF 9
ENDMDL
MODEL 7
REMARK VINA RESULT:      -6.9      4.611      8.273
REMARK SMILES CC/C=C(/O)OC1=NC(=O)c2ccc(-n3cc(CCc4ccc(F)cc4C)n[nH+]3)c3cccc1c23
REMARK SMILES IDX 7 1 8 2 9 3 10 4 11 5 12 6 13 7 14 8 30 9 31 10 32 11 33 12
REMARK SMILES IDX 34 13 35 14 6 15 4 16 5 17 3 19 2 20 1 21 15 22 16 23 29 24
REMARK SMILES IDX 17 25 28 26 18 28 19 29 20 30 21 31 26 32 22 33 25 34 23 35
REMARK SMILES IDX 27 36 24 37
REMARK H PARENT 5 18 29 27
ROOT
ATOM      1  C   UNL     1      43.265 131.546  14.593  1.00  0.00     0.234 C 
ATOM      2  N   UNL     1      42.381 132.203  13.897  1.00  0.00    -0.172 NA
ATOM      3  C   UNL     1      41.538 133.204  14.480  1.00  0.00     0.280 C 
ATOM      4  O   UNL     1      40.703 133.811  13.758  1.00  0.00    -0.267 OA
ATOM      5  C   UNL     1      41.664 133.504  15.920  1.00  0.00     0.051 A 
ATOM      6  C   UNL     1      40.873 134.482  16.536  1.00  0.00     0.017 A 
ATOM      7  C   UNL     1      41.006 134.735  17.901  1.00  0.00     0.034 A 
ATOM      8  C   UNL     1      41.924 134.019  18.680  1.00  0.00     0.115 A 
ATOM      9  C   UNL     1      42.760 133.055  18.063  1.00  0.00     0.013 A 
ATOM     10  C   UNL     1      43.759 132.370  18.781  1.00  0.00     0.011 A 
ATOM     11  C   UNL     1      44.559 131.415  18.153  1.00  0.00     0.002 A 
ATOM     12  C   UNL     1      44.392 131.135  16.798  1.00  0.00     0.014 A 
ATOM     13  C   UNL     1      43.429 131.823  16.045  1.00  0.00     0.046 A 
ATOM     14  C   UNL     1      42.614 132.792  16.675  1.00  0.00     0.009 A 
ENDROOT
BRANCH   1  15
ATOM     15  O   UNL     1      44.075 130.573  13.989  1.00  0.00    -0.407 OA
BRANCH  15  16
ATOM     16  C   UNL     1      45.402 130.280  14.335  1.00  0.00     0.279 C 
BRANCH  16  17
ATOM     17  O   UNL     1      45.728 129.068  14.946  1.00  0.00    -0.481 OA
ATOM     18  H   UNL     1      45.363 128.806  15.855  1.00  0.00     0.296 HD
ENDBRANCH  16  17
BRANCH  16  19
ATOM     19  C   UNL     1      46.365 131.170  14.072  1.00  0.00     0.061 C 
BRANCH  19  20
ATOM     20  C   UNL     1      47.592 130.827  13.273  1.00  0.00     0.031 C 
ATOM     21  C   UNL     1      47.247 130.558  11.810  1.00  0.00     0.008 C 
ENDBRANCH  19  20
ENDBRANCH  16  19
ENDBRANCH  15  16
ENDBRANCH   1  15
BRANCH   8  22
ATOM     22  N   UNL     1      41.968 134.272  20.094  1.00  0.00    -0.104 N 
ATOM     23  C   UNL     1      42.790 135.117  20.742  1.00  0.00     0.190 A 
ATOM     24  N   UNL     1      41.267 133.610  21.003  1.00  0.00    -0.012 N 
ATOM     25  C   UNL     1      42.532 134.946  22.087  1.00  0.00     0.133 A 
ATOM     26  N   UNL     1      41.574 134.008  22.229  1.00  0.00     0.020 NA
ATOM     27  H   UNL     1      40.558 132.875  20.787  1.00  0.00     0.527 HD
BRANCH  25  28
ATOM     28  C   UNL     1      43.148 135.713  23.217  1.00  0.00     0.069 C 
BRANCH  28  29
ATOM     29  C   UNL     1      44.403 135.017  23.763  1.00  0.00     0.042 C 
BRANCH  29  30
ATOM     30  C   UNL     1      45.674 135.544  23.123  1.00  0.00    -0.044 A 
ATOM     31  C   UNL     1      46.104 136.839  23.465  1.00  0.00     0.007 A 
ATOM     32  C   UNL     1      46.452 134.774  22.217  1.00  0.00    -0.045 A 
ATOM     33  C   UNL     1      47.278 137.367  22.927  1.00  0.00     0.039 A 
ATOM     34  C   UNL     1      47.625 135.330  21.675  1.00  0.00     0.043 A 
ATOM     35  C   UNL     1      48.038 136.614  22.034  1.00  0.00     0.123 A 
ATOM     36  C   UNL     1      46.052 133.382  21.805  1.00  0.00     0.045 C 
ATOM     37  F   UNL     1      49.178 137.129  21.513  1.00  0.00    -0.207 F 
ENDBRANCH  29  30
ENDBRANCH  28  29
ENDBRANCH  25  28
ENDBRANCH   8  22
TORSDOF 9
ENDMDL
MODEL 8
REMARK VINA RESULT:      -6.5      4.409      9.040
REMARK SMILES CC/C=C(/O)OC1=NC(=O)c2ccc(-n3cc(CCc4ccc(F)cc4C)n[nH+]3)c3cccc1c23
REMARK SMILES IDX 7 1 8 2 9 3 10 4 11 5 12 6 13 7 14 8 30 9 31 10 32 11 33 12
REMARK SMILES IDX 34 13 35 14 6 15 4 16 5 17 3 19 2 20 1 21 15 22 16 23 29 24
REMARK SMILES IDX 17 25 28 26 18 28 19 29 20 30 21 31 26 32 22 33 25 34 23 35
REMARK SMILES IDX 27 36 24 37
REMARK H PARENT 5 18 29 27
ROOT
ATOM      1  C   UNL     1      44.847 130.313  16.325  1.00  0.00     0.234 C 
ATOM      2  N   UNL     1      45.553 130.084  17.395  1.00  0.00    -0.172 NA
ATOM      3  C   UNL     1      45.454 130.901  18.567  1.00  0.00     0.280 C 
ATOM      4  O   UNL     1      46.159 130.631  19.576  1.00  0.00    -0.267 OA
ATOM      5  C   UNL     1      44.526 132.050  18.569  1.00  0.00     0.051 A 
ATOM      6  C   UNL     1      44.383 132.874  19.692  1.00  0.00     0.017 A 
ATOM      7  C   UNL     1      43.507 133.959  19.661  1.00  0.00     0.034 A 
ATOM      8  C   UNL     1      42.761 134.249  18.511  1.00  0.00     0.115 A 
ATOM      9  C   UNL     1      42.866 133.401  17.379  1.00  0.00     0.013 A 
ATOM     10  C   UNL     1      42.075 133.594  16.230  1.00  0.00     0.011 A 
ATOM     11  C   UNL     1      42.208 132.754  15.125  1.00  0.00     0.002 A 
ATOM     12  C   UNL     1      43.115 131.696  15.147  1.00  0.00     0.014 A 
ATOM     13  C   UNL     1      43.895 131.455  16.287  1.00  0.00     0.046 A 
ATOM     14  C   UNL     1      43.766 132.303  17.411  1.00  0.00     0.009 A 
ENDROOT
BRANCH   1  15
ATOM     15  O   UNL     1      44.968 129.489  15.195  1.00  0.00    -0.407 OA
BRANCH  15  16
ATOM     16  C   UNL     1      45.998 129.544  14.246  1.00  0.00     0.279 C 
BRANCH  16  17
ATOM     17  O   UNL     1      47.052 128.628  14.284  1.00  0.00    -0.481 OA
ATOM     18  H   UNL     1      47.042 127.772  13.743  1.00  0.00     0.296 HD
ENDBRANCH  16  17
BRANCH  16  19
ATOM     19  C   UNL     1      45.968 130.481  13.291  1.00  0.00     0.061 C 
BRANCH  19  20
ATOM     20  C   UNL     1      47.019 130.582  12.220  1.00  0.00     0.031 C 
ATOM     21  C   UNL     1      48.270 131.291  12.732  1.00  0.00     0.008 C 
ENDBRANCH  19  20
ENDBRANCH  16  19
ENDBRANCH  15  16
ENDBRANCH   1  15
BRANCH   8  22
ATOM     22  N   UNL     1      41.929 135.420  18.510  1.00  0.00    -0.104 N 
ATOM     23  C   UNL     1      41.607 136.187  19.567  1.00  0.00     0.190 A 
ATOM     24  N   UNL     1      41.248 135.863  17.464  1.00  0.00    -0.012 N 
ATOM     25  C   UNL     1      40.714 137.129  19.099  1.00  0.00     0.133 A 
ATOM     26  N   UNL     1      40.508 136.915  17.783  1.00  0.00     0.020 NA
ATOM     27  H   UNL     1      41.289 135.447  16.508  1.00  0.00     0.527 HD
BRANCH  25  28
ATOM     28  C   UNL     1      40.114 138.256  19.882  1.00  0.00     0.069 C 
BRANCH  28  29
ATOM     29  C   UNL     1      40.653 139.620  19.427  1.00  0.00     0.042 C 
BRANCH  29  30
ATOM     30  C   UNL     1      42.147 139.587  19.164  1.00  0.00    -0.044 A 
ATOM     31  C   UNL     1      42.588 139.602  17.830  1.00  0.00     0.007 A 
ATOM     32  C   UNL     1      43.109 139.565  20.210  1.00  0.00    -0.045 A 
ATOM     33  C   UNL     1      43.951 139.598  17.527  1.00  0.00     0.039 A 
ATOM     34  C   UNL     1      44.477 139.547  19.884  1.00  0.00     0.043 A 
ATOM     35  C   UNL     1      44.894 139.571  18.553  1.00  0.00     0.123 A 
ATOM     36  C   UNL     1      42.709 139.546  21.662  1.00  0.00     0.045 C 
ATOM     37  F   UNL     1      46.217 139.566  18.257  1.00  0.00    -0.207 F 
ENDBRANCH  29  30
ENDBRANCH  28  29
ENDBRANCH  25  28
ENDBRANCH   8  22
TORSDOF 9
ENDMDL
MODEL 9
REMARK VINA RESULT:      -6.5      4.183      9.024
REMARK SMILES CC/C=C(/O)OC1=NC(=O)c2ccc(-n3cc(CCc4ccc(F)cc4C)n[nH+]3)c3cccc1c23
REMARK SMILES IDX 7 1 8 2 9 3 10 4 11 5 12 6 13 7 14 8 30 9 31 10 32 11 33 12
REMARK SMILES IDX 34 13 35 14 6 15 4 16 5 17 3 19 2 20 1 21 15 22 16 23 29 24
REMARK SMILES IDX 17 25 28 26 18 28 19 29 20 30 21 31 26 32 22 33 25 34 23 35
REMARK SMILES IDX 27 36 24 37
REMARK H PARENT 5 18 29 27
ROOT
ATOM      1  C   UNL     1      44.917 130.584  16.280  1.00  0.00     0.234 C 
ATOM      2  N   UNL     1      45.527 130.315  17.399  1.00  0.00    -0.172 NA
ATOM      3  C   UNL     1      45.228 131.006  18.618  1.00  0.00     0.280 C 
ATOM      4  O   UNL     1      45.847 130.701  19.672  1.00  0.00    -0.267 OA
ATOM      5  C   UNL     1      44.200 132.065  18.614  1.00  0.00     0.051 A 
ATOM      6  C   UNL     1      43.863 132.762  19.781  1.00  0.00     0.017 A 
ATOM      7  C   UNL     1      42.896 133.766  19.744  1.00  0.00     0.034 A 
ATOM      8  C   UNL     1      42.249 134.100  18.547  1.00  0.00     0.115 A 
ATOM      9  C   UNL     1      42.551 133.377  17.366  1.00  0.00     0.013 A 
ATOM     10  C   UNL     1      41.869 133.611  16.156  1.00  0.00     0.011 A 
ATOM     11  C   UNL     1      42.197 132.895  15.005  1.00  0.00     0.002 A 
ATOM     12  C   UNL     1      43.194 131.921  15.037  1.00  0.00     0.014 A 
ATOM     13  C   UNL     1      43.869 131.639  16.233  1.00  0.00     0.046 A 
ATOM     14  C   UNL     1      43.544 132.362  17.404  1.00  0.00     0.009 A 
ENDROOT
BRANCH   1  15
ATOM     15  O   UNL     1      45.233 129.887  15.104  1.00  0.00    -0.407 OA
BRANCH  15  16
ATOM     16  C   UNL     1      46.058 130.351  14.069  1.00  0.00     0.279 C 
BRANCH  16  17
ATOM     17  O   UNL     1      45.538 130.590  12.796  1.00  0.00    -0.481 OA
ATOM     18  H   UNL     1      45.436 129.853  12.108  1.00  0.00     0.296 HD
ENDBRANCH  16  17
BRANCH  16  19
ATOM     19  C   UNL     1      47.356 130.572  14.308  1.00  0.00     0.061 C 
BRANCH  19  20
ATOM     20  C   UNL     1      48.442 129.682  13.770  1.00  0.00     0.031 C 
ATOM     21  C   UNL     1      48.255 129.414  12.279  1.00  0.00     0.008 C 
ENDBRANCH  19  20
ENDBRANCH  16  19
ENDBRANCH  15  16
ENDBRANCH   1  15
BRANCH   8  22
ATOM     22  N   UNL     1      41.314 135.191  18.553  1.00  0.00    -0.104 N 
ATOM     23  C   UNL     1      41.597 136.501  18.671  1.00  0.00     0.190 A 
ATOM     24  N   UNL     1      39.996 135.058  18.557  1.00  0.00    -0.012 N 
ATOM     25  C   UNL     1      40.381 137.152  18.724  1.00  0.00     0.133 A 
ATOM     26  N   UNL     1      39.395 136.235  18.644  1.00  0.00     0.020 NA
ATOM     27  H   UNL     1      39.491 134.147  18.493  1.00  0.00     0.527 HD
BRANCH  25  28
ATOM     28  C   UNL     1      40.164 138.633  18.787  1.00  0.00     0.069 C 
BRANCH  28  29
ATOM     29  C   UNL     1      40.997 139.378  17.735  1.00  0.00     0.042 C 
BRANCH  29  30
ATOM     30  C   UNL     1      40.356 139.335  16.360  1.00  0.00    -0.044 A 
ATOM     31  C   UNL     1      38.984 139.625  16.257  1.00  0.00     0.007 A 
ATOM     32  C   UNL     1      41.090 139.039  15.180  1.00  0.00    -0.045 A 
ATOM     33  C   UNL     1      38.345 139.624  15.017  1.00  0.00     0.039 A 
ATOM     34  C   UNL     1      40.425 139.030  13.941  1.00  0.00     0.043 A 
ATOM     35  C   UNL     1      39.064 139.328  13.860  1.00  0.00     0.123 A 
ATOM     36  C   UNL     1      42.562 138.718  15.216  1.00  0.00     0.045 C 
ATOM     37  F   UNL     1      38.441 139.328  12.656  1.00  0.00    -0.207 F 
ENDBRANCH  29  30
ENDBRANCH  28  29
ENDBRANCH  25  28
ENDBRANCH   8  22
TORSDOF 9
ENDMDL


