MODEL 1
REMARK VINA RESULT:      -7.3      0.000      0.000
REMARK SMILES C#CC[N+](C)(C)Cc1c(C)cc(N2C[C@@H](C)[C@@H](C)[C@@H]2C)c2ccccc12
REMARK SMILES IDX 4 1 5 2 6 3 3 4 2 5 1 6 7 7 8 8 9 9 26 10 11 11 25 12 21 13
REMARK SMILES IDX 12 14 24 15 22 16 23 17 10 18 13 19 14 20 19 21 15 22 17 23
REMARK SMILES IDX 20 24 16 25 18 26
REMARK H PARENT
ROOT
ATOM      1  N   UNL     1      45.492 130.768  15.293  1.00  0.00    -0.315 N 
ATOM      2  C   UNL     1      46.026 132.156  15.284  1.00  0.00     0.335 C 
ATOM      3  C   UNL     1      46.530 129.876  15.867  1.00  0.00     0.335 C 
ENDROOT
BRANCH   1   4
ATOM      4  C   UNL     1      45.162 130.354  13.896  1.00  0.00     0.355 C 
BRANCH   4   5
ATOM      5  C   UNL     1      46.293 130.479  12.953  1.00  0.00    -0.047 C 
ATOM      6  C   UNL     1      47.215 130.579  12.183  1.00  0.00     0.010 C 
ENDBRANCH   4   5
ENDBRANCH   1   4
BRANCH   1   7
ATOM      7  C   UNL     1      44.246 130.773  16.138  1.00  0.00     0.302 C 
BRANCH   7   8
ATOM      8  C   UNL     1      43.851 132.141  16.738  1.00  0.00     0.017 A 
ATOM      9  C   UNL     1      44.278 132.498  18.051  1.00  0.00    -0.040 A 
ATOM     10  C   UNL     1      43.069 133.090  16.001  1.00  0.00    -0.007 A 
ATOM     11  C   UNL     1      44.132 133.816  18.498  1.00  0.00     0.030 A 
ATOM     12  C   UNL     1      42.390 132.752  14.804  1.00  0.00     0.009 A 
ATOM     13  C   UNL     1      42.940 134.426  16.483  1.00  0.00     0.006 A 
ATOM     14  C   UNL     1      43.495 134.780  17.726  1.00  0.00     0.045 A 
ATOM     15  C   UNL     1      41.697 133.713  14.070  1.00  0.00     0.001 A 
ATOM     16  C   UNL     1      42.254 135.386  15.710  1.00  0.00     0.011 A 
ATOM     17  C   UNL     1      41.644 135.029  14.512  1.00  0.00     0.001 A 
ATOM     18  C   UNL     1      44.860 131.502  19.028  1.00  0.00     0.045 C 
BRANCH  14  19
ATOM     19  N   UNL     1      43.365 136.107  18.255  1.00  0.00    -0.368 N 
ATOM     20  C   UNL     1      44.445 137.075  18.210  1.00  0.00     0.120 C 
ATOM     21  C   UNL     1      42.166 136.604  18.919  1.00  0.00     0.082 C 
ATOM     22  C   UNL     1      43.968 138.235  19.083  1.00  0.00     0.010 C 
ATOM     23  C   UNL     1      42.424 138.113  19.122  1.00  0.00     0.013 C 
ATOM     24  C   UNL     1      41.961 135.881  20.255  1.00  0.00     0.031 C 
ATOM     25  C   UNL     1      44.529 139.591  18.630  1.00  0.00     0.010 C 
ATOM     26  C   UNL     1      41.711 138.931  18.031  1.00  0.00     0.010 C 
ENDBRANCH  14  19
ENDBRANCH   7   8
ENDBRANCH   1   7
TORSDOF 5
ENDMDL
MODEL 2
REMARK VINA RESULT:      -7.1      1.555      3.895
REMARK SMILES C#CC[N+](C)(C)Cc1c(C)cc(N2C[C@@H](C)[C@@H](C)[C@@H]2C)c2ccccc12
REMARK SMILES IDX 4 1 5 2 6 3 3 4 2 5 1 6 7 7 8 8 9 9 26 10 11 11 25 12 21 13
REMARK SMILES IDX 12 14 24 15 22 16 23 17 10 18 13 19 14 20 19 21 15 22 17 23
REMARK SMILES IDX 20 24 16 25 18 26
REMARK H PARENT
ROOT
ATOM      1  N   UNL     1      45.639 130.684  15.135  1.00  0.00    -0.315 N 
ATOM      2  C   UNL     1      45.993 132.113  15.344  1.00  0.00     0.335 C 
ATOM      3  C   UNL     1      46.801 129.854  15.540  1.00  0.00     0.335 C 
ENDROOT
BRANCH   1   4
ATOM      4  C   UNL     1      45.315 130.460  13.693  1.00  0.00     0.355 C 
BRANCH   4   5
ATOM      5  C   UNL     1      46.487 130.546  12.797  1.00  0.00    -0.047 C 
ATOM      6  C   UNL     1      47.441 130.617  12.064  1.00  0.00     0.010 C 
ENDBRANCH   4   5
ENDBRANCH   1   4
BRANCH   1   7
ATOM      7  C   UNL     1      44.433 130.391  15.986  1.00  0.00     0.302 C 
BRANCH   7   8
ATOM      8  C   UNL     1      43.969 131.543  16.905  1.00  0.00     0.017 A 
ATOM      9  C   UNL     1      43.030 132.506  16.428  1.00  0.00    -0.040 A 
ATOM     10  C   UNL     1      44.444 131.673  18.252  1.00  0.00    -0.007 A 
ATOM     11  C   UNL     1      42.428 133.397  17.324  1.00  0.00     0.030 A 
ATOM     12  C   UNL     1      45.547 130.933  18.744  1.00  0.00     0.009 A 
ATOM     13  C   UNL     1      43.808 132.590  19.141  1.00  0.00     0.006 A 
ATOM     14  C   UNL     1      42.787 133.432  18.667  1.00  0.00     0.045 A 
ATOM     15  C   UNL     1      45.941 131.025  20.078  1.00  0.00     0.001 A 
ATOM     16  C   UNL     1      44.209 132.647  20.492  1.00  0.00     0.011 A 
ATOM     17  C   UNL     1      45.264 131.866  20.954  1.00  0.00     0.001 A 
ATOM     18  C   UNL     1      42.667 132.650  14.968  1.00  0.00     0.045 C 
BRANCH  14  19
ATOM     19  N   UNL     1      42.141 134.384  19.525  1.00  0.00    -0.368 N 
ATOM     20  C   UNL     1      40.786 134.203  20.011  1.00  0.00     0.120 C 
ATOM     21  C   UNL     1      42.753 135.633  19.960  1.00  0.00     0.082 C 
ATOM     22  C   UNL     1      40.424 135.535  20.666  1.00  0.00     0.010 C 
ATOM     23  C   UNL     1      41.777 136.205  21.011  1.00  0.00     0.013 C 
ATOM     24  C   UNL     1      42.923 136.584  18.770  1.00  0.00     0.031 C 
ATOM     25  C   UNL     1      39.431 135.378  21.827  1.00  0.00     0.010 C 
ATOM     26  C   UNL     1      42.276 135.894  22.433  1.00  0.00     0.010 C 
ENDBRANCH  14  19
ENDBRANCH   7   8
ENDBRANCH   1   7
TORSDOF 5
ENDMDL
MODEL 3
REMARK VINA RESULT:      -7.0      1.248      2.079
REMARK SMILES C#CC[N+](C)(C)Cc1c(C)cc(N2C[C@@H](C)[C@@H](C)[C@@H]2C)c2ccccc12
REMARK SMILES IDX 4 1 5 2 6 3 3 4 2 5 1 6 7 7 8 8 9 9 26 10 11 11 25 12 21 13
REMARK SMILES IDX 12 14 24 15 22 16 23 17 10 18 13 19 14 20 19 21 15 22 17 23
REMARK SMILES IDX 20 24 16 25 18 26
REMARK H PARENT
ROOT
ATOM      1  N   UNL     1      45.666 130.832  15.214  1.00  0.00    -0.315 N 
ATOM      2  C   UNL     1      46.001 132.276  15.339  1.00  0.00     0.335 C 
ATOM      3  C   UNL     1      46.866 130.044  15.593  1.00  0.00     0.335 C 
ENDROOT
BRANCH   1   4
ATOM      4  C   UNL     1      45.270 130.536  13.804  1.00  0.00     0.355 C 
BRANCH   4   5
ATOM      5  C   UNL     1      46.402 130.536  12.853  1.00  0.00    -0.047 C 
ATOM      6  C   UNL     1      47.323 130.538  12.076  1.00  0.00     0.010 C 
ENDBRANCH   4   5
ENDBRANCH   1   4
BRANCH   1   7
ATOM      7  C   UNL     1      44.514 130.556  16.143  1.00  0.00     0.302 C 
BRANCH   7   8
ATOM      8  C   UNL     1      44.109 131.724  17.070  1.00  0.00     0.017 A 
ATOM      9  C   UNL     1      44.671 131.828  18.377  1.00  0.00    -0.040 A 
ATOM     10  C   UNL     1      43.184 132.735  16.650  1.00  0.00    -0.007 A 
ATOM     11  C   UNL     1      44.498 133.002  19.119  1.00  0.00     0.030 A 
ATOM     12  C   UNL     1      42.387 132.602  15.486  1.00  0.00     0.009 A 
ATOM     13  C   UNL     1      43.031 133.921  17.428  1.00  0.00     0.006 A 
ATOM     14  C   UNL     1      43.711 134.049  18.653  1.00  0.00     0.045 A 
ATOM     15  C   UNL     1      41.549 133.632  15.062  1.00  0.00     0.001 A 
ATOM     16  C   UNL     1      42.196 134.959  16.965  1.00  0.00     0.011 A 
ATOM     17  C   UNL     1      41.467 134.814  15.789  1.00  0.00     0.001 A 
ATOM     18  C   UNL     1      45.431 130.703  19.040  1.00  0.00     0.045 C 
BRANCH  14  19
ATOM     19  N   UNL     1      43.563 135.216  19.475  1.00  0.00    -0.368 N 
ATOM     20  C   UNL     1      42.344 135.506  20.205  1.00  0.00     0.120 C 
ATOM     21  C   UNL     1      44.591 136.237  19.629  1.00  0.00     0.082 C 
ATOM     22  C   UNL     1      42.531 136.928  20.730  1.00  0.00     0.010 C 
ATOM     23  C   UNL     1      44.062 137.163  20.747  1.00  0.00     0.013 C 
ATOM     24  C   UNL     1      44.787 136.996  18.312  1.00  0.00     0.031 C 
ATOM     25  C   UNL     1      41.794 137.176  22.054  1.00  0.00     0.010 C 
ATOM     26  C   UNL     1      44.726 136.816  22.091  1.00  0.00     0.010 C 
ENDBRANCH  14  19
ENDBRANCH   7   8
ENDBRANCH   1   7
TORSDOF 5
ENDMDL
MODEL 4
REMARK VINA RESULT:      -7.0      1.431      3.670
REMARK SMILES C#CC[N+](C)(C)Cc1c(C)cc(N2C[C@@H](C)[C@@H](C)[C@@H]2C)c2ccccc12
REMARK SMILES IDX 4 1 5 2 6 3 3 4 2 5 1 6 7 7 8 8 9 9 26 10 11 11 25 12 21 13
REMARK SMILES IDX 12 14 24 15 22 16 23 17 10 18 13 19 14 20 19 21 15 22 17 23
REMARK SMILES IDX 20 24 16 25 18 26
REMARK H PARENT
ROOT
ATOM      1  N   UNL     1      45.281 130.810  15.301  1.00  0.00    -0.315 N 
ATOM      2  C   UNL     1      46.134 132.025  15.399  1.00  0.00     0.335 C 
ATOM      3  C   UNL     1      46.045 129.662  15.850  1.00  0.00     0.335 C 
ENDROOT
BRANCH   1   4
ATOM      4  C   UNL     1      44.929 130.567  13.869  1.00  0.00     0.355 C 
BRANCH   4   5
ATOM      5  C   UNL     1      46.097 130.532  12.964  1.00  0.00    -0.047 C 
ATOM      6  C   UNL     1      47.048 130.504  12.224  1.00  0.00     0.010 C 
ENDBRANCH   4   5
ENDBRANCH   1   4
BRANCH   1   7
ATOM      7  C   UNL     1      44.034 131.072  16.102  1.00  0.00     0.302 C 
BRANCH   7   8
ATOM      8  C   UNL     1      44.090 132.296  17.044  1.00  0.00     0.017 A 
ATOM      9  C   UNL     1      43.596 133.561  16.605  1.00  0.00    -0.040 A 
ATOM     10  C   UNL     1      44.614 132.201  18.374  1.00  0.00    -0.007 A 
ATOM     11  C   UNL     1      43.421 134.599  17.527  1.00  0.00     0.030 A 
ATOM     12  C   UNL     1      45.347 131.074  18.825  1.00  0.00     0.009 A 
ATOM     13  C   UNL     1      44.419 133.276  19.290  1.00  0.00     0.006 A 
ATOM     14  C   UNL     1      43.802 134.463  18.857  1.00  0.00     0.045 A 
ATOM     15  C   UNL     1      45.783 130.977  20.145  1.00  0.00     0.001 A 
ATOM     16  C   UNL     1      44.847 133.143  20.628  1.00  0.00     0.011 A 
ATOM     17  C   UNL     1      45.518 132.000  21.049  1.00  0.00     0.001 A 
ATOM     18  C   UNL     1      43.279 133.865  15.159  1.00  0.00     0.045 C 
BRANCH  14  19
ATOM     19  N   UNL     1      43.610 135.576  19.742  1.00  0.00    -0.368 N 
ATOM     20  C   UNL     1      42.314 135.915  20.299  1.00  0.00     0.120 C 
ATOM     21  C   UNL     1      44.672 136.492  20.139  1.00  0.00     0.082 C 
ATOM     22  C   UNL     1      42.518 137.275  20.966  1.00  0.00     0.010 C 
ATOM     23  C   UNL     1      44.040 137.376  21.237  1.00  0.00     0.013 C 
ATOM     24  C   UNL     1      45.131 137.325  18.937  1.00  0.00     0.031 C 
ATOM     25  C   UNL     1      41.600 137.489  22.177  1.00  0.00     0.010 C 
ATOM     26  C   UNL     1      44.454 136.877  22.632  1.00  0.00     0.010 C 
ENDBRANCH  14  19
ENDBRANCH   7   8
ENDBRANCH   1   7
TORSDOF 5
ENDMDL
MODEL 5
REMARK VINA RESULT:      -6.8      1.958      3.608
REMARK SMILES C#CC[N+](C)(C)Cc1c(C)cc(N2C[C@@H](C)[C@@H](C)[C@@H]2C)c2ccccc12
REMARK SMILES IDX 4 1 5 2 6 3 3 4 2 5 1 6 7 7 8 8 9 9 26 10 11 11 25 12 21 13
REMARK SMILES IDX 12 14 24 15 22 16 23 17 10 18 13 19 14 20 19 21 15 22 17 23
REMARK SMILES IDX 20 24 16 25 18 26
REMARK H PARENT
ROOT
ATOM      1  N   UNL     1      45.268 130.621  15.955  1.00  0.00    -0.315 N 
ATOM      2  C   UNL     1      46.063 130.233  17.151  1.00  0.00     0.335 C 
ATOM      3  C   UNL     1      45.246 129.468  15.020  1.00  0.00     0.335 C 
ENDROOT
BRANCH   1   4
ATOM      4  C   UNL     1      45.899 131.809  15.305  1.00  0.00     0.355 C 
BRANCH   4   5
ATOM      5  C   UNL     1      46.857 131.466  14.234  1.00  0.00    -0.047 C 
ATOM      6  C   UNL     1      47.640 131.186  13.362  1.00  0.00     0.010 C 
ENDBRANCH   4   5
ENDBRANCH   1   4
BRANCH   1   7
ATOM      7  C   UNL     1      43.882 130.967  16.430  1.00  0.00     0.302 C 
BRANCH   7   8
ATOM      8  C   UNL     1      43.409 132.404  16.118  1.00  0.00     0.017 A 
ATOM      9  C   UNL     1      42.791 132.699  14.866  1.00  0.00    -0.040 A 
ATOM     10  C   UNL     1      43.555 133.470  17.065  1.00  0.00    -0.007 A 
ATOM     11  C   UNL     1      42.148 133.927  14.677  1.00  0.00     0.030 A 
ATOM     12  C   UNL     1      44.364 133.353  18.223  1.00  0.00     0.009 A 
ATOM     13  C   UNL     1      42.886 134.710  16.845  1.00  0.00     0.006 A 
ATOM     14  C   UNL     1      42.168 134.917  15.653  1.00  0.00     0.045 A 
ATOM     15  C   UNL     1      44.430 134.379  19.165  1.00  0.00     0.001 A 
ATOM     16  C   UNL     1      42.948 135.723  17.824  1.00  0.00     0.011 A 
ATOM     17  C   UNL     1      43.711 135.553  18.975  1.00  0.00     0.001 A 
ATOM     18  C   UNL     1      42.824 131.753  13.688  1.00  0.00     0.045 C 
BRANCH  14  19
ATOM     19  N   UNL     1      41.502 136.159  15.385  1.00  0.00    -0.368 N 
ATOM     20  C   UNL     1      42.221 137.371  15.040  1.00  0.00     0.120 C 
ATOM     21  C   UNL     1      40.058 136.342  15.466  1.00  0.00     0.082 C 
ATOM     22  C   UNL     1      41.168 138.477  15.083  1.00  0.00     0.010 C 
ATOM     23  C   UNL     1      39.808 137.758  14.901  1.00  0.00     0.013 C 
ATOM     24  C   UNL     1      39.590 136.224  16.921  1.00  0.00     0.031 C 
ATOM     25  C   UNL     1      41.464 139.622  14.104  1.00  0.00     0.010 C 
ATOM     26  C   UNL     1      39.343 137.676  13.437  1.00  0.00     0.010 C 
ENDBRANCH  14  19
ENDBRANCH   7   8
ENDBRANCH   1   7
TORSDOF 5
ENDMDL
MODEL 6
REMARK VINA RESULT:      -6.8      0.812      1.056
REMARK SMILES C#CC[N+](C)(C)Cc1c(C)cc(N2C[C@@H](C)[C@@H](C)[C@@H]2C)c2ccccc12
REMARK SMILES IDX 4 1 5 2 6 3 3 4 2 5 1 6 7 7 8 8 9 9 26 10 11 11 25 12 21 13
REMARK SMILES IDX 12 14 24 15 22 16 23 17 10 18 13 19 14 20 19 21 15 22 17 23
REMARK SMILES IDX 20 24 16 25 18 26
REMARK H PARENT
ROOT
ATOM      1  N   UNL     1      45.346 130.526  15.901  1.00  0.00    -0.315 N 
ATOM      2  C   UNL     1      46.295 130.073  16.953  1.00  0.00     0.335 C 
ATOM      3  C   UNL     1      45.221 129.443  14.894  1.00  0.00     0.335 C 
ENDROOT
BRANCH   1   4
ATOM      4  C   UNL     1      45.870 131.772  15.265  1.00  0.00     0.355 C 
BRANCH   4   5
ATOM      5  C   UNL     1      46.851 131.527  14.187  1.00  0.00    -0.047 C 
ATOM      6  C   UNL     1      47.651 131.329  13.308  1.00  0.00     0.010 C 
ENDBRANCH   4   5
ENDBRANCH   1   4
BRANCH   1   7
ATOM      7  C   UNL     1      44.029 130.803  16.574  1.00  0.00     0.302 C 
BRANCH   7   8
ATOM      8  C   UNL     1      43.797 132.268  17.009  1.00  0.00     0.017 A 
ATOM      9  C   UNL     1      44.239 132.713  18.291  1.00  0.00    -0.040 A 
ATOM     10  C   UNL     1      43.157 133.219  16.148  1.00  0.00    -0.007 A 
ATOM     11  C   UNL     1      44.251 134.080  18.588  1.00  0.00     0.030 A 
ATOM     12  C   UNL     1      42.467 132.836  14.971  1.00  0.00     0.009 A 
ATOM     13  C   UNL     1      43.188 134.605  16.479  1.00  0.00     0.006 A 
ATOM     14  C   UNL     1      43.757 135.024  17.696  1.00  0.00     0.045 A 
ATOM     15  C   UNL     1      41.916 133.788  14.115  1.00  0.00     0.001 A 
ATOM     16  C   UNL     1      42.646 135.551  15.584  1.00  0.00     0.011 A 
ATOM     17  C   UNL     1      42.020 135.142  14.411  1.00  0.00     0.001 A 
ATOM     18  C   UNL     1      44.669 131.767  19.388  1.00  0.00     0.045 C 
BRANCH  14  19
ATOM     19  N   UNL     1      43.784 136.408  18.074  1.00  0.00    -0.368 N 
ATOM     20  C   UNL     1      45.022 137.139  18.271  1.00  0.00     0.120 C 
ATOM     21  C   UNL     1      42.591 137.203  18.337  1.00  0.00     0.082 C 
ATOM     22  C   UNL     1      44.597 138.468  18.891  1.00  0.00     0.010 C 
ATOM     23  C   UNL     1      43.109 138.648  18.501  1.00  0.00     0.013 C 
ATOM     24  C   UNL     1      41.890 136.705  19.606  1.00  0.00     0.031 C 
ATOM     25  C   UNL     1      45.538 139.625  18.524  1.00  0.00     0.010 C 
ATOM     26  C   UNL     1      42.903 139.443  17.200  1.00  0.00     0.010 C 
ENDBRANCH  14  19
ENDBRANCH   7   8
ENDBRANCH   1   7
TORSDOF 5
ENDMDL
MODEL 7
REMARK VINA RESULT:      -6.8      1.393      3.308
REMARK SMILES C#CC[N+](C)(C)Cc1c(C)cc(N2C[C@@H](C)[C@@H](C)[C@@H]2C)c2ccccc12
REMARK SMILES IDX 4 1 5 2 6 3 3 4 2 5 1 6 7 7 8 8 9 9 26 10 11 11 25 12 21 13
REMARK SMILES IDX 12 14 24 15 22 16 23 17 10 18 13 19 14 20 19 21 15 22 17 23
REMARK SMILES IDX 20 24 16 25 18 26
REMARK H PARENT
ROOT
ATOM      1  N   UNL     1      45.418 130.798  15.253  1.00  0.00    -0.315 N 
ATOM      2  C   UNL     1      46.123 132.104  15.352  1.00  0.00     0.335 C 
ATOM      3  C   UNL     1      46.323 129.743  15.772  1.00  0.00     0.335 C 
ENDROOT
BRANCH   1   4
ATOM      4  C   UNL     1      45.069 130.530  13.824  1.00  0.00     0.355 C 
BRANCH   4   5
ATOM      5  C   UNL     1      46.235 130.527  12.915  1.00  0.00    -0.047 C 
ATOM      6  C   UNL     1      47.184 130.522  12.173  1.00  0.00     0.010 C 
ENDBRANCH   4   5
ENDBRANCH   1   4
BRANCH   1   7
ATOM      7  C   UNL     1      44.165 130.901  16.079  1.00  0.00     0.302 C 
BRANCH   7   8
ATOM      8  C   UNL     1      44.090 132.116  17.031  1.00  0.00     0.017 A 
ATOM      9  C   UNL     1      43.473 133.327  16.599  1.00  0.00    -0.040 A 
ATOM     10  C   UNL     1      44.614 132.064  18.365  1.00  0.00    -0.007 A 
ATOM     11  C   UNL     1      43.188 134.335  17.528  1.00  0.00     0.030 A 
ATOM     12  C   UNL     1      45.456 131.014  18.811  1.00  0.00     0.009 A 
ATOM     13  C   UNL     1      44.305 133.106  19.287  1.00  0.00     0.006 A 
ATOM     14  C   UNL     1      43.573 134.227  18.859  1.00  0.00     0.045 A 
ATOM     15  C   UNL     1      45.891 130.951  20.134  1.00  0.00     0.001 A 
ATOM     16  C   UNL     1      44.737 133.006  20.626  1.00  0.00     0.011 A 
ATOM     17  C   UNL     1      45.519 131.933  21.043  1.00  0.00     0.001 A 
ATOM     18  C   UNL     1      43.134 133.610  15.154  1.00  0.00     0.045 C 
BRANCH  14  19
ATOM     19  N   UNL     1      43.263 135.307  19.752  1.00  0.00    -0.368 N 
ATOM     20  C   UNL     1      44.273 136.222  20.249  1.00  0.00     0.120 C 
ATOM     21  C   UNL     1      41.929 135.571  20.277  1.00  0.00     0.082 C 
ATOM     22  C   UNL     1      43.566 137.034  21.333  1.00  0.00     0.010 C 
ATOM     23  C   UNL     1      42.055 136.925  21.009  1.00  0.00     0.013 C 
ATOM     24  C   UNL     1      41.503 134.450  21.232  1.00  0.00     0.031 C 
ATOM     25  C   UNL     1      44.127 138.457  21.473  1.00  0.00     0.010 C 
ATOM     26  C   UNL     1      41.529 138.067  20.121  1.00  0.00     0.010 C 
ENDBRANCH  14  19
ENDBRANCH   7   8
ENDBRANCH   1   7
TORSDOF 5
ENDMDL
MODEL 8
REMARK VINA RESULT:      -6.7      1.537      3.793
REMARK SMILES C#CC[N+](C)(C)Cc1c(C)cc(N2C[C@@H](C)[C@@H](C)[C@@H]2C)c2ccccc12
REMARK SMILES IDX 4 1 5 2 6 3 3 4 2 5 1 6 7 7 8 8 9 9 26 10 11 11 25 12 21 13
REMARK SMILES IDX 12 14 24 15 22 16 23 17 10 18 13 19 14 20 19 21 15 22 17 23
REMARK SMILES IDX 20 24 16 25 18 26
REMARK H PARENT
ROOT
ATOM      1  N   UNL     1      44.721 130.713  15.170  1.00  0.00    -0.315 N 
ATOM      2  C   UNL     1      45.191 129.320  15.396  1.00  0.00     0.335 C 
ATOM      3  C   UNL     1      44.172 130.799  13.794  1.00  0.00     0.335 C 
ENDROOT
BRANCH   1   4
ATOM      4  C   UNL     1      45.870 131.655  15.334  1.00  0.00     0.355 C 
BRANCH   4   5
ATOM      5  C   UNL     1      46.912 131.513  14.296  1.00  0.00    -0.047 C 
ATOM      6  C   UNL     1      47.764 131.396  13.452  1.00  0.00     0.010 C 
ENDBRANCH   4   5
ENDBRANCH   1   4
BRANCH   1   7
ATOM      7  C   UNL     1      43.664 131.003  16.201  1.00  0.00     0.302 C 
BRANCH   7   8
ATOM      8  C   UNL     1      43.901 132.262  17.065  1.00  0.00     0.017 A 
ATOM      9  C   UNL     1      43.462 133.540  16.605  1.00  0.00    -0.040 A 
ATOM     10  C   UNL     1      44.544 132.190  18.344  1.00  0.00    -0.007 A 
ATOM     11  C   UNL     1      43.454 134.631  17.481  1.00  0.00     0.030 A 
ATOM     12  C   UNL     1      45.232 131.032  18.785  1.00  0.00     0.009 A 
ATOM     13  C   UNL     1      44.518 133.319  19.214  1.00  0.00     0.006 A 
ATOM     14  C   UNL     1      43.951 134.529  18.775  1.00  0.00     0.045 A 
ATOM     15  C   UNL     1      45.786 130.964  20.063  1.00  0.00     0.001 A 
ATOM     16  C   UNL     1      45.063 133.217  20.511  1.00  0.00     0.011 A 
ATOM     17  C   UNL     1      45.687 132.046  20.929  1.00  0.00     0.001 A 
ATOM     18  C   UNL     1      43.028 133.799  15.181  1.00  0.00     0.045 C 
BRANCH  14  19
ATOM     19  N   UNL     1      43.929 135.695  19.613  1.00  0.00    -0.368 N 
ATOM     20  C   UNL     1      42.757 136.088  20.371  1.00  0.00     0.120 C 
ATOM     21  C   UNL     1      45.051 136.614  19.757  1.00  0.00     0.082 C 
ATOM     22  C   UNL     1      43.086 137.480  20.908  1.00  0.00     0.010 C 
ATOM     23  C   UNL     1      44.632 137.570  20.895  1.00  0.00     0.013 C 
ATOM     24  C   UNL     1      45.291 137.368  18.444  1.00  0.00     0.031 C 
ATOM     25  C   UNL     1      42.402 137.779  22.249  1.00  0.00     0.010 C 
ATOM     26  C   UNL     1      45.287 137.146  22.221  1.00  0.00     0.010 C 
ENDBRANCH  14  19
ENDBRANCH   7   8
ENDBRANCH   1   7
TORSDOF 5
ENDMDL
MODEL 9
REMARK VINA RESULT:      -6.7      1.330      2.289
REMARK SMILES C#CC[N+](C)(C)Cc1c(C)cc(N2C[C@@H](C)[C@@H](C)[C@@H]2C)c2ccccc12
REMARK SMILES IDX 4 1 5 2 6 3 3 4 2 5 1 6 7 7 8 8 9 9 26 10 11 11 25 12 21 13
REMARK SMILES IDX 12 14 24 15 22 16 23 17 10 18 13 19 14 20 19 21 15 22 17 23
REMARK SMILES IDX 20 24 16 25 18 26
REMARK H PARENT
ROOT
ATOM      1  N   UNL     1      45.743 130.838  15.079  1.00  0.00    -0.315 N 
ATOM      2  C   UNL     1      45.311 130.597  13.676  1.00  0.00     0.335 C 
ATOM      3  C   UNL     1      46.159 132.258  15.197  1.00  0.00     0.335 C 
ENDROOT
BRANCH   1   4
ATOM      4  C   UNL     1      46.883 129.931  15.409  1.00  0.00     0.355 C 
BRANCH   4   5
ATOM      5  C   UNL     1      47.735 129.595  14.249  1.00  0.00    -0.047 C 
ATOM      6  C   UNL     1      48.430 129.323  13.303  1.00  0.00     0.010 C 
ENDBRANCH   4   5
ENDBRANCH   1   4
BRANCH   1   7
ATOM      7  C   UNL     1      44.568 130.536  15.969  1.00  0.00     0.302 C 
BRANCH   7   8
ATOM      8  C   UNL     1      44.131 131.682  16.910  1.00  0.00     0.017 A 
ATOM      9  C   UNL     1      44.673 131.774  18.226  1.00  0.00    -0.040 A 
ATOM     10  C   UNL     1      43.194 132.684  16.494  1.00  0.00    -0.007 A 
ATOM     11  C   UNL     1      44.470 132.933  18.984  1.00  0.00     0.030 A 
ATOM     12  C   UNL     1      42.415 132.556  15.317  1.00  0.00     0.009 A 
ATOM     13  C   UNL     1      43.010 133.854  17.288  1.00  0.00     0.006 A 
ATOM     14  C   UNL     1      43.671 133.973  18.524  1.00  0.00     0.045 A 
ATOM     15  C   UNL     1      41.566 133.579  14.897  1.00  0.00     0.001 A 
ATOM     16  C   UNL     1      42.164 134.886  16.830  1.00  0.00     0.011 A 
ATOM     17  C   UNL     1      41.454 134.747  15.642  1.00  0.00     0.001 A 
ATOM     18  C   UNL     1      45.442 130.651  18.882  1.00  0.00     0.045 C 
BRANCH  14  19
ATOM     19  N   UNL     1      43.492 135.124  19.363  1.00  0.00    -0.368 N 
ATOM     20  C   UNL     1      42.246 135.401  20.051  1.00  0.00     0.120 C 
ATOM     21  C   UNL     1      44.514 136.141  19.577  1.00  0.00     0.082 C 
ATOM     22  C   UNL     1      42.413 136.813  20.611  1.00  0.00     0.010 C 
ATOM     23  C   UNL     1      43.942 137.045  20.691  1.00  0.00     0.013 C 
ATOM     24  C   UNL     1      44.761 136.926  18.283  1.00  0.00     0.031 C 
ATOM     25  C   UNL     1      41.626 137.036  21.910  1.00  0.00     0.010 C 
ATOM     26  C   UNL     1      44.554 136.671  22.052  1.00  0.00     0.010 C 
ENDBRANCH  14  19
ENDBRANCH   7   8
ENDBRANCH   1   7
TORSDOF 5
ENDMDL


