MODEL 1
REMARK VINA RESULT:      -5.6      0.000      0.000
REMARK SMILES C#C[C@@](O)(c1cc(N=[N+]=[N-])cc(OC(=O)[C@]2([NH3+])C[C@H](CO)C2)c(C(=O)N=[N+]=[N-])cc2cc1CC2)C(C)(C)C
REMARK SMILES IDX 13 1 12 2 5 3 6 4 32 5 7 6 31 7 33 8 11 9 30 10 34 11 29 12
REMARK SMILES IDX 23 13 3 14 2 15 1 16 4 17 35 19 36 20 37 21 38 22 8 23 9 24
REMARK SMILES IDX 10 25 24 26 25 27 26 28 27 29 28 30 14 31 15 32 16 33 22 34
REMARK SMILES IDX 18 35 19 36 17 37 20 41 21 42
REMARK H PARENT 4 18 17 38 17 39 17 40 21 43
ROOT
ATOM      1  O   UNL     1      44.162 133.024  16.886  1.00  0.00    -0.421 OA
ENDROOT
BRANCH   1   2
ATOM      2  C   UNL     1      43.132 133.970  16.747  1.00  0.00     0.142 A 
ATOM      3  C   UNL     1      43.609 133.801  20.088  1.00  0.00    -0.000 A 
ATOM      4  C   UNL     1      44.354 134.869  19.480  1.00  0.00     0.018 A 
ATOM      5  C   UNL     1      42.285 133.450  19.687  1.00  0.00    -0.040 A 
ATOM      6  C   UNL     1      44.154 135.630  18.301  1.00  0.00     0.042 A 
ATOM      7  C   UNL     1      41.414 134.277  19.009  1.00  0.00     0.008 A 
ATOM      8  C   UNL     1      41.727 132.058  19.669  1.00  0.00     0.041 C 
ATOM      9  C   UNL     1      43.348 135.268  17.203  1.00  0.00     0.058 A 
ATOM     10  C   UNL     1      40.607 133.530  18.177  1.00  0.00    -0.047 A 
ATOM     11  C   UNL     1      40.519 132.149  18.736  1.00  0.00     0.040 C 
ATOM     12  C   UNL     1      40.685 133.668  16.778  1.00  0.00     0.019 A 
ATOM     13  C   UNL     1      41.923 133.692  16.077  1.00  0.00     0.067 A 
BRANCH   3  14
ATOM     14  C   UNL     1      44.239 133.173  21.376  1.00  0.00     0.155 C 
BRANCH  14  15
ATOM     15  C   UNL     1      44.914 134.181  22.233  1.00  0.00    -0.066 C 
ATOM     16  C   UNL     1      45.488 134.962  22.950  1.00  0.00     0.007 C 
ENDBRANCH  14  15
BRANCH  14  17
ATOM     17  O   UNL     1      43.221 132.611  22.179  1.00  0.00    -0.373 OA
ATOM     18  H   UNL     1      43.390 132.870  23.125  1.00  0.00     0.213 HD
ENDBRANCH  14  17
BRANCH  14  19
ATOM     19  C   UNL     1      45.270 132.016  21.021  1.00  0.00     0.006 C 
ATOM     20  C   UNL     1      45.008 131.404  19.622  1.00  0.00     0.015 C 
ATOM     21  C   UNL     1      46.725 132.559  21.035  1.00  0.00     0.015 C 
ATOM     22  C   UNL     1      45.201 130.867  22.057  1.00  0.00     0.015 C 
ENDBRANCH  14  19
ENDBRANCH   3  14
BRANCH   6  23
ATOM     23  N   UNL     1      44.779 136.925  18.291  1.00  0.00    -0.061 NA
BRANCH  23  24
ATOM     24  N   UNL     1      44.184 137.951  17.956  1.00  0.00     0.005 N 
ATOM     25  N   UNL     1      43.589 138.974  17.621  1.00  0.00    -0.003 NA
ENDBRANCH  23  24
ENDBRANCH   6  23
BRANCH  13  26
ATOM     26  C   UNL     1      41.976 133.266  14.657  1.00  0.00     0.252 C 
ATOM     27  O   UNL     1      42.131 132.048  14.363  1.00  0.00    -0.287 OA
BRANCH  26  28
ATOM     28  N   UNL     1      41.863 134.242  13.616  1.00  0.00    -0.017 NA
BRANCH  28  29
ATOM     29  N   UNL     1      40.788 134.793  13.370  1.00  0.00     0.009 N 
ATOM     30  N   UNL     1      39.716 135.344  13.123  1.00  0.00    -0.003 NA
ENDBRANCH  28  29
ENDBRANCH  26  28
ENDBRANCH  13  26
ENDBRANCH   1   2
BRANCH   1  31
ATOM     31  C   UNL     1      45.063 132.628  15.887  1.00  0.00     0.373 C 
ATOM     32  O   UNL     1      45.844 133.458  15.349  1.00  0.00    -0.244 OA
BRANCH  31  33
ATOM     33  C   UNL     1      45.160 131.162  15.538  1.00  0.00     0.194 C 
ATOM     34  C   UNL     1      46.582 130.577  15.556  1.00  0.00     0.087 C 
ATOM     35  C   UNL     1      45.067 130.887  14.031  1.00  0.00     0.087 C 
ATOM     36  C   UNL     1      46.472 130.281  14.059  1.00  0.00     0.028 C 
BRANCH  33  37
ATOM     37  N   UNL     1      44.207 130.359  16.318  1.00  0.00    -0.343 N 
ATOM     38  H   UNL     1      43.779 129.628  15.703  1.00  0.00     0.345 HD
ATOM     39  H   UNL     1      43.440 130.957  16.708  1.00  0.00     0.345 HD
ATOM     40  H   UNL     1      44.702 129.890  17.110  1.00  0.00     0.345 HD
ENDBRANCH  33  37
BRANCH  36  41
ATOM     41  C   UNL     1      47.492 131.046  13.211  1.00  0.00     0.160 C 
BRANCH  41  42
ATOM     42  O   UNL     1      47.372 130.659  11.870  1.00  0.00    -0.396 OA
ATOM     43  H   UNL     1      46.489 130.989  11.566  1.00  0.00     0.210 HD
ENDBRANCH  41  42
ENDBRANCH  36  41
ENDBRANCH  31  33
ENDBRANCH   1  31
TORSDOF 15
ENDMDL
MODEL 2
REMARK VINA RESULT:      -5.6      3.057      5.756
REMARK SMILES C#C[C@@](O)(c1cc(N=[N+]=[N-])cc(OC(=O)[C@]2([NH3+])C[C@H](CO)C2)c(C(=O)N=[N+]=[N-])cc2cc1CC2)C(C)(C)C
REMARK SMILES IDX 13 1 12 2 5 3 6 4 32 5 7 6 31 7 33 8 11 9 30 10 34 11 29 12
REMARK SMILES IDX 23 13 3 14 2 15 1 16 4 17 35 19 36 20 37 21 38 22 8 23 9 24
REMARK SMILES IDX 10 25 24 26 25 27 26 28 27 29 28 30 14 31 15 32 16 33 22 34
REMARK SMILES IDX 18 35 19 36 17 37 20 41 21 42
REMARK H PARENT 4 18 17 38 17 39 17 40 21 43
ROOT
ATOM      1  O   UNL     1      41.594 135.002  17.162  1.00  0.00    -0.421 OA
ENDROOT
BRANCH   1   2
ATOM      2  C   UNL     1      42.598 135.855  16.672  1.00  0.00     0.142 A 
ATOM      3  C   UNL     1      44.156 134.113  19.114  1.00  0.00    -0.000 A 
ATOM      4  C   UNL     1      44.346 133.528  17.816  1.00  0.00     0.018 A 
ATOM      5  C   UNL     1      44.152 135.523  19.339  1.00  0.00    -0.040 A 
ATOM      6  C   UNL     1      44.332 134.071  16.506  1.00  0.00     0.042 A 
ATOM      7  C   UNL     1      44.709 136.464  18.498  1.00  0.00     0.008 A 
ATOM      8  C   UNL     1      43.303 136.236  20.350  1.00  0.00     0.041 C 
ATOM      9  C   UNL     1      43.744 135.290  16.116  1.00  0.00     0.058 A 
ATOM     10  C   UNL     1      43.982 137.634  18.552  1.00  0.00    -0.047 A 
ATOM     11  C   UNL     1      43.292 137.689  19.875  1.00  0.00     0.040 C 
ATOM     12  C   UNL     1      43.279 138.102  17.426  1.00  0.00     0.019 A 
ATOM     13  C   UNL     1      42.458 137.257  16.628  1.00  0.00     0.067 A 
BRANCH   3  14
ATOM     14  C   UNL     1      44.173 133.119  20.323  1.00  0.00     0.155 C 
BRANCH  14  15
ATOM     15  C   UNL     1      45.073 131.959  20.097  1.00  0.00    -0.066 C 
ATOM     16  C   UNL     1      45.817 131.038  19.871  1.00  0.00     0.007 C 
ENDBRANCH  14  15
BRANCH  14  17
ATOM     17  O   UNL     1      44.676 133.774  21.471  1.00  0.00    -0.373 OA
ATOM     18  H   UNL     1      45.480 134.296  21.205  1.00  0.00     0.213 HD
ENDBRANCH  14  17
BRANCH  14  19
ATOM     19  C   UNL     1      42.714 132.589  20.668  1.00  0.00     0.006 C 
ATOM     20  C   UNL     1      42.737 131.170  21.291  1.00  0.00     0.015 C 
ATOM     21  C   UNL     1      42.015 133.537  21.679  1.00  0.00     0.015 C 
ATOM     22  C   UNL     1      41.826 132.533  19.402  1.00  0.00     0.015 C 
ENDBRANCH  14  19
ENDBRANCH   3  14
BRANCH   6  23
ATOM     23  N   UNL     1      45.067 133.323  15.523  1.00  0.00    -0.061 NA
BRANCH  23  24
ATOM     24  N   UNL     1      45.573 132.224  15.760  1.00  0.00     0.005 N 
ATOM     25  N   UNL     1      46.078 131.128  15.999  1.00  0.00    -0.003 NA
ENDBRANCH  23  24
ENDBRANCH   6  23
BRANCH  13  26
ATOM     26  C   UNL     1      41.331 137.837  15.857  1.00  0.00     0.252 C 
ATOM     27  O   UNL     1      40.581 138.707  16.382  1.00  0.00    -0.287 OA
BRANCH  26  28
ATOM     28  N   UNL     1      41.085 137.399  14.517  1.00  0.00    -0.017 NA
BRANCH  28  29
ATOM     29  N   UNL     1      40.045 137.699  13.927  1.00  0.00     0.009 N 
ATOM     30  N   UNL     1      39.008 137.997  13.336  1.00  0.00    -0.003 NA
ENDBRANCH  28  29
ENDBRANCH  26  28
ENDBRANCH  13  26
ENDBRANCH   1   2
BRANCH   1  31
ATOM     31  C   UNL     1      40.596 134.376  16.401  1.00  0.00     0.373 C 
ATOM     32  O   UNL     1      40.864 133.390  15.663  1.00  0.00    -0.244 OA
BRANCH  31  33
ATOM     33  C   UNL     1      39.167 134.835  16.562  1.00  0.00     0.194 C 
ATOM     34  C   UNL     1      38.928 135.847  17.694  1.00  0.00     0.087 C 
ATOM     35  C   UNL     1      38.277 133.816  17.286  1.00  0.00     0.087 C 
ATOM     36  C   UNL     1      38.020 134.836  18.398  1.00  0.00     0.028 C 
BRANCH  33  37
ATOM     37  N   UNL     1      38.596 135.273  15.280  1.00  0.00    -0.343 N 
ATOM     38  H   UNL     1      39.220 134.970  14.497  1.00  0.00     0.345 HD
ATOM     39  H   UNL     1      38.498 136.316  15.246  1.00  0.00     0.345 HD
ATOM     40  H   UNL     1      37.651 134.843  15.147  1.00  0.00     0.345 HD
ENDBRANCH  33  37
BRANCH  36  41
ATOM     41  C   UNL     1      38.542 134.401  19.769  1.00  0.00     0.160 C 
BRANCH  41  42
ATOM     42  O   UNL     1      37.762 134.985  20.776  1.00  0.00    -0.396 OA
ATOM     43  H   UNL     1      38.066 134.582  21.628  1.00  0.00     0.210 HD
ENDBRANCH  41  42
ENDBRANCH  36  41
ENDBRANCH  31  33
ENDBRANCH   1  31
TORSDOF 15
ENDMDL
MODEL 3
REMARK VINA RESULT:      -5.6      2.666      5.493
REMARK SMILES C#C[C@@](O)(c1cc(N=[N+]=[N-])cc(OC(=O)[C@]2([NH3+])C[C@H](CO)C2)c(C(=O)N=[N+]=[N-])cc2cc1CC2)C(C)(C)C
REMARK SMILES IDX 13 1 12 2 5 3 6 4 32 5 7 6 31 7 33 8 11 9 30 10 34 11 29 12
REMARK SMILES IDX 23 13 3 14 2 15 1 16 4 17 35 19 36 20 37 21 38 22 8 23 9 24
REMARK SMILES IDX 10 25 24 26 25 27 26 28 27 29 28 30 14 31 15 32 16 33 22 34
REMARK SMILES IDX 18 35 19 36 17 37 20 41 21 42
REMARK H PARENT 4 18 17 38 17 39 17 40 21 43
ROOT
ATOM      1  O   UNL     1      43.737 134.076  17.163  1.00  0.00    -0.421 OA
ENDROOT
BRANCH   1   2
ATOM      2  C   UNL     1      43.551 132.683  17.196  1.00  0.00     0.142 A 
ATOM      3  C   UNL     1      42.572 133.690  20.271  1.00  0.00    -0.000 A 
ATOM      4  C   UNL     1      41.472 133.580  19.354  1.00  0.00     0.018 A 
ATOM      5  C   UNL     1      43.658 132.764  20.297  1.00  0.00    -0.040 A 
ATOM      6  C   UNL     1      41.266 132.797  18.190  1.00  0.00     0.042 A 
ATOM      7  C   UNL     1      43.623 131.482  19.787  1.00  0.00     0.008 A 
ATOM      8  C   UNL     1      45.085 133.111  20.606  1.00  0.00     0.041 C 
ATOM      9  C   UNL     1      42.267 132.185  17.410  1.00  0.00     0.058 A 
ATOM     10  C   UNL     1      44.868 131.131  19.310  1.00  0.00    -0.047 A 
ATOM     11  C   UNL     1      45.889 131.940  20.039  1.00  0.00     0.040 C 
ATOM     12  C   UNL     1      45.076 130.894  17.938  1.00  0.00     0.019 A 
ATOM     13  C   UNL     1      44.585 131.765  16.926  1.00  0.00     0.067 A 
BRANCH   3  14
ATOM     14  C   UNL     1      42.417 134.759  21.403  1.00  0.00     0.155 C 
BRANCH  14  15
ATOM     15  C   UNL     1      40.997 135.095  21.682  1.00  0.00    -0.066 C 
ATOM     16  C   UNL     1      39.859 135.412  21.926  1.00  0.00     0.007 C 
ENDBRANCH  14  15
BRANCH  14  17
ATOM     17  O   UNL     1      42.932 134.247  22.616  1.00  0.00    -0.373 OA
ATOM     18  H   UNL     1      42.406 134.634  23.367  1.00  0.00     0.213 HD
ENDBRANCH  14  17
BRANCH  14  19
ATOM     19  C   UNL     1      43.212 136.094  21.064  1.00  0.00     0.006 C 
ATOM     20  C   UNL     1      44.338 136.383  22.088  1.00  0.00     0.015 C 
ATOM     21  C   UNL     1      43.864 135.997  19.658  1.00  0.00     0.015 C 
ATOM     22  C   UNL     1      42.266 137.319  21.046  1.00  0.00     0.015 C 
ENDBRANCH  14  19
ENDBRANCH   3  14
BRANCH   6  23
ATOM     23  N   UNL     1      39.891 132.556  17.847  1.00  0.00    -0.061 NA
BRANCH  23  24
ATOM     24  N   UNL     1      39.070 133.464  17.699  1.00  0.00     0.005 N 
ATOM     25  N   UNL     1      38.253 134.371  17.551  1.00  0.00    -0.003 NA
ENDBRANCH  23  24
ENDBRANCH   6  23
BRANCH  13  26
ATOM     26  C   UNL     1      45.269 131.829  15.611  1.00  0.00     0.252 C 
ATOM     27  O   UNL     1      46.203 132.656  15.418  1.00  0.00    -0.287 OA
BRANCH  26  28
ATOM     28  N   UNL     1      44.858 130.957  14.552  1.00  0.00    -0.017 NA
BRANCH  28  29
ATOM     29  N   UNL     1      45.584 130.748  13.578  1.00  0.00     0.009 N 
ATOM     30  N   UNL     1      46.310 130.542  12.605  1.00  0.00    -0.003 NA
ENDBRANCH  28  29
ENDBRANCH  26  28
ENDBRANCH  13  26
ENDBRANCH   1   2
BRANCH   1  31
ATOM     31  C   UNL     1      43.568 134.907  16.047  1.00  0.00     0.373 C 
ATOM     32  O   UNL     1      44.504 135.090  15.223  1.00  0.00    -0.244 OA
BRANCH  31  33
ATOM     33  C   UNL     1      42.204 135.501  15.785  1.00  0.00     0.194 C 
ATOM     34  C   UNL     1      42.211 136.902  15.152  1.00  0.00     0.087 C 
ATOM     35  C   UNL     1      41.537 136.074  17.043  1.00  0.00     0.087 C 
ATOM     36  C   UNL     1      41.521 137.462  16.399  1.00  0.00     0.028 C 
BRANCH  33  37
ATOM     37  N   UNL     1      41.336 134.558  15.066  1.00  0.00    -0.343 N 
ATOM     38  H   UNL     1      40.334 134.823  15.211  1.00  0.00     0.345 HD
ATOM     39  H   UNL     1      41.475 133.578  15.410  1.00  0.00     0.345 HD
ATOM     40  H   UNL     1      41.550 134.588  14.042  1.00  0.00     0.345 HD
ENDBRANCH  33  37
BRANCH  36  41
ATOM     41  C   UNL     1      42.363 138.500  17.145  1.00  0.00     0.160 C 
BRANCH  41  42
ATOM     42  O   UNL     1      41.577 139.625  17.429  1.00  0.00    -0.396 OA
ATOM     43  H   UNL     1      40.758 139.534  16.879  1.00  0.00     0.210 HD
ENDBRANCH  41  42
ENDBRANCH  36  41
ENDBRANCH  31  33
ENDBRANCH   1  31
TORSDOF 15
ENDMDL
MODEL 4
REMARK VINA RESULT:      -5.6      2.625      5.261
REMARK SMILES C#C[C@@](O)(c1cc(N=[N+]=[N-])cc(OC(=O)[C@]2([NH3+])C[C@H](CO)C2)c(C(=O)N=[N+]=[N-])cc2cc1CC2)C(C)(C)C
REMARK SMILES IDX 13 1 12 2 5 3 6 4 32 5 7 6 31 7 33 8 11 9 30 10 34 11 29 12
REMARK SMILES IDX 23 13 3 14 2 15 1 16 4 17 35 19 36 20 37 21 38 22 8 23 9 24
REMARK SMILES IDX 10 25 24 26 25 27 26 28 27 29 28 30 14 31 15 32 16 33 22 34
REMARK SMILES IDX 18 35 19 36 17 37 20 41 21 42
REMARK H PARENT 4 18 17 38 17 39 17 40 21 43
ROOT
ATOM      1  O   UNL     1      44.401 133.561  17.108  1.00  0.00    -0.421 OA
ENDROOT
BRANCH   1   2
ATOM      2  C   UNL     1      44.099 132.223  17.415  1.00  0.00     0.142 A 
ATOM      3  C   UNL     1      43.120 133.910  20.175  1.00  0.00    -0.000 A 
ATOM      4  C   UNL     1      42.041 133.698  19.250  1.00  0.00     0.018 A 
ATOM      5  C   UNL     1      44.124 132.930  20.437  1.00  0.00    -0.040 A 
ATOM      6  C   UNL     1      41.804 132.710  18.261  1.00  0.00     0.042 A 
ATOM      7  C   UNL     1      43.998 131.578  20.196  1.00  0.00     0.008 A 
ATOM      8  C   UNL     1      45.565 133.224  20.733  1.00  0.00     0.041 C 
ATOM      9  C   UNL     1      42.773 131.877  17.667  1.00  0.00     0.058 A 
ATOM     10  C   UNL     1      45.222 131.043  19.856  1.00  0.00    -0.047 A 
ATOM     11  C   UNL     1      46.285 131.905  20.451  1.00  0.00     0.040 C 
ATOM     12  C   UNL     1      45.449 130.514  18.571  1.00  0.00     0.019 A 
ATOM     13  C   UNL     1      45.061 131.193  17.383  1.00  0.00     0.067 A 
BRANCH   3  14
ATOM     14  C   UNL     1      43.021 135.198  21.059  1.00  0.00     0.155 C 
BRANCH  14  15
ATOM     15  C   UNL     1      44.333 135.871  21.239  1.00  0.00    -0.066 C 
ATOM     16  C   UNL     1      45.420 136.373  21.379  1.00  0.00     0.007 C 
ENDBRANCH  14  15
BRANCH  14  17
ATOM     17  O   UNL     1      42.189 136.148  20.425  1.00  0.00    -0.373 OA
ATOM     18  H   UNL     1      41.246 135.840  20.505  1.00  0.00     0.213 HD
ENDBRANCH  14  17
BRANCH  14  19
ATOM     19  C   UNL     1      42.396 134.884  22.487  1.00  0.00     0.006 C 
ATOM     20  C   UNL     1      42.791 135.941  23.548  1.00  0.00     0.015 C 
ATOM     21  C   UNL     1      40.845 134.852  22.407  1.00  0.00     0.015 C 
ATOM     22  C   UNL     1      42.856 133.500  23.007  1.00  0.00     0.015 C 
ENDBRANCH  14  19
ENDBRANCH   3  14
BRANCH   6  23
ATOM     23  N   UNL     1      40.424 132.508  17.912  1.00  0.00    -0.061 NA
BRANCH  23  24
ATOM     24  N   UNL     1      39.578 133.400  17.992  1.00  0.00     0.005 N 
ATOM     25  N   UNL     1      38.732 134.291  18.073  1.00  0.00    -0.003 NA
ENDBRANCH  23  24
ENDBRANCH   6  23
BRANCH  13  26
ATOM     26  C   UNL     1      45.785 130.934  16.114  1.00  0.00     0.252 C 
ATOM     27  O   UNL     1      47.007 130.619  16.131  1.00  0.00    -0.287 OA
BRANCH  26  28
ATOM     28  N   UNL     1      45.097 131.052  14.864  1.00  0.00    -0.017 NA
BRANCH  28  29
ATOM     29  N   UNL     1      45.659 130.794  13.798  1.00  0.00     0.009 N 
ATOM     30  N   UNL     1      46.221 130.534  12.735  1.00  0.00    -0.003 NA
ENDBRANCH  28  29
ENDBRANCH  26  28
ENDBRANCH  13  26
ENDBRANCH   1   2
BRANCH   1  31
ATOM     31  C   UNL     1      43.811 134.333  16.098  1.00  0.00     0.373 C 
ATOM     32  O   UNL     1      43.574 133.845  14.961  1.00  0.00    -0.244 OA
BRANCH  31  33
ATOM     33  C   UNL     1      43.361 135.736  16.427  1.00  0.00     0.194 C 
ATOM     34  C   UNL     1      41.853 135.898  16.681  1.00  0.00     0.087 C 
ATOM     35  C   UNL     1      43.250 136.645  15.196  1.00  0.00     0.087 C 
ATOM     36  C   UNL     1      41.755 136.826  15.467  1.00  0.00     0.028 C 
BRANCH  33  37
ATOM     37  N   UNL     1      44.182 136.328  17.494  1.00  0.00    -0.343 N 
ATOM     38  H   UNL     1      43.841 137.295  17.702  1.00  0.00     0.345 HD
ATOM     39  H   UNL     1      45.189 136.382  17.209  1.00  0.00     0.345 HD
ATOM     40  H   UNL     1      44.109 135.747  18.361  1.00  0.00     0.345 HD
ENDBRANCH  33  37
BRANCH  36  41
ATOM     41  C   UNL     1      40.855 136.280  14.356  1.00  0.00     0.160 C 
BRANCH  41  42
ATOM     42  O   UNL     1      39.803 137.176  14.121  1.00  0.00    -0.396 OA
ATOM     43  H   UNL     1      38.999 136.770  14.532  1.00  0.00     0.210 HD
ENDBRANCH  41  42
ENDBRANCH  36  41
ENDBRANCH  31  33
ENDBRANCH   1  31
TORSDOF 15
ENDMDL
MODEL 5
REMARK VINA RESULT:      -5.6      2.803      5.191
REMARK SMILES C#C[C@@](O)(c1cc(N=[N+]=[N-])cc(OC(=O)[C@]2([NH3+])C[C@H](CO)C2)c(C(=O)N=[N+]=[N-])cc2cc1CC2)C(C)(C)C
REMARK SMILES IDX 13 1 12 2 5 3 6 4 32 5 7 6 31 7 33 8 11 9 30 10 34 11 29 12
REMARK SMILES IDX 23 13 3 14 2 15 1 16 4 17 35 19 36 20 37 21 38 22 8 23 9 24
REMARK SMILES IDX 10 25 24 26 25 27 26 28 27 29 28 30 14 31 15 32 16 33 22 34
REMARK SMILES IDX 18 35 19 36 17 37 20 41 21 42
REMARK H PARENT 4 18 17 38 17 39 17 40 21 43
ROOT
ATOM      1  O   UNL     1      44.284 133.746  17.730  1.00  0.00    -0.421 OA
ENDROOT
BRANCH   1   2
ATOM      2  C   UNL     1      43.912 132.552  18.372  1.00  0.00     0.142 A 
ATOM      3  C   UNL     1      43.554 134.895  20.782  1.00  0.00    -0.000 A 
ATOM      4  C   UNL     1      42.325 134.631  20.086  1.00  0.00     0.018 A 
ATOM      5  C   UNL     1      44.492 133.874  21.120  1.00  0.00    -0.040 A 
ATOM      6  C   UNL     1      41.840 133.494  19.391  1.00  0.00     0.042 A 
ATOM      7  C   UNL     1      44.202 132.528  21.214  1.00  0.00     0.008 A 
ATOM      8  C   UNL     1      45.983 134.039  21.141  1.00  0.00     0.041 C 
ATOM      9  C   UNL     1      42.618 132.438  18.877  1.00  0.00     0.058 A 
ATOM     10  C   UNL     1      45.300 131.783  20.841  1.00  0.00    -0.047 A 
ATOM     11  C   UNL     1      46.521 132.610  21.072  1.00  0.00     0.040 C 
ATOM     12  C   UNL     1      45.266 130.970  19.692  1.00  0.00     0.019 A 
ATOM     13  C   UNL     1      44.756 131.426  18.445  1.00  0.00     0.067 A 
BRANCH   3  14
ATOM     14  C   UNL     1      43.720 136.343  21.353  1.00  0.00     0.155 C 
BRANCH  14  15
ATOM     15  C   UNL     1      42.419 137.005  21.622  1.00  0.00    -0.066 C 
ATOM     16  C   UNL     1      41.339 137.498  21.835  1.00  0.00     0.007 C 
ENDBRANCH  14  15
BRANCH  14  17
ATOM     17  O   UNL     1      44.386 136.290  22.599  1.00  0.00    -0.373 OA
ATOM     18  H   UNL     1      44.733 135.366  22.728  1.00  0.00     0.213 HD
ENDBRANCH  14  17
BRANCH  14  19
ATOM     19  C   UNL     1      44.582 137.262  20.383  1.00  0.00     0.006 C 
ATOM     20  C   UNL     1      46.079 137.295  20.780  1.00  0.00     0.015 C 
ATOM     21  C   UNL     1      44.492 136.746  18.922  1.00  0.00     0.015 C 
ATOM     22  C   UNL     1      44.063 138.721  20.386  1.00  0.00     0.015 C 
ENDBRANCH  14  19
ENDBRANCH   3  14
BRANCH   6  23
ATOM     23  N   UNL     1      40.409 133.400  19.290  1.00  0.00    -0.061 NA
BRANCH  23  24
ATOM     24  N   UNL     1      39.667 134.380  19.378  1.00  0.00     0.005 N 
ATOM     25  N   UNL     1      38.928 135.360  19.466  1.00  0.00    -0.003 NA
ENDBRANCH  23  24
ENDBRANCH   6  23
BRANCH  13  26
ATOM     26  C   UNL     1      45.238 130.813  17.182  1.00  0.00     0.252 C 
ATOM     27  O   UNL     1      46.442 130.453  17.068  1.00  0.00    -0.287 OA
BRANCH  26  28
ATOM     28  N   UNL     1      44.335 130.643  16.084  1.00  0.00    -0.017 NA
BRANCH  28  29
ATOM     29  N   UNL     1      44.744 130.597  14.922  1.00  0.00     0.009 N 
ATOM     30  N   UNL     1      45.153 130.550  13.762  1.00  0.00    -0.003 NA
ENDBRANCH  28  29
ENDBRANCH  26  28
ENDBRANCH  13  26
ENDBRANCH   1   2
BRANCH   1  31
ATOM     31  C   UNL     1      44.198 134.008  16.356  1.00  0.00     0.373 C 
ATOM     32  O   UNL     1      45.218 133.955  15.618  1.00  0.00    -0.244 OA
BRANCH  31  33
ATOM     33  C   UNL     1      42.837 134.252  15.748  1.00  0.00     0.194 C 
ATOM     34  C   UNL     1      42.838 135.072  14.448  1.00  0.00     0.087 C 
ATOM     35  C   UNL     1      42.048 135.367  16.449  1.00  0.00     0.087 C 
ATOM     36  C   UNL     1      42.028 136.168  15.145  1.00  0.00     0.028 C 
BRANCH  33  37
ATOM     37  N   UNL     1      42.069 133.005  15.631  1.00  0.00    -0.343 N 
ATOM     38  H   UNL     1      42.692 132.189  15.833  1.00  0.00     0.345 HD
ATOM     39  H   UNL     1      41.674 132.893  14.667  1.00  0.00     0.345 HD
ATOM     40  H   UNL     1      41.280 133.007  16.318  1.00  0.00     0.345 HD
ENDBRANCH  33  37
BRANCH  36  41
ATOM     41  C   UNL     1      42.764 137.507  15.231  1.00  0.00     0.160 C 
BRANCH  41  42
ATOM     42  O   UNL     1      42.178 138.423  14.347  1.00  0.00    -0.396 OA
ATOM     43  H   UNL     1      42.410 138.111  13.435  1.00  0.00     0.210 HD
ENDBRANCH  41  42
ENDBRANCH  36  41
ENDBRANCH  31  33
ENDBRANCH   1  31
TORSDOF 15
ENDMDL
MODEL 6
REMARK VINA RESULT:      -5.4      2.854      5.683
REMARK SMILES C#C[C@@](O)(c1cc(N=[N+]=[N-])cc(OC(=O)[C@]2([NH3+])C[C@H](CO)C2)c(C(=O)N=[N+]=[N-])cc2cc1CC2)C(C)(C)C
REMARK SMILES IDX 13 1 12 2 5 3 6 4 32 5 7 6 31 7 33 8 11 9 30 10 34 11 29 12
REMARK SMILES IDX 23 13 3 14 2 15 1 16 4 17 35 19 36 20 37 21 38 22 8 23 9 24
REMARK SMILES IDX 10 25 24 26 25 27 26 28 27 29 28 30 14 31 15 32 16 33 22 34
REMARK SMILES IDX 18 35 19 36 17 37 20 41 21 42
REMARK H PARENT 4 18 17 38 17 39 17 40 21 43
ROOT
ATOM      1  O   UNL     1      43.758 134.317  16.929  1.00  0.00    -0.421 OA
ENDROOT
BRANCH   1   2
ATOM      2  C   UNL     1      43.500 132.943  17.076  1.00  0.00     0.142 A 
ATOM      3  C   UNL     1      42.176 134.303  19.872  1.00  0.00    -0.000 A 
ATOM      4  C   UNL     1      41.202 134.137  18.829  1.00  0.00     0.018 A 
ATOM      5  C   UNL     1      43.202 133.347  20.139  1.00  0.00    -0.040 A 
ATOM      6  C   UNL     1      41.113 133.242  17.732  1.00  0.00     0.042 A 
ATOM      7  C   UNL     1      43.171 132.021  19.760  1.00  0.00     0.008 A 
ATOM      8  C   UNL     1      44.591 133.674  20.603  1.00  0.00     0.041 C 
ATOM      9  C   UNL     1      42.176 132.516  17.162  1.00  0.00     0.058 A 
ATOM     10  C   UNL     1      44.449 131.577  19.494  1.00  0.00    -0.047 A 
ATOM     11  C   UNL     1      45.403 132.423  20.271  1.00  0.00     0.040 C 
ATOM     12  C   UNL     1      44.824 131.189  18.194  1.00  0.00     0.019 A 
ATOM     13  C   UNL     1      44.514 131.966  17.042  1.00  0.00     0.067 A 
BRANCH   3  14
ATOM     14  C   UNL     1      41.925 135.492  20.860  1.00  0.00     0.155 C 
BRANCH  14  15
ATOM     15  C   UNL     1      42.487 135.240  22.212  1.00  0.00    -0.066 C 
ATOM     16  C   UNL     1      42.897 135.042  23.328  1.00  0.00     0.007 C 
ENDBRANCH  14  15
BRANCH  14  17
ATOM     17  O   UNL     1      42.579 136.651  20.385  1.00  0.00    -0.373 OA
ATOM     18  H   UNL     1      42.258 137.430  20.916  1.00  0.00     0.213 HD
ENDBRANCH  14  17
BRANCH  14  19
ATOM     19  C   UNL     1      40.377 135.829  20.993  1.00  0.00     0.006 C 
ATOM     20  C   UNL     1      39.766 136.322  19.657  1.00  0.00     0.015 C 
ATOM     21  C   UNL     1      39.583 134.572  21.439  1.00  0.00     0.015 C 
ATOM     22  C   UNL     1      40.133 136.927  22.056  1.00  0.00     0.015 C 
ENDBRANCH  14  19
ENDBRANCH   3  14
BRANCH   6  23
ATOM     23  N   UNL     1      39.785 133.015  17.231  1.00  0.00    -0.061 NA
BRANCH  23  24
ATOM     24  N   UNL     1      38.772 133.272  17.885  1.00  0.00     0.005 N 
ATOM     25  N   UNL     1      37.760 133.530  18.535  1.00  0.00    -0.003 NA
ENDBRANCH  23  24
ENDBRANCH   6  23
BRANCH  13  26
ATOM     26  C   UNL     1      45.368 131.865  15.832  1.00  0.00     0.252 C 
ATOM     27  O   UNL     1      45.964 132.885  15.387  1.00  0.00    -0.287 OA
BRANCH  26  28
ATOM     28  N   UNL     1      45.505 130.609  15.160  1.00  0.00    -0.017 NA
BRANCH  28  29
ATOM     29  N   UNL     1      45.796 130.553  13.964  1.00  0.00     0.009 N 
ATOM     30  N   UNL     1      46.088 130.496  12.770  1.00  0.00    -0.003 NA
ENDBRANCH  28  29
ENDBRANCH  26  28
ENDBRANCH  13  26
ENDBRANCH   1   2
BRANCH   1  31
ATOM     31  C   UNL     1      43.302 135.138  15.888  1.00  0.00     0.373 C 
ATOM     32  O   UNL     1      43.269 134.723  14.699  1.00  0.00    -0.244 OA
BRANCH  31  33
ATOM     33  C   UNL     1      42.747 136.501  16.230  1.00  0.00     0.194 C 
ATOM     34  C   UNL     1      41.221 136.561  16.403  1.00  0.00     0.087 C 
ATOM     35  C   UNL     1      42.646 137.438  15.019  1.00  0.00     0.087 C 
ATOM     36  C   UNL     1      41.130 137.518  15.212  1.00  0.00     0.028 C 
BRANCH  33  37
ATOM     37  N   UNL     1      43.470 137.109  17.356  1.00  0.00    -0.343 N 
ATOM     38  H   UNL     1      43.150 136.675  18.253  1.00  0.00     0.345 HD
ATOM     39  H   UNL     1      43.297 138.141  17.403  1.00  0.00     0.345 HD
ATOM     40  H   UNL     1      44.498 136.946  17.247  1.00  0.00     0.345 HD
ENDBRANCH  33  37
BRANCH  36  41
ATOM     41  C   UNL     1      40.327 136.952  14.037  1.00  0.00     0.160 C 
BRANCH  41  42
ATOM     42  O   UNL     1      39.156 137.702  13.864  1.00  0.00    -0.396 OA
ATOM     43  H   UNL     1      38.500 137.092  13.439  1.00  0.00     0.210 HD
ENDBRANCH  41  42
ENDBRANCH  36  41
ENDBRANCH  31  33
ENDBRANCH   1  31
TORSDOF 15
ENDMDL
MODEL 7
REMARK VINA RESULT:      -5.3      1.881      2.802
REMARK SMILES C#C[C@@](O)(c1cc(N=[N+]=[N-])cc(OC(=O)[C@]2([NH3+])C[C@H](CO)C2)c(C(=O)N=[N+]=[N-])cc2cc1CC2)C(C)(C)C
REMARK SMILES IDX 13 1 12 2 5 3 6 4 32 5 7 6 31 7 33 8 11 9 30 10 34 11 29 12
REMARK SMILES IDX 23 13 3 14 2 15 1 16 4 17 35 19 36 20 37 21 38 22 8 23 9 24
REMARK SMILES IDX 10 25 24 26 25 27 26 28 27 29 28 30 14 31 15 32 16 33 22 34
REMARK SMILES IDX 18 35 19 36 17 37 20 41 21 42
REMARK H PARENT 4 18 17 38 17 39 17 40 21 43
ROOT
ATOM      1  O   UNL     1      43.769 134.117  17.953  1.00  0.00    -0.421 OA
ENDROOT
BRANCH   1   2
ATOM      2  C   UNL     1      42.956 135.258  18.068  1.00  0.00     0.142 A 
ATOM      3  C   UNL     1      44.553 135.117  21.044  1.00  0.00    -0.000 A 
ATOM      4  C   UNL     1      45.220 135.975  20.103  1.00  0.00     0.018 A 
ATOM      5  C   UNL     1      43.132 135.046  21.160  1.00  0.00    -0.040 A 
ATOM      6  C   UNL     1      44.759 136.716  18.985  1.00  0.00     0.042 A 
ATOM      7  C   UNL     1      42.249 136.015  20.731  1.00  0.00     0.008 A 
ATOM      8  C   UNL     1      42.351 133.808  21.489  1.00  0.00     0.041 C 
ATOM      9  C   UNL     1      43.563 136.495  18.275  1.00  0.00     0.058 A 
ATOM     10  C   UNL     1      41.073 135.430  20.313  1.00  0.00    -0.047 A 
ATOM     11  C   UNL     1      40.931 134.123  21.020  1.00  0.00     0.040 C 
ATOM     12  C   UNL     1      40.671 135.495  18.966  1.00  0.00     0.019 A 
ATOM     13  C   UNL     1      41.559 135.223  17.887  1.00  0.00     0.067 A 
BRANCH   3  14
ATOM     14  C   UNL     1      45.470 134.417  22.102  1.00  0.00     0.155 C 
BRANCH  14  15
ATOM     15  C   UNL     1      45.254 132.949  22.164  1.00  0.00    -0.066 C 
ATOM     16  C   UNL     1      45.120 131.753  22.241  1.00  0.00     0.007 C 
ENDBRANCH  14  15
BRANCH  14  17
ATOM     17  O   UNL     1      46.826 134.588  21.743  1.00  0.00    -0.373 OA
ATOM     18  H   UNL     1      47.383 134.028  22.349  1.00  0.00     0.213 HD
ENDBRANCH  14  17
BRANCH  14  19
ATOM     19  C   UNL     1      45.272 135.036  23.553  1.00  0.00     0.006 C 
ATOM     20  C   UNL     1      44.098 134.375  24.318  1.00  0.00     0.015 C 
ATOM     21  C   UNL     1      46.556 134.850  24.405  1.00  0.00     0.015 C 
ATOM     22  C   UNL     1      44.988 136.556  23.478  1.00  0.00     0.015 C 
ENDBRANCH  14  19
ENDBRANCH   3  14
BRANCH   6  23
ATOM     23  N   UNL     1      45.573 137.843  18.617  1.00  0.00    -0.061 NA
BRANCH  23  24
ATOM     24  N   UNL     1      46.687 138.048  19.103  1.00  0.00     0.005 N 
ATOM     25  N   UNL     1      47.798 138.256  19.588  1.00  0.00    -0.003 NA
ENDBRANCH  23  24
ENDBRANCH   6  23
BRANCH  13  26
ATOM     26  C   UNL     1      41.020 134.742  16.591  1.00  0.00     0.252 C 
ATOM     27  O   UNL     1      40.453 133.616  16.515  1.00  0.00    -0.287 OA
BRANCH  26  28
ATOM     28  N   UNL     1      41.154 135.553  15.419  1.00  0.00    -0.017 NA
BRANCH  28  29
ATOM     29  N   UNL     1      40.907 135.102  14.298  1.00  0.00     0.009 N 
ATOM     30  N   UNL     1      40.659 134.651  13.181  1.00  0.00    -0.003 NA
ENDBRANCH  28  29
ENDBRANCH  26  28
ENDBRANCH  13  26
ENDBRANCH   1   2
BRANCH   1  31
ATOM     31  C   UNL     1      44.132 133.476  16.760  1.00  0.00     0.373 C 
ATOM     32  O   UNL     1      44.734 134.099  15.844  1.00  0.00    -0.244 OA
BRANCH  31  33
ATOM     33  C   UNL     1      43.885 131.992  16.630  1.00  0.00     0.194 C 
ATOM     34  C   UNL     1      45.004 131.092  17.181  1.00  0.00     0.087 C 
ATOM     35  C   UNL     1      44.147 131.452  15.218  1.00  0.00     0.087 C 
ATOM     36  C   UNL     1      45.241 130.538  15.774  1.00  0.00     0.028 C 
BRANCH  33  37
ATOM     37  N   UNL     1      42.557 131.622  17.139  1.00  0.00    -0.343 N 
ATOM     38  H   UNL     1      42.344 130.632  16.874  1.00  0.00     0.345 HD
ATOM     39  H   UNL     1      41.813 132.242  16.739  1.00  0.00     0.345 HD
ATOM     40  H   UNL     1      42.540 131.706  18.181  1.00  0.00     0.345 HD
ENDBRANCH  33  37
BRANCH  36  41
ATOM     41  C   UNL     1      46.638 130.843  15.228  1.00  0.00     0.160 C 
BRANCH  41  42
ATOM     42  O   UNL     1      47.488 129.758  15.481  1.00  0.00    -0.396 OA
ATOM     43  H   UNL     1      47.426 129.580  16.454  1.00  0.00     0.210 HD
ENDBRANCH  41  42
ENDBRANCH  36  41
ENDBRANCH  31  33
ENDBRANCH   1  31
TORSDOF 15
ENDMDL
MODEL 8
REMARK VINA RESULT:      -5.2      2.331      3.254
REMARK SMILES C#C[C@@](O)(c1cc(N=[N+]=[N-])cc(OC(=O)[C@]2([NH3+])C[C@H](CO)C2)c(C(=O)N=[N+]=[N-])cc2cc1CC2)C(C)(C)C
REMARK SMILES IDX 13 1 12 2 5 3 6 4 32 5 7 6 31 7 33 8 11 9 30 10 34 11 29 12
REMARK SMILES IDX 23 13 3 14 2 15 1 16 4 17 35 19 36 20 37 21 38 22 8 23 9 24
REMARK SMILES IDX 10 25 24 26 25 27 26 28 27 29 28 30 14 31 15 32 16 33 22 34
REMARK SMILES IDX 18 35 19 36 17 37 20 41 21 42
REMARK H PARENT 4 18 17 38 17 39 17 40 21 43
ROOT
ATOM      1  O   UNL     1      43.936 134.474  17.929  1.00  0.00    -0.421 OA
ENDROOT
BRANCH   1   2
ATOM      2  C   UNL     1      43.344 135.704  18.264  1.00  0.00     0.142 A 
ATOM      3  C   UNL     1      44.258 134.421  21.255  1.00  0.00    -0.000 A 
ATOM      4  C   UNL     1      45.247 135.311  20.714  1.00  0.00     0.018 A 
ATOM      5  C   UNL     1      42.854 134.660  21.146  1.00  0.00    -0.040 A 
ATOM      6  C   UNL     1      45.167 136.404  19.814  1.00  0.00     0.042 A 
ATOM      7  C   UNL     1      42.273 135.888  20.906  1.00  0.00     0.008 A 
ATOM      8  C   UNL     1      41.806 133.600  20.979  1.00  0.00     0.041 C 
ATOM      9  C   UNL     1      44.117 136.665  18.912  1.00  0.00     0.058 A 
ATOM     10  C   UNL     1      41.116 135.726  20.174  1.00  0.00    -0.047 A 
ATOM     11  C   UNL     1      40.593 134.352  20.433  1.00  0.00     0.040 C 
ATOM     12  C   UNL     1      41.011 136.232  18.865  1.00  0.00     0.019 A 
ATOM     13  C   UNL     1      42.030 136.049  17.888  1.00  0.00     0.067 A 
BRANCH   3  14
ATOM     14  C   UNL     1      44.797 133.274  22.173  1.00  0.00     0.155 C 
BRANCH  14  15
ATOM     15  C   UNL     1      44.291 131.936  21.774  1.00  0.00    -0.066 C 
ATOM     16  C   UNL     1      43.912 130.850  21.412  1.00  0.00     0.007 C 
ENDBRANCH  14  15
BRANCH  14  17
ATOM     17  O   UNL     1      46.204 133.198  22.063  1.00  0.00    -0.373 OA
ATOM     18  H   UNL     1      46.557 132.759  22.884  1.00  0.00     0.213 HD
ENDBRANCH  14  17
BRANCH  14  19
ATOM     19  C   UNL     1      44.444 133.530  23.702  1.00  0.00     0.006 C 
ATOM     20  C   UNL     1      43.032 133.011  24.074  1.00  0.00     0.015 C 
ATOM     21  C   UNL     1      45.468 132.816  24.625  1.00  0.00     0.015 C 
ATOM     22  C   UNL     1      44.495 135.039  24.042  1.00  0.00     0.015 C 
ENDBRANCH  14  19
ENDBRANCH   3  14
BRANCH   6  23
ATOM     23  N   UNL     1      46.234 137.363  19.915  1.00  0.00    -0.061 NA
BRANCH  23  24
ATOM     24  N   UNL     1      46.672 137.762  20.996  1.00  0.00     0.005 N 
ATOM     25  N   UNL     1      47.110 138.159  22.075  1.00  0.00    -0.003 NA
ENDBRANCH  23  24
ENDBRANCH   6  23
BRANCH  13  26
ATOM     26  C   UNL     1      41.682 136.063  16.446  1.00  0.00     0.252 C 
ATOM     27  O   UNL     1      42.559 136.343  15.582  1.00  0.00    -0.287 OA
BRANCH  26  28
ATOM     28  N   UNL     1      40.342 135.771  16.034  1.00  0.00    -0.017 NA
BRANCH  28  29
ATOM     29  N   UNL     1      39.905 134.619  16.052  1.00  0.00     0.009 N 
ATOM     30  N   UNL     1      39.471 133.467  16.068  1.00  0.00    -0.003 NA
ENDBRANCH  28  29
ENDBRANCH  26  28
ENDBRANCH  13  26
ENDBRANCH   1   2
BRANCH   1  31
ATOM     31  C   UNL     1      43.283 133.365  17.374  1.00  0.00     0.373 C 
ATOM     32  O   UNL     1      42.248 132.884  17.909  1.00  0.00    -0.244 OA
BRANCH  31  33
ATOM     33  C   UNL     1      43.780 132.815  16.058  1.00  0.00     0.194 C 
ATOM     34  C   UNL     1      43.773 131.282  15.945  1.00  0.00     0.087 C 
ATOM     35  C   UNL     1      45.309 132.816  15.935  1.00  0.00     0.087 C 
ATOM     36  C   UNL     1      45.296 131.293  15.795  1.00  0.00     0.028 C 
BRANCH  33  37
ATOM     37  N   UNL     1      43.121 133.470  14.919  1.00  0.00    -0.343 N 
ATOM     38  H   UNL     1      43.297 132.918  14.047  1.00  0.00     0.345 HD
ATOM     39  H   UNL     1      43.487 134.442  14.778  1.00  0.00     0.345 HD
ATOM     40  H   UNL     1      42.090 133.520  15.086  1.00  0.00     0.345 HD
ENDBRANCH  33  37
BRANCH  36  41
ATOM     41  C   UNL     1      46.024 130.563  16.927  1.00  0.00     0.160 C 
BRANCH  41  42
ATOM     42  O   UNL     1      47.095 129.828  16.400  1.00  0.00    -0.396 OA
ATOM     43  H   UNL     1      47.094 128.960  16.878  1.00  0.00     0.210 HD
ENDBRANCH  41  42
ENDBRANCH  36  41
ENDBRANCH  31  33
ENDBRANCH   1  31
TORSDOF 15
ENDMDL
MODEL 9
REMARK VINA RESULT:      -5.2      3.092      5.754
REMARK SMILES C#C[C@@](O)(c1cc(N=[N+]=[N-])cc(OC(=O)[C@]2([NH3+])C[C@H](CO)C2)c(C(=O)N=[N+]=[N-])cc2cc1CC2)C(C)(C)C
REMARK SMILES IDX 13 1 12 2 5 3 6 4 32 5 7 6 31 7 33 8 11 9 30 10 34 11 29 12
REMARK SMILES IDX 23 13 3 14 2 15 1 16 4 17 35 19 36 20 37 21 38 22 8 23 9 24
REMARK SMILES IDX 10 25 24 26 25 27 26 28 27 29 28 30 14 31 15 32 16 33 22 34
REMARK SMILES IDX 18 35 19 36 17 37 20 41 21 42
REMARK H PARENT 4 18 17 38 17 39 17 40 21 43
ROOT
ATOM      1  O   UNL     1      40.819 133.876  16.718  1.00  0.00    -0.421 OA
ENDROOT
BRANCH   1   2
ATOM      2  C   UNL     1      41.920 134.226  15.917  1.00  0.00     0.142 A 
ATOM      3  C   UNL     1      43.341 133.034  18.743  1.00  0.00    -0.000 A 
ATOM      4  C   UNL     1      43.217 132.028  17.724  1.00  0.00     0.018 A 
ATOM      5  C   UNL     1      43.693 134.388  18.460  1.00  0.00    -0.040 A 
ATOM      6  C   UNL     1      43.156 132.096  16.309  1.00  0.00     0.042 A 
ATOM      7  C   UNL     1      44.337 134.820  17.319  1.00  0.00     0.008 A 
ATOM      8  C   UNL     1      43.174 135.589  19.194  1.00  0.00     0.041 C 
ATOM      9  C   UNL     1      42.820 133.230  15.544  1.00  0.00     0.058 A 
ATOM     10  C   UNL     1      43.914 136.091  16.992  1.00  0.00    -0.047 A 
ATOM     11  C   UNL     1      43.437 136.755  18.241  1.00  0.00     0.040 C 
ATOM     12  C   UNL     1      43.197 136.332  15.805  1.00  0.00     0.019 A 
ATOM     13  C   UNL     1      42.104 135.520  15.392  1.00  0.00     0.067 A 
BRANCH   3  14
ATOM     14  C   UNL     1      43.287 132.522  20.221  1.00  0.00     0.155 C 
BRANCH  14  15
ATOM     15  C   UNL     1      42.663 133.504  21.144  1.00  0.00    -0.066 C 
ATOM     16  C   UNL     1      42.201 134.317  21.906  1.00  0.00     0.007 C 
ENDBRANCH  14  15
BRANCH  14  17
ATOM     17  O   UNL     1      42.482 131.363  20.295  1.00  0.00    -0.373 OA
ATOM     18  H   UNL     1      42.301 131.049  19.368  1.00  0.00     0.213 HD
ENDBRANCH  14  17
BRANCH  14  19
ATOM     19  C   UNL     1      44.733 132.142  20.764  1.00  0.00     0.006 C 
ATOM     20  C   UNL     1      45.612 133.392  21.020  1.00  0.00     0.015 C 
ATOM     21  C   UNL     1      44.624 131.360  22.101  1.00  0.00     0.015 C 
ATOM     22  C   UNL     1      45.486 131.234  19.762  1.00  0.00     0.015 C 
ENDBRANCH  14  19
ENDBRANCH   3  14
BRANCH   6  23
ATOM     23  N   UNL     1      43.561 130.902  15.619  1.00  0.00    -0.061 NA
BRANCH  23  24
ATOM     24  N   UNL     1      44.410 130.903  14.724  1.00  0.00     0.005 N 
ATOM     25  N   UNL     1      45.255 130.903  13.831  1.00  0.00    -0.003 NA
ENDBRANCH  23  24
ENDBRANCH   6  23
BRANCH  13  26
ATOM     26  C   UNL     1      41.050 136.091  14.517  1.00  0.00     0.252 C 
ATOM     27  O   UNL     1      40.595 135.421  13.548  1.00  0.00    -0.287 OA
BRANCH  26  28
ATOM     28  N   UNL     1      40.555 137.411  14.766  1.00  0.00    -0.017 NA
BRANCH  28  29
ATOM     29  N   UNL     1      39.502 137.804  14.261  1.00  0.00     0.009 N 
ATOM     30  N   UNL     1      38.449 138.196  13.759  1.00  0.00    -0.003 NA
ENDBRANCH  28  29
ENDBRANCH  26  28
ENDBRANCH  13  26
ENDBRANCH   1   2
BRANCH   1  31
ATOM     31  C   UNL     1      39.467 134.032  16.382  1.00  0.00     0.373 C 
ATOM     32  O   UNL     1      38.916 133.280  15.535  1.00  0.00    -0.244 OA
BRANCH  31  33
ATOM     33  C   UNL     1      38.647 135.055  17.133  1.00  0.00     0.194 C 
ATOM     34  C   UNL     1      39.398 135.808  18.242  1.00  0.00     0.087 C 
ATOM     35  C   UNL     1      37.717 134.436  18.184  1.00  0.00     0.087 C 
ATOM     36  C   UNL     1      38.449 135.209  19.283  1.00  0.00     0.028 C 
BRANCH  33  37
ATOM     37  N   UNL     1      37.939 135.957  16.213  1.00  0.00    -0.343 N 
ATOM     38  H   UNL     1      37.012 136.217  16.623  1.00  0.00     0.345 HD
ATOM     39  H   UNL     1      37.778 135.499  15.285  1.00  0.00     0.345 HD
ATOM     40  H   UNL     1      38.502 136.826  16.066  1.00  0.00     0.345 HD
ENDBRANCH  33  37
BRANCH  36  41
ATOM     41  C   UNL     1      39.154 134.314  20.305  1.00  0.00     0.160 C 
BRANCH  41  42
ATOM     42  O   UNL     1      38.410 134.279  21.492  1.00  0.00    -0.396 OA
ATOM     43  H   UNL     1      38.979 133.817  22.159  1.00  0.00     0.210 HD
ENDBRANCH  41  42
ENDBRANCH  36  41
ENDBRANCH  31  33
ENDBRANCH   1  31
TORSDOF 15
ENDMDL


