REMARK SMILES C[N+]1(C)Cc2cc3ccc(-n4cc(CCN5C[C@H](CN=[N+]=[N-])CN5C(=O)c5ccc(N)cc5)n[nH+]4)cc3cc2C1
REMARK SMILES IDX 24 1 16 2 17 3 18 4 23 5 25 6 26 7 27 8 28 9 29 10 30 11
REMARK SMILES IDX 33 12 32 13 31 14 15 17 14 18 13 19 34 20 12 21 35 22 11 23
REMARK SMILES IDX 10 25 9 26 36 27 8 28 37 29 7 30 38 31 6 32 39 33 5 34 40 35
REMARK SMILES IDX 4 36 2 37 1 38 3 39 19 40 20 41 21 42 22 43
REMARK H PARENT 31 15 31 16 35 24
ROOT
ATOM      1  N   UNL     1       3.840   2.379  -2.083  1.00  0.00    -0.271 N 
ATOM      2  N   UNL     1       2.707   2.003  -2.828  1.00  0.00    -0.218 NA
ATOM      3  C   UNL     1       2.829   2.728  -4.111  1.00  0.00     0.114 C 
ATOM      4  C   UNL     1       3.996   3.721  -3.991  1.00  0.00     0.032 C 
ATOM      5  C   UNL     1       4.766   3.255  -2.769  1.00  0.00     0.145 C 
ENDROOT
BRANCH   1   6
ATOM      6  C   UNL     1       4.001   2.059  -0.690  1.00  0.00     0.268 C 
ATOM      7  O   UNL     1       5.164   1.989  -0.204  1.00  0.00    -0.268 OA
BRANCH   6   8
ATOM      8  C   UNL     1       2.836   1.833   0.195  1.00  0.00     0.041 A 
ATOM      9  C   UNL     1       1.632   2.530  -0.004  1.00  0.00     0.016 A 
ATOM     10  C   UNL     1       0.562   2.361   0.881  1.00  0.00     0.026 A 
ATOM     11  C   UNL     1       0.678   1.491   1.973  1.00  0.00     0.031 A 
ATOM     12  C   UNL     1       2.941   0.945   1.282  1.00  0.00     0.016 A 
ATOM     13  C   UNL     1       1.867   0.774   2.161  1.00  0.00     0.026 A 
BRANCH  11  14
ATOM     14  N   UNL     1      -0.397   1.356   2.906  1.00  0.00    -0.399 N 
ATOM     15  H   UNL     1      -1.258   1.941   2.818  1.00  0.00     0.156 HD
ATOM     16  H   UNL     1      -0.326   0.696   3.713  1.00  0.00     0.156 HD
ENDBRANCH  11  14
ENDBRANCH   6   8
ENDBRANCH   1   6
BRANCH   2  17
ATOM     17  C   UNL     1       2.737   0.536  -3.023  1.00  0.00     0.115 C 
BRANCH  17  18
ATOM     18  C   UNL     1       1.425   0.023  -3.630  1.00  0.00     0.082 C 
BRANCH  18  19
ATOM     19  C   UNL     1       0.256   0.319  -2.741  1.00  0.00     0.134 A 
ATOM     20  N   UNL     1      -0.634   1.308  -2.951  1.00  0.00     0.020 NA
ATOM     21  C   UNL     1      -0.090  -0.350  -1.587  1.00  0.00     0.190 A 
ATOM     22  N   UNL     1      -1.504   1.235  -1.956  1.00  0.00    -0.012 N 
ATOM     23  N   UNL     1      -1.207   0.246  -1.122  1.00  0.00    -0.104 N 
ATOM     24  H   UNL     1      -2.330   1.868  -1.873  1.00  0.00     0.527 HD
BRANCH  23  25
ATOM     25  C   UNL     1      -1.965  -0.118   0.051  1.00  0.00     0.107 A 
ATOM     26  C   UNL     1      -2.822   0.815   0.666  1.00  0.00     0.033 A 
ATOM     27  C   UNL     1      -1.857  -1.410   0.600  1.00  0.00     0.041 A 
ATOM     28  C   UNL     1      -3.550   0.473   1.810  1.00  0.00     0.011 A 
ATOM     29  C   UNL     1      -2.581  -1.764   1.747  1.00  0.00    -0.016 A 
ATOM     30  C   UNL     1      -3.434  -0.807   2.364  1.00  0.00    -0.018 A 
ATOM     31  C   UNL     1      -2.472  -3.059   2.291  1.00  0.00     0.019 A 
ATOM     32  C   UNL     1      -4.154  -1.156   3.523  1.00  0.00     0.018 A 
ATOM     33  C   UNL     1      -3.215  -3.370   3.431  1.00  0.00     0.016 A 
ATOM     34  C   UNL     1      -4.023  -2.450   4.028  1.00  0.00     0.016 A 
ATOM     35  C   UNL     1      -3.248  -4.649   4.174  1.00  0.00     0.301 C 
ATOM     36  C   UNL     1      -4.668  -3.030   5.228  1.00  0.00     0.301 C 
ATOM     37  N   UNL     1      -4.327  -4.488   5.201  1.00  0.00    -0.321 N 
ATOM     38  C   UNL     1      -5.520  -5.277   4.811  1.00  0.00     0.334 C 
ATOM     39  C   UNL     1      -3.858  -4.944   6.529  1.00  0.00     0.334 C 
ENDBRANCH  23  25
ENDBRANCH  18  19
ENDBRANCH  17  18
ENDBRANCH   2  17
BRANCH   4  40
ATOM     40  C   UNL     1       4.880   3.776  -5.251  1.00  0.00     0.097 C 
BRANCH  40  41
ATOM     41  N   UNL     1       4.126   4.273  -6.397  1.00  0.00    -0.094 NA
BRANCH  41  42
ATOM     42  N   UNL     1       3.753   5.446  -6.453  1.00  0.00     0.001 N 
ATOM     43  N   UNL     1       3.383   6.617  -6.511  1.00  0.00    -0.003 NA
ENDBRANCH  41  42
ENDBRANCH  40  41
ENDBRANCH   4  40
TORSDOF 10


