REMARK SMILES Cc1nnn(C/C([O-])=N\c2cccc(C#N)c2C)c1-c1cc2ccccc2c2ccccc12
REMARK SMILES IDX 9 1 10 2 12 3 13 4 11 5 14 6 17 7 18 8 15 9 16 10 7 11 8 12
REMARK SMILES IDX 6 13 5 14 4 15 19 16 3 17 2 18 1 19 20 20 21 21 33 22 22 23
REMARK SMILES IDX 32 24 28 25 23 26 27 27 31 28 29 29 24 30 26 31 30 32 25 33
REMARK H PARENT
ROOT
ATOM      1  N   UNL     1       1.889   2.402  -1.030  1.00  0.00    -0.267 NA
ENDROOT
BRANCH   1   2
ATOM      2  C   UNL     1       1.881   1.595   0.161  1.00  0.00     0.066 A 
ATOM      3  C   UNL     1       2.985   0.008   1.635  1.00  0.00     0.004 A 
ATOM      4  C   UNL     1       1.948   0.132   2.557  1.00  0.00     0.020 A 
ATOM      5  C   UNL     1       2.968   0.755   0.458  1.00  0.00     0.028 A 
ATOM      6  C   UNL     1       0.891   1.016   2.317  1.00  0.00     0.057 A 
ATOM      7  C   UNL     1       0.844   1.755   1.109  1.00  0.00    -0.008 A 
ATOM      8  C   UNL     1      -0.250   2.768   0.863  1.00  0.00     0.048 C 
BRANCH   6   9
ATOM      9  C   UNL     1      -0.131   1.152   3.329  1.00  0.00     0.099 C 
ATOM     10  N   UNL     1      -0.950   1.258   4.139  1.00  0.00    -0.192 NA
ENDBRANCH   6   9
ENDBRANCH   1   2
BRANCH   1  11
ATOM     11  C   UNL     1       2.082   2.026  -2.263  1.00  0.00    -0.014 C 
ATOM     12  O   UNL     1       2.094   3.000  -3.253  1.00  0.00    -0.860 OA
BRANCH  11  13
ATOM     13  C   UNL     1       2.240   0.590  -2.693  1.00  0.00     0.186 C 
BRANCH  13  14
ATOM     14  N   UNL     1       1.076   0.164  -3.467  1.00  0.00    -0.240 N 
ATOM     15  N   UNL     1       0.967   0.321  -4.777  1.00  0.00    -0.066 NA
ATOM     16  C   UNL     1      -0.070  -0.385  -3.015  1.00  0.00     0.092 A 
ATOM     17  N   UNL     1      -0.204  -0.131  -5.206  1.00  0.00    -0.135 NA
ATOM     18  C   UNL     1      -0.865  -0.592  -4.126  1.00  0.00     0.088 A 
ATOM     19  C   UNL     1      -2.236  -1.186  -4.171  1.00  0.00     0.071 C 
BRANCH  16  20
ATOM     20  C   UNL     1      -0.371  -0.749  -1.610  1.00  0.00     0.010 A 
ATOM     21  C   UNL     1       0.416  -1.734  -1.012  1.00  0.00     0.019 A 
ATOM     22  C   UNL     1      -1.443  -0.172  -0.889  1.00  0.00    -0.008 A 
ATOM     23  C   UNL     1       0.179  -2.152   0.298  1.00  0.00    -0.017 A 
ATOM     24  C   UNL     1      -2.219   0.862  -1.456  1.00  0.00     0.009 A 
ATOM     25  C   UNL     1      -1.735  -0.619   0.437  1.00  0.00    -0.010 A 
ATOM     26  C   UNL     1       1.027  -3.115   0.871  1.00  0.00     0.009 A 
ATOM     27  C   UNL     1      -0.903  -1.611   1.042  1.00  0.00    -0.010 A 
ATOM     28  C   UNL     1      -3.293   1.412  -0.763  1.00  0.00     0.001 A 
ATOM     29  C   UNL     1      -2.843  -0.044   1.109  1.00  0.00     0.009 A 
ATOM     30  C   UNL     1       0.822  -3.545   2.179  1.00  0.00     0.001 A 
ATOM     31  C   UNL     1      -1.088  -2.074   2.370  1.00  0.00     0.009 A 
ATOM     32  C   UNL     1      -3.610   0.954   0.508  1.00  0.00     0.001 A 
ATOM     33  C   UNL     1      -0.232  -3.026   2.925  1.00  0.00     0.001 A 
ENDBRANCH  16  20
ENDBRANCH  13  14
ENDBRANCH  11  13
ENDBRANCH   1  11
TORSDOF 6


