MODEL 1
REMARK VINA RESULT:      -6.8      0.000      0.000
REMARK SMILES CC[C@H]1C[C@]1(N)C(=O)Oc1ccccc(O)c(NC2(CF)COC2)c(N=[N+]=[N-])c(Cl)c1Cl
REMARK SMILES IDX 15 1 14 2 13 3 12 4 11 5 10 6 31 7 32 8 29 9 30 10 25 11
REMARK SMILES IDX 17 12 16 13 18 15 19 17 22 18 24 19 23 20 20 21 21 22 26 23
REMARK SMILES IDX 27 24 28 25 9 26 7 27 8 28 5 29 4 30 3 31 6 32 2 35 1 36
REMARK H PARENT 16 14 18 16 6 33 6 34
ROOT
ATOM      1  C   UNL     1      41.178 135.344  15.736  1.00  0.00     0.139 A 
ATOM      2  C   UNL     1      42.161 136.017  14.958  1.00  0.00     0.048 A 
ATOM      3  C   UNL     1      43.555 136.032  15.180  1.00  0.00     0.004 A 
ATOM      4  C   UNL     1      44.252 135.076  15.920  1.00  0.00     0.004 A 
ATOM      5  C   UNL     1      43.855 133.740  15.936  1.00  0.00     0.049 A 
ATOM      6  C   UNL     1      43.838 132.933  17.091  1.00  0.00     0.151 A 
ATOM      7  C   UNL     1      43.675 133.438  18.405  1.00  0.00     0.102 A 
ATOM      8  Cl  UNL     1      44.134 132.355  19.715  1.00  0.00    -0.079 Cl
ATOM      9  C   UNL     1      43.165 134.718  18.749  1.00  0.00     0.075 A 
ATOM     10  Cl  UNL     1      43.590 135.384  20.330  1.00  0.00    -0.082 Cl
ATOM     11  C   UNL     1      42.311 135.482  17.915  1.00  0.00     0.085 A 
ATOM     12  C   UNL     1      41.396 134.856  17.051  1.00  0.00     0.088 A 
ENDROOT
BRANCH   1  13
ATOM     13  O   UNL     1      39.904 135.181  15.184  1.00  0.00    -0.506 OA
ATOM     14  H   UNL     1      39.717 134.482  14.470  1.00  0.00     0.293 HD
ENDBRANCH   1  13
BRANCH  12  15
ATOM     15  N   UNL     1      40.488 133.898  17.650  1.00  0.00    -0.369 N 
ATOM     16  H   UNL     1      40.794 132.875  17.605  1.00  0.00     0.161 HD
BRANCH  15  17
ATOM     17  C   UNL     1      39.284 134.168  18.452  1.00  0.00     0.113 C 
ATOM     18  C   UNL     1      38.937 135.639  18.386  1.00  0.00     0.193 C 
ATOM     19  C   UNL     1      39.477 134.464  19.928  1.00  0.00     0.193 C 
ATOM     20  O   UNL     1      39.167 135.823  19.757  1.00  0.00    -0.376 OA
BRANCH  17  21
ATOM     21  C   UNL     1      38.120 133.223  18.092  1.00  0.00     0.247 C 
ATOM     22  F   UNL     1      36.910 133.674  18.604  1.00  0.00    -0.248 F 
ENDBRANCH  17  21
ENDBRANCH  15  17
ENDBRANCH  12  15
BRANCH  11  23
ATOM     23  N   UNL     1      42.366 136.913  17.918  1.00  0.00    -0.057 NA
BRANCH  23  24
ATOM     24  N   UNL     1      43.422 137.520  18.118  1.00  0.00     0.005 N 
ATOM     25  N   UNL     1      44.475 138.133  18.322  1.00  0.00    -0.003 NA
ENDBRANCH  23  24
ENDBRANCH  11  23
BRANCH   6  26
ATOM     26  O   UNL     1      43.906 131.534  16.952  1.00  0.00    -0.424 OA
BRANCH  26  27
ATOM     27  C   UNL     1      45.067 130.796  16.694  1.00  0.00     0.331 C 
ATOM     28  O   UNL     1      45.964 130.664  17.576  1.00  0.00    -0.250 OA
BRANCH  27  29
ATOM     29  C   UNL     1      45.215 130.094  15.381  1.00  0.00     0.118 C 
ATOM     30  C   UNL     1      44.501 130.732  14.199  1.00  0.00     0.040 C 
ATOM     31  C   UNL     1      46.029 130.774  14.282  1.00  0.00     0.022 C 
BRANCH  29  32
ATOM     32  N   UNL     1      45.155 128.636  15.386  1.00  0.00    -0.316 NA
ATOM     33  H   UNL     1      44.666 128.300  14.529  1.00  0.00     0.119 HD
ATOM     34  H   UNL     1      44.595 128.341  16.208  1.00  0.00     0.119 HD
ENDBRANCH  29  32
BRANCH  31  35
ATOM     35  C   UNL     1      46.750 129.892  13.255  1.00  0.00     0.003 C 
ATOM     36  C   UNL     1      47.474 130.757  12.230  1.00  0.00     0.004 C 
ENDBRANCH  31  35
ENDBRANCH  27  29
ENDBRANCH  26  27
ENDBRANCH   6  26
TORSDOF 11
ENDMDL
MODEL 2
REMARK VINA RESULT:      -6.5      2.710      3.489
REMARK SMILES CC[C@H]1C[C@]1(N)C(=O)Oc1ccccc(O)c(NC2(CF)COC2)c(N=[N+]=[N-])c(Cl)c1Cl
REMARK SMILES IDX 15 1 14 2 13 3 12 4 11 5 10 6 31 7 32 8 29 9 30 10 25 11
REMARK SMILES IDX 17 12 16 13 18 15 19 17 22 18 24 19 23 20 20 21 21 22 26 23
REMARK SMILES IDX 27 24 28 25 9 26 7 27 8 28 5 29 4 30 3 31 6 32 2 35 1 36
REMARK H PARENT 16 14 18 16 6 33 6 34
ROOT
ATOM      1  C   UNL     1      38.755 134.610  15.891  1.00  0.00     0.139 A 
ATOM      2  C   UNL     1      38.426 134.576  14.507  1.00  0.00     0.048 A 
ATOM      3  C   UNL     1      39.307 134.766  13.421  1.00  0.00     0.004 A 
ATOM      4  C   UNL     1      40.692 134.599  13.483  1.00  0.00     0.004 A 
ATOM      5  C   UNL     1      41.271 133.638  14.310  1.00  0.00     0.049 A 
ATOM      6  C   UNL     1      42.428 133.852  15.083  1.00  0.00     0.151 A 
ATOM      7  C   UNL     1      42.831 135.123  15.565  1.00  0.00     0.102 A 
ATOM      8  Cl  UNL     1      44.503 135.254  16.104  1.00  0.00    -0.079 Cl
ATOM      9  C   UNL     1      42.008 136.276  15.665  1.00  0.00     0.075 A 
ATOM     10  Cl  UNL     1      42.796 137.858  15.704  1.00  0.00    -0.082 Cl
ATOM     11  C   UNL     1      40.596 136.236  15.769  1.00  0.00     0.085 A 
ATOM     12  C   UNL     1      39.949 135.170  16.417  1.00  0.00     0.088 A 
ENDROOT
BRANCH   1  13
ATOM     13  O   UNL     1      37.828 134.087  16.798  1.00  0.00    -0.506 OA
ATOM     14  H   UNL     1      38.042 133.277  17.374  1.00  0.00     0.293 HD
ENDBRANCH   1  13
BRANCH  12  15
ATOM     15  N   UNL     1      40.378 134.875  17.769  1.00  0.00    -0.369 N 
ATOM     16  H   UNL     1      41.076 134.073  17.872  1.00  0.00     0.161 HD
BRANCH  15  17
ATOM     17  C   UNL     1      40.103 135.641  18.996  1.00  0.00     0.113 C 
ATOM     18  C   UNL     1      39.219 134.835  19.923  1.00  0.00     0.193 C 
ATOM     19  C   UNL     1      38.916 136.587  18.979  1.00  0.00     0.193 C 
ATOM     20  O   UNL     1      38.164 135.753  19.823  1.00  0.00    -0.376 OA
BRANCH  17  21
ATOM     21  C   UNL     1      41.392 136.175  19.651  1.00  0.00     0.247 C 
ATOM     22  F   UNL     1      42.496 136.020  18.822  1.00  0.00    -0.248 F 
ENDBRANCH  17  21
ENDBRANCH  15  17
ENDBRANCH  12  15
BRANCH  11  23
ATOM     23  N   UNL     1      39.786 137.273  15.202  1.00  0.00    -0.057 NA
BRANCH  23  24
ATOM     24  N   UNL     1      38.823 137.747  15.810  1.00  0.00     0.005 N 
ATOM     25  N   UNL     1      37.860 138.228  16.415  1.00  0.00    -0.003 NA
ENDBRANCH  23  24
ENDBRANCH  11  23
BRANCH   6  26
ATOM     26  O   UNL     1      43.204 132.747  15.480  1.00  0.00    -0.424 OA
BRANCH  26  27
ATOM     27  C   UNL     1      43.688 131.744  14.632  1.00  0.00     0.331 C 
ATOM     28  O   UNL     1      42.979 131.294  13.687  1.00  0.00    -0.250 OA
BRANCH  27  29
ATOM     29  C   UNL     1      45.089 131.249  14.804  1.00  0.00     0.118 C 
ATOM     30  C   UNL     1      45.239 129.890  15.471  1.00  0.00     0.040 C 
ATOM     31  C   UNL     1      45.540 130.045  13.978  1.00  0.00     0.022 C 
BRANCH  29  32
ATOM     32  N   UNL     1      46.101 132.218  15.211  1.00  0.00    -0.316 NA
ATOM     33  H   UNL     1      46.688 132.480  14.391  1.00  0.00     0.119 HD
ATOM     34  H   UNL     1      46.718 131.763  15.911  1.00  0.00     0.119 HD
ENDBRANCH  29  32
BRANCH  31  35
ATOM     35  C   UNL     1      47.024 129.927  13.609  1.00  0.00     0.003 C 
ATOM     36  C   UNL     1      47.289 130.592  12.264  1.00  0.00     0.004 C 
ENDBRANCH  31  35
ENDBRANCH  27  29
ENDBRANCH  26  27
ENDBRANCH   6  26
TORSDOF 11
ENDMDL
MODEL 3
REMARK VINA RESULT:      -6.5      3.040      4.367
REMARK SMILES CC[C@H]1C[C@]1(N)C(=O)Oc1ccccc(O)c(NC2(CF)COC2)c(N=[N+]=[N-])c(Cl)c1Cl
REMARK SMILES IDX 15 1 14 2 13 3 12 4 11 5 10 6 31 7 32 8 29 9 30 10 25 11
REMARK SMILES IDX 17 12 16 13 18 15 19 17 22 18 24 19 23 20 20 21 21 22 26 23
REMARK SMILES IDX 27 24 28 25 9 26 7 27 8 28 5 29 4 30 3 31 6 32 2 35 1 36
REMARK H PARENT 16 14 18 16 6 33 6 34
ROOT
ATOM      1  C   UNL     1      43.397 133.999  20.000  1.00  0.00     0.139 A 
ATOM      2  C   UNL     1      43.165 132.729  20.598  1.00  0.00     0.048 A 
ATOM      3  C   UNL     1      42.376 131.679  20.081  1.00  0.00     0.004 A 
ATOM      4  C   UNL     1      42.037 131.528  18.735  1.00  0.00     0.004 A 
ATOM      5  C   UNL     1      42.909 131.916  17.720  1.00  0.00     0.049 A 
ATOM      6  C   UNL     1      42.510 132.585  16.545  1.00  0.00     0.151 A 
ATOM      7  C   UNL     1      41.365 133.417  16.462  1.00  0.00     0.102 A 
ATOM      8  Cl  UNL     1      40.788 133.780  14.838  1.00  0.00    -0.079 Cl
ATOM      9  C   UNL     1      40.667 133.987  17.559  1.00  0.00     0.075 A 
ATOM     10  Cl  UNL     1      38.983 134.466  17.313  1.00  0.00    -0.082 Cl
ATOM     11  C   UNL     1      41.246 134.226  18.830  1.00  0.00     0.085 A 
ATOM     12  C   UNL     1      42.608 134.547  18.954  1.00  0.00     0.088 A 
ENDROOT
BRANCH   1  13
ATOM     13  O   UNL     1      44.449 134.775  20.495  1.00  0.00    -0.506 OA
ATOM     14  H   UNL     1      45.259 135.004  19.925  1.00  0.00     0.293 HD
ENDBRANCH   1  13
BRANCH  12  15
ATOM     15  N   UNL     1      43.086 135.667  18.168  1.00  0.00    -0.369 N 
ATOM     16  H   UNL     1      43.624 135.416  17.280  1.00  0.00     0.161 HD
BRANCH  15  17
ATOM     17  C   UNL     1      42.787 137.096  18.350  1.00  0.00     0.113 C 
ATOM     18  C   UNL     1      41.699 137.524  17.388  1.00  0.00     0.193 C 
ATOM     19  C   UNL     1      43.622 138.092  17.566  1.00  0.00     0.193 C 
ATOM     20  O   UNL     1      42.556 138.400  16.705  1.00  0.00    -0.376 OA
BRANCH  17  21
ATOM     21  C   UNL     1      42.508 137.450  19.824  1.00  0.00     0.247 C 
ATOM     22  F   UNL     1      43.677 137.742  20.516  1.00  0.00    -0.248 F 
ENDBRANCH  17  21
ENDBRANCH  15  17
ENDBRANCH  12  15
BRANCH  11  23
ATOM     23  N   UNL     1      40.462 134.132  20.025  1.00  0.00    -0.057 NA
BRANCH  23  24
ATOM     24  N   UNL     1      40.011 135.136  20.584  1.00  0.00     0.005 N 
ATOM     25  N   UNL     1      39.555 136.135  21.147  1.00  0.00    -0.003 NA
ENDBRANCH  23  24
ENDBRANCH  11  23
BRANCH   6  26
ATOM     26  O   UNL     1      43.319 132.500  15.397  1.00  0.00    -0.424 OA
BRANCH  26  27
ATOM     27  C   UNL     1      44.719 132.516  15.383  1.00  0.00     0.331 C 
ATOM     28  O   UNL     1      45.361 133.561  15.696  1.00  0.00    -0.250 OA
BRANCH  27  29
ATOM     29  C   UNL     1      45.465 131.260  15.062  1.00  0.00     0.118 C 
ATOM     30  C   UNL     1      44.634 130.114  14.506  1.00  0.00     0.040 C 
ATOM     31  C   UNL     1      45.614 130.859  13.596  1.00  0.00     0.022 C 
BRANCH  29  32
ATOM     32  N   UNL     1      46.501 130.835  15.997  1.00  0.00    -0.316 NA
ATOM     33  H   UNL     1      47.356 131.416  15.865  1.00  0.00     0.119 HD
ATOM     34  H   UNL     1      46.748 129.851  15.777  1.00  0.00     0.119 HD
ENDBRANCH  29  32
BRANCH  31  35
ATOM     35  C   UNL     1      46.848 130.046  13.182  1.00  0.00     0.003 C 
ATOM     36  C   UNL     1      47.989 130.978  12.791  1.00  0.00     0.004 C 
ENDBRANCH  31  35
ENDBRANCH  27  29
ENDBRANCH  26  27
ENDBRANCH   6  26
TORSDOF 11
ENDMDL
MODEL 4
REMARK VINA RESULT:      -6.3      3.048      4.501
REMARK SMILES CC[C@H]1C[C@]1(N)C(=O)Oc1ccccc(O)c(NC2(CF)COC2)c(N=[N+]=[N-])c(Cl)c1Cl
REMARK SMILES IDX 15 1 14 2 13 3 12 4 11 5 10 6 31 7 32 8 29 9 30 10 25 11
REMARK SMILES IDX 17 12 16 13 18 15 19 17 22 18 24 19 23 20 20 21 21 22 26 23
REMARK SMILES IDX 27 24 28 25 9 26 7 27 8 28 5 29 4 30 3 31 6 32 2 35 1 36
REMARK H PARENT 16 14 18 16 6 33 6 34
ROOT
ATOM      1  C   UNL     1      43.111 134.405  19.564  1.00  0.00     0.139 A 
ATOM      2  C   UNL     1      42.667 133.168  20.109  1.00  0.00     0.048 A 
ATOM      3  C   UNL     1      41.868 132.197  19.469  1.00  0.00     0.004 A 
ATOM      4  C   UNL     1      41.727 132.070  18.086  1.00  0.00     0.004 A 
ATOM      5  C   UNL     1      42.778 132.364  17.220  1.00  0.00     0.049 A 
ATOM      6  C   UNL     1      42.632 133.059  16.003  1.00  0.00     0.151 A 
ATOM      7  C   UNL     1      41.601 133.999  15.751  1.00  0.00     0.102 A 
ATOM      8  Cl  UNL     1      41.319 134.405  14.060  1.00  0.00    -0.079 Cl
ATOM      9  C   UNL     1      40.801 134.643  16.732  1.00  0.00     0.075 A 
ATOM     10  Cl  UNL     1      39.231 135.283  16.234  1.00  0.00    -0.082 Cl
ATOM     11  C   UNL     1      41.198 134.834  18.079  1.00  0.00     0.085 A 
ATOM     12  C   UNL     1      42.550 135.020  18.414  1.00  0.00     0.088 A 
ENDROOT
BRANCH   1  13
ATOM     13  O   UNL     1      44.145 135.078  20.222  1.00  0.00    -0.506 OA
ATOM     14  H   UNL     1      43.977 135.928  20.754  1.00  0.00     0.293 HD
ENDBRANCH   1  13
BRANCH  12  15
ATOM     15  N   UNL     1      43.251 136.082  17.720  1.00  0.00    -0.369 N 
ATOM     16  H   UNL     1      44.095 135.780  17.139  1.00  0.00     0.161 HD
BRANCH  15  17
ATOM     17  C   UNL     1      42.853 137.492  17.581  1.00  0.00     0.113 C 
ATOM     18  C   UNL     1      43.864 138.385  18.269  1.00  0.00     0.193 C 
ATOM     19  C   UNL     1      41.910 138.060  18.625  1.00  0.00     0.193 C 
ATOM     20  O   UNL     1      42.927 138.832  19.211  1.00  0.00    -0.376 OA
BRANCH  17  21
ATOM     21  C   UNL     1      42.560 137.874  16.116  1.00  0.00     0.247 C 
ATOM     22  F   UNL     1      43.202 137.025  15.222  1.00  0.00    -0.248 F 
ENDBRANCH  17  21
ENDBRANCH  15  17
ENDBRANCH  12  15
BRANCH  11  23
ATOM     23  N   UNL     1      40.234 134.826  19.138  1.00  0.00    -0.057 NA
BRANCH  23  24
ATOM     24  N   UNL     1      39.167 134.214  19.038  1.00  0.00     0.005 N 
ATOM     25  N   UNL     1      38.103 133.595  18.942  1.00  0.00    -0.003 NA
ENDBRANCH  23  24
ENDBRANCH  11  23
BRANCH   6  26
ATOM     26  O   UNL     1      43.596 132.888  14.993  1.00  0.00    -0.424 OA
BRANCH  26  27
ATOM     27  C   UNL     1      43.945 131.670  14.396  1.00  0.00     0.331 C 
ATOM     28  O   UNL     1      43.075 130.958  13.817  1.00  0.00    -0.250 OA
BRANCH  27  29
ATOM     29  C   UNL     1      45.378 131.242  14.383  1.00  0.00     0.118 C 
ATOM     30  C   UNL     1      45.627 129.744  14.479  1.00  0.00     0.040 C 
ATOM     31  C   UNL     1      45.897 130.481  13.164  1.00  0.00     0.022 C 
BRANCH  29  32
ATOM     32  N   UNL     1      46.328 132.045  15.145  1.00  0.00    -0.316 NA
ATOM     33  H   UNL     1      45.852 132.891  15.523  1.00  0.00     0.119 HD
ATOM     34  H   UNL     1      47.073 132.363  14.495  1.00  0.00     0.119 HD
ENDBRANCH  29  32
BRANCH  31  35
ATOM     35  C   UNL     1      47.380 130.614  12.798  1.00  0.00     0.003 C 
ATOM     36  C   UNL     1      48.138 129.351  13.190  1.00  0.00     0.004 C 
ENDBRANCH  31  35
ENDBRANCH  27  29
ENDBRANCH  26  27
ENDBRANCH   6  26
TORSDOF 11
ENDMDL
MODEL 5
REMARK VINA RESULT:      -6.3      1.740      1.907
REMARK SMILES CC[C@H]1C[C@]1(N)C(=O)Oc1ccccc(O)c(NC2(CF)COC2)c(N=[N+]=[N-])c(Cl)c1Cl
REMARK SMILES IDX 15 1 14 2 13 3 12 4 11 5 10 6 31 7 32 8 29 9 30 10 25 11
REMARK SMILES IDX 17 12 16 13 18 15 19 17 22 18 24 19 23 20 20 21 21 22 26 23
REMARK SMILES IDX 27 24 28 25 9 26 7 27 8 28 5 29 4 30 3 31 6 32 2 35 1 36
REMARK H PARENT 16 14 18 16 6 33 6 34
ROOT
ATOM      1  C   UNL     1      41.820 136.103  16.113  1.00  0.00     0.139 A 
ATOM      2  C   UNL     1      43.016 136.827  16.376  1.00  0.00     0.048 A 
ATOM      3  C   UNL     1      44.000 136.520  17.340  1.00  0.00     0.004 A 
ATOM      4  C   UNL     1      44.196 135.257  17.901  1.00  0.00     0.004 A 
ATOM      5  C   UNL     1      43.974 134.094  17.165  1.00  0.00     0.049 A 
ATOM      6  C   UNL     1      43.339 132.943  17.674  1.00  0.00     0.151 A 
ATOM      7  C   UNL     1      42.390 132.967  18.726  1.00  0.00     0.102 A 
ATOM      8  Cl  UNL     1      42.066 131.424  19.512  1.00  0.00    -0.079 Cl
ATOM      9  C   UNL     1      41.676 134.107  19.181  1.00  0.00     0.075 A 
ATOM     10  Cl  UNL     1      41.026 134.079  20.824  1.00  0.00    -0.082 Cl
ATOM     11  C   UNL     1      41.425 135.254  18.387  1.00  0.00     0.085 A 
ATOM     12  C   UNL     1      41.254 135.147  16.997  1.00  0.00     0.088 A 
ENDROOT
BRANCH   1  13
ATOM     13  O   UNL     1      41.139 136.371  14.922  1.00  0.00    -0.506 OA
ATOM     14  H   UNL     1      40.147 136.172  14.817  1.00  0.00     0.293 HD
ENDBRANCH   1  13
BRANCH  12  15
ATOM     15  N   UNL     1      40.247 134.211  16.536  1.00  0.00    -0.369 N 
ATOM     16  H   UNL     1      40.607 133.253  16.230  1.00  0.00     0.161 HD
BRANCH  15  17
ATOM     17  C   UNL     1      38.783 134.354  16.590  1.00  0.00     0.113 C 
ATOM     18  C   UNL     1      38.415 135.668  17.247  1.00  0.00     0.193 C 
ATOM     19  C   UNL     1      38.065 133.761  17.788  1.00  0.00     0.193 C 
ATOM     20  O   UNL     1      37.797 135.029  18.331  1.00  0.00    -0.376 OA
BRANCH  17  21
ATOM     21  C   UNL     1      38.124 134.123  15.216  1.00  0.00     0.247 C 
ATOM     22  F   UNL     1      36.779 134.474  15.221  1.00  0.00    -0.248 F 
ENDBRANCH  17  21
ENDBRANCH  15  17
ENDBRANCH  12  15
BRANCH  11  23
ATOM     23  N   UNL     1      41.354 136.557  18.978  1.00  0.00    -0.057 NA
BRANCH  23  24
ATOM     24  N   UNL     1      42.040 136.861  19.958  1.00  0.00     0.005 N 
ATOM     25  N   UNL     1      42.720 137.164  20.943  1.00  0.00    -0.003 NA
ENDBRANCH  23  24
ENDBRANCH  11  23
BRANCH   6  26
ATOM     26  O   UNL     1      43.587 131.697  17.069  1.00  0.00    -0.424 OA
BRANCH  26  27
ATOM     27  C   UNL     1      44.849 131.176  16.761  1.00  0.00     0.331 C 
ATOM     28  O   UNL     1      45.611 130.739  17.671  1.00  0.00    -0.250 OA
BRANCH  27  29
ATOM     29  C   UNL     1      45.272 131.070  15.330  1.00  0.00     0.118 C 
ATOM     30  C   UNL     1      46.404 131.990  14.899  1.00  0.00     0.040 C 
ATOM     31  C   UNL     1      46.649 130.484  15.022  1.00  0.00     0.022 C 
BRANCH  29  32
ATOM     32  N   UNL     1      44.224 130.918  14.327  1.00  0.00    -0.316 NA
ATOM     33  H   UNL     1      44.652 130.795  13.385  1.00  0.00     0.119 HD
ATOM     34  H   UNL     1      43.665 131.793  14.312  1.00  0.00     0.119 HD
ENDBRANCH  29  32
BRANCH  31  35
ATOM     35  C   UNL     1      46.852 129.757  13.687  1.00  0.00     0.003 C 
ATOM     36  C   UNL     1      48.329 129.455  13.467  1.00  0.00     0.004 C 
ENDBRANCH  31  35
ENDBRANCH  27  29
ENDBRANCH  26  27
ENDBRANCH   6  26
TORSDOF 11
ENDMDL
MODEL 6
REMARK VINA RESULT:      -6.2      2.715      3.870
REMARK SMILES CC[C@H]1C[C@]1(N)C(=O)Oc1ccccc(O)c(NC2(CF)COC2)c(N=[N+]=[N-])c(Cl)c1Cl
REMARK SMILES IDX 15 1 14 2 13 3 12 4 11 5 10 6 31 7 32 8 29 9 30 10 25 11
REMARK SMILES IDX 17 12 16 13 18 15 19 17 22 18 24 19 23 20 20 21 21 22 26 23
REMARK SMILES IDX 27 24 28 25 9 26 7 27 8 28 5 29 4 30 3 31 6 32 2 35 1 36
REMARK H PARENT 16 14 18 16 6 33 6 34
ROOT
ATOM      1  C   UNL     1      43.985 136.903  18.667  1.00  0.00     0.139 A 
ATOM      2  C   UNL     1      44.325 136.953  20.048  1.00  0.00     0.048 A 
ATOM      3  C   UNL     1      44.058 135.969  21.024  1.00  0.00     0.004 A 
ATOM      4  C   UNL     1      43.807 134.624  20.748  1.00  0.00     0.004 A 
ATOM      5  C   UNL     1      44.421 133.976  19.678  1.00  0.00     0.049 A 
ATOM      6  C   UNL     1      43.766 133.075  18.815  1.00  0.00     0.151 A 
ATOM      7  C   UNL     1      42.375 133.111  18.547  1.00  0.00     0.102 A 
ATOM      8  Cl  UNL     1      41.686 131.657  17.829  1.00  0.00    -0.079 Cl
ATOM      9  C   UNL     1      41.507 134.209  18.787  1.00  0.00     0.075 A 
ATOM     10  Cl  UNL     1      39.779 133.879  18.960  1.00  0.00    -0.082 Cl
ATOM     11  C   UNL     1      41.936 135.557  18.866  1.00  0.00     0.085 A 
ATOM     12  C   UNL     1      43.030 136.011  18.111  1.00  0.00     0.088 A 
ENDROOT
BRANCH   1  13
ATOM     13  O   UNL     1      44.607 137.811  17.805  1.00  0.00    -0.506 OA
ATOM     14  H   UNL     1      45.617 137.919  17.780  1.00  0.00     0.293 HD
ENDBRANCH   1  13
BRANCH  12  15
ATOM     15  N   UNL     1      42.977 135.774  16.681  1.00  0.00    -0.369 N 
ATOM     16  H   UNL     1      43.477 134.896  16.336  1.00  0.00     0.161 HD
BRANCH  15  17
ATOM     17  C   UNL     1      42.187 136.497  15.671  1.00  0.00     0.113 C 
ATOM     18  C   UNL     1      43.083 137.428  14.883  1.00  0.00     0.193 C 
ATOM     19  C   UNL     1      41.520 137.791  16.097  1.00  0.00     0.193 C 
ATOM     20  O   UNL     1      42.421 138.571  15.354  1.00  0.00    -0.376 OA
BRANCH  17  21
ATOM     21  C   UNL     1      41.340 135.545  14.803  1.00  0.00     0.247 C 
ATOM     22  F   UNL     1      42.133 134.726  14.008  1.00  0.00    -0.248 F 
ENDBRANCH  17  21
ENDBRANCH  15  17
ENDBRANCH  12  15
BRANCH  11  23
ATOM     23  N   UNL     1      41.276 136.490  19.729  1.00  0.00    -0.057 NA
BRANCH  23  24
ATOM     24  N   UNL     1      40.293 137.135  19.354  1.00  0.00     0.005 N 
ATOM     25  N   UNL     1      39.306 137.774  18.977  1.00  0.00    -0.003 NA
ENDBRANCH  23  24
ENDBRANCH  11  23
BRANCH   6  26
ATOM     26  O   UNL     1      44.525 132.124  18.108  1.00  0.00    -0.424 OA
BRANCH  26  27
ATOM     27  C   UNL     1      44.975 132.257  16.790  1.00  0.00     0.331 C 
ATOM     28  O   UNL     1      44.941 133.376  16.201  1.00  0.00    -0.250 OA
BRANCH  27  29
ATOM     29  C   UNL     1      45.570 131.075  16.093  1.00  0.00     0.118 C 
ATOM     30  C   UNL     1      44.615 130.250  15.244  1.00  0.00     0.040 C 
ATOM     31  C   UNL     1      45.685 131.112  14.570  1.00  0.00     0.022 C 
BRANCH  29  32
ATOM     32  N   UNL     1      46.539 130.274  16.833  1.00  0.00    -0.316 NA
ATOM     33  H   UNL     1      46.560 130.577  17.830  1.00  0.00     0.119 HD
ATOM     34  H   UNL     1      47.478 130.451  16.428  1.00  0.00     0.119 HD
ENDBRANCH  29  32
BRANCH  31  35
ATOM     35  C   UNL     1      46.818 130.321  13.903  1.00  0.00     0.003 C 
ATOM     36  C   UNL     1      47.682 131.246  13.054  1.00  0.00     0.004 C 
ENDBRANCH  31  35
ENDBRANCH  27  29
ENDBRANCH  26  27
ENDBRANCH   6  26
TORSDOF 11
ENDMDL
MODEL 7
REMARK VINA RESULT:      -6.2      3.119      4.382
REMARK SMILES CC[C@H]1C[C@]1(N)C(=O)Oc1ccccc(O)c(NC2(CF)COC2)c(N=[N+]=[N-])c(Cl)c1Cl
REMARK SMILES IDX 15 1 14 2 13 3 12 4 11 5 10 6 31 7 32 8 29 9 30 10 25 11
REMARK SMILES IDX 17 12 16 13 18 15 19 17 22 18 24 19 23 20 20 21 21 22 26 23
REMARK SMILES IDX 27 24 28 25 9 26 7 27 8 28 5 29 4 30 3 31 6 32 2 35 1 36
REMARK H PARENT 16 14 18 16 6 33 6 34
ROOT
ATOM      1  C   UNL     1      42.956 135.307  19.180  1.00  0.00     0.139 A 
ATOM      2  C   UNL     1      42.936 134.124  19.969  1.00  0.00     0.048 A 
ATOM      3  C   UNL     1      42.288 132.909  19.660  1.00  0.00     0.004 A 
ATOM      4  C   UNL     1      41.920 132.508  18.374  1.00  0.00     0.004 A 
ATOM      5  C   UNL     1      42.685 132.853  17.261  1.00  0.00     0.049 A 
ATOM      6  C   UNL     1      42.145 133.272  16.029  1.00  0.00     0.151 A 
ATOM      7  C   UNL     1      40.890 133.916  15.896  1.00  0.00     0.102 A 
ATOM      8  Cl  UNL     1      40.200 133.944  14.275  1.00  0.00    -0.079 Cl
ATOM      9  C   UNL     1      40.160 134.546  16.939  1.00  0.00     0.075 A 
ATOM     10  Cl  UNL     1      38.416 134.745  16.730  1.00  0.00    -0.082 Cl
ATOM     11  C   UNL     1      40.749 135.054  18.124  1.00  0.00     0.085 A 
ATOM     12  C   UNL     1      42.054 135.574  18.116  1.00  0.00     0.088 A 
ENDROOT
BRANCH   1  13
ATOM     13  O   UNL     1      43.903 136.287  19.491  1.00  0.00    -0.506 OA
ATOM     14  H   UNL     1      43.715 137.276  19.351  1.00  0.00     0.293 HD
ENDBRANCH   1  13
BRANCH  12  15
ATOM     15  N   UNL     1      42.332 136.616  17.147  1.00  0.00    -0.369 N 
ATOM     16  H   UNL     1      42.984 136.344  16.346  1.00  0.00     0.161 HD
BRANCH  15  17
ATOM     17  C   UNL     1      41.706 137.944  17.037  1.00  0.00     0.113 C 
ATOM     18  C   UNL     1      40.596 137.909  16.009  1.00  0.00     0.193 C 
ATOM     19  C   UNL     1      42.328 138.933  16.068  1.00  0.00     0.193 C 
ATOM     20  O   UNL     1      41.260 138.809  15.164  1.00  0.00    -0.376 OA
BRANCH  17  21
ATOM     21  C   UNL     1      41.285 138.505  18.410  1.00  0.00     0.247 C 
ATOM     22  F   UNL     1      42.382 138.912  19.160  1.00  0.00    -0.248 F 
ENDBRANCH  17  21
ENDBRANCH  15  17
ENDBRANCH  12  15
BRANCH  11  23
ATOM     23  N   UNL     1      40.036 135.037  19.366  1.00  0.00    -0.057 NA
BRANCH  23  24
ATOM     24  N   UNL     1      39.283 135.959  19.693  1.00  0.00     0.005 N 
ATOM     25  N   UNL     1      38.526 136.876  20.023  1.00  0.00    -0.003 NA
ENDBRANCH  23  24
ENDBRANCH  11  23
BRANCH   6  26
ATOM     26  O   UNL     1      42.912 133.126  14.858  1.00  0.00    -0.424 OA
BRANCH  26  27
ATOM     27  C   UNL     1      43.338 131.911  14.309  1.00  0.00     0.331 C 
ATOM     28  O   UNL     1      42.604 131.269  13.503  1.00  0.00    -0.250 OA
BRANCH  27  29
ATOM     29  C   UNL     1      44.708 131.402  14.624  1.00  0.00     0.118 C 
ATOM     30  C   UNL     1      44.794 129.952  15.075  1.00  0.00     0.040 C 
ATOM     31  C   UNL     1      45.325 130.355  13.698  1.00  0.00     0.022 C 
BRANCH  29  32
ATOM     32  N   UNL     1      45.609 132.295  15.344  1.00  0.00    -0.316 NA
ATOM     33  H   UNL     1      45.491 133.271  14.998  1.00  0.00     0.119 HD
ATOM     34  H   UNL     1      46.584 132.001  15.140  1.00  0.00     0.119 HD
ENDBRANCH  29  32
BRANCH  31  35
ATOM     35  C   UNL     1      46.852 130.309  13.562  1.00  0.00     0.003 C 
ATOM     36  C   UNL     1      47.269 130.660  12.139  1.00  0.00     0.004 C 
ENDBRANCH  31  35
ENDBRANCH  27  29
ENDBRANCH  26  27
ENDBRANCH   6  26
TORSDOF 11
ENDMDL
MODEL 8
REMARK VINA RESULT:      -6.1      3.854      5.734
REMARK SMILES CC[C@H]1C[C@]1(N)C(=O)Oc1ccccc(O)c(NC2(CF)COC2)c(N=[N+]=[N-])c(Cl)c1Cl
REMARK SMILES IDX 15 1 14 2 13 3 12 4 11 5 10 6 31 7 32 8 29 9 30 10 25 11
REMARK SMILES IDX 17 12 16 13 18 15 19 17 22 18 24 19 23 20 20 21 21 22 26 23
REMARK SMILES IDX 27 24 28 25 9 26 7 27 8 28 5 29 4 30 3 31 6 32 2 35 1 36
REMARK H PARENT 16 14 18 16 6 33 6 34
ROOT
ATOM      1  C   UNL     1      44.652 132.036  21.607  1.00  0.00     0.139 A 
ATOM      2  C   UNL     1      43.518 131.184  21.489  1.00  0.00     0.048 A 
ATOM      3  C   UNL     1      42.441 131.325  20.587  1.00  0.00     0.004 A 
ATOM      4  C   UNL     1      42.492 132.050  19.395  1.00  0.00     0.004 A 
ATOM      5  C   UNL     1      43.662 132.125  18.642  1.00  0.00     0.049 A 
ATOM      6  C   UNL     1      44.130 133.301  18.022  1.00  0.00     0.151 A 
ATOM      7  C   UNL     1      43.843 134.608  18.489  1.00  0.00     0.102 A 
ATOM      8  Cl  UNL     1      44.122 135.919  17.347  1.00  0.00    -0.079 Cl
ATOM      9  C   UNL     1      43.372 134.945  19.786  1.00  0.00     0.075 A 
ATOM     10  Cl  UNL     1      42.520 136.481  19.987  1.00  0.00    -0.082 Cl
ATOM     11  C   UNL     1      43.572 134.142  20.936  1.00  0.00     0.085 A 
ATOM     12  C   UNL     1      44.724 133.350  21.072  1.00  0.00     0.088 A 
ENDROOT
BRANCH   1  13
ATOM     13  O   UNL     1      45.755 131.564  22.323  1.00  0.00    -0.506 OA
ATOM     14  H   UNL     1      46.420 132.197  22.760  1.00  0.00     0.293 HD
ENDBRANCH   1  13
BRANCH  12  15
ATOM     15  N   UNL     1      45.998 134.026  20.929  1.00  0.00    -0.369 N 
ATOM     16  H   UNL     1      46.507 133.869  20.002  1.00  0.00     0.161 HD
BRANCH  15  17
ATOM     17  C   UNL     1      46.601 135.027  21.825  1.00  0.00     0.113 C 
ATOM     18  C   UNL     1      46.609 136.384  21.154  1.00  0.00     0.193 C 
ATOM     19  C   UNL     1      48.108 135.193  21.775  1.00  0.00     0.193 C 
ATOM     20  O   UNL     1      48.010 136.436  21.128  1.00  0.00    -0.376 OA
BRANCH  17  21
ATOM     21  C   UNL     1      45.961 135.013  23.227  1.00  0.00     0.247 C 
ATOM     22  F   UNL     1      46.475 133.994  24.020  1.00  0.00    -0.248 F 
ENDBRANCH  17  21
ENDBRANCH  15  17
ENDBRANCH  12  15
BRANCH  11  23
ATOM     23  N   UNL     1      42.597 134.102  21.984  1.00  0.00    -0.057 NA
BRANCH  23  24
ATOM     24  N   UNL     1      41.391 134.222  21.752  1.00  0.00     0.005 N 
ATOM     25  N   UNL     1      40.184 134.350  21.521  1.00  0.00    -0.003 NA
ENDBRANCH  23  24
ENDBRANCH  11  23
BRANCH   6  26
ATOM     26  O   UNL     1      44.999 133.197  16.920  1.00  0.00    -0.424 OA
BRANCH  26  27
ATOM     27  C   UNL     1      44.746 132.478  15.746  1.00  0.00     0.331 C 
ATOM     28  O   UNL     1      43.861 132.861  14.927  1.00  0.00    -0.250 OA
BRANCH  27  29
ATOM     29  C   UNL     1      45.581 131.280  15.423  1.00  0.00     0.118 C 
ATOM     30  C   UNL     1      45.004 130.323  14.391  1.00  0.00     0.040 C 
ATOM     31  C   UNL     1      46.214 131.189  14.035  1.00  0.00     0.022 C 
BRANCH  29  32
ATOM     32  N   UNL     1      46.258 130.612  16.529  1.00  0.00    -0.316 NA
ATOM     33  H   UNL     1      45.629 129.895  16.947  1.00  0.00     0.119 HD
ATOM     34  H   UNL     1      46.459 131.323  17.258  1.00  0.00     0.119 HD
ENDBRANCH  29  32
BRANCH  31  35
ATOM     35  C   UNL     1      47.531 130.418  13.882  1.00  0.00     0.003 C 
ATOM     36  C   UNL     1      47.759 130.043  12.422  1.00  0.00     0.004 C 
ENDBRANCH  31  35
ENDBRANCH  27  29
ENDBRANCH  26  27
ENDBRANCH   6  26
TORSDOF 11
ENDMDL
MODEL 9
REMARK VINA RESULT:      -6.1      3.424      4.922
REMARK SMILES CC[C@H]1C[C@]1(N)C(=O)Oc1ccccc(O)c(NC2(CF)COC2)c(N=[N+]=[N-])c(Cl)c1Cl
REMARK SMILES IDX 15 1 14 2 13 3 12 4 11 5 10 6 31 7 32 8 29 9 30 10 25 11
REMARK SMILES IDX 17 12 16 13 18 15 19 17 22 18 24 19 23 20 20 21 21 22 26 23
REMARK SMILES IDX 27 24 28 25 9 26 7 27 8 28 5 29 4 30 3 31 6 32 2 35 1 36
REMARK H PARENT 16 14 18 16 6 33 6 34
ROOT
ATOM      1  C   UNL     1      45.038 134.147  20.719  1.00  0.00     0.139 A 
ATOM      2  C   UNL     1      44.802 132.848  21.249  1.00  0.00     0.048 A 
ATOM      3  C   UNL     1      43.881 131.891  20.771  1.00  0.00     0.004 A 
ATOM      4  C   UNL     1      43.354 131.871  19.479  1.00  0.00     0.004 A 
ATOM      5  C   UNL     1      44.106 132.289  18.383  1.00  0.00     0.049 A 
ATOM      6  C   UNL     1      43.599 133.073  17.327  1.00  0.00     0.151 A 
ATOM      7  C   UNL     1      42.514 133.975  17.465  1.00  0.00     0.102 A 
ATOM      8  Cl  UNL     1      41.750 134.503  15.968  1.00  0.00    -0.079 Cl
ATOM      9  C   UNL     1      42.010 134.493  18.687  1.00  0.00     0.075 A 
ATOM     10  Cl  UNL     1      40.346 135.088  18.714  1.00  0.00    -0.082 Cl
ATOM     11  C   UNL     1      42.770 134.594  19.879  1.00  0.00     0.085 A 
ATOM     12  C   UNL     1      44.155 134.823  19.836  1.00  0.00     0.088 A 
ENDROOT
BRANCH   1  13
ATOM     13  O   UNL     1      46.198 134.817  21.118  1.00  0.00    -0.506 OA
ATOM     14  H   UNL     1      47.091 134.662  20.656  1.00  0.00     0.293 HD
ENDBRANCH   1  13
BRANCH  12  15
ATOM     15  N   UNL     1      44.600 135.974  19.075  1.00  0.00    -0.369 N 
ATOM     16  H   UNL     1      44.864 135.785  18.057  1.00  0.00     0.161 HD
BRANCH  15  17
ATOM     17  C   UNL     1      44.579 137.390  19.475  1.00  0.00     0.113 C 
ATOM     18  C   UNL     1      44.112 137.515  20.910  1.00  0.00     0.193 C 
ATOM     19  C   UNL     1      43.317 138.181  19.185  1.00  0.00     0.193 C 
ATOM     20  O   UNL     1      42.956 138.218  20.542  1.00  0.00    -0.376 OA
BRANCH  17  21
ATOM     21  C   UNL     1      45.914 138.100  19.176  1.00  0.00     0.247 C 
ATOM     22  F   UNL     1      45.911 139.416  19.622  1.00  0.00    -0.248 F 
ENDBRANCH  17  21
ENDBRANCH  15  17
ENDBRANCH  12  15
BRANCH  11  23
ATOM     23  N   UNL     1      42.149 134.448  21.162  1.00  0.00    -0.057 NA
BRANCH  23  24
ATOM     24  N   UNL     1      41.444 135.338  21.645  1.00  0.00     0.005 N 
ATOM     25  N   UNL     1      40.744 136.235  22.125  1.00  0.00    -0.003 NA
ENDBRANCH  23  24
ENDBRANCH  11  23
BRANCH   6  26
ATOM     26  O   UNL     1      44.239 133.036  16.075  1.00  0.00    -0.424 OA
BRANCH  26  27
ATOM     27  C   UNL     1      44.171 131.984  15.155  1.00  0.00     0.331 C 
ATOM     28  O   UNL     1      43.172 131.853  14.390  1.00  0.00    -0.250 OA
BRANCH  27  29
ATOM     29  C   UNL     1      45.327 131.043  15.026  1.00  0.00     0.118 C 
ATOM     30  C   UNL     1      44.982 129.562  14.997  1.00  0.00     0.040 C 
ATOM     31  C   UNL     1      45.480 130.255  13.726  1.00  0.00     0.022 C 
BRANCH  29  32
ATOM     32  N   UNL     1      46.534 131.351  15.786  1.00  0.00    -0.316 NA
ATOM     33  H   UNL     1      46.541 132.361  16.043  1.00  0.00     0.119 HD
ATOM     34  H   UNL     1      47.353 131.172  15.174  1.00  0.00     0.119 HD
ENDBRANCH  29  32
BRANCH  31  35
ATOM     35  C   UNL     1      46.889 129.843  13.283  1.00  0.00     0.003 C 
ATOM     36  C   UNL     1      47.329 130.669  12.079  1.00  0.00     0.004 C 
ENDBRANCH  31  35
ENDBRANCH  27  29
ENDBRANCH  26  27
ENDBRANCH   6  26
TORSDOF 11
ENDMDL


