MODEL 1
REMARK VINA RESULT:      -7.1      0.000      0.000
REMARK SMILES CC[C@H]1C[C@]1([N-]C(=O)c1[nH+]oc(C)c1C)C(=O)Oc1c(Cl)c(Cl)c(N)c2ccccc12
REMARK SMILES IDX 3 1 4 2 5 3 2 4 1 5 6 6 7 7 8 8 9 9 10 10 14 11 11 12 12 13
REMARK SMILES IDX 15 15 13 16 16 17 17 18 18 19 19 20 20 21 31 22 22 23 30 24
REMARK SMILES IDX 26 25 24 26 29 27 27 28 28 29 21 30 23 31 25 32
REMARK H PARENT 10 14 25 33 25 34
ROOT
ATOM      1  C   UNL     1      45.334 131.458  14.377  1.00  0.00    -0.012 C 
ATOM      2  C   UNL     1      44.508 130.422  15.144  1.00  0.00     0.002 C 
ATOM      3  C   UNL     1      44.553 131.867  15.623  1.00  0.00     0.001 C 
ENDROOT
BRANCH   1   4
ATOM      4  C   UNL     1      46.855 131.283  14.506  1.00  0.00    -0.000 C 
ATOM      5  C   UNL     1      47.467 130.953  13.149  1.00  0.00     0.004 C 
ENDBRANCH   1   4
BRANCH   3   6
ATOM      6  N   UNL     1      45.332 132.098  16.835  1.00  0.00    -0.629 NA
BRANCH   6   7
ATOM      7  C   UNL     1      45.071 131.423  18.068  1.00  0.00     0.153 C 
ATOM      8  O   UNL     1      45.698 130.368  18.358  1.00  0.00    -0.308 OA
BRANCH   7   9
ATOM      9  C   UNL     1      44.067 131.969  18.997  1.00  0.00     0.279 A 
ATOM     10  N   UNL     1      42.738 131.918  18.786  1.00  0.00    -0.026 N 
ATOM     11  C   UNL     1      44.291 132.604  20.210  1.00  0.00     0.072 A 
ATOM     12  O   UNL     1      42.140 132.485  19.792  1.00  0.00    -0.243 OA
ATOM     13  C   UNL     1      43.020 132.911  20.670  1.00  0.00     0.187 A 
ATOM     14  H   UNL     1      42.247 131.503  17.963  1.00  0.00     0.517 HD
ATOM     15  C   UNL     1      45.603 132.886  20.877  1.00  0.00     0.056 C 
ATOM     16  C   UNL     1      42.666 133.607  21.942  1.00  0.00     0.096 C 
ENDBRANCH   7   9
ENDBRANCH   6   7
ENDBRANCH   3   6
BRANCH   3  17
ATOM     17  C   UNL     1      43.329 132.699  15.418  1.00  0.00     0.300 C 
ATOM     18  O   UNL     1      42.188 132.180  15.567  1.00  0.00    -0.253 OA
BRANCH  17  19
ATOM     19  O   UNL     1      43.463 134.027  15.002  1.00  0.00    -0.425 OA
BRANCH  19  20
ATOM     20  C   UNL     1      42.635 135.059  15.462  1.00  0.00     0.158 A 
ATOM     21  C   UNL     1      41.497 135.433  14.728  1.00  0.00     0.105 A 
ATOM     22  C   UNL     1      42.937 135.707  16.672  1.00  0.00     0.028 A 
ATOM     23  C   UNL     1      40.665 136.467  15.190  1.00  0.00     0.087 A 
ATOM     24  C   UNL     1      44.076 135.333  17.412  1.00  0.00     0.013 A 
ATOM     25  C   UNL     1      42.107 136.760  17.144  1.00  0.00     0.010 A 
ATOM     26  C   UNL     1      40.955 137.130  16.401  1.00  0.00     0.060 A 
ATOM     27  C   UNL     1      44.404 135.994  18.594  1.00  0.00     0.001 A 
ATOM     28  C   UNL     1      42.476 137.430  18.333  1.00  0.00     0.011 A 
ATOM     29  C   UNL     1      43.609 137.043  19.049  1.00  0.00     0.001 A 
ATOM     30  Cl  UNL     1      41.080 134.549  13.258  1.00  0.00    -0.078 Cl
ATOM     31  Cl  UNL     1      39.221 136.888  14.263  1.00  0.00    -0.080 Cl
BRANCH  26  32
ATOM     32  N   UNL     1      40.061 138.153  16.876  1.00  0.00    -0.397 N 
ATOM     33  H   UNL     1      40.325 139.162  16.872  1.00  0.00     0.156 HD
ATOM     34  H   UNL     1      39.160 137.915  17.343  1.00  0.00     0.156 HD
ENDBRANCH  26  32
ENDBRANCH  19  20
ENDBRANCH  17  19
ENDBRANCH   3  17
TORSDOF 8
ENDMDL
MODEL 2
REMARK VINA RESULT:      -7.0      2.008      3.013
REMARK SMILES CC[C@H]1C[C@]1([N-]C(=O)c1[nH+]oc(C)c1C)C(=O)Oc1c(Cl)c(Cl)c(N)c2ccccc12
REMARK SMILES IDX 3 1 4 2 5 3 2 4 1 5 6 6 7 7 8 8 9 9 10 10 14 11 11 12 12 13
REMARK SMILES IDX 15 15 13 16 16 17 17 18 18 19 19 20 20 21 31 22 22 23 30 24
REMARK SMILES IDX 26 25 24 26 29 27 27 28 28 29 21 30 23 31 25 32
REMARK H PARENT 10 14 25 33 25 34
ROOT
ATOM      1  C   UNL     1      45.279 131.312  14.006  1.00  0.00    -0.012 C 
ATOM      2  C   UNL     1      44.462 130.304  14.819  1.00  0.00     0.002 C 
ATOM      3  C   UNL     1      44.313 131.796  15.084  1.00  0.00     0.001 C 
ENDROOT
BRANCH   1   4
ATOM      4  C   UNL     1      46.781 131.322  14.329  1.00  0.00    -0.000 C 
ATOM      5  C   UNL     1      47.591 130.952  13.092  1.00  0.00     0.004 C 
ENDBRANCH   1   4
BRANCH   3   6
ATOM      6  N   UNL     1      44.908 132.270  16.329  1.00  0.00    -0.629 NA
BRANCH   6   7
ATOM      7  C   UNL     1      44.763 131.580  17.573  1.00  0.00     0.153 C 
ATOM      8  O   UNL     1      45.542 130.632  17.865  1.00  0.00    -0.308 OA
BRANCH   7   9
ATOM      9  C   UNL     1      43.702 131.984  18.509  1.00  0.00     0.279 A 
ATOM     10  N   UNL     1      42.385 131.926  18.228  1.00  0.00    -0.026 N 
ATOM     11  C   UNL     1      43.850 132.473  19.799  1.00  0.00     0.072 A 
ATOM     12  O   UNL     1      41.725 132.352  19.264  1.00  0.00    -0.243 OA
ATOM     13  C   UNL     1      42.550 132.690  20.229  1.00  0.00     0.187 A 
ATOM     14  H   UNL     1      41.946 131.602  17.338  1.00  0.00     0.517 HD
ATOM     15  C   UNL     1      45.120 132.704  20.559  1.00  0.00     0.056 C 
ATOM     16  C   UNL     1      42.117 133.218  21.557  1.00  0.00     0.096 C 
ENDBRANCH   7   9
ENDBRANCH   6   7
ENDBRANCH   3   6
BRANCH   3  17
ATOM     17  C   UNL     1      43.053 132.455  14.624  1.00  0.00     0.300 C 
ATOM     18  O   UNL     1      42.157 131.768  14.061  1.00  0.00    -0.253 OA
BRANCH  17  19
ATOM     19  O   UNL     1      42.910 133.838  14.767  1.00  0.00    -0.425 OA
BRANCH  19  20
ATOM     20  C   UNL     1      42.035 134.425  15.691  1.00  0.00     0.158 A 
ATOM     21  C   UNL     1      42.537 135.030  16.855  1.00  0.00     0.105 A 
ATOM     22  C   UNL     1      40.652 134.423  15.437  1.00  0.00     0.028 A 
ATOM     23  C   UNL     1      41.660 135.620  17.780  1.00  0.00     0.087 A 
ATOM     24  C   UNL     1      40.146 133.820  14.270  1.00  0.00     0.013 A 
ATOM     25  C   UNL     1      39.755 135.011  16.371  1.00  0.00     0.010 A 
ATOM     26  C   UNL     1      40.269 135.626  17.544  1.00  0.00     0.060 A 
ATOM     27  C   UNL     1      38.774 133.782  14.028  1.00  0.00     0.001 A 
ATOM     28  C   UNL     1      38.368 134.935  16.114  1.00  0.00     0.011 A 
ATOM     29  C   UNL     1      37.888 134.332  14.951  1.00  0.00     0.001 A 
ATOM     30  Cl  UNL     1      44.282 135.105  17.114  1.00  0.00    -0.078 Cl
ATOM     31  Cl  UNL     1      42.326 136.406  19.217  1.00  0.00    -0.080 Cl
BRANCH  26  32
ATOM     32  N   UNL     1      39.396 136.278  18.483  1.00  0.00    -0.397 N 
ATOM     33  H   UNL     1      38.420 135.951  18.650  1.00  0.00     0.156 HD
ATOM     34  H   UNL     1      39.669 137.168  18.952  1.00  0.00     0.156 HD
ENDBRANCH  26  32
ENDBRANCH  19  20
ENDBRANCH  17  19
ENDBRANCH   3  17
TORSDOF 8
ENDMDL
MODEL 3
REMARK VINA RESULT:      -6.9      1.201      1.394
REMARK SMILES CC[C@H]1C[C@]1([N-]C(=O)c1[nH+]oc(C)c1C)C(=O)Oc1c(Cl)c(Cl)c(N)c2ccccc12
REMARK SMILES IDX 3 1 4 2 5 3 2 4 1 5 6 6 7 7 8 8 9 9 10 10 14 11 11 12 12 13
REMARK SMILES IDX 15 15 13 16 16 17 17 18 18 19 19 20 20 21 31 22 22 23 30 24
REMARK SMILES IDX 26 25 24 26 29 27 27 28 28 29 21 30 23 31 25 32
REMARK H PARENT 10 14 25 33 25 34
ROOT
ATOM      1  C   UNL     1      45.351 131.369  14.016  1.00  0.00    -0.012 C 
ATOM      2  C   UNL     1      44.536 130.285  14.726  1.00  0.00     0.002 C 
ATOM      3  C   UNL     1      44.667 131.669  15.346  1.00  0.00     0.001 C 
ENDROOT
BRANCH   1   4
ATOM      4  C   UNL     1      46.869 131.132  14.023  1.00  0.00    -0.000 C 
ATOM      5  C   UNL     1      47.350 130.732  12.633  1.00  0.00     0.004 C 
ENDBRANCH   1   4
BRANCH   3   6
ATOM      6  N   UNL     1      45.529 131.746  16.521  1.00  0.00    -0.629 NA
BRANCH   6   7
ATOM      7  C   UNL     1      45.587 130.717  17.512  1.00  0.00     0.153 C 
ATOM      8  O   UNL     1      45.822 129.525  17.175  1.00  0.00    -0.308 OA
BRANCH   7   9
ATOM      9  C   UNL     1      45.373 131.060  18.928  1.00  0.00     0.279 A 
ATOM     10  N   UNL     1      46.307 130.914  19.888  1.00  0.00    -0.026 N 
ATOM     11  C   UNL     1      44.227 131.580  19.511  1.00  0.00     0.072 A 
ATOM     12  O   UNL     1      45.799 131.308  21.019  1.00  0.00    -0.243 OA
ATOM     13  C   UNL     1      44.561 131.715  20.850  1.00  0.00     0.187 A 
ATOM     14  H   UNL     1      47.277 130.547  19.771  1.00  0.00     0.517 HD
ATOM     15  C   UNL     1      42.928 131.925  18.849  1.00  0.00     0.056 C 
ATOM     16  C   UNL     1      43.691 132.232  21.947  1.00  0.00     0.096 C 
ENDBRANCH   7   9
ENDBRANCH   6   7
ENDBRANCH   3   6
BRANCH   3  17
ATOM     17  C   UNL     1      43.465 132.557  15.311  1.00  0.00     0.300 C 
ATOM     18  O   UNL     1      42.316 132.060  15.464  1.00  0.00    -0.253 OA
BRANCH  17  19
ATOM     19  O   UNL     1      43.627 133.920  15.046  1.00  0.00    -0.425 OA
BRANCH  19  20
ATOM     20  C   UNL     1      42.767 134.904  15.550  1.00  0.00     0.158 A 
ATOM     21  C   UNL     1      41.640 135.304  14.813  1.00  0.00     0.105 A 
ATOM     22  C   UNL     1      43.027 135.477  16.807  1.00  0.00     0.028 A 
ATOM     23  C   UNL     1      40.776 136.289  15.321  1.00  0.00     0.087 A 
ATOM     24  C   UNL     1      44.156 135.078  17.549  1.00  0.00     0.013 A 
ATOM     25  C   UNL     1      42.165 136.481  17.326  1.00  0.00     0.010 A 
ATOM     26  C   UNL     1      41.023 136.878  16.579  1.00  0.00     0.060 A 
ATOM     27  C   UNL     1      44.441 135.666  18.780  1.00  0.00     0.001 A 
ATOM     28  C   UNL     1      42.491 137.079  18.564  1.00  0.00     0.011 A 
ATOM     29  C   UNL     1      43.615 136.668  19.282  1.00  0.00     0.001 A 
ATOM     30  Cl  UNL     1      41.276 134.510  13.279  1.00  0.00    -0.078 Cl
ATOM     31  Cl  UNL     1      39.346 136.743  14.387  1.00  0.00    -0.080 Cl
BRANCH  26  32
ATOM     32  N   UNL     1      40.098 137.850  17.097  1.00  0.00    -0.397 N 
ATOM     33  H   UNL     1      39.945 137.976  18.121  1.00  0.00     0.156 HD
ATOM     34  H   UNL     1      39.465 138.389  16.469  1.00  0.00     0.156 HD
ENDBRANCH  26  32
ENDBRANCH  19  20
ENDBRANCH  17  19
ENDBRANCH   3  17
TORSDOF 8
ENDMDL
MODEL 4
REMARK VINA RESULT:      -6.6      3.320      5.129
REMARK SMILES CC[C@H]1C[C@]1([N-]C(=O)c1[nH+]oc(C)c1C)C(=O)Oc1c(Cl)c(Cl)c(N)c2ccccc12
REMARK SMILES IDX 3 1 4 2 5 3 2 4 1 5 6 6 7 7 8 8 9 9 10 10 14 11 11 12 12 13
REMARK SMILES IDX 15 15 13 16 16 17 17 18 18 19 19 20 20 21 31 22 22 23 30 24
REMARK SMILES IDX 26 25 24 26 29 27 27 28 28 29 21 30 23 31 25 32
REMARK H PARENT 10 14 25 33 25 34
ROOT
ATOM      1  C   UNL     1      45.175 131.101  15.303  1.00  0.00    -0.012 C 
ATOM      2  C   UNL     1      45.549 132.579  15.441  1.00  0.00     0.002 C 
ATOM      3  C   UNL     1      44.140 132.114  15.782  1.00  0.00     0.001 C 
ENDROOT
BRANCH   1   4
ATOM      4  C   UNL     1      45.078 130.602  13.853  1.00  0.00    -0.000 C 
ATOM      5  C   UNL     1      46.441 130.126  13.363  1.00  0.00     0.004 C 
ENDBRANCH   1   4
BRANCH   3   6
ATOM      6  N   UNL     1      43.109 132.497  14.822  1.00  0.00    -0.629 NA
BRANCH   6   7
ATOM      7  C   UNL     1      42.474 133.778  14.833  1.00  0.00     0.153 C 
ATOM      8  O   UNL     1      43.162 134.827  14.705  1.00  0.00    -0.308 OA
BRANCH   7   9
ATOM      9  C   UNL     1      41.012 133.863  14.989  1.00  0.00     0.279 A 
ATOM     10  N   UNL     1      40.131 133.546  14.021  1.00  0.00    -0.026 N 
ATOM     11  C   UNL     1      40.302 134.261  16.112  1.00  0.00     0.072 A 
ATOM     12  O   UNL     1      38.929 133.731  14.484  1.00  0.00    -0.243 OA
ATOM     13  C   UNL     1      38.974 134.156  15.726  1.00  0.00     0.187 A 
ATOM     14  H   UNL     1      40.349 133.211  13.057  1.00  0.00     0.517 HD
ATOM     15  C   UNL     1      40.841 134.697  17.441  1.00  0.00     0.056 C 
ATOM     16  C   UNL     1      37.769 134.464  16.551  1.00  0.00     0.096 C 
ENDBRANCH   7   9
ENDBRANCH   6   7
ENDBRANCH   3   6
BRANCH   3  17
ATOM     17  C   UNL     1      43.758 132.069  17.226  1.00  0.00     0.300 C 
ATOM     18  O   UNL     1      42.609 131.668  17.557  1.00  0.00    -0.253 OA
BRANCH  17  19
ATOM     19  O   UNL     1      44.660 132.533  18.189  1.00  0.00    -0.425 OA
BRANCH  19  20
ATOM     20  C   UNL     1      44.273 133.314  19.285  1.00  0.00     0.158 A 
ATOM     21  C   UNL     1      44.086 132.721  20.545  1.00  0.00     0.105 A 
ATOM     22  C   UNL     1      44.092 134.698  19.124  1.00  0.00     0.028 A 
ATOM     23  C   UNL     1      43.700 133.505  21.645  1.00  0.00     0.087 A 
ATOM     24  C   UNL     1      44.281 135.296  17.862  1.00  0.00     0.013 A 
ATOM     25  C   UNL     1      43.694 135.499  20.229  1.00  0.00     0.010 A 
ATOM     26  C   UNL     1      43.511 134.896  21.502  1.00  0.00     0.060 A 
ATOM     27  C   UNL     1      44.069 136.662  17.685  1.00  0.00     0.001 A 
ATOM     28  C   UNL     1      43.461 136.877  20.015  1.00  0.00     0.011 A 
ATOM     29  C   UNL     1      43.654 137.448  18.757  1.00  0.00     0.001 A 
ATOM     30  Cl  UNL     1      44.406 130.997  20.752  1.00  0.00    -0.078 Cl
ATOM     31  Cl  UNL     1      43.509 132.735  23.225  1.00  0.00    -0.080 Cl
BRANCH  26  32
ATOM     32  N   UNL     1      43.163 135.683  22.654  1.00  0.00    -0.397 N 
ATOM     33  H   UNL     1      42.175 135.937  22.871  1.00  0.00     0.156 HD
ATOM     34  H   UNL     1      43.892 136.122  23.255  1.00  0.00     0.156 HD
ENDBRANCH  26  32
ENDBRANCH  19  20
ENDBRANCH  17  19
ENDBRANCH   3  17
TORSDOF 8
ENDMDL
MODEL 5
REMARK VINA RESULT:      -6.4      3.043      4.871
REMARK SMILES CC[C@H]1C[C@]1([N-]C(=O)c1[nH+]oc(C)c1C)C(=O)Oc1c(Cl)c(Cl)c(N)c2ccccc12
REMARK SMILES IDX 3 1 4 2 5 3 2 4 1 5 6 6 7 7 8 8 9 9 10 10 14 11 11 12 12 13
REMARK SMILES IDX 15 15 13 16 16 17 17 18 18 19 19 20 20 21 31 22 22 23 30 24
REMARK SMILES IDX 26 25 24 26 29 27 27 28 28 29 21 30 23 31 25 32
REMARK H PARENT 10 14 25 33 25 34
ROOT
ATOM      1  C   UNL     1      44.596 131.799  15.524  1.00  0.00    -0.012 C 
ATOM      2  C   UNL     1      44.215 131.531  16.982  1.00  0.00     0.002 C 
ATOM      3  C   UNL     1      43.627 132.729  16.248  1.00  0.00     0.001 C 
ENDROOT
BRANCH   1   4
ATOM      4  C   UNL     1      46.041 132.281  15.321  1.00  0.00    -0.000 C 
ATOM      5  C   UNL     1      46.794 131.326  14.403  1.00  0.00     0.004 C 
ENDBRANCH   1   4
BRANCH   3   6
ATOM      6  N   UNL     1      44.151 134.028  16.657  1.00  0.00    -0.629 NA
BRANCH   6   7
ATOM      7  C   UNL     1      43.766 135.254  16.031  1.00  0.00     0.153 C 
ATOM      8  O   UNL     1      44.078 135.477  14.829  1.00  0.00    -0.308 OA
BRANCH   7   9
ATOM      9  C   UNL     1      43.000 136.252  16.796  1.00  0.00     0.279 A 
ATOM     10  N   UNL     1      43.305 136.637  18.050  1.00  0.00    -0.026 N 
ATOM     11  C   UNL     1      41.877 136.956  16.386  1.00  0.00     0.072 A 
ATOM     12  O   UNL     1      42.436 137.527  18.430  1.00  0.00    -0.243 OA
ATOM     13  C   UNL     1      41.563 137.754  17.475  1.00  0.00     0.187 A 
ATOM     14  H   UNL     1      44.096 136.292  18.639  1.00  0.00     0.517 HD
ATOM     15  C   UNL     1      41.170 136.881  15.067  1.00  0.00     0.056 C 
ATOM     16  C   UNL     1      40.432 138.722  17.586  1.00  0.00     0.096 C 
ENDBRANCH   7   9
ENDBRANCH   6   7
ENDBRANCH   3   6
BRANCH   3  17
ATOM     17  C   UNL     1      42.187 132.657  15.853  1.00  0.00     0.300 C 
ATOM     18  O   UNL     1      41.855 132.878  14.657  1.00  0.00    -0.253 OA
BRANCH  17  19
ATOM     19  O   UNL     1      41.219 132.406  16.831  1.00  0.00    -0.425 OA
BRANCH  19  20
ATOM     20  C   UNL     1      40.563 133.424  17.534  1.00  0.00     0.158 A 
ATOM     21  C   UNL     1      41.013 133.808  18.808  1.00  0.00     0.105 A 
ATOM     22  C   UNL     1      39.461 134.074  16.950  1.00  0.00     0.028 A 
ATOM     23  C   UNL     1      40.355 134.831  19.513  1.00  0.00     0.087 A 
ATOM     24  C   UNL     1      39.008 133.693  15.672  1.00  0.00     0.013 A 
ATOM     25  C   UNL     1      38.783 135.104  17.658  1.00  0.00     0.010 A 
ATOM     26  C   UNL     1      39.246 135.492  18.944  1.00  0.00     0.060 A 
ATOM     27  C   UNL     1      37.895 134.307  15.101  1.00  0.00     0.001 A 
ATOM     28  C   UNL     1      37.642 135.692  17.067  1.00  0.00     0.011 A 
ATOM     29  C   UNL     1      37.210 135.298  15.800  1.00  0.00     0.001 A 
ATOM     30  Cl  UNL     1      42.453 133.046  19.488  1.00  0.00    -0.078 Cl
ATOM     31  Cl  UNL     1      40.970 135.316  21.097  1.00  0.00    -0.080 Cl
BRANCH  26  32
ATOM     32  N   UNL     1      38.620 136.567  19.665  1.00  0.00    -0.397 N 
ATOM     33  H   UNL     1      38.071 136.402  20.536  1.00  0.00     0.156 HD
ATOM     34  H   UNL     1      38.599 137.538  19.287  1.00  0.00     0.156 HD
ENDBRANCH  26  32
ENDBRANCH  19  20
ENDBRANCH  17  19
ENDBRANCH   3  17
TORSDOF 8
ENDMDL
MODEL 6
REMARK VINA RESULT:      -6.4      3.017      4.805
REMARK SMILES CC[C@H]1C[C@]1([N-]C(=O)c1[nH+]oc(C)c1C)C(=O)Oc1c(Cl)c(Cl)c(N)c2ccccc12
REMARK SMILES IDX 3 1 4 2 5 3 2 4 1 5 6 6 7 7 8 8 9 9 10 10 14 11 11 12 12 13
REMARK SMILES IDX 15 15 13 16 16 17 17 18 18 19 19 20 20 21 31 22 22 23 30 24
REMARK SMILES IDX 26 25 24 26 29 27 27 28 28 29 21 30 23 31 25 32
REMARK H PARENT 10 14 25 33 25 34
ROOT
ATOM      1  C   UNL     1      45.117 131.352  15.438  1.00  0.00    -0.012 C 
ATOM      2  C   UNL     1      44.960 131.539  16.950  1.00  0.00     0.002 C 
ATOM      3  C   UNL     1      44.186 132.429  15.987  1.00  0.00     0.001 C 
ENDROOT
BRANCH   1   4
ATOM      4  C   UNL     1      46.479 131.793  14.879  1.00  0.00    -0.000 C 
ATOM      5  C   UNL     1      46.826 130.987  13.634  1.00  0.00     0.004 C 
ENDBRANCH   1   4
BRANCH   3   6
ATOM      6  N   UNL     1      44.658 133.807  15.897  1.00  0.00    -0.629 NA
BRANCH   6   7
ATOM      7  C   UNL     1      44.074 134.879  16.641  1.00  0.00     0.153 C 
ATOM      8  O   UNL     1      44.477 135.132  17.809  1.00  0.00    -0.308 OA
BRANCH   7   9
ATOM      9  C   UNL     1      43.004 135.687  16.034  1.00  0.00     0.279 A 
ATOM     10  N   UNL     1      42.504 135.473  14.802  1.00  0.00    -0.026 N 
ATOM     11  C   UNL     1      42.335 136.766  16.594  1.00  0.00     0.072 A 
ATOM     12  O   UNL     1      41.576 136.356  14.576  1.00  0.00    -0.243 OA
ATOM     13  C   UNL     1      41.435 137.151  15.612  1.00  0.00     0.187 A 
ATOM     14  H   UNL     1      42.796 134.734  14.125  1.00  0.00     0.517 HD
ATOM     15  C   UNL     1      42.531 137.373  17.950  1.00  0.00     0.056 C 
ATOM     16  C   UNL     1      40.454 138.274  15.680  1.00  0.00     0.096 C 
ENDBRANCH   7   9
ENDBRANCH   6   7
ENDBRANCH   3   6
BRANCH   3  17
ATOM     17  C   UNL     1      42.716 132.191  15.858  1.00  0.00     0.300 C 
ATOM     18  O   UNL     1      42.152 132.350  14.741  1.00  0.00    -0.253 OA
BRANCH  17  19
ATOM     19  O   UNL     1      41.973 131.855  16.994  1.00  0.00    -0.425 OA
BRANCH  19  20
ATOM     20  C   UNL     1      41.530 132.804  17.925  1.00  0.00     0.158 A 
ATOM     21  C   UNL     1      42.137 132.892  19.188  1.00  0.00     0.105 A 
ATOM     22  C   UNL     1      40.485 133.680  17.581  1.00  0.00     0.028 A 
ATOM     23  C   UNL     1      41.693 133.845  20.121  1.00  0.00     0.087 A 
ATOM     24  C   UNL     1      39.876 133.595  16.314  1.00  0.00     0.013 A 
ATOM     25  C   UNL     1      40.023 134.642  18.520  1.00  0.00     0.010 A 
ATOM     26  C   UNL     1      40.644 134.731  19.795  1.00  0.00     0.060 A 
ATOM     27  C   UNL     1      38.817 134.436  15.978  1.00  0.00     0.001 A 
ATOM     28  C   UNL     1      38.931 135.464  18.163  1.00  0.00     0.011 A 
ATOM     29  C   UNL     1      38.342 135.363  16.902  1.00  0.00     0.001 A 
ATOM     30  Cl  UNL     1      43.507 131.847  19.571  1.00  0.00    -0.078 Cl
ATOM     31  Cl  UNL     1      42.502 133.957  21.688  1.00  0.00    -0.080 Cl
BRANCH  26  32
ATOM     32  N   UNL     1      40.241 135.729  20.749  1.00  0.00    -0.397 N 
ATOM     33  H   UNL     1      40.035 136.712  20.467  1.00  0.00     0.156 HD
ATOM     34  H   UNL     1      40.243 135.536  21.773  1.00  0.00     0.156 HD
ENDBRANCH  26  32
ENDBRANCH  19  20
ENDBRANCH  17  19
ENDBRANCH   3  17
TORSDOF 8
ENDMDL
MODEL 7
REMARK VINA RESULT:      -6.4      2.452      4.786
REMARK SMILES CC[C@H]1C[C@]1([N-]C(=O)c1[nH+]oc(C)c1C)C(=O)Oc1c(Cl)c(Cl)c(N)c2ccccc12
REMARK SMILES IDX 3 1 4 2 5 3 2 4 1 5 6 6 7 7 8 8 9 9 10 10 14 11 11 12 12 13
REMARK SMILES IDX 15 15 13 16 16 17 17 18 18 19 19 20 20 21 31 22 22 23 30 24
REMARK SMILES IDX 26 25 24 26 29 27 27 28 28 29 21 30 23 31 25 32
REMARK H PARENT 10 14 25 33 25 34
ROOT
ATOM      1  C   UNL     1      45.017 130.947  15.036  1.00  0.00    -0.012 C 
ATOM      2  C   UNL     1      45.940 132.080  15.491  1.00  0.00     0.002 C 
ATOM      3  C   UNL     1      44.433 132.205  15.671  1.00  0.00     0.001 C 
ENDROOT
BRANCH   1   4
ATOM      4  C   UNL     1      44.904 130.791  13.511  1.00  0.00    -0.000 C 
ATOM      5  C   UNL     1      46.250 130.389  12.919  1.00  0.00     0.004 C 
ENDBRANCH   1   4
BRANCH   3   6
ATOM      6  N   UNL     1      43.774 133.146  14.771  1.00  0.00    -0.629 NA
BRANCH   6   7
ATOM      7  C   UNL     1      42.353 133.236  14.644  1.00  0.00     0.153 C 
ATOM      8  O   UNL     1      41.694 132.259  14.195  1.00  0.00    -0.308 OA
BRANCH   7   9
ATOM      9  C   UNL     1      41.665 134.475  15.045  1.00  0.00     0.279 A 
ATOM     10  N   UNL     1      41.720 135.627  14.349  1.00  0.00    -0.026 N 
ATOM     11  C   UNL     1      40.862 134.677  16.158  1.00  0.00     0.072 A 
ATOM     12  O   UNL     1      41.006 136.518  14.971  1.00  0.00    -0.243 OA
ATOM     13  C   UNL     1      40.472 136.004  16.056  1.00  0.00     0.187 A 
ATOM     14  H   UNL     1      42.243 135.801  13.462  1.00  0.00     0.517 HD
ATOM     15  C   UNL     1      40.493 133.690  17.223  1.00  0.00     0.056 C 
ATOM     16  C   UNL     1      39.593 136.759  16.997  1.00  0.00     0.096 C 
ENDBRANCH   7   9
ENDBRANCH   6   7
ENDBRANCH   3   6
BRANCH   3  17
ATOM     17  C   UNL     1      43.892 132.081  17.059  1.00  0.00     0.300 C 
ATOM     18  O   UNL     1      42.836 131.420  17.261  1.00  0.00    -0.253 OA
BRANCH  17  19
ATOM     19  O   UNL     1      44.528 132.752  18.106  1.00  0.00    -0.425 OA
BRANCH  19  20
ATOM     20  C   UNL     1      43.850 133.588  19.003  1.00  0.00     0.158 A 
ATOM     21  C   UNL     1      43.653 134.944  18.694  1.00  0.00     0.105 A 
ATOM     22  C   UNL     1      43.351 133.059  20.206  1.00  0.00     0.028 A 
ATOM     23  C   UNL     1      42.970 135.782  19.592  1.00  0.00     0.087 A 
ATOM     24  C   UNL     1      43.546 131.699  20.518  1.00  0.00     0.013 A 
ATOM     25  C   UNL     1      42.667 133.900  21.125  1.00  0.00     0.010 A 
ATOM     26  C   UNL     1      42.465 135.269  20.805  1.00  0.00     0.060 A 
ATOM     27  C   UNL     1      43.086 131.175  21.724  1.00  0.00     0.001 A 
ATOM     28  C   UNL     1      42.233 133.348  22.352  1.00  0.00     0.011 A 
ATOM     29  C   UNL     1      42.438 131.998  22.641  1.00  0.00     0.001 A 
ATOM     30  Cl  UNL     1      44.204 135.572  17.139  1.00  0.00    -0.078 Cl
ATOM     31  Cl  UNL     1      42.705 137.474  19.157  1.00  0.00    -0.080 Cl
BRANCH  26  32
ATOM     32  N   UNL     1      41.728 136.137  21.685  1.00  0.00    -0.397 N 
ATOM     33  H   UNL     1      42.193 136.667  22.454  1.00  0.00     0.156 HD
ATOM     34  H   UNL     1      40.688 136.185  21.658  1.00  0.00     0.156 HD
ENDBRANCH  26  32
ENDBRANCH  19  20
ENDBRANCH  17  19
ENDBRANCH   3  17
TORSDOF 8
ENDMDL
MODEL 8
REMARK VINA RESULT:      -6.4      2.579      6.935
REMARK SMILES CC[C@H]1C[C@]1([N-]C(=O)c1[nH+]oc(C)c1C)C(=O)Oc1c(Cl)c(Cl)c(N)c2ccccc12
REMARK SMILES IDX 3 1 4 2 5 3 2 4 1 5 6 6 7 7 8 8 9 9 10 10 14 11 11 12 12 13
REMARK SMILES IDX 15 15 13 16 16 17 17 18 18 19 19 20 20 21 31 22 22 23 30 24
REMARK SMILES IDX 26 25 24 26 29 27 27 28 28 29 21 30 23 31 25 32
REMARK H PARENT 10 14 25 33 25 34
ROOT
ATOM      1  C   UNL     1      41.151 135.123  19.037  1.00  0.00    -0.012 C 
ATOM      2  C   UNL     1      40.152 134.129  19.636  1.00  0.00     0.002 C 
ATOM      3  C   UNL     1      40.395 134.155  18.132  1.00  0.00     0.001 C 
ENDROOT
BRANCH   1   4
ATOM      4  C   UNL     1      40.689 136.588  19.070  1.00  0.00    -0.000 C 
ATOM      5  C   UNL     1      41.773 137.472  19.675  1.00  0.00     0.004 C 
ENDBRANCH   1   4
BRANCH   3   6
ATOM      6  N   UNL     1      39.310 134.718  17.336  1.00  0.00    -0.629 NA
BRANCH   6   7
ATOM      7  C   UNL     1      39.400 134.906  15.921  1.00  0.00     0.153 C 
ATOM      8  O   UNL     1      39.237 133.929  15.140  1.00  0.00    -0.308 OA
BRANCH   7   9
ATOM      9  C   UNL     1      39.680 136.248  15.383  1.00  0.00     0.279 A 
ATOM     10  N   UNL     1      38.728 137.127  15.014  1.00  0.00    -0.026 N 
ATOM     11  C   UNL     1      40.920 136.835  15.172  1.00  0.00     0.072 A 
ATOM     12  O   UNL     1      39.310 138.208  14.588  1.00  0.00    -0.243 OA
ATOM     13  C   UNL     1      40.617 138.088  14.661  1.00  0.00     0.187 A 
ATOM     14  H   UNL     1      37.694 136.986  15.052  1.00  0.00     0.517 HD
ATOM     15  C   UNL     1      42.275 136.255  15.441  1.00  0.00     0.056 C 
ATOM     16  C   UNL     1      41.582 139.150  14.250  1.00  0.00     0.096 C 
ENDBRANCH   7   9
ENDBRANCH   6   7
ENDBRANCH   3   6
BRANCH   3  17
ATOM     17  C   UNL     1      41.174 133.025  17.541  1.00  0.00     0.300 C 
ATOM     18  O   UNL     1      40.771 131.839  17.695  1.00  0.00    -0.253 OA
BRANCH  17  19
ATOM     19  O   UNL     1      42.374 133.292  16.877  1.00  0.00    -0.425 OA
BRANCH  19  20
ATOM     20  C   UNL     1      43.420 132.365  16.784  1.00  0.00     0.158 A 
ATOM     21  C   UNL     1      43.753 131.795  15.544  1.00  0.00     0.105 A 
ATOM     22  C   UNL     1      44.149 132.021  17.937  1.00  0.00     0.028 A 
ATOM     23  C   UNL     1      44.804 130.867  15.451  1.00  0.00     0.087 A 
ATOM     24  C   UNL     1      43.819 132.592  19.181  1.00  0.00     0.013 A 
ATOM     25  C   UNL     1      45.208 131.076  17.855  1.00  0.00     0.010 A 
ATOM     26  C   UNL     1      45.544 130.507  16.598  1.00  0.00     0.060 A 
ATOM     27  C   UNL     1      44.512 132.230  20.335  1.00  0.00     0.001 A 
ATOM     28  C   UNL     1      45.877 130.707  19.044  1.00  0.00     0.011 A 
ATOM     29  C   UNL     1      45.533 131.285  20.267  1.00  0.00     0.001 A 
ATOM     30  Cl  UNL     1      42.890 132.307  14.092  1.00  0.00    -0.078 Cl
ATOM     31  Cl  UNL     1      45.223 130.197  13.870  1.00  0.00    -0.080 Cl
BRANCH  26  32
ATOM     32  N   UNL     1      46.645 129.591  16.468  1.00  0.00    -0.397 N 
ATOM     33  H   UNL     1      46.532 128.650  16.034  1.00  0.00     0.156 HD
ATOM     34  H   UNL     1      47.573 129.789  16.899  1.00  0.00     0.156 HD
ENDBRANCH  26  32
ENDBRANCH  19  20
ENDBRANCH  17  19
ENDBRANCH   3  17
TORSDOF 8
ENDMDL
MODEL 9
REMARK VINA RESULT:      -6.4      2.841      5.450
REMARK SMILES CC[C@H]1C[C@]1([N-]C(=O)c1[nH+]oc(C)c1C)C(=O)Oc1c(Cl)c(Cl)c(N)c2ccccc12
REMARK SMILES IDX 3 1 4 2 5 3 2 4 1 5 6 6 7 7 8 8 9 9 10 10 14 11 11 12 12 13
REMARK SMILES IDX 15 15 13 16 16 17 17 18 18 19 19 20 20 21 31 22 22 23 30 24
REMARK SMILES IDX 26 25 24 26 29 27 27 28 28 29 21 30 23 31 25 32
REMARK H PARENT 10 14 25 33 25 34
ROOT
ATOM      1  C   UNL     1      45.272 131.612  15.519  1.00  0.00    -0.012 C 
ATOM      2  C   UNL     1      44.890 133.090  15.637  1.00  0.00     0.002 C 
ATOM      3  C   UNL     1      44.078 132.032  16.372  1.00  0.00     0.001 C 
ENDROOT
BRANCH   1   4
ATOM      4  C   UNL     1      44.989 130.989  14.142  1.00  0.00    -0.000 C 
ATOM      5  C   UNL     1      46.194 130.187  13.667  1.00  0.00     0.004 C 
ENDBRANCH   1   4
BRANCH   3   6
ATOM      6  N   UNL     1      42.754 131.767  15.819  1.00  0.00    -0.629 NA
BRANCH   6   7
ATOM      7  C   UNL     1      41.906 132.796  15.305  1.00  0.00     0.153 C 
ATOM      8  O   UNL     1      41.572 132.792  14.088  1.00  0.00    -0.308 OA
BRANCH   7   9
ATOM      9  C   UNL     1      41.422 133.856  16.204  1.00  0.00     0.279 A 
ATOM     10  N   UNL     1      40.697 133.630  17.316  1.00  0.00    -0.026 N 
ATOM     11  C   UNL     1      41.619 135.225  16.084  1.00  0.00     0.072 A 
ATOM     12  O   UNL     1      40.438 134.773  17.878  1.00  0.00    -0.243 OA
ATOM     13  C   UNL     1      40.964 135.757  17.184  1.00  0.00     0.187 A 
ATOM     14  H   UNL     1      40.382 132.704  17.684  1.00  0.00     0.517 HD
ATOM     15  C   UNL     1      42.373 135.960  15.018  1.00  0.00     0.056 C 
ATOM     16  C   UNL     1      40.853 137.199  17.555  1.00  0.00     0.096 C 
ENDBRANCH   7   9
ENDBRANCH   6   7
ENDBRANCH   3   6
BRANCH   3  17
ATOM     17  C   UNL     1      44.238 131.949  17.856  1.00  0.00     0.300 C 
ATOM     18  O   UNL     1      45.170 131.255  18.347  1.00  0.00    -0.253 OA
BRANCH  17  19
ATOM     19  O   UNL     1      43.311 132.591  18.683  1.00  0.00    -0.425 OA
BRANCH  19  20
ATOM     20  C   UNL     1      43.667 133.230  19.878  1.00  0.00     0.158 A 
ATOM     21  C   UNL     1      44.195 134.531  19.854  1.00  0.00     0.105 A 
ATOM     22  C   UNL     1      43.474 132.569  21.104  1.00  0.00     0.028 A 
ATOM     23  C   UNL     1      44.549 135.172  21.054  1.00  0.00     0.087 A 
ATOM     24  C   UNL     1      42.943 131.264  21.131  1.00  0.00     0.013 A 
ATOM     25  C   UNL     1      43.837 133.205  22.322  1.00  0.00     0.010 A 
ATOM     26  C   UNL     1      44.366 134.524  22.293  1.00  0.00     0.060 A 
ATOM     27  C   UNL     1      42.782 130.588  22.338  1.00  0.00     0.001 A 
ATOM     28  C   UNL     1      43.688 132.487  23.530  1.00  0.00     0.011 A 
ATOM     29  C   UNL     1      43.159 131.196  23.533  1.00  0.00     0.001 A 
ATOM     30  Cl  UNL     1      44.345 135.382  18.315  1.00  0.00    -0.078 Cl
ATOM     31  Cl  UNL     1      45.176 136.824  20.993  1.00  0.00    -0.080 Cl
BRANCH  26  32
ATOM     32  N   UNL     1      44.692 135.219  23.509  1.00  0.00    -0.397 N 
ATOM     33  H   UNL     1      45.539 134.985  24.070  1.00  0.00     0.156 HD
ATOM     34  H   UNL     1      44.037 135.911  23.933  1.00  0.00     0.156 HD
ENDBRANCH  26  32
ENDBRANCH  19  20
ENDBRANCH  17  19
ENDBRANCH   3  17
TORSDOF 8
ENDMDL


