REMARK SMILES Cc1nnn(/C=C2/C[C@@H](C)OC2=O)c1-c1c2ccccc2cc2c(N=[N+]=[N-])cccc12
REMARK SMILES IDX 15 1 16 2 17 3 18 4 19 5 20 6 21 7 22 8 23 9 24 10 28 11
REMARK SMILES IDX 29 12 30 13 31 14 14 15 5 16 4 17 3 18 2 19 1 20 6 21 7 22
REMARK SMILES IDX 12 23 8 24 11 25 9 26 13 27 10 28 25 29 26 30 27 31
REMARK H PARENT
ROOT
ATOM      1  C   UNL     1      -1.118   1.196   0.567  1.00  0.00     0.018 A 
ATOM      2  C   UNL     1      -1.460   0.610  -0.680  1.00  0.00    -0.008 A 
ATOM      3  C   UNL     1      -2.449  -0.395  -0.789  1.00  0.00     0.009 A 
ATOM      4  C   UNL     1      -2.743  -0.978  -2.023  1.00  0.00     0.001 A 
ATOM      5  C   UNL     1      -2.073  -0.563  -3.172  1.00  0.00     0.001 A 
ATOM      6  C   UNL     1      -1.115   0.448  -3.095  1.00  0.00     0.009 A 
ATOM      7  C   UNL     1      -0.811   1.046  -1.861  1.00  0.00    -0.017 A 
ATOM      8  C   UNL     1       0.130   2.077  -1.806  1.00  0.00     0.018 A 
ATOM      9  C   UNL     1       0.443   2.708  -0.593  1.00  0.00    -0.008 A 
ATOM     10  C   UNL     1       1.385   3.766  -0.556  1.00  0.00     0.045 A 
ATOM     11  C   UNL     1       1.693   4.374   0.671  1.00  0.00     0.011 A 
ATOM     12  C   UNL     1       1.086   3.944   1.846  1.00  0.00     0.001 A 
ATOM     13  C   UNL     1       0.161   2.904   1.819  1.00  0.00     0.009 A 
ATOM     14  C   UNL     1      -0.184   2.269   0.606  1.00  0.00    -0.008 A 
ENDROOT
BRANCH   1  15
ATOM     15  C   UNL     1      -1.694   0.650   1.828  1.00  0.00     0.098 A 
ATOM     16  N   UNL     1      -1.513  -0.602   2.304  1.00  0.00    -0.219 N 
ATOM     17  N   UNL     1      -2.321  -0.768   3.339  1.00  0.00    -0.062 NA
ATOM     18  N   UNL     1      -3.006   0.342   3.579  1.00  0.00    -0.135 NA
ATOM     19  C   UNL     1      -2.645   1.238   2.639  1.00  0.00     0.088 A 
ATOM     20  C   UNL     1      -3.221   2.612   2.524  1.00  0.00     0.071 C 
BRANCH  16  21
ATOM     21  C   UNL     1      -0.799  -1.675   1.678  1.00  0.00     0.126 C 
BRANCH  21  22
ATOM     22  C   UNL     1       0.493  -1.583   1.344  1.00  0.00     0.059 C 
ATOM     23  C   UNL     1       1.449  -0.585   1.765  1.00  0.00     0.335 C 
ATOM     24  C   UNL     1       1.205  -2.528   0.436  1.00  0.00     0.089 C 
ATOM     25  O   UNL     1       2.646  -0.754   1.105  1.00  0.00    -0.459 OA
ATOM     26  C   UNL     1       2.579  -1.844   0.189  1.00  0.00     0.178 C 
ATOM     27  O   UNL     1       1.279   0.254   2.686  1.00  0.00    -0.247 OA
ATOM     28  C   UNL     1       2.701  -1.315  -1.240  1.00  0.00     0.053 C 
ENDBRANCH  21  22
ENDBRANCH  16  21
ENDBRANCH   1  15
BRANCH  10  29
ATOM     29  N   UNL     1       2.018   4.207  -1.770  1.00  0.00    -0.060 NA
BRANCH  29  30
ATOM     30  N   UNL     1       2.846   5.119  -1.793  1.00  0.00     0.005 N 
ATOM     31  N   UNL     1       3.672   6.030  -1.818  1.00  0.00    -0.003 NA
ENDBRANCH  29  30
ENDBRANCH  10  29
TORSDOF 5


