MODEL 1
REMARK VINA RESULT:      -7.6      0.000      0.000
REMARK SMILES C#CCO/C(O)=C\[C@H]1CC[C@@H]2C(OC(=O)[C@H](C)C(F)(F)F)=Nc3c(N=[N+]=[N-])cc(Cl)c1c32
REMARK SMILES IDX 8 1 31 2 29 3 30 4 28 5 24 6 23 7 32 8 11 9 12 10 22 11
REMARK SMILES IDX 10 12 9 13 7 14 5 15 4 16 3 17 2 18 1 19 6 20 25 22 26 23
REMARK SMILES IDX 27 24 13 25 14 26 15 27 16 28 17 29 18 30 19 31 20 32 21 33
REMARK H PARENT 6 21
ROOT
ATOM      1  C   UNL     1      44.333 132.218  20.703  1.00  0.00     0.051 C 
ATOM      2  C   UNL     1      43.618 132.569  19.401  1.00  0.00    -0.016 A 
ATOM      3  C   UNL     1      42.789 133.710  19.265  1.00  0.00     0.045 A 
ATOM      4  Cl  UNL     1      42.278 134.648  20.663  1.00  0.00    -0.084 Cl
ATOM      5  C   UNL     1      42.423 134.168  17.979  1.00  0.00     0.033 A 
ATOM      6  C   UNL     1      42.933 133.539  16.819  1.00  0.00     0.065 A 
ATOM      7  C   UNL     1      43.717 132.399  16.993  1.00  0.00     0.081 A 
ATOM      8  C   UNL     1      43.959 131.883  18.236  1.00  0.00    -0.004 A 
ATOM      9  C   UNL     1      44.976 130.822  18.127  1.00  0.00     0.109 C 
ATOM     10  C   UNL     1      45.329 130.965  16.670  1.00  0.00     0.206 C 
ATOM     11  N   UNL     1      44.586 131.821  16.029  1.00  0.00    -0.216 NA
ATOM     12  C   UNL     1      46.095 131.124  19.124  1.00  0.00     0.019 C 
ATOM     13  C   UNL     1      45.482 131.167  20.540  1.00  0.00     0.014 C 
ENDROOT
BRANCH   1  14
ATOM     14  C   UNL     1      43.335 131.739  21.731  1.00  0.00     0.069 C 
BRANCH  14  15
ATOM     15  C   UNL     1      43.489 131.958  23.039  1.00  0.00     0.273 C 
BRANCH  15  16
ATOM     16  O   UNL     1      43.843 133.235  23.496  1.00  0.00    -0.453 OA
BRANCH  16  17
ATOM     17  C   UNL     1      45.085 133.534  24.116  1.00  0.00     0.322 C 
BRANCH  17  18
ATOM     18  C   UNL     1      45.984 134.133  23.128  1.00  0.00    -0.065 C 
ATOM     19  C   UNL     1      46.725 134.625  22.314  1.00  0.00     0.007 C 
ENDBRANCH  17  18
ENDBRANCH  16  17
ENDBRANCH  15  16
BRANCH  15  20
ATOM     20  O   UNL     1      43.293 130.897  23.924  1.00  0.00    -0.481 OA
ATOM     21  H   UNL     1      44.005 130.203  24.105  1.00  0.00     0.296 HD
ENDBRANCH  15  20
ENDBRANCH  14  15
ENDBRANCH   1  14
BRANCH   6  22
ATOM     22  N   UNL     1      42.714 134.060  15.502  1.00  0.00    -0.058 NA
BRANCH  22  23
ATOM     23  N   UNL     1      41.768 133.696  14.803  1.00  0.00     0.005 N 
ATOM     24  N   UNL     1      40.823 133.331  14.105  1.00  0.00    -0.003 NA
ENDBRANCH  22  23
ENDBRANCH   6  22
BRANCH  10  25
ATOM     25  O   UNL     1      46.335 130.205  16.061  1.00  0.00    -0.410 OA
BRANCH  25  26
ATOM     26  C   UNL     1      46.133 129.281  15.027  1.00  0.00     0.324 C 
ATOM     27  O   UNL     1      45.288 128.350  15.139  1.00  0.00    -0.251 OA
BRANCH  26  28
ATOM     28  C   UNL     1      46.929 129.407  13.756  1.00  0.00     0.201 C 
ATOM     29  C   UNL     1      48.426 129.478  14.079  1.00  0.00     0.030 C 
BRANCH  28  30
ATOM     30  C   UNL     1      46.467 130.626  12.940  1.00  0.00     0.401 C 
ATOM     31  F   UNL     1      46.924 130.547  11.635  1.00  0.00    -0.170 F 
ATOM     32  F   UNL     1      46.952 131.788  13.515  1.00  0.00    -0.170 F 
ATOM     33  F   UNL     1      45.084 130.687  12.926  1.00  0.00    -0.170 F 
ENDBRANCH  28  30
ENDBRANCH  26  28
ENDBRANCH  25  26
ENDBRANCH  10  25
TORSDOF 12
ENDMDL
MODEL 2
REMARK VINA RESULT:      -7.5      3.335      5.388
REMARK SMILES C#CCO/C(O)=C\[C@H]1CC[C@@H]2C(OC(=O)[C@H](C)C(F)(F)F)=Nc3c(N=[N+]=[N-])cc(Cl)c1c32
REMARK SMILES IDX 8 1 31 2 29 3 30 4 28 5 24 6 23 7 32 8 11 9 12 10 22 11
REMARK SMILES IDX 10 12 9 13 7 14 5 15 4 16 3 17 2 18 1 19 6 20 25 22 26 23
REMARK SMILES IDX 27 24 13 25 14 26 15 27 16 28 17 29 18 30 19 31 20 32 21 33
REMARK H PARENT 6 21
ROOT
ATOM      1  C   UNL     1      41.816 133.341  15.863  1.00  0.00     0.051 C 
ATOM      2  C   UNL     1      42.459 133.039  17.213  1.00  0.00    -0.016 A 
ATOM      3  C   UNL     1      41.721 132.998  18.423  1.00  0.00     0.045 A 
ATOM      4  Cl  UNL     1      40.063 133.584  18.508  1.00  0.00    -0.084 Cl
ATOM      5  C   UNL     1      42.283 132.401  19.574  1.00  0.00     0.033 A 
ATOM      6  C   UNL     1      43.552 131.779  19.515  1.00  0.00     0.065 A 
ATOM      7  C   UNL     1      44.263 131.870  18.319  1.00  0.00     0.081 A 
ATOM      8  C   UNL     1      43.769 132.564  17.248  1.00  0.00    -0.004 A 
ATOM      9  C   UNL     1      44.625 132.310  16.075  1.00  0.00     0.109 C 
ATOM     10  C   UNL     1      45.546 131.272  16.660  1.00  0.00     0.206 C 
ATOM     11  N   UNL     1      45.365 131.063  17.932  1.00  0.00    -0.216 NA
ATOM     12  C   UNL     1      43.736 131.849  14.922  1.00  0.00     0.019 C 
ATOM     13  C   UNL     1      42.705 132.961  14.631  1.00  0.00     0.014 C 
ENDROOT
BRANCH   1  14
ATOM     14  C   UNL     1      41.424 134.798  15.789  1.00  0.00     0.069 C 
BRANCH  14  15
ATOM     15  C   UNL     1      42.317 135.773  15.607  1.00  0.00     0.273 C 
BRANCH  15  16
ATOM     16  O   UNL     1      42.002 136.866  14.788  1.00  0.00    -0.453 OA
BRANCH  16  17
ATOM     17  C   UNL     1      42.707 138.099  14.815  1.00  0.00     0.322 C 
BRANCH  17  18
ATOM     18  C   UNL     1      42.221 138.906  15.935  1.00  0.00    -0.065 C 
ATOM     19  C   UNL     1      41.819 139.570  16.859  1.00  0.00     0.007 C 
ENDBRANCH  17  18
ENDBRANCH  16  17
ENDBRANCH  15  16
BRANCH  15  20
ATOM     20  O   UNL     1      43.555 135.677  16.246  1.00  0.00    -0.481 OA
ATOM     21  H   UNL     1      44.040 134.797  16.358  1.00  0.00     0.296 HD
ENDBRANCH  15  20
ENDBRANCH  14  15
ENDBRANCH   1  14
BRANCH   6  22
ATOM     22  N   UNL     1      44.093 131.030  20.611  1.00  0.00    -0.058 NA
BRANCH  22  23
ATOM     23  N   UNL     1      44.848 131.537  21.441  1.00  0.00     0.005 N 
ATOM     24  N   UNL     1      45.601 132.042  22.272  1.00  0.00    -0.003 NA
ENDBRANCH  22  23
ENDBRANCH   6  22
BRANCH  10  25
ATOM     25  O   UNL     1      46.534 130.631  15.903  1.00  0.00    -0.410 OA
BRANCH  25  26
ATOM     26  C   UNL     1      46.308 129.569  15.015  1.00  0.00     0.324 C 
ATOM     27  O   UNL     1      45.428 128.698  15.252  1.00  0.00    -0.251 OA
BRANCH  26  28
ATOM     28  C   UNL     1      47.123 129.474  13.754  1.00  0.00     0.201 C 
ATOM     29  C   UNL     1      48.618 129.448  14.095  1.00  0.00     0.030 C 
BRANCH  28  30
ATOM     30  C   UNL     1      46.781 130.626  12.793  1.00  0.00     0.401 C 
ATOM     31  F   UNL     1      45.410 130.805  12.708  1.00  0.00    -0.170 F 
ATOM     32  F   UNL     1      47.276 130.347  11.531  1.00  0.00    -0.170 F 
ATOM     33  F   UNL     1      47.358 131.801  13.242  1.00  0.00    -0.170 F 
ENDBRANCH  28  30
ENDBRANCH  26  28
ENDBRANCH  25  26
ENDBRANCH  10  25
TORSDOF 12
ENDMDL
MODEL 3
REMARK VINA RESULT:      -7.3      4.513      7.433
REMARK SMILES C#CCO/C(O)=C\[C@H]1CC[C@@H]2C(OC(=O)[C@H](C)C(F)(F)F)=Nc3c(N=[N+]=[N-])cc(Cl)c1c32
REMARK SMILES IDX 8 1 31 2 29 3 30 4 28 5 24 6 23 7 32 8 11 9 12 10 22 11
REMARK SMILES IDX 10 12 9 13 7 14 5 15 4 16 3 17 2 18 1 19 6 20 25 22 26 23
REMARK SMILES IDX 27 24 13 25 14 26 15 27 16 28 17 29 18 30 19 31 20 32 21 33
REMARK H PARENT 6 21
ROOT
ATOM      1  C   UNL     1      45.222 131.823  17.345  1.00  0.00     0.051 C 
ATOM      2  C   UNL     1      44.064 132.069  18.307  1.00  0.00    -0.016 A 
ATOM      3  C   UNL     1      44.146 131.786  19.694  1.00  0.00     0.045 A 
ATOM      4  Cl  UNL     1      45.480 130.855  20.365  1.00  0.00    -0.084 Cl
ATOM      5  C   UNL     1      43.189 132.326  20.582  1.00  0.00     0.033 A 
ATOM      6  C   UNL     1      42.186 133.206  20.112  1.00  0.00     0.065 A 
ATOM      7  C   UNL     1      42.116 133.432  18.738  1.00  0.00     0.081 A 
ATOM      8  C   UNL     1      42.962 132.802  17.868  1.00  0.00    -0.004 A 
ATOM      9  C   UNL     1      42.798 133.390  16.526  1.00  0.00     0.109 C 
ATOM     10  C   UNL     1      41.850 134.510  16.861  1.00  0.00     0.206 C 
ATOM     11  N   UNL     1      41.436 134.500  18.095  1.00  0.00    -0.216 NA
ATOM     12  C   UNL     1      44.175 133.803  16.011  1.00  0.00     0.019 C 
ATOM     13  C   UNL     1      45.073 132.548  15.965  1.00  0.00     0.014 C 
ENDROOT
BRANCH   1  14
ATOM     14  C   UNL     1      45.416 130.340  17.133  1.00  0.00     0.069 C 
BRANCH  14  15
ATOM     15  C   UNL     1      46.061 129.845  16.073  1.00  0.00     0.273 C 
BRANCH  15  16
ATOM     16  O   UNL     1      45.335 129.388  14.965  1.00  0.00    -0.453 OA
BRANCH  16  17
ATOM     17  C   UNL     1      44.992 130.207  13.856  1.00  0.00     0.322 C 
BRANCH  17  18
ATOM     18  C   UNL     1      46.186 130.437  13.041  1.00  0.00    -0.065 C 
ATOM     19  C   UNL     1      47.171 130.628  12.371  1.00  0.00     0.007 C 
ENDBRANCH  17  18
ENDBRANCH  16  17
ENDBRANCH  15  16
BRANCH  15  20
ATOM     20  O   UNL     1      47.456 129.796  16.100  1.00  0.00    -0.481 OA
ATOM     21  H   UNL     1      48.022 130.027  15.295  1.00  0.00     0.296 HD
ENDBRANCH  15  20
ENDBRANCH  14  15
ENDBRANCH   1  14
BRANCH   6  22
ATOM     22  N   UNL     1      41.293 133.896  20.995  1.00  0.00    -0.058 NA
BRANCH  22  23
ATOM     23  N   UNL     1      41.371 133.791  22.219  1.00  0.00     0.005 N 
ATOM     24  N   UNL     1      41.451 133.688  23.443  1.00  0.00    -0.003 NA
ENDBRANCH  22  23
ENDBRANCH   6  22
BRANCH  10  25
ATOM     25  O   UNL     1      41.423 135.444  15.909  1.00  0.00    -0.410 OA
BRANCH  25  26
ATOM     26  C   UNL     1      40.201 135.395  15.223  1.00  0.00     0.324 C 
ATOM     27  O   UNL     1      39.804 136.370  14.528  1.00  0.00    -0.251 OA
BRANCH  26  28
ATOM     28  C   UNL     1      39.353 134.155  15.310  1.00  0.00     0.201 C 
ATOM     29  C   UNL     1      38.750 133.833  13.938  1.00  0.00     0.030 C 
BRANCH  28  30
ATOM     30  C   UNL     1      38.265 134.310  16.385  1.00  0.00     0.401 C 
ATOM     31  F   UNL     1      38.490 135.440  17.154  1.00  0.00    -0.170 F 
ATOM     32  F   UNL     1      38.259 133.200  17.212  1.00  0.00    -0.170 F 
ATOM     33  F   UNL     1      37.022 134.417  15.786  1.00  0.00    -0.170 F 
ENDBRANCH  28  30
ENDBRANCH  26  28
ENDBRANCH  25  26
ENDBRANCH  10  25
TORSDOF 12
ENDMDL
MODEL 4
REMARK VINA RESULT:      -7.2      4.447      7.444
REMARK SMILES C#CCO/C(O)=C\[C@H]1CC[C@@H]2C(OC(=O)[C@H](C)C(F)(F)F)=Nc3c(N=[N+]=[N-])cc(Cl)c1c32
REMARK SMILES IDX 8 1 31 2 29 3 30 4 28 5 24 6 23 7 32 8 11 9 12 10 22 11
REMARK SMILES IDX 10 12 9 13 7 14 5 15 4 16 3 17 2 18 1 19 6 20 25 22 26 23
REMARK SMILES IDX 27 24 13 25 14 26 15 27 16 28 17 29 18 30 19 31 20 32 21 33
REMARK H PARENT 6 21
ROOT
ATOM      1  C   UNL     1      45.032 131.815  16.990  1.00  0.00     0.051 C 
ATOM      2  C   UNL     1      43.979 132.075  18.063  1.00  0.00    -0.016 A 
ATOM      3  C   UNL     1      44.183 131.761  19.430  1.00  0.00     0.045 A 
ATOM      4  Cl  UNL     1      45.544 130.776  19.953  1.00  0.00    -0.084 Cl
ATOM      5  C   UNL     1      43.332 132.310  20.415  1.00  0.00     0.033 A 
ATOM      6  C   UNL     1      42.319 133.230  20.059  1.00  0.00     0.065 A 
ATOM      7  C   UNL     1      42.126 133.487  18.702  1.00  0.00     0.081 A 
ATOM      8  C   UNL     1      42.865 132.850  17.744  1.00  0.00    -0.004 A 
ATOM      9  C   UNL     1      42.593 133.471  16.435  1.00  0.00     0.109 C 
ATOM     10  C   UNL     1      41.717 134.613  16.879  1.00  0.00     0.206 C 
ATOM     11  N   UNL     1      41.422 134.589  18.147  1.00  0.00    -0.216 NA
ATOM     12  C   UNL     1      43.928 133.854  15.798  1.00  0.00     0.019 C 
ATOM     13  C   UNL     1      44.776 132.573  15.643  1.00  0.00     0.014 C 
ENDROOT
BRANCH   1  14
ATOM     14  C   UNL     1      45.158 130.332  16.733  1.00  0.00     0.069 C 
BRANCH  14  15
ATOM     15  C   UNL     1      46.096 129.819  15.933  1.00  0.00     0.273 C 
BRANCH  15  16
ATOM     16  O   UNL     1      45.743 129.324  14.670  1.00  0.00    -0.453 OA
BRANCH  16  17
ATOM     17  C   UNL     1      45.587 130.142  13.519  1.00  0.00     0.322 C 
BRANCH  17  18
ATOM     18  C   UNL     1      46.885 130.714  13.157  1.00  0.00    -0.065 C 
ATOM     19  C   UNL     1      47.954 131.184  12.857  1.00  0.00     0.007 C 
ENDBRANCH  17  18
ENDBRANCH  16  17
ENDBRANCH  15  16
BRANCH  15  20
ATOM     20  O   UNL     1      47.417 129.789  16.384  1.00  0.00    -0.481 OA
ATOM     21  H   UNL     1      47.919 130.626  16.646  1.00  0.00     0.296 HD
ENDBRANCH  15  20
ENDBRANCH  14  15
ENDBRANCH   1  14
BRANCH   6  22
ATOM     22  N   UNL     1      41.536 133.928  21.036  1.00  0.00    -0.058 NA
BRANCH  22  23
ATOM     23  N   UNL     1      41.751 135.105  21.329  1.00  0.00     0.005 N 
ATOM     24  N   UNL     1      41.966 136.279  21.623  1.00  0.00    -0.003 NA
ENDBRANCH  22  23
ENDBRANCH   6  22
BRANCH  10  25
ATOM     25  O   UNL     1      41.232 135.579  15.989  1.00  0.00    -0.410 OA
BRANCH  25  26
ATOM     26  C   UNL     1      40.054 135.463  15.238  1.00  0.00     0.324 C 
ATOM     27  O   UNL     1      39.672 136.395  14.478  1.00  0.00    -0.251 OA
BRANCH  26  28
ATOM     28  C   UNL     1      39.238 134.203  15.332  1.00  0.00     0.201 C 
ATOM     29  C   UNL     1      38.576 133.904  13.981  1.00  0.00     0.030 C 
BRANCH  28  30
ATOM     30  C   UNL     1      38.199 134.307  16.461  1.00  0.00     0.401 C 
ATOM     31  F   UNL     1      38.259 133.198  17.289  1.00  0.00    -0.170 F 
ATOM     32  F   UNL     1      36.927 134.397  15.923  1.00  0.00    -0.170 F 
ATOM     33  F   UNL     1      38.437 135.442  17.217  1.00  0.00    -0.170 F 
ENDBRANCH  28  30
ENDBRANCH  26  28
ENDBRANCH  25  26
ENDBRANCH  10  25
TORSDOF 12
ENDMDL
MODEL 5
REMARK VINA RESULT:      -7.0      3.658      7.428
REMARK SMILES C#CCO/C(O)=C\[C@H]1CC[C@@H]2C(OC(=O)[C@H](C)C(F)(F)F)=Nc3c(N=[N+]=[N-])cc(Cl)c1c32
REMARK SMILES IDX 8 1 31 2 29 3 30 4 28 5 24 6 23 7 32 8 11 9 12 10 22 11
REMARK SMILES IDX 10 12 9 13 7 14 5 15 4 16 3 17 2 18 1 19 6 20 25 22 26 23
REMARK SMILES IDX 27 24 13 25 14 26 15 27 16 28 17 29 18 30 19 31 20 32 21 33
REMARK H PARENT 6 21
ROOT
ATOM      1  C   UNL     1      44.852 131.027  16.603  1.00  0.00     0.051 C 
ATOM      2  C   UNL     1      43.949 132.123  16.044  1.00  0.00    -0.016 A 
ATOM      3  C   UNL     1      43.287 132.009  14.796  1.00  0.00     0.045 A 
ATOM      4  Cl  UNL     1      43.687 130.729  13.657  1.00  0.00    -0.084 Cl
ATOM      5  C   UNL     1      42.223 132.883  14.478  1.00  0.00     0.033 A 
ATOM      6  C   UNL     1      41.763 133.829  15.424  1.00  0.00     0.065 A 
ATOM      7  C   UNL     1      42.461 133.935  16.626  1.00  0.00     0.081 A 
ATOM      8  C   UNL     1      43.572 133.177  16.874  1.00  0.00    -0.004 A 
ATOM      9  C   UNL     1      43.964 133.347  18.285  1.00  0.00     0.109 C 
ATOM     10  C   UNL     1      42.811 134.188  18.764  1.00  0.00     0.206 C 
ATOM     11  N   UNL     1      41.995 134.552  17.817  1.00  0.00    -0.216 NA
ATOM     12  C   UNL     1      44.098 131.962  18.916  1.00  0.00     0.019 C 
ATOM     13  C   UNL     1      45.166 131.172  18.130  1.00  0.00     0.014 C 
ENDROOT
BRANCH   1  14
ATOM     14  C   UNL     1      46.138 130.961  15.814  1.00  0.00     0.069 C 
BRANCH  14  15
ATOM     15  C   UNL     1      46.673 129.808  15.407  1.00  0.00     0.273 C 
BRANCH  15  16
ATOM     16  O   UNL     1      48.032 129.748  15.068  1.00  0.00    -0.453 OA
BRANCH  16  17
ATOM     17  C   UNL     1      48.505 129.475  13.756  1.00  0.00     0.322 C 
BRANCH  17  18
ATOM     18  C   UNL     1      47.627 130.128  12.784  1.00  0.00    -0.065 C 
ATOM     19  C   UNL     1      46.903 130.666  11.983  1.00  0.00     0.007 C 
ENDBRANCH  17  18
ENDBRANCH  16  17
ENDBRANCH  15  16
BRANCH  15  20
ATOM     20  O   UNL     1      45.854 128.679  15.330  1.00  0.00    -0.481 OA
ATOM     21  H   UNL     1      46.196 127.781  15.017  1.00  0.00     0.296 HD
ENDBRANCH  15  20
ENDBRANCH  14  15
ENDBRANCH   1  14
BRANCH   6  22
ATOM     22  N   UNL     1      40.593 134.628  15.205  1.00  0.00    -0.058 NA
BRANCH  22  23
ATOM     23  N   UNL     1      39.538 134.146  14.793  1.00  0.00     0.005 N 
ATOM     24  N   UNL     1      38.484 133.666  14.379  1.00  0.00    -0.003 NA
ENDBRANCH  22  23
ENDBRANCH   6  22
BRANCH  10  25
ATOM     25  O   UNL     1      42.667 134.575  20.102  1.00  0.00    -0.410 OA
BRANCH  25  26
ATOM     26  C   UNL     1      43.081 135.804  20.634  1.00  0.00     0.324 C 
ATOM     27  O   UNL     1      42.293 136.787  20.696  1.00  0.00    -0.251 OA
BRANCH  26  28
ATOM     28  C   UNL     1      44.487 135.951  21.149  1.00  0.00     0.201 C 
ATOM     29  C   UNL     1      44.469 136.528  22.570  1.00  0.00     0.030 C 
BRANCH  28  30
ATOM     30  C   UNL     1      45.331 136.816  20.197  1.00  0.00     0.401 C 
ATOM     31  F   UNL     1      45.070 138.162  20.392  1.00  0.00    -0.170 F 
ATOM     32  F   UNL     1      45.041 136.488  18.884  1.00  0.00    -0.170 F 
ATOM     33  F   UNL     1      46.678 136.585  20.420  1.00  0.00    -0.170 F 
ENDBRANCH  28  30
ENDBRANCH  26  28
ENDBRANCH  25  26
ENDBRANCH  10  25
TORSDOF 12
ENDMDL
MODEL 6
REMARK VINA RESULT:      -6.8      3.463      5.276
REMARK SMILES C#CCO/C(O)=C\[C@H]1CC[C@@H]2C(OC(=O)[C@H](C)C(F)(F)F)=Nc3c(N=[N+]=[N-])cc(Cl)c1c32
REMARK SMILES IDX 8 1 31 2 29 3 30 4 28 5 24 6 23 7 32 8 11 9 12 10 22 11
REMARK SMILES IDX 10 12 9 13 7 14 5 15 4 16 3 17 2 18 1 19 6 20 25 22 26 23
REMARK SMILES IDX 27 24 13 25 14 26 15 27 16 28 17 29 18 30 19 31 20 32 21 33
REMARK H PARENT 6 21
ROOT
ATOM      1  C   UNL     1      41.923 133.683  15.281  1.00  0.00     0.051 C 
ATOM      2  C   UNL     1      42.592 133.392  16.621  1.00  0.00    -0.016 A 
ATOM      3  C   UNL     1      42.021 133.773  17.862  1.00  0.00     0.045 A 
ATOM      4  Cl  UNL     1      40.649 134.872  17.943  1.00  0.00    -0.084 Cl
ATOM      5  C   UNL     1      42.499 133.205  19.064  1.00  0.00     0.033 A 
ATOM      6  C   UNL     1      43.497 132.202  19.038  1.00  0.00     0.065 A 
ATOM      7  C   UNL     1      44.058 131.879  17.803  1.00  0.00     0.081 A 
ATOM      8  C   UNL     1      43.685 132.528  16.659  1.00  0.00    -0.004 A 
ATOM      9  C   UNL     1      44.279 131.838  15.499  1.00  0.00     0.109 C 
ATOM     10  C   UNL     1      44.892 130.656  16.201  1.00  0.00     0.206 C 
ATOM     11  N   UNL     1      44.804 130.709  17.499  1.00  0.00    -0.216 NA
ATOM     12  C   UNL     1      43.163 131.526  14.503  1.00  0.00     0.019 C 
ATOM     13  C   UNL     1      42.502 132.856  14.083  1.00  0.00     0.014 C 
ENDROOT
BRANCH   1  14
ATOM     14  C   UNL     1      41.996 135.160  14.973  1.00  0.00     0.069 C 
BRANCH  14  15
ATOM     15  C   UNL     1      40.925 135.956  15.016  1.00  0.00     0.273 C 
BRANCH  15  16
ATOM     16  O   UNL     1      41.056 137.281  15.454  1.00  0.00    -0.453 OA
BRANCH  16  17
ATOM     17  C   UNL     1      42.306 137.906  15.709  1.00  0.00     0.322 C 
BRANCH  17  18
ATOM     18  C   UNL     1      42.561 137.898  17.150  1.00  0.00    -0.065 C 
ATOM     19  C   UNL     1      42.770 137.891  18.338  1.00  0.00     0.007 C 
ENDBRANCH  17  18
ENDBRANCH  16  17
ENDBRANCH  15  16
BRANCH  15  20
ATOM     20  O   UNL     1      39.690 135.439  14.619  1.00  0.00    -0.481 OA
ATOM     21  H   UNL     1      39.597 134.783  13.855  1.00  0.00     0.296 HD
ENDBRANCH  15  20
ENDBRANCH  14  15
ENDBRANCH   1  14
BRANCH   6  22
ATOM     22  N   UNL     1      43.902 131.490  20.214  1.00  0.00    -0.058 NA
BRANCH  22  23
ATOM     23  N   UNL     1      43.301 131.597  21.284  1.00  0.00     0.005 N 
ATOM     24  N   UNL     1      42.699 131.704  22.351  1.00  0.00    -0.003 NA
ENDBRANCH  22  23
ENDBRANCH   6  22
BRANCH  10  25
ATOM     25  O   UNL     1      45.539 129.624  15.511  1.00  0.00    -0.410 OA
BRANCH  25  26
ATOM     26  C   UNL     1      46.850 129.681  15.018  1.00  0.00     0.324 C 
ATOM     27  O   UNL     1      47.823 129.934  15.780  1.00  0.00    -0.251 OA
BRANCH  26  28
ATOM     28  C   UNL     1      47.102 129.427  13.556  1.00  0.00     0.201 C 
ATOM     29  C   UNL     1      48.557 128.994  13.341  1.00  0.00     0.030 C 
BRANCH  28  30
ATOM     30  C   UNL     1      46.749 130.667  12.717  1.00  0.00     0.401 C 
ATOM     31  F   UNL     1      47.404 130.638  11.496  1.00  0.00    -0.170 F 
ATOM     32  F   UNL     1      47.118 131.814  13.396  1.00  0.00    -0.170 F 
ATOM     33  F   UNL     1      45.385 130.710  12.490  1.00  0.00    -0.170 F 
ENDBRANCH  28  30
ENDBRANCH  26  28
ENDBRANCH  25  26
ENDBRANCH  10  25
TORSDOF 12
ENDMDL
MODEL 7
REMARK VINA RESULT:      -6.8      4.221      7.337
REMARK SMILES C#CCO/C(O)=C\[C@H]1CC[C@@H]2C(OC(=O)[C@H](C)C(F)(F)F)=Nc3c(N=[N+]=[N-])cc(Cl)c1c32
REMARK SMILES IDX 8 1 31 2 29 3 30 4 28 5 24 6 23 7 32 8 11 9 12 10 22 11
REMARK SMILES IDX 10 12 9 13 7 14 5 15 4 16 3 17 2 18 1 19 6 20 25 22 26 23
REMARK SMILES IDX 27 24 13 25 14 26 15 27 16 28 17 29 18 30 19 31 20 32 21 33
REMARK H PARENT 6 21
ROOT
ATOM      1  C   UNL     1      44.905 131.681  17.269  1.00  0.00     0.051 C 
ATOM      2  C   UNL     1      44.031 131.818  18.512  1.00  0.00    -0.016 A 
ATOM      3  C   UNL     1      44.522 131.599  19.823  1.00  0.00     0.045 A 
ATOM      4  Cl  UNL     1      46.096 130.863  20.104  1.00  0.00    -0.084 Cl
ATOM      5  C   UNL     1      43.782 132.049  20.940  1.00  0.00     0.033 A 
ATOM      6  C   UNL     1      42.586 132.782  20.761  1.00  0.00     0.065 A 
ATOM      7  C   UNL     1      42.116 132.948  19.459  1.00  0.00     0.081 A 
ATOM      8  C   UNL     1      42.767 132.394  18.391  1.00  0.00    -0.004 A 
ATOM      9  C   UNL     1      42.170 132.908  17.145  1.00  0.00     0.109 C 
ATOM     10  C   UNL     1      41.214 133.916  17.725  1.00  0.00     0.206 C 
ATOM     11  N   UNL     1      41.156 133.901  19.026  1.00  0.00    -0.216 NA
ATOM     12  C   UNL     1      43.291 133.469  16.270  1.00  0.00     0.019 C 
ATOM     13  C   UNL     1      44.294 132.331  15.982  1.00  0.00     0.014 C 
ENDROOT
BRANCH   1  14
ATOM     14  C   UNL     1      45.222 130.227  17.014  1.00  0.00     0.069 C 
BRANCH  14  15
ATOM     15  C   UNL     1      46.020 129.829  16.020  1.00  0.00     0.273 C 
BRANCH  15  16
ATOM     16  O   UNL     1      45.464 129.386  14.812  1.00  0.00    -0.453 OA
BRANCH  16  17
ATOM     17  C   UNL     1      45.214 130.235  13.701  1.00  0.00     0.322 C 
BRANCH  17  18
ATOM     18  C   UNL     1      46.481 130.540  13.035  1.00  0.00    -0.065 C 
ATOM     19  C   UNL     1      47.526 130.791  12.488  1.00  0.00     0.007 C 
ENDBRANCH  17  18
ENDBRANCH  16  17
ENDBRANCH  15  16
BRANCH  15  20
ATOM     20  O   UNL     1      47.402 129.868  16.214  1.00  0.00    -0.481 OA
ATOM     21  H   UNL     1      47.892 129.174  16.760  1.00  0.00     0.296 HD
ENDBRANCH  15  20
ENDBRANCH  14  15
ENDBRANCH   1  14
BRANCH   6  22
ATOM     22  N   UNL     1      41.886 133.390  21.854  1.00  0.00    -0.058 NA
BRANCH  22  23
ATOM     23  N   UNL     1      42.273 133.285  23.019  1.00  0.00     0.005 N 
ATOM     24  N   UNL     1      42.657 133.180  24.183  1.00  0.00    -0.003 NA
ENDBRANCH  22  23
ENDBRANCH   6  22
BRANCH  10  25
ATOM     25  O   UNL     1      40.428 134.755  16.926  1.00  0.00    -0.410 OA
BRANCH  25  26
ATOM     26  C   UNL     1      40.556 136.149  16.851  1.00  0.00     0.324 C 
ATOM     27  O   UNL     1      40.236 136.887  17.822  1.00  0.00    -0.251 OA
BRANCH  26  28
ATOM     28  C   UNL     1      41.095 136.776  15.593  1.00  0.00     0.201 C 
ATOM     29  C   UNL     1      41.077 135.756  14.449  1.00  0.00     0.030 C 
BRANCH  28  30
ATOM     30  C   UNL     1      42.506 137.343  15.826  1.00  0.00     0.401 C 
ATOM     31  F   UNL     1      43.194 136.584  16.758  1.00  0.00    -0.170 F 
ATOM     32  F   UNL     1      42.418 138.645  16.285  1.00  0.00    -0.170 F 
ATOM     33  F   UNL     1      43.215 137.342  14.637  1.00  0.00    -0.170 F 
ENDBRANCH  28  30
ENDBRANCH  26  28
ENDBRANCH  25  26
ENDBRANCH  10  25
TORSDOF 12
ENDMDL
MODEL 8
REMARK VINA RESULT:      -6.8      4.350      7.470
REMARK SMILES C#CCO/C(O)=C\[C@H]1CC[C@@H]2C(OC(=O)[C@H](C)C(F)(F)F)=Nc3c(N=[N+]=[N-])cc(Cl)c1c32
REMARK SMILES IDX 8 1 31 2 29 3 30 4 28 5 24 6 23 7 32 8 11 9 12 10 22 11
REMARK SMILES IDX 10 12 9 13 7 14 5 15 4 16 3 17 2 18 1 19 6 20 25 22 26 23
REMARK SMILES IDX 27 24 13 25 14 26 15 27 16 28 17 29 18 30 19 31 20 32 21 33
REMARK H PARENT 6 21
ROOT
ATOM      1  C   UNL     1      45.398 131.328  16.785  1.00  0.00     0.051 C 
ATOM      2  C   UNL     1      44.315 131.576  17.831  1.00  0.00    -0.016 A 
ATOM      3  C   UNL     1      44.568 131.521  19.225  1.00  0.00     0.045 A 
ATOM      4  Cl  UNL     1      46.075 130.871  19.861  1.00  0.00    -0.084 Cl
ATOM      5  C   UNL     1      43.636 132.070  20.134  1.00  0.00     0.033 A 
ATOM      6  C   UNL     1      42.483 132.741  19.665  1.00  0.00     0.065 A 
ATOM      7  C   UNL     1      42.250 132.744  18.290  1.00  0.00     0.081 A 
ATOM      8  C   UNL     1      43.087 132.095  17.425  1.00  0.00    -0.004 A 
ATOM      9  C   UNL     1      42.715 132.446  16.042  1.00  0.00     0.109 C 
ATOM     10  C   UNL     1      41.660 133.482  16.324  1.00  0.00     0.206 C 
ATOM     11  N   UNL     1      41.372 133.611  17.588  1.00  0.00    -0.216 NA
ATOM     12  C   UNL     1      43.967 132.940  15.318  1.00  0.00     0.019 C 
ATOM     13  C   UNL     1      45.019 131.809  15.344  1.00  0.00     0.014 C 
ENDROOT
BRANCH   1  14
ATOM     14  C   UNL     1      45.771 129.864  16.761  1.00  0.00     0.069 C 
BRANCH  14  15
ATOM     15  C   UNL     1      45.631 129.106  15.671  1.00  0.00     0.273 C 
BRANCH  15  16
ATOM     16  O   UNL     1      46.038 129.595  14.422  1.00  0.00    -0.453 OA
BRANCH  16  17
ATOM     17  C   UNL     1      47.351 129.433  13.904  1.00  0.00     0.322 C 
BRANCH  17  18
ATOM     18  C   UNL     1      47.445 130.117  12.613  1.00  0.00    -0.065 C 
ATOM     19  C   UNL     1      47.521 130.679  11.549  1.00  0.00     0.007 C 
ENDBRANCH  17  18
ENDBRANCH  16  17
ENDBRANCH  15  16
BRANCH  15  20
ATOM     20  O   UNL     1      45.075 127.832  15.807  1.00  0.00    -0.481 OA
ATOM     21  H   UNL     1      45.428 127.155  16.470  1.00  0.00     0.296 HD
ENDBRANCH  15  20
ENDBRANCH  14  15
ENDBRANCH   1  14
BRANCH   6  22
ATOM     22  N   UNL     1      41.593 133.445  20.540  1.00  0.00    -0.058 NA
BRANCH  22  23
ATOM     23  N   UNL     1      41.944 134.448  21.163  1.00  0.00     0.005 N 
ATOM     24  N   UNL     1      42.292 135.450  21.785  1.00  0.00    -0.003 NA
ENDBRANCH  22  23
ENDBRANCH   6  22
BRANCH  10  25
ATOM     25  O   UNL     1      41.020 134.201  15.307  1.00  0.00    -0.410 OA
BRANCH  25  26
ATOM     26  C   UNL     1      39.724 133.950  14.836  1.00  0.00     0.324 C 
ATOM     27  O   UNL     1      39.507 133.064  13.964  1.00  0.00    -0.251 OA
BRANCH  26  28
ATOM     28  C   UNL     1      38.570 134.744  15.386  1.00  0.00     0.201 C 
ATOM     29  C   UNL     1      37.315 134.504  14.538  1.00  0.00     0.030 C 
BRANCH  28  30
ATOM     30  C   UNL     1      38.923 136.239  15.466  1.00  0.00     0.401 C 
ATOM     31  F   UNL     1      39.797 136.483  16.512  1.00  0.00    -0.170 F 
ATOM     32  F   UNL     1      37.773 136.983  15.658  1.00  0.00    -0.170 F 
ATOM     33  F   UNL     1      39.517 136.646  14.284  1.00  0.00    -0.170 F 
ENDBRANCH  28  30
ENDBRANCH  26  28
ENDBRANCH  25  26
ENDBRANCH  10  25
TORSDOF 12
ENDMDL
MODEL 9
REMARK VINA RESULT:      -6.8      3.583      6.074
REMARK SMILES C#CCO/C(O)=C\[C@H]1CC[C@@H]2C(OC(=O)[C@H](C)C(F)(F)F)=Nc3c(N=[N+]=[N-])cc(Cl)c1c32
REMARK SMILES IDX 8 1 31 2 29 3 30 4 28 5 24 6 23 7 32 8 11 9 12 10 22 11
REMARK SMILES IDX 10 12 9 13 7 14 5 15 4 16 3 17 2 18 1 19 6 20 25 22 26 23
REMARK SMILES IDX 27 24 13 25 14 26 15 27 16 28 17 29 18 30 19 31 20 32 21 33
REMARK H PARENT 6 21
ROOT
ATOM      1  C   UNL     1      41.777 134.456  15.748  1.00  0.00     0.051 C 
ATOM      2  C   UNL     1      42.566 134.324  17.047  1.00  0.00    -0.016 A 
ATOM      3  C   UNL     1      42.121 134.877  18.275  1.00  0.00     0.045 A 
ATOM      4  Cl  UNL     1      40.777 136.011  18.338  1.00  0.00    -0.084 Cl
ATOM      5  C   UNL     1      42.704 134.456  19.491  1.00  0.00     0.033 A 
ATOM      6  C   UNL     1      43.681 133.433  19.505  1.00  0.00     0.065 A 
ATOM      7  C   UNL     1      44.118 132.939  18.277  1.00  0.00     0.081 A 
ATOM      8  C   UNL     1      43.646 133.444  17.097  1.00  0.00    -0.004 A 
ATOM      9  C   UNL     1      44.118 132.596  15.988  1.00  0.00     0.109 C 
ATOM     10  C   UNL     1      44.780 131.499  16.779  1.00  0.00     0.206 C 
ATOM     11  N   UNL     1      44.816 131.721  18.061  1.00  0.00    -0.216 NA
ATOM     12  C   UNL     1      42.909 132.186  15.148  1.00  0.00     0.019 C 
ATOM     13  C   UNL     1      42.228 133.467  14.621  1.00  0.00     0.014 C 
ENDROOT
BRANCH   1  14
ATOM     14  C   UNL     1      41.840 135.879  15.244  1.00  0.00     0.069 C 
BRANCH  14  15
ATOM     15  C   UNL     1      40.854 136.434  14.536  1.00  0.00     0.273 C 
BRANCH  15  16
ATOM     16  O   UNL     1      40.210 135.693  13.535  1.00  0.00    -0.453 OA
BRANCH  16  17
ATOM     17  C   UNL     1      38.808 135.464  13.504  1.00  0.00     0.322 C 
BRANCH  17  18
ATOM     18  C   UNL     1      38.392 134.862  14.772  1.00  0.00    -0.065 C 
ATOM     19  C   UNL     1      38.049 134.364  15.816  1.00  0.00     0.007 C 
ENDBRANCH  17  18
ENDBRANCH  16  17
ENDBRANCH  15  16
BRANCH  15  20
ATOM     20  O   UNL     1      40.487 137.752  14.815  1.00  0.00    -0.481 OA
ATOM     21  H   UNL     1      40.435 138.112  15.758  1.00  0.00     0.296 HD
ENDBRANCH  15  20
ENDBRANCH  14  15
ENDBRANCH   1  14
BRANCH   6  22
ATOM     22  N   UNL     1      44.186 132.869  20.722  1.00  0.00    -0.058 NA
BRANCH  22  23
ATOM     23  N   UNL     1      43.709 131.848  21.218  1.00  0.00     0.005 N 
ATOM     24  N   UNL     1      43.232 130.828  21.715  1.00  0.00    -0.003 NA
ENDBRANCH  22  23
ENDBRANCH   6  22
BRANCH  10  25
ATOM     25  O   UNL     1      45.344 130.370  16.173  1.00  0.00    -0.410 OA
BRANCH  25  26
ATOM     26  C   UNL     1      46.394 130.393  15.244  1.00  0.00     0.324 C 
ATOM     27  O   UNL     1      47.541 129.963  15.545  1.00  0.00    -0.251 OA
BRANCH  26  28
ATOM     28  C   UNL     1      46.145 130.931  13.860  1.00  0.00     0.201 C 
ATOM     29  C   UNL     1      44.795 130.429  13.337  1.00  0.00     0.030 C 
BRANCH  28  30
ATOM     30  C   UNL     1      47.296 130.554  12.912  1.00  0.00     0.401 C 
ATOM     31  F   UNL     1      48.370 131.413  13.075  1.00  0.00    -0.170 F 
ATOM     32  F   UNL     1      46.864 130.620  11.599  1.00  0.00    -0.170 F 
ATOM     33  F   UNL     1      47.716 129.260  13.171  1.00  0.00    -0.170 F 
ENDBRANCH  28  30
ENDBRANCH  26  28
ENDBRANCH  25  26
ENDBRANCH  10  25
TORSDOF 12
ENDMDL


