MODEL 1
REMARK VINA RESULT:      -7.7      0.000      0.000
REMARK SMILES CC/C=C(/O)OC1=NC(=O)c2ccc(-n3cc(CCc4ccc(F)cc4C)n[nH+]3)c3cccc1c23
REMARK SMILES IDX 7 1 8 2 9 3 10 4 11 5 12 6 13 7 14 8 30 9 31 10 32 11 33 12
REMARK SMILES IDX 34 13 35 14 6 15 4 16 5 17 3 19 2 20 1 21 15 22 16 23 29 24
REMARK SMILES IDX 17 25 28 26 18 28 19 29 20 30 21 31 26 32 22 33 25 34 23 35
REMARK SMILES IDX 27 36 24 37
REMARK H PARENT 5 18 29 27
ROOT
ATOM      1  C   UNL     1      45.227 131.741  16.294  1.00  0.00     0.234 C 
ATOM      2  N   UNL     1      45.723 131.083  17.303  1.00  0.00    -0.172 NA
ATOM      3  C   UNL     1      45.144 131.136  18.612  1.00  0.00     0.280 C 
ATOM      4  O   UNL     1      45.665 130.477  19.550  1.00  0.00    -0.267 OA
ATOM      5  C   UNL     1      43.942 131.964  18.836  1.00  0.00     0.051 A 
ATOM      6  C   UNL     1      43.325 132.037  20.092  1.00  0.00     0.017 A 
ATOM      7  C   UNL     1      42.192 132.830  20.273  1.00  0.00     0.034 A 
ATOM      8  C   UNL     1      41.658 133.571  19.210  1.00  0.00     0.115 A 
ATOM      9  C   UNL     1      42.254 133.488  17.930  1.00  0.00     0.013 A 
ATOM     10  C   UNL     1      41.713 134.162  16.818  1.00  0.00     0.011 A 
ATOM     11  C   UNL     1      42.314 134.057  15.563  1.00  0.00     0.002 A 
ATOM     12  C   UNL     1      43.459 133.279  15.391  1.00  0.00     0.014 A 
ATOM     13  C   UNL     1      44.015 132.585  16.476  1.00  0.00     0.046 A 
ATOM     14  C   UNL     1      43.407 132.681  17.749  1.00  0.00     0.009 A 
ENDROOT
BRANCH   1  15
ATOM     15  O   UNL     1      45.815 131.660  15.023  1.00  0.00    -0.407 OA
BRANCH  15  16
ATOM     16  C   UNL     1      45.810 130.534  14.187  1.00  0.00     0.279 C 
BRANCH  16  17
ATOM     17  O   UNL     1      45.342 129.303  14.652  1.00  0.00    -0.481 OA
ATOM     18  H   UNL     1      45.598 128.428  14.209  1.00  0.00     0.296 HD
ENDBRANCH  16  17
BRANCH  16  19
ATOM     19  C   UNL     1      46.273 130.639  12.936  1.00  0.00     0.061 C 
BRANCH  19  20
ATOM     20  C   UNL     1      47.548 129.981  12.483  1.00  0.00     0.031 C 
ATOM     21  C   UNL     1      48.450 129.638  13.667  1.00  0.00     0.008 C 
ENDBRANCH  19  20
ENDBRANCH  16  19
ENDBRANCH  15  16
ENDBRANCH   1  15
BRANCH   8  22
ATOM     22  N   UNL     1      40.506 134.388  19.448  1.00  0.00    -0.104 N 
ATOM     23  C   UNL     1      39.261 134.160  19.000  1.00  0.00     0.190 A 
ATOM     24  N   UNL     1      40.499 135.528  20.120  1.00  0.00    -0.012 N 
ATOM     25  C   UNL     1      38.501 135.231  19.426  1.00  0.00     0.133 A 
ATOM     26  N   UNL     1      39.293 136.078  20.116  1.00  0.00     0.020 NA
ATOM     27  H   UNL     1      41.336 135.956  20.576  1.00  0.00     0.527 HD
BRANCH  25  28
ATOM     28  C   UNL     1      37.087 135.525  19.026  1.00  0.00     0.069 C 
BRANCH  28  29
ATOM     29  C   UNL     1      37.013 136.601  17.930  1.00  0.00     0.042 C 
BRANCH  29  30
ATOM     30  C   UNL     1      37.529 136.096  16.595  1.00  0.00    -0.044 A 
ATOM     31  C   UNL     1      36.768 135.133  15.908  1.00  0.00     0.007 A 
ATOM     32  C   UNL     1      38.777 136.507  16.052  1.00  0.00    -0.045 A 
ATOM     33  C   UNL     1      37.233 134.573  14.718  1.00  0.00     0.039 A 
ATOM     34  C   UNL     1      39.228 135.930  14.851  1.00  0.00     0.043 A 
ATOM     35  C   UNL     1      38.462 134.967  14.192  1.00  0.00     0.123 A 
ATOM     36  C   UNL     1      39.625 137.563  16.712  1.00  0.00     0.045 C 
ATOM     37  F   UNL     1      38.913 134.416  13.038  1.00  0.00    -0.207 F 
ENDBRANCH  29  30
ENDBRANCH  28  29
ENDBRANCH  25  28
ENDBRANCH   8  22
TORSDOF 9
ENDMDL
MODEL 2
REMARK VINA RESULT:      -7.4      1.490      1.769
REMARK SMILES CC/C=C(/O)OC1=NC(=O)c2ccc(-n3cc(CCc4ccc(F)cc4C)n[nH+]3)c3cccc1c23
REMARK SMILES IDX 7 1 8 2 9 3 10 4 11 5 12 6 13 7 14 8 30 9 31 10 32 11 33 12
REMARK SMILES IDX 34 13 35 14 6 15 4 16 5 17 3 19 2 20 1 21 15 22 16 23 29 24
REMARK SMILES IDX 17 25 28 26 18 28 19 29 20 30 21 31 26 32 22 33 25 34 23 35
REMARK SMILES IDX 27 36 24 37
REMARK H PARENT 5 18 29 27
ROOT
ATOM      1  C   UNL     1      45.137 131.081  17.082  1.00  0.00     0.234 C 
ATOM      2  N   UNL     1      45.514 130.787  18.294  1.00  0.00    -0.172 NA
ATOM      3  C   UNL     1      45.082 131.537  19.435  1.00  0.00     0.280 C 
ATOM      4  O   UNL     1      45.477 131.206  20.584  1.00  0.00    -0.267 OA
ATOM      5  C   UNL     1      44.178 132.688  19.241  1.00  0.00     0.051 A 
ATOM      6  C   UNL     1      43.711 133.445  20.323  1.00  0.00     0.017 A 
ATOM      7  C   UNL     1      42.859 134.529  20.108  1.00  0.00     0.034 A 
ATOM      8  C   UNL     1      42.465 134.883  18.811  1.00  0.00     0.115 A 
ATOM      9  C   UNL     1      42.907 134.114  17.709  1.00  0.00     0.013 A 
ATOM     10  C   UNL     1      42.483 134.392  16.395  1.00  0.00     0.011 A 
ATOM     11  C   UNL     1      42.926 133.613  15.327  1.00  0.00     0.002 A 
ATOM     12  C   UNL     1      43.794 132.543  15.544  1.00  0.00     0.014 A 
ATOM     13  C   UNL     1      44.224 132.231  16.843  1.00  0.00     0.046 A 
ATOM     14  C   UNL     1      43.773 133.012  17.931  1.00  0.00     0.009 A 
ENDROOT
BRANCH   1  15
ATOM     15  O   UNL     1      45.574 130.319  15.989  1.00  0.00    -0.407 OA
BRANCH  15  16
ATOM     16  C   UNL     1      46.881 130.285  15.482  1.00  0.00     0.279 C 
BRANCH  16  17
ATOM     17  O   UNL     1      47.840 129.440  16.043  1.00  0.00    -0.481 OA
ATOM     18  H   UNL     1      48.704 129.795  16.440  1.00  0.00     0.296 HD
ENDBRANCH  16  17
BRANCH  16  19
ATOM     19  C   UNL     1      47.213 131.082  14.459  1.00  0.00     0.061 C 
BRANCH  19  20
ATOM     20  C   UNL     1      46.864 130.760  13.032  1.00  0.00     0.031 C 
ATOM     21  C   UNL     1      45.364 130.526  12.863  1.00  0.00     0.008 C 
ENDBRANCH  19  20
ENDBRANCH  16  19
ENDBRANCH  15  16
ENDBRANCH   1  15
BRANCH   8  22
ATOM     22  N   UNL     1      41.606 136.016  18.635  1.00  0.00    -0.104 N 
ATOM     23  C   UNL     1      40.266 135.995  18.543  1.00  0.00     0.190 A 
ATOM     24  N   UNL     1      42.008 137.270  18.495  1.00  0.00    -0.012 N 
ATOM     25  C   UNL     1      39.879 137.302  18.326  1.00  0.00     0.133 A 
ATOM     26  N   UNL     1      40.980 138.082  18.292  1.00  0.00     0.020 NA
ATOM     27  H   UNL     1      43.004 137.581  18.518  1.00  0.00     0.527 HD
BRANCH  25  28
ATOM     28  C   UNL     1      38.497 137.767  17.980  1.00  0.00     0.069 C 
BRANCH  28  29
ATOM     29  C   UNL     1      38.343 138.034  16.473  1.00  0.00     0.042 C 
BRANCH  29  30
ATOM     30  C   UNL     1      38.429 136.760  15.654  1.00  0.00    -0.044 A 
ATOM     31  C   UNL     1      37.357 135.851  15.720  1.00  0.00     0.007 A 
ATOM     32  C   UNL     1      39.574 136.422  14.882  1.00  0.00    -0.045 A 
ATOM     33  C   UNL     1      37.417 134.628  15.053  1.00  0.00     0.039 A 
ATOM     34  C   UNL     1      39.614 135.183  14.217  1.00  0.00     0.043 A 
ATOM     35  C   UNL     1      38.545 134.292  14.307  1.00  0.00     0.123 A 
ATOM     36  C   UNL     1      40.741 137.364  14.732  1.00  0.00     0.045 C 
ATOM     37  F   UNL     1      38.601 133.099  13.665  1.00  0.00    -0.207 F 
ENDBRANCH  29  30
ENDBRANCH  28  29
ENDBRANCH  25  28
ENDBRANCH   8  22
TORSDOF 9
ENDMDL
MODEL 3
REMARK VINA RESULT:      -6.7      3.462      5.239
REMARK SMILES CC/C=C(/O)OC1=NC(=O)c2ccc(-n3cc(CCc4ccc(F)cc4C)n[nH+]3)c3cccc1c23
REMARK SMILES IDX 7 1 8 2 9 3 10 4 11 5 12 6 13 7 14 8 30 9 31 10 32 11 33 12
REMARK SMILES IDX 34 13 35 14 6 15 4 16 5 17 3 19 2 20 1 21 15 22 16 23 29 24
REMARK SMILES IDX 17 25 28 26 18 28 19 29 20 30 21 31 26 32 22 33 25 34 23 35
REMARK SMILES IDX 27 36 24 37
REMARK H PARENT 5 18 29 27
ROOT
ATOM      1  C   UNL     1      44.913 130.460  15.849  1.00  0.00     0.234 C 
ATOM      2  N   UNL     1      44.093 130.852  14.917  1.00  0.00    -0.172 NA
ATOM      3  C   UNL     1      43.035 131.783  15.169  1.00  0.00     0.280 C 
ATOM      4  O   UNL     1      42.272 132.129  14.227  1.00  0.00    -0.267 OA
ATOM      5  C   UNL     1      42.857 132.322  16.532  1.00  0.00     0.051 A 
ATOM      6  C   UNL     1      41.849 133.249  16.830  1.00  0.00     0.017 A 
ATOM      7  C   UNL     1      41.705 133.738  18.128  1.00  0.00     0.034 A 
ATOM      8  C   UNL     1      42.555 133.307  19.154  1.00  0.00     0.115 A 
ATOM      9  C   UNL     1      43.594 132.390  18.866  1.00  0.00     0.013 A 
ATOM     10  C   UNL     1      44.514 131.981  19.851  1.00  0.00     0.011 A 
ATOM     11  C   UNL     1      45.535 131.084  19.538  1.00  0.00     0.002 A 
ATOM     12  C   UNL     1      45.663 130.581  18.243  1.00  0.00     0.014 A 
ATOM     13  C   UNL     1      44.772 130.981  17.236  1.00  0.00     0.046 A 
ATOM     14  C   UNL     1      43.738 131.895  17.544  1.00  0.00     0.009 A 
ENDROOT
BRANCH   1  15
ATOM     15  O   UNL     1      45.945 129.553  15.565  1.00  0.00    -0.407 OA
BRANCH  15  16
ATOM     16  C   UNL     1      47.006 129.770  14.674  1.00  0.00     0.279 C 
BRANCH  16  17
ATOM     17  O   UNL     1      47.751 128.698  14.180  1.00  0.00    -0.481 OA
ATOM     18  H   UNL     1      48.578 128.352  14.656  1.00  0.00     0.296 HD
ENDBRANCH  16  17
BRANCH  16  19
ATOM     19  C   UNL     1      47.315 131.019  14.308  1.00  0.00     0.061 C 
BRANCH  19  20
ATOM     20  C   UNL     1      47.836 131.359  12.938  1.00  0.00     0.031 C 
ATOM     21  C   UNL     1      47.134 130.541  11.855  1.00  0.00     0.008 C 
ENDBRANCH  19  20
ENDBRANCH  16  19
ENDBRANCH  15  16
ENDBRANCH   1  15
BRANCH   8  22
ATOM     22  N   UNL     1      42.357 133.820  20.477  1.00  0.00    -0.104 N 
ATOM     23  C   UNL     1      42.866 134.959  20.975  1.00  0.00     0.190 A 
ATOM     24  N   UNL     1      41.667 133.223  21.436  1.00  0.00    -0.012 N 
ATOM     25  C   UNL     1      42.457 135.014  22.293  1.00  0.00     0.133 A 
ATOM     26  N   UNL     1      41.716 133.918  22.564  1.00  0.00     0.020 NA
ATOM     27  H   UNL     1      41.166 132.313  21.331  1.00  0.00     0.527 HD
BRANCH  25  28
ATOM     28  C   UNL     1      42.916 136.004  23.319  1.00  0.00     0.069 C 
BRANCH  28  29
ATOM     29  C   UNL     1      42.285 137.390  23.100  1.00  0.00     0.042 C 
BRANCH  29  30
ATOM     30  C   UNL     1      40.771 137.351  23.194  1.00  0.00    -0.044 A 
ATOM     31  C   UNL     1      40.188 137.062  24.441  1.00  0.00     0.007 A 
ATOM     32  C   UNL     1      39.929 137.527  22.063  1.00  0.00    -0.045 A 
ATOM     33  C   UNL     1      38.805 136.932  24.570  1.00  0.00     0.039 A 
ATOM     34  C   UNL     1      38.537 137.392  22.213  1.00  0.00     0.043 A 
ATOM     35  C   UNL     1      37.981 137.093  23.457  1.00  0.00     0.123 A 
ATOM     36  C   UNL     1      40.480 137.879  20.705  1.00  0.00     0.045 C 
ATOM     37  F   UNL     1      36.637 136.961  23.585  1.00  0.00    -0.207 F 
ENDBRANCH  29  30
ENDBRANCH  28  29
ENDBRANCH  25  28
ENDBRANCH   8  22
TORSDOF 9
ENDMDL
MODEL 4
REMARK VINA RESULT:      -6.5      2.736      3.809
REMARK SMILES CC/C=C(/O)OC1=NC(=O)c2ccc(-n3cc(CCc4ccc(F)cc4C)n[nH+]3)c3cccc1c23
REMARK SMILES IDX 7 1 8 2 9 3 10 4 11 5 12 6 13 7 14 8 30 9 31 10 32 11 33 12
REMARK SMILES IDX 34 13 35 14 6 15 4 16 5 17 3 19 2 20 1 21 15 22 16 23 29 24
REMARK SMILES IDX 17 25 28 26 18 28 19 29 20 30 21 31 26 32 22 33 25 34 23 35
REMARK SMILES IDX 27 36 24 37
REMARK H PARENT 5 18 29 27
ROOT
ATOM      1  C   UNL     1      45.051 130.793  16.659  1.00  0.00     0.234 C 
ATOM      2  N   UNL     1      45.470 130.615  17.879  1.00  0.00    -0.172 NA
ATOM      3  C   UNL     1      44.904 131.312  18.994  1.00  0.00     0.280 C 
ATOM      4  O   UNL     1      45.348 131.097  20.153  1.00  0.00    -0.267 OA
ATOM      5  C   UNL     1      43.807 132.272  18.762  1.00  0.00     0.051 A 
ATOM      6  C   UNL     1      43.205 132.968  19.819  1.00  0.00     0.017 A 
ATOM      7  C   UNL     1      42.171 133.871  19.569  1.00  0.00     0.034 A 
ATOM      8  C   UNL     1      41.725 134.103  18.261  1.00  0.00     0.115 A 
ATOM      9  C   UNL     1      42.304 133.390  17.186  1.00  0.00     0.013 A 
ATOM     10  C   UNL     1      41.842 133.542  15.864  1.00  0.00     0.011 A 
ATOM     11  C   UNL     1      42.424 132.820  14.822  1.00  0.00     0.002 A 
ATOM     12  C   UNL     1      43.471 131.934  15.074  1.00  0.00     0.014 A 
ATOM     13  C   UNL     1      43.945 131.749  16.382  1.00  0.00     0.046 A 
ATOM     14  C   UNL     1      43.355 132.473  17.444  1.00  0.00     0.009 A 
ENDROOT
BRANCH   1  15
ATOM     15  O   UNL     1      45.623 130.087  15.591  1.00  0.00    -0.407 OA
BRANCH  15  16
ATOM     16  C   UNL     1      46.905 130.296  15.062  1.00  0.00     0.279 C 
BRANCH  16  17
ATOM     17  O   UNL     1      47.940 129.396  15.327  1.00  0.00    -0.481 OA
ATOM     18  H   UNL     1      48.767 129.665  15.848  1.00  0.00     0.296 HD
ENDBRANCH  16  17
BRANCH  16  19
ATOM     19  C   UNL     1      47.140 131.376  14.308  1.00  0.00     0.061 C 
BRANCH  19  20
ATOM     20  C   UNL     1      47.840 131.303  12.979  1.00  0.00     0.031 C 
ATOM     21  C   UNL     1      47.119 130.356  12.020  1.00  0.00     0.008 C 
ENDBRANCH  19  20
ENDBRANCH  16  19
ENDBRANCH  15  16
ENDBRANCH   1  15
BRANCH   8  22
ATOM     22  N   UNL     1      40.675 135.055  18.049  1.00  0.00    -0.104 N 
ATOM     23  C   UNL     1      40.825 136.366  17.803  1.00  0.00     0.190 A 
ATOM     24  N   UNL     1      39.379 134.792  18.103  1.00  0.00    -0.012 N 
ATOM     25  C   UNL     1      39.549 136.887  17.724  1.00  0.00     0.133 A 
ATOM     26  N   UNL     1      38.660 135.890  17.921  1.00  0.00     0.020 NA
ATOM     27  H   UNL     1      38.969 133.848  18.286  1.00  0.00     0.527 HD
BRANCH  25  28
ATOM     28  C   UNL     1      39.192 138.340  17.640  1.00  0.00     0.069 C 
BRANCH  28  29
ATOM     29  C   UNL     1      39.504 139.084  18.950  1.00  0.00     0.042 C 
BRANCH  29  30
ATOM     30  C   UNL     1      38.701 138.546  20.120  1.00  0.00    -0.044 A 
ATOM     31  C   UNL     1      37.317 138.796  20.148  1.00  0.00     0.007 A 
ATOM     32  C   UNL     1      39.302 137.864  21.212  1.00  0.00    -0.045 A 
ATOM     33  C   UNL     1      36.541 138.398  21.237  1.00  0.00     0.039 A 
ATOM     34  C   UNL     1      38.503 137.471  22.301  1.00  0.00     0.043 A 
ATOM     35  C   UNL     1      37.134 137.740  22.314  1.00  0.00     0.123 A 
ATOM     36  C   UNL     1      40.770 137.527  21.232  1.00  0.00     0.045 C 
ATOM     37  F   UNL     1      36.378 137.359  23.373  1.00  0.00    -0.207 F 
ENDBRANCH  29  30
ENDBRANCH  28  29
ENDBRANCH  25  28
ENDBRANCH   8  22
TORSDOF 9
ENDMDL
MODEL 5
REMARK VINA RESULT:      -6.4      1.365      1.523
REMARK SMILES CC/C=C(/O)OC1=NC(=O)c2ccc(-n3cc(CCc4ccc(F)cc4C)n[nH+]3)c3cccc1c23
REMARK SMILES IDX 7 1 8 2 9 3 10 4 11 5 12 6 13 7 14 8 30 9 31 10 32 11 33 12
REMARK SMILES IDX 34 13 35 14 6 15 4 16 5 17 3 19 2 20 1 21 15 22 16 23 29 24
REMARK SMILES IDX 17 25 28 26 18 28 19 29 20 30 21 31 26 32 22 33 25 34 23 35
REMARK SMILES IDX 27 36 24 37
REMARK H PARENT 5 18 29 27
ROOT
ATOM      1  C   UNL     1      44.904 130.927  16.558  1.00  0.00     0.234 C 
ATOM      2  N   UNL     1      45.533 130.637  17.662  1.00  0.00    -0.172 NA
ATOM      3  C   UNL     1      45.330 131.369  18.875  1.00  0.00     0.280 C 
ATOM      4  O   UNL     1      45.964 131.042  19.913  1.00  0.00    -0.267 OA
ATOM      5  C   UNL     1      44.377 132.497  18.886  1.00  0.00     0.051 A 
ATOM      6  C   UNL     1      44.128 133.236  20.050  1.00  0.00     0.017 A 
ATOM      7  C   UNL     1      43.223 134.298  20.029  1.00  0.00     0.034 A 
ATOM      8  C   UNL     1      42.559 134.649  18.846  1.00  0.00     0.115 A 
ATOM      9  C   UNL     1      42.781 133.898  17.668  1.00  0.00     0.013 A 
ATOM     10  C   UNL     1      42.085 134.172  16.474  1.00  0.00     0.011 A 
ATOM     11  C   UNL     1      42.315 133.410  15.329  1.00  0.00     0.002 A 
ATOM     12  C   UNL     1      43.235 132.362  15.350  1.00  0.00     0.014 A 
ATOM     13  C   UNL     1      43.933 132.054  16.526  1.00  0.00     0.046 A 
ATOM     14  C   UNL     1      43.701 132.818  17.693  1.00  0.00     0.009 A 
ENDROOT
BRANCH   1  15
ATOM     15  O   UNL     1      45.122 130.183  15.390  1.00  0.00    -0.407 OA
BRANCH  15  16
ATOM     16  C   UNL     1      45.681 130.669  14.199  1.00  0.00     0.279 C 
BRANCH  16  17
ATOM     17  O   UNL     1      44.992 130.556  12.990  1.00  0.00    -0.481 OA
ATOM     18  H   UNL     1      44.272 129.857  12.845  1.00  0.00     0.296 HD
ENDBRANCH  16  17
BRANCH  16  19
ATOM     19  C   UNL     1      46.894 131.235  14.223  1.00  0.00     0.061 C 
BRANCH  19  20
ATOM     20  C   UNL     1      47.923 130.995  13.151  1.00  0.00     0.031 C 
ATOM     21  C   UNL     1      48.473 129.571  13.213  1.00  0.00     0.008 C 
ENDBRANCH  19  20
ENDBRANCH  16  19
ENDBRANCH  15  16
ENDBRANCH   1  15
BRANCH   8  22
ATOM     22  N   UNL     1      41.655 135.760  18.866  1.00  0.00    -0.104 N 
ATOM     23  C   UNL     1      40.317 135.702  18.764  1.00  0.00     0.190 A 
ATOM     24  N   UNL     1      42.006 137.034  18.948  1.00  0.00    -0.012 N 
ATOM     25  C   UNL     1      39.877 137.010  18.775  1.00  0.00     0.133 A 
ATOM     26  N   UNL     1      40.946 137.827  18.883  1.00  0.00     0.020 NA
ATOM     27  H   UNL     1      42.989 137.376  19.030  1.00  0.00     0.527 HD
BRANCH  25  28
ATOM     28  C   UNL     1      38.477 137.473  18.508  1.00  0.00     0.069 C 
BRANCH  28  29
ATOM     29  C   UNL     1      37.522 136.294  18.252  1.00  0.00     0.042 C 
BRANCH  29  30
ATOM     30  C   UNL     1      37.488 135.893  16.789  1.00  0.00    -0.044 A 
ATOM     31  C   UNL     1      38.025 134.643  16.428  1.00  0.00     0.007 A 
ATOM     32  C   UNL     1      37.000 136.754  15.769  1.00  0.00    -0.045 A 
ATOM     33  C   UNL     1      38.095 134.255  15.090  1.00  0.00     0.039 A 
ATOM     34  C   UNL     1      37.080 136.345  14.426  1.00  0.00     0.043 A 
ATOM     35  C   UNL     1      37.627 135.106  14.090  1.00  0.00     0.123 A 
ATOM     36  C   UNL     1      36.375 138.089  16.084  1.00  0.00     0.045 C 
ATOM     37  F   UNL     1      37.702 134.728  12.790  1.00  0.00    -0.207 F 
ENDBRANCH  29  30
ENDBRANCH  28  29
ENDBRANCH  25  28
ENDBRANCH   8  22
TORSDOF 9
ENDMDL
MODEL 6
REMARK VINA RESULT:      -6.4      2.011      2.665
REMARK SMILES CC/C=C(/O)OC1=NC(=O)c2ccc(-n3cc(CCc4ccc(F)cc4C)n[nH+]3)c3cccc1c23
REMARK SMILES IDX 7 1 8 2 9 3 10 4 11 5 12 6 13 7 14 8 30 9 31 10 32 11 33 12
REMARK SMILES IDX 34 13 35 14 6 15 4 16 5 17 3 19 2 20 1 21 15 22 16 23 29 24
REMARK SMILES IDX 17 25 28 26 18 28 19 29 20 30 21 31 26 32 22 33 25 34 23 35
REMARK SMILES IDX 27 36 24 37
REMARK H PARENT 5 18 29 27
ROOT
ATOM      1  C   UNL     1      44.944 131.140  17.640  1.00  0.00     0.234 C 
ATOM      2  N   UNL     1      45.465 131.322  18.820  1.00  0.00    -0.172 NA
ATOM      3  C   UNL     1      45.066 132.398  19.676  1.00  0.00     0.280 C 
ATOM      4  O   UNL     1      45.601 132.524  20.809  1.00  0.00    -0.267 OA
ATOM      5  C   UNL     1      44.030 133.342  19.212  1.00  0.00     0.051 A 
ATOM      6  C   UNL     1      43.590 134.402  20.016  1.00  0.00     0.017 A 
ATOM      7  C   UNL     1      42.611 135.280  19.549  1.00  0.00     0.034 A 
ATOM      8  C   UNL     1      42.060 135.123  18.271  1.00  0.00     0.115 A 
ATOM      9  C   UNL     1      42.475 134.044  17.456  1.00  0.00     0.013 A 
ATOM     10  C   UNL     1      41.900 133.808  16.192  1.00  0.00     0.011 A 
ATOM     11  C   UNL     1      42.320 132.730  15.412  1.00  0.00     0.002 A 
ATOM     12  C   UNL     1      43.314 131.867  15.874  1.00  0.00     0.014 A 
ATOM     13  C   UNL     1      43.896 132.067  17.135  1.00  0.00     0.046 A 
ATOM     14  C   UNL     1      43.470 133.153  17.934  1.00  0.00     0.009 A 
ENDROOT
BRANCH   1  15
ATOM     15  O   UNL     1      45.353 130.069  16.831  1.00  0.00    -0.407 OA
BRANCH  15  16
ATOM     16  C   UNL     1      46.394 130.102  15.891  1.00  0.00     0.279 C 
BRANCH  16  17
ATOM     17  O   UNL     1      47.676 129.668  16.232  1.00  0.00    -0.481 OA
ATOM     18  H   UNL     1      47.856 128.725  16.559  1.00  0.00     0.296 HD
ENDBRANCH  16  17
BRANCH  16  19
ATOM     19  C   UNL     1      46.155 130.567  14.659  1.00  0.00     0.061 C 
BRANCH  19  20
ATOM     20  C   UNL     1      46.852 130.030  13.438  1.00  0.00     0.031 C 
ATOM     21  C   UNL     1      47.822 131.055  12.853  1.00  0.00     0.008 C 
ENDBRANCH  19  20
ENDBRANCH  16  19
ENDBRANCH  15  16
ENDBRANCH   1  15
BRANCH   8  22
ATOM     22  N   UNL     1      41.072 136.061  17.824  1.00  0.00    -0.104 N 
ATOM     23  C   UNL     1      40.842 136.432  16.555  1.00  0.00     0.190 A 
ATOM     24  N   UNL     1      40.253 136.743  18.609  1.00  0.00    -0.012 N 
ATOM     25  C   UNL     1      39.847 137.387  16.613  1.00  0.00     0.133 A 
ATOM     26  N   UNL     1      39.497 137.573  17.903  1.00  0.00     0.020 NA
ATOM     27  H   UNL     1      40.217 136.660  19.649  1.00  0.00     0.527 HD
BRANCH  25  28
ATOM     28  C   UNL     1      39.366 138.232  15.472  1.00  0.00     0.069 C 
BRANCH  28  29
ATOM     29  C   UNL     1      39.896 137.725  14.120  1.00  0.00     0.042 C 
BRANCH  29  30
ATOM     30  C   UNL     1      38.929 136.768  13.449  1.00  0.00    -0.044 A 
ATOM     31  C   UNL     1      38.973 135.410  13.815  1.00  0.00     0.007 A 
ATOM     32  C   UNL     1      38.034 137.177  12.422  1.00  0.00    -0.045 A 
ATOM     33  C   UNL     1      38.164 134.471  13.174  1.00  0.00     0.039 A 
ATOM     34  C   UNL     1      37.229 136.215  11.788  1.00  0.00     0.043 A 
ATOM     35  C   UNL     1      37.297 134.872  12.159  1.00  0.00     0.123 A 
ATOM     36  C   UNL     1      37.905 138.620  12.006  1.00  0.00     0.045 C 
ATOM     37  F   UNL     1      36.517 133.955  11.534  1.00  0.00    -0.207 F 
ENDBRANCH  29  30
ENDBRANCH  28  29
ENDBRANCH  25  28
ENDBRANCH   8  22
TORSDOF 9
ENDMDL
MODEL 7
REMARK VINA RESULT:      -6.4      4.047      6.119
REMARK SMILES CC/C=C(/O)OC1=NC(=O)c2ccc(-n3cc(CCc4ccc(F)cc4C)n[nH+]3)c3cccc1c23
REMARK SMILES IDX 7 1 8 2 9 3 10 4 11 5 12 6 13 7 14 8 30 9 31 10 32 11 33 12
REMARK SMILES IDX 34 13 35 14 6 15 4 16 5 17 3 19 2 20 1 21 15 22 16 23 29 24
REMARK SMILES IDX 17 25 28 26 18 28 19 29 20 30 21 31 26 32 22 33 25 34 23 35
REMARK SMILES IDX 27 36 24 37
REMARK H PARENT 5 18 29 27
ROOT
ATOM      1  C   UNL     1      44.817 130.712  15.735  1.00  0.00     0.234 C 
ATOM      2  N   UNL     1      43.962 131.200  14.882  1.00  0.00    -0.172 NA
ATOM      3  C   UNL     1      42.924 132.106  15.270  1.00  0.00     0.280 C 
ATOM      4  O   UNL     1      42.126 132.548  14.401  1.00  0.00    -0.267 OA
ATOM      5  C   UNL     1      42.809 132.508  16.686  1.00  0.00     0.051 A 
ATOM      6  C   UNL     1      41.824 133.405  17.117  1.00  0.00     0.017 A 
ATOM      7  C   UNL     1      41.739 133.764  18.462  1.00  0.00     0.034 A 
ATOM      8  C   UNL     1      42.627 133.228  19.404  1.00  0.00     0.115 A 
ATOM      9  C   UNL     1      43.644 132.340  18.981  1.00  0.00     0.013 A 
ATOM     10  C   UNL     1      44.601 131.830  19.881  1.00  0.00     0.011 A 
ATOM     11  C   UNL     1      45.600 130.963  19.437  1.00  0.00     0.002 A 
ATOM     12  C   UNL     1      45.668 130.591  18.094  1.00  0.00     0.014 A 
ATOM     13  C   UNL     1      44.739 131.093  17.171  1.00  0.00     0.046 A 
ATOM     14  C   UNL     1      43.728 131.978  17.612  1.00  0.00     0.009 A 
ENDROOT
BRANCH   1  15
ATOM     15  O   UNL     1      45.827 129.832  15.318  1.00  0.00    -0.407 OA
BRANCH  15  16
ATOM     16  C   UNL     1      47.179 130.160  15.139  1.00  0.00     0.279 C 
BRANCH  16  17
ATOM     17  O   UNL     1      48.176 129.470  15.831  1.00  0.00    -0.481 OA
ATOM     18  H   UNL     1      48.749 128.761  15.385  1.00  0.00     0.296 HD
ENDBRANCH  16  17
BRANCH  16  19
ATOM     19  C   UNL     1      47.513 131.154  14.308  1.00  0.00     0.061 C 
BRANCH  19  20
ATOM     20  C   UNL     1      47.784 130.933  12.845  1.00  0.00     0.031 C 
ATOM     21  C   UNL     1      46.515 130.527  12.097  1.00  0.00     0.008 C 
ENDBRANCH  19  20
ENDBRANCH  16  19
ENDBRANCH  15  16
ENDBRANCH   1  15
BRANCH   8  22
ATOM     22  N   UNL     1      42.490 133.609  20.778  1.00  0.00    -0.104 N 
ATOM     23  C   UNL     1      43.002 134.707  21.357  1.00  0.00     0.190 A 
ATOM     24  N   UNL     1      41.864 132.907  21.709  1.00  0.00    -0.012 N 
ATOM     25  C   UNL     1      42.663 134.626  22.692  1.00  0.00     0.133 A 
ATOM     26  N   UNL     1      41.959 133.492  22.895  1.00  0.00     0.020 NA
ATOM     27  H   UNL     1      41.375 131.999  21.543  1.00  0.00     0.527 HD
BRANCH  25  28
ATOM     28  C   UNL     1      43.156 135.526  23.784  1.00  0.00     0.069 C 
BRANCH  28  29
ATOM     29  C   UNL     1      43.199 136.998  23.339  1.00  0.00     0.042 C 
BRANCH  29  30
ATOM     30  C   UNL     1      44.479 137.334  22.596  1.00  0.00    -0.044 A 
ATOM     31  C   UNL     1      44.381 137.750  21.255  1.00  0.00     0.007 A 
ATOM     32  C   UNL     1      45.766 137.181  23.179  1.00  0.00    -0.045 A 
ATOM     33  C   UNL     1      45.527 137.994  20.498  1.00  0.00     0.039 A 
ATOM     34  C   UNL     1      46.909 137.432  22.398  1.00  0.00     0.043 A 
ATOM     35  C   UNL     1      46.789 137.831  21.067  1.00  0.00     0.123 A 
ATOM     36  C   UNL     1      45.946 136.780  24.620  1.00  0.00     0.045 C 
ATOM     37  F   UNL     1      47.901 138.064  20.326  1.00  0.00    -0.207 F 
ENDBRANCH  29  30
ENDBRANCH  28  29
ENDBRANCH  25  28
ENDBRANCH   8  22
TORSDOF 9
ENDMDL
MODEL 8
REMARK VINA RESULT:      -6.1      2.394      3.288
REMARK SMILES CC/C=C(/O)OC1=NC(=O)c2ccc(-n3cc(CCc4ccc(F)cc4C)n[nH+]3)c3cccc1c23
REMARK SMILES IDX 7 1 8 2 9 3 10 4 11 5 12 6 13 7 14 8 30 9 31 10 32 11 33 12
REMARK SMILES IDX 34 13 35 14 6 15 4 16 5 17 3 19 2 20 1 21 15 22 16 23 29 24
REMARK SMILES IDX 17 25 28 26 18 28 19 29 20 30 21 31 26 32 22 33 25 34 23 35
REMARK SMILES IDX 27 36 24 37
REMARK H PARENT 5 18 29 27
ROOT
ATOM      1  C   UNL     1      44.053 132.553  16.956  1.00  0.00     0.234 C 
ATOM      2  N   UNL     1      44.483 132.694  18.178  1.00  0.00    -0.172 NA
ATOM      3  C   UNL     1      44.051 133.764  19.024  1.00  0.00     0.280 C 
ATOM      4  O   UNL     1      44.498 133.849  20.199  1.00  0.00    -0.267 OA
ATOM      5  C   UNL     1      43.085 134.752  18.503  1.00  0.00     0.051 A 
ATOM      6  C   UNL     1      42.615 135.809  19.294  1.00  0.00     0.017 A 
ATOM      7  C   UNL     1      41.705 136.727  18.772  1.00  0.00     0.034 A 
ATOM      8  C   UNL     1      41.252 136.615  17.450  1.00  0.00     0.115 A 
ATOM      9  C   UNL     1      41.697 135.540  16.646  1.00  0.00     0.013 A 
ATOM     10  C   UNL     1      41.218 135.349  15.335  1.00  0.00     0.011 A 
ATOM     11  C   UNL     1      41.665 134.275  14.566  1.00  0.00     0.002 A 
ATOM     12  C   UNL     1      42.592 133.371  15.085  1.00  0.00     0.014 A 
ATOM     13  C   UNL     1      43.077 133.525  16.392  1.00  0.00     0.046 A 
ATOM     14  C   UNL     1      42.623 134.607  17.180  1.00  0.00     0.009 A 
ENDROOT
BRANCH   1  15
ATOM     15  O   UNL     1      44.492 131.487  16.158  1.00  0.00    -0.407 OA
BRANCH  15  16
ATOM     16  C   UNL     1      45.737 131.400  15.517  1.00  0.00     0.279 C 
BRANCH  16  17
ATOM     17  O   UNL     1      46.298 132.517  14.895  1.00  0.00    -0.481 OA
ATOM     18  H   UNL     1      46.754 133.254  15.422  1.00  0.00     0.296 HD
ENDBRANCH  16  17
BRANCH  16  19
ATOM     19  C   UNL     1      46.385 130.229  15.492  1.00  0.00     0.061 C 
BRANCH  19  20
ATOM     20  C   UNL     1      46.586 129.439  14.227  1.00  0.00     0.031 C 
ATOM     21  C   UNL     1      48.002 129.613  13.680  1.00  0.00     0.008 C 
ENDBRANCH  19  20
ENDBRANCH  16  19
ENDBRANCH  15  16
ENDBRANCH   1  15
BRANCH   8  22
ATOM     22  N   UNL     1      40.333 137.594  16.949  1.00  0.00    -0.104 N 
ATOM     23  C   UNL     1      39.069 137.372  16.557  1.00  0.00     0.190 A 
ATOM     24  N   UNL     1      40.606 138.875  16.757  1.00  0.00    -0.012 N 
ATOM     25  C   UNL     1      38.593 138.586  16.103  1.00  0.00     0.133 A 
ATOM     26  N   UNL     1      39.569 139.510  16.229  1.00  0.00     0.020 NA
ATOM     27  H   UNL     1      41.523 139.327  16.969  1.00  0.00     0.527 HD
BRANCH  25  28
ATOM     28  C   UNL     1      37.291 138.816  15.398  1.00  0.00     0.069 C 
BRANCH  28  29
ATOM     29  C   UNL     1      36.687 137.505  14.866  1.00  0.00     0.042 C 
BRANCH  29  30
ATOM     30  C   UNL     1      37.379 137.027  13.603  1.00  0.00    -0.044 A 
ATOM     31  C   UNL     1      37.649 137.970  12.594  1.00  0.00     0.007 A 
ATOM     32  C   UNL     1      37.698 135.661  13.374  1.00  0.00    -0.045 A 
ATOM     33  C   UNL     1      38.209 137.575  11.379  1.00  0.00     0.039 A 
ATOM     34  C   UNL     1      38.261 135.283  12.142  1.00  0.00     0.043 A 
ATOM     35  C   UNL     1      38.510 136.233  11.151  1.00  0.00     0.123 A 
ATOM     36  C   UNL     1      37.474 134.603  14.424  1.00  0.00     0.045 C 
ATOM     37  F   UNL     1      39.048 135.852   9.967  1.00  0.00    -0.207 F 
ENDBRANCH  29  30
ENDBRANCH  28  29
ENDBRANCH  25  28
ENDBRANCH   8  22
TORSDOF 9
ENDMDL
MODEL 9
REMARK VINA RESULT:      -6.1      2.072      2.978
REMARK SMILES CC/C=C(/O)OC1=NC(=O)c2ccc(-n3cc(CCc4ccc(F)cc4C)n[nH+]3)c3cccc1c23
REMARK SMILES IDX 7 1 8 2 9 3 10 4 11 5 12 6 13 7 14 8 30 9 31 10 32 11 33 12
REMARK SMILES IDX 34 13 35 14 6 15 4 16 5 17 3 19 2 20 1 21 15 22 16 23 29 24
REMARK SMILES IDX 17 25 28 26 18 28 19 29 20 30 21 31 26 32 22 33 25 34 23 35
REMARK SMILES IDX 27 36 24 37
REMARK H PARENT 5 18 29 27
ROOT
ATOM      1  C   UNL     1      45.476 130.602  15.969  1.00  0.00     0.234 C 
ATOM      2  N   UNL     1      45.911 130.384  17.178  1.00  0.00    -0.172 NA
ATOM      3  C   UNL     1      45.235 130.882  18.337  1.00  0.00     0.280 C 
ATOM      4  O   UNL     1      45.699 130.638  19.482  1.00  0.00    -0.267 OA
ATOM      5  C   UNL     1      44.000 131.675  18.167  1.00  0.00     0.051 A 
ATOM      6  C   UNL     1      43.290 132.171  19.268  1.00  0.00     0.017 A 
ATOM      7  C   UNL     1      42.128 132.919  19.076  1.00  0.00     0.034 A 
ATOM      8  C   UNL     1      41.659 133.194  17.785  1.00  0.00     0.115 A 
ATOM      9  C   UNL     1      42.350 132.679  16.663  1.00  0.00     0.013 A 
ATOM     10  C   UNL     1      41.878 132.872  15.350  1.00  0.00     0.011 A 
ATOM     11  C   UNL     1      42.573 132.346  14.262  1.00  0.00     0.002 A 
ATOM     12  C   UNL     1      43.746 131.616  14.458  1.00  0.00     0.014 A 
ATOM     13  C   UNL     1      44.235 131.393  15.753  1.00  0.00     0.046 A 
ATOM     14  C   UNL     1      43.532 131.918  16.862  1.00  0.00     0.009 A 
ENDROOT
BRANCH   1  15
ATOM     15  O   UNL     1      46.160 130.091  14.856  1.00  0.00    -0.407 OA
BRANCH  15  16
ATOM     16  C   UNL     1      47.474 129.602  14.853  1.00  0.00     0.279 C 
BRANCH  16  17
ATOM     17  O   UNL     1      48.182 129.456  16.048  1.00  0.00    -0.481 OA
ATOM     18  H   UNL     1      49.077 129.908  16.203  1.00  0.00     0.296 HD
ENDBRANCH  16  17
BRANCH  16  19
ATOM     19  C   UNL     1      48.059 129.287  13.691  1.00  0.00     0.061 C 
BRANCH  19  20
ATOM     20  C   UNL     1      47.555 129.789  12.366  1.00  0.00     0.031 C 
ATOM     21  C   UNL     1      46.705 131.048  12.532  1.00  0.00     0.008 C 
ENDBRANCH  19  20
ENDBRANCH  16  19
ENDBRANCH  15  16
ENDBRANCH   1  15
BRANCH   8  22
ATOM     22  N   UNL     1      40.473 133.984  17.634  1.00  0.00    -0.104 N 
ATOM     23  C   UNL     1      40.121 134.695  16.552  1.00  0.00     0.190 A 
ATOM     24  N   UNL     1      39.550 134.168  18.566  1.00  0.00    -0.012 N 
ATOM     25  C   UNL     1      38.941 135.332  16.882  1.00  0.00     0.133 A 
ATOM     26  N   UNL     1      38.605 134.996  18.145  1.00  0.00     0.020 NA
ATOM     27  H   UNL     1      39.570 133.738  19.517  1.00  0.00     0.527 HD
BRANCH  25  28
ATOM     28  C   UNL     1      38.246 136.380  16.067  1.00  0.00     0.069 C 
BRANCH  28  29
ATOM     29  C   UNL     1      38.375 137.777  16.699  1.00  0.00     0.042 C 
BRANCH  29  30
ATOM     30  C   UNL     1      39.794 138.310  16.626  1.00  0.00    -0.044 A 
ATOM     31  C   UNL     1      40.369 138.502  15.356  1.00  0.00     0.007 A 
ATOM     32  C   UNL     1      40.581 138.555  17.784  1.00  0.00    -0.045 A 
ATOM     33  C   UNL     1      41.696 138.912  15.228  1.00  0.00     0.039 A 
ATOM     34  C   UNL     1      41.917 138.967  17.633  1.00  0.00     0.043 A 
ATOM     35  C   UNL     1      42.471 139.140  16.364  1.00  0.00     0.123 A 
ATOM     36  C   UNL     1      40.020 138.409  19.175  1.00  0.00     0.045 C 
ATOM     37  F   UNL     1      43.762 139.532  16.236  1.00  0.00    -0.207 F 
ENDBRANCH  29  30
ENDBRANCH  28  29
ENDBRANCH  25  28
ENDBRANCH   8  22
TORSDOF 9
ENDMDL


