REMARK SMILES C#CCO/C(O)=C\[C@H]1CC[C@@H]2C(=O)N([O-])C(=O)c3ccc(N=[N+]=[N-])c1c32
REMARK SMILES IDX 5 1 4 2 3 3 2 4 1 5 6 6 7 8 8 9 25 10 9 11 21 12 26 13 10 14
REMARK SMILES IDX 20 15 18 16 11 17 19 18 16 19 12 20 14 21 17 22 13 23 15 24
REMARK SMILES IDX 22 25 23 26 24 27
REMARK H PARENT 6 7
ROOT
ATOM      1  C   UNL     1       1.028   2.102   1.540  1.00  0.00     0.273 C 
ENDROOT
BRANCH   1   2
ATOM      2  O   UNL     1      -0.228   1.979   0.939  1.00  0.00    -0.453 OA
BRANCH   2   3
ATOM      3  C   UNL     1      -0.865   3.047   0.256  1.00  0.00     0.322 C 
BRANCH   3   4
ATOM      4  C   UNL     1      -2.120   2.559  -0.315  1.00  0.00    -0.065 C 
ATOM      5  C   UNL     1      -3.152   2.147  -0.783  1.00  0.00     0.007 C 
ENDBRANCH   3   4
ENDBRANCH   2   3
ENDBRANCH   1   2
BRANCH   1   6
ATOM      6  O   UNL     1       1.692   3.329   1.518  1.00  0.00    -0.481 OA
ATOM      7  H   UNL     1       2.605   3.453   1.941  1.00  0.00     0.296 HD
ENDBRANCH   1   6
BRANCH   1   8
ATOM      8  C   UNL     1       1.593   1.037   2.129  1.00  0.00     0.069 C 
BRANCH   8   9
ATOM      9  C   UNL     1       0.933  -0.326   2.187  1.00  0.00     0.050 C 
ATOM     10  C   UNL     1       0.547  -0.824   0.788  1.00  0.00    -0.026 A 
ATOM     11  C   UNL     1      -0.219  -0.295   3.220  1.00  0.00     0.014 C 
ATOM     12  C   UNL     1       1.551  -0.951  -0.204  1.00  0.00     0.042 A 
ATOM     13  C   UNL     1      -0.790  -1.199   0.479  1.00  0.00    -0.019 A 
ATOM     14  C   UNL     1      -1.298  -1.329   2.923  1.00  0.00     0.019 C 
ATOM     15  C   UNL     1       1.203  -1.364  -1.499  1.00  0.00     0.011 A 
ATOM     16  C   UNL     1      -1.111  -1.623  -0.832  1.00  0.00     0.043 A 
ATOM     17  C   UNL     1      -1.882  -1.060   1.529  1.00  0.00     0.109 C 
ATOM     18  C   UNL     1      -0.112  -1.686  -1.810  1.00  0.00     0.014 A 
ATOM     19  C   UNL     1      -2.485  -2.064  -1.151  1.00  0.00     0.250 C 
ATOM     20  C   UNL     1      -3.080  -1.942   1.251  1.00  0.00     0.226 C 
ATOM     21  N   UNL     1      -3.420  -2.285  -0.095  1.00  0.00    -0.351 N 
ATOM     22  O   UNL     1      -2.828  -2.282  -2.344  1.00  0.00    -0.269 OA
ATOM     23  O   UNL     1      -3.849  -2.285   2.190  1.00  0.00    -0.275 OA
ATOM     24  O   UNL     1      -4.620  -2.854  -0.364  1.00  0.00    -0.749 OA
BRANCH  12  25
ATOM     25  N   UNL     1       2.920  -0.660   0.126  1.00  0.00    -0.060 NA
BRANCH  25  26
ATOM     26  N   UNL     1       3.834  -0.746  -0.695  1.00  0.00     0.005 N 
ATOM     27  N   UNL     1       4.749  -0.830  -1.514  1.00  0.00    -0.003 NA
ENDBRANCH  25  26
ENDBRANCH  12  25
ENDBRANCH   8   9
ENDBRANCH   1   8
TORSDOF 8


