REMARK SMILES CC[C@H]1C[C@@]1([NH3+])C(=O)Oc1c(C(=O)N=[N+]=[N-])cccc([O-])c([NH2+]C2(CF)COC2)c(N=[N+]=[N-])c(Cl)c1Cl
REMARK SMILES IDX 18 1 19 2 20 3 21 4 22 5 30 6 34 7 35 8 36 9 37 10 10 11
REMARK SMILES IDX 11 12 17 13 12 14 13 15 14 16 15 17 16 18 23 19 24 22 27 23
REMARK SMILES IDX 29 24 28 25 25 26 26 27 9 28 7 29 8 30 5 31 4 32 3 33 6 34
REMARK SMILES IDX 2 38 1 39 31 40 32 41 33 42
REMARK H PARENT 23 20 23 21 6 35 6 36 6 37
ROOT
ATOM      1  C   UNL     1       0.213   1.411   2.262  1.00  0.00     0.000 A 
ATOM      2  C   UNL     1       0.433   0.734   3.466  1.00  0.00    -0.002 A 
ATOM      3  C   UNL     1       0.898  -0.593   3.583  1.00  0.00    -0.045 A 
ATOM      4  O   UNL     1       1.388  -0.974   4.828  1.00  0.00    -0.868 OA
ATOM      5  C   UNL     1       0.885  -1.563   2.536  1.00  0.00     0.133 A 
ATOM      6  C   UNL     1      -0.123  -1.574   1.520  1.00  0.00     0.118 A 
ATOM      7  C   UNL     1      -1.364  -0.923   1.692  1.00  0.00     0.079 A 
ATOM      8  Cl  UNL     1      -2.279  -1.275   3.160  1.00  0.00    -0.082 Cl
ATOM      9  C   UNL     1      -1.920  -0.060   0.716  1.00  0.00     0.103 A 
ATOM     10  Cl  UNL     1      -3.666   0.179   0.714  1.00  0.00    -0.079 Cl
ATOM     11  C   UNL     1      -1.171   0.653  -0.257  1.00  0.00     0.162 A 
ATOM     12  C   UNL     1       0.226   0.911  -0.152  1.00  0.00     0.069 A 
ATOM     13  C   UNL     1       0.879   1.073   1.083  1.00  0.00     0.016 A 
ENDROOT
BRANCH  12  14
ATOM     14  C   UNL     1       1.065   0.844  -1.373  1.00  0.00     0.252 C 
ATOM     15  O   UNL     1       0.638   0.252  -2.404  1.00  0.00    -0.287 OA
BRANCH  14  16
ATOM     16  N   UNL     1       2.379   1.412  -1.374  1.00  0.00    -0.017 NA
BRANCH  16  17
ATOM     17  N   UNL     1       3.122   1.297  -2.347  1.00  0.00     0.009 N 
ATOM     18  N   UNL     1       3.866   1.180  -3.318  1.00  0.00    -0.003 NA
ENDBRANCH  16  17
ENDBRANCH  14  16
ENDBRANCH  12  14
BRANCH   5  19
ATOM     19  N   UNL     1       1.877  -2.629   2.560  1.00  0.00    -0.303 N 
ATOM     20  H   UNL     1       1.556  -3.420   1.955  1.00  0.00     0.353 HD
ATOM     21  H   UNL     1       1.920  -3.035   3.524  1.00  0.00     0.353 HD
BRANCH  19  22
ATOM     22  C   UNL     1       3.248  -2.198   2.164  1.00  0.00     0.176 C 
ATOM     23  C   UNL     1       3.394  -1.703   0.731  1.00  0.00     0.234 C 
ATOM     24  C   UNL     1       4.089  -3.361   1.643  1.00  0.00     0.234 C 
ATOM     25  O   UNL     1       4.155  -2.822   0.343  1.00  0.00    -0.368 OA
BRANCH  22  26
ATOM     26  C   UNL     1       3.983  -1.331   3.214  1.00  0.00     0.288 C 
ATOM     27  F   UNL     1       5.310  -1.125   2.867  1.00  0.00    -0.244 F 
ENDBRANCH  22  26
ENDBRANCH  19  22
ENDBRANCH   5  19
BRANCH  11  28
ATOM     28  O   UNL     1      -1.867   1.081  -1.399  1.00  0.00    -0.419 OA
BRANCH  28  29
ATOM     29  C   UNL     1      -1.672   2.323  -2.017  1.00  0.00     0.373 C 
ATOM     30  O   UNL     1      -1.035   3.242  -1.430  1.00  0.00    -0.244 OA
BRANCH  29  31
ATOM     31  C   UNL     1      -2.201   2.554  -3.402  1.00  0.00     0.196 C 
ATOM     32  C   UNL     1      -2.974   3.857  -3.617  1.00  0.00     0.092 C 
ATOM     33  C   UNL     1      -3.706   2.512  -3.692  1.00  0.00     0.069 C 
BRANCH  31  34
ATOM     34  N   UNL     1      -1.333   2.159  -4.515  1.00  0.00    -0.343 N 
ATOM     35  H   UNL     1      -0.398   2.614  -4.396  1.00  0.00     0.345 HD
ATOM     36  H   UNL     1      -1.725   2.439  -5.444  1.00  0.00     0.345 HD
ATOM     37  H   UNL     1      -1.212   1.121  -4.496  1.00  0.00     0.345 HD
ENDBRANCH  31  34
BRANCH  33  38
ATOM     38  C   UNL     1      -4.681   2.267  -2.531  1.00  0.00     0.007 C 
ATOM     39  C   UNL     1      -5.109   0.806  -2.500  1.00  0.00     0.004 C 
ENDBRANCH  33  38
ENDBRANCH  29  31
ENDBRANCH  28  29
ENDBRANCH  11  28
BRANCH   6  40
ATOM     40  N   UNL     1       0.114  -2.322   0.315  1.00  0.00    -0.053 NA
BRANCH  40  41
ATOM     41  N   UNL     1      -0.771  -2.563  -0.507  1.00  0.00     0.006 N 
ATOM     42  N   UNL     1      -1.655  -2.805  -1.328  1.00  0.00    -0.003 NA
ENDBRANCH  40  41
ENDBRANCH   6  40
TORSDOF 13


