REMARK SMILES Cc1n[nH+]n([C@@H]2O[C@@]2(C#N)[NH2+]c2cccc(C#N)c2C)c1-c1cc2ccccc2c2ccccc12
REMARK SMILES IDX 11 1 8 4 6 5 7 6 5 7 2 8 3 9 21 10 4 11 1 12 22 14 23 15
REMARK SMILES IDX 35 16 24 17 34 18 30 19 25 20 29 21 33 22 31 23 26 24 28 25
REMARK SMILES IDX 32 26 27 27 9 28 10 29 12 30 13 31 19 32 14 33 16 34 15 35
REMARK SMILES IDX 20 36 17 37 18 38
REMARK H PARENT 11 2 11 3 4 13
ROOT
ATOM      1  N   UNL     1       3.336  -0.523   0.883  1.00  0.00    -0.269 N 
ATOM      2  H   UNL     1       3.631  -0.165   1.817  1.00  0.00     0.356 HD
ATOM      3  H   UNL     1       4.234  -0.754   0.395  1.00  0.00     0.356 HD
ENDROOT
BRANCH   1   4
ATOM      4  C   UNL     1       2.518  -1.741   1.025  1.00  0.00     0.349 C 
ATOM      5  C   UNL     1       2.256  -2.561  -0.190  1.00  0.00     0.395 C 
ATOM      6  O   UNL     1       3.266  -2.902   0.731  1.00  0.00    -0.270 OA
BRANCH   5   7
ATOM      7  N   UNL     1       1.113  -3.465  -0.095  1.00  0.00    -0.088 N 
ATOM      8  C   UNL     1      -0.898  -4.324  -0.112  1.00  0.00     0.137 A 
ATOM      9  N   UNL     1      -0.023  -5.317   0.157  1.00  0.00     0.020 NA
ATOM     10  C   UNL     1      -0.183  -3.149  -0.261  1.00  0.00     0.140 A 
ATOM     11  N   UNL     1       1.181  -4.764   0.151  1.00  0.00    -0.014 N 
ATOM     12  C   UNL     1      -2.379  -4.503  -0.186  1.00  0.00     0.076 C 
ATOM     13  H   UNL     1       2.067  -5.292   0.318  1.00  0.00     0.526 HD
BRANCH  10  14
ATOM     14  C   UNL     1      -0.703  -1.812  -0.617  1.00  0.00     0.015 A 
ATOM     15  C   UNL     1      -0.387  -1.313  -1.879  1.00  0.00     0.020 A 
ATOM     16  C   UNL     1      -1.500  -1.047   0.266  1.00  0.00    -0.008 A 
ATOM     17  C   UNL     1      -0.885  -0.085  -2.314  1.00  0.00    -0.017 A 
ATOM     18  C   UNL     1      -1.775  -1.510   1.571  1.00  0.00     0.009 A 
ATOM     19  C   UNL     1      -2.012   0.219  -0.153  1.00  0.00    -0.010 A 
ATOM     20  C   UNL     1      -0.557   0.368  -3.603  1.00  0.00     0.009 A 
ATOM     21  C   UNL     1      -1.715   0.696  -1.467  1.00  0.00    -0.010 A 
ATOM     22  C   UNL     1      -2.543  -0.753   2.449  1.00  0.00     0.001 A 
ATOM     23  C   UNL     1      -2.791   0.962   0.769  1.00  0.00     0.009 A 
ATOM     24  C   UNL     1      -1.044   1.586  -4.069  1.00  0.00     0.001 A 
ATOM     25  C   UNL     1      -2.204   1.928  -1.973  1.00  0.00     0.009 A 
ATOM     26  C   UNL     1      -3.049   0.477   2.050  1.00  0.00     0.001 A 
ATOM     27  C   UNL     1      -1.867   2.361  -3.257  1.00  0.00     0.001 A 
ENDBRANCH  10  14
ENDBRANCH   5   7
BRANCH   4  28
ATOM     28  C   UNL     1       1.759  -1.934   2.271  1.00  0.00     0.168 C 
ATOM     29  N   UNL     1       1.165  -2.086   3.252  1.00  0.00    -0.188 NA
ENDBRANCH   4  28
ENDBRANCH   1   4
BRANCH   1  30
ATOM     30  C   UNL     1       2.628   0.497   0.133  1.00  0.00     0.137 A 
ATOM     31  C   UNL     1       2.914   0.634  -1.240  1.00  0.00     0.068 A 
ATOM     32  C   UNL     1       1.665   1.369   0.728  1.00  0.00     0.028 A 
ATOM     33  C   UNL     1       2.291   1.609  -2.013  1.00  0.00     0.008 A 
ATOM     34  C   UNL     1       1.023   2.340  -0.086  1.00  0.00     0.061 A 
ATOM     35  C   UNL     1       1.355   2.460  -1.439  1.00  0.00     0.020 A 
ATOM     36  C   UNL     1       1.254   1.237   2.180  1.00  0.00     0.052 C 
BRANCH  34  37
ATOM     37  C   UNL     1       0.008   3.225   0.437  1.00  0.00     0.100 C 
ATOM     38  N   UNL     1      -0.807   3.934   0.855  1.00  0.00    -0.192 NA
ENDBRANCH  34  37
ENDBRANCH   1  30
TORSDOF 6


