MODEL 1
REMARK VINA RESULT:      -6.3      0.000      0.000
REMARK SMILES Cc1[nH+]nn([C@@H]2O[C@@]2(C#N)[NH2+]c2cccc(C#N)c2C)c1-c1cc2ccccc2c2ccccc12
REMARK SMILES IDX 11 1 8 4 6 5 7 6 5 7 2 8 3 9 21 10 4 11 1 12 22 14 23 15
REMARK SMILES IDX 35 16 24 17 34 18 30 19 25 20 29 21 33 22 31 23 26 24 28 25
REMARK SMILES IDX 32 26 27 27 9 28 10 29 12 30 13 31 19 32 14 33 16 34 15 35
REMARK SMILES IDX 20 36 17 37 18 38
REMARK H PARENT 11 2 11 3 3 13
ROOT
ATOM      1  N   UNL     1      39.570 135.365  17.686  1.00  0.00    -0.267 N 
ATOM      2  H   UNL     1      38.980 134.663  18.185  1.00  0.00     0.356 HD
ATOM      3  H   UNL     1      38.901 135.974  17.157  1.00  0.00     0.356 HD
ENDROOT
BRANCH   1   4
ATOM      4  C   UNL     1      40.465 134.711  16.715  1.00  0.00     0.368 C 
ATOM      5  C   UNL     1      40.868 133.297  16.957  1.00  0.00     0.455 C 
ATOM      6  O   UNL     1      39.820 133.631  16.076  1.00  0.00    -0.253 OA
BRANCH   5   7
ATOM      7  N   UNL     1      42.059 132.865  16.232  1.00  0.00    -0.089 N 
ATOM      8  C   UNL     1      44.112 132.346  15.681  1.00  0.00     0.170 A 
ATOM      9  N   UNL     1      43.325 132.235  14.593  1.00  0.00    -0.147 N 
ATOM     10  C   UNL     1      43.306 132.744  16.727  1.00  0.00     0.204 A 
ATOM     11  N   UNL     1      42.087 132.547  14.947  1.00  0.00     0.091 NA
ATOM     12  C   UNL     1      45.593 132.157  15.694  1.00  0.00     0.100 C 
ATOM     13  H   UNL     1      43.618 131.966  13.628  1.00  0.00     0.342 HD
BRANCH  10  14
ATOM     14  C   UNL     1      43.712 133.064  18.112  1.00  0.00     0.036 A 
ATOM     15  C   UNL     1      43.728 132.026  19.042  1.00  0.00     0.022 A 
ATOM     16  C   UNL     1      44.113 134.365  18.496  1.00  0.00    -0.006 A 
ATOM     17  C   UNL     1      44.161 132.239  20.350  1.00  0.00    -0.017 A 
ATOM     18  C   UNL     1      44.085 135.428  17.568  1.00  0.00     0.009 A 
ATOM     19  C   UNL     1      44.533 134.613  19.838  1.00  0.00    -0.010 A 
ATOM     20  C   UNL     1      44.203 131.154  21.242  1.00  0.00     0.009 A 
ATOM     21  C   UNL     1      44.564 133.534  20.775  1.00  0.00    -0.010 A 
ATOM     22  C   UNL     1      44.476 136.710  17.941  1.00  0.00     0.001 A 
ATOM     23  C   UNL     1      44.914 135.934  20.185  1.00  0.00     0.009 A 
ATOM     24  C   UNL     1      44.635 131.332  22.552  1.00  0.00     0.001 A 
ATOM     25  C   UNL     1      44.989 133.687  22.120  1.00  0.00     0.009 A 
ATOM     26  C   UNL     1      44.888 136.962  19.243  1.00  0.00     0.001 A 
ATOM     27  C   UNL     1      45.023 132.595  22.990  1.00  0.00     0.001 A 
ENDBRANCH  10  14
ENDBRANCH   5   7
BRANCH   4  28
ATOM     28  C   UNL     1      41.138 135.549  15.705  1.00  0.00     0.170 C 
ATOM     29  N   UNL     1      41.666 136.207  14.912  1.00  0.00    -0.188 NA
ENDBRANCH   4  28
ENDBRANCH   1   4
BRANCH   1  30
ATOM     30  C   UNL     1      40.322 136.187  18.617  1.00  0.00     0.137 A 
ATOM     31  C   UNL     1      40.591 137.525  18.269  1.00  0.00     0.068 A 
ATOM     32  C   UNL     1      40.776 135.697  19.878  1.00  0.00     0.028 A 
ATOM     33  C   UNL     1      41.299 138.363  19.124  1.00  0.00     0.008 A 
ATOM     34  C   UNL     1      41.460 136.582  20.755  1.00  0.00     0.061 A 
ATOM     35  C   UNL     1      41.726 137.898  20.362  1.00  0.00     0.020 A 
ATOM     36  C   UNL     1      40.483 134.274  20.299  1.00  0.00     0.052 C 
BRANCH  34  37
ATOM     37  C   UNL     1      41.892 136.177  22.072  1.00  0.00     0.100 C 
ATOM     38  N   UNL     1      42.238 135.851  23.127  1.00  0.00    -0.192 NA
ENDBRANCH  34  37
ENDBRANCH   1  30
TORSDOF 6
ENDMDL
MODEL 2
REMARK VINA RESULT:      -6.0      2.675      7.431
REMARK SMILES Cc1[nH+]nn([C@@H]2O[C@@]2(C#N)[NH2+]c2cccc(C#N)c2C)c1-c1cc2ccccc2c2ccccc12
REMARK SMILES IDX 11 1 8 4 6 5 7 6 5 7 2 8 3 9 21 10 4 11 1 12 22 14 23 15
REMARK SMILES IDX 35 16 24 17 34 18 30 19 25 20 29 21 33 22 31 23 26 24 28 25
REMARK SMILES IDX 32 26 27 27 9 28 10 29 12 30 13 31 19 32 14 33 16 34 15 35
REMARK SMILES IDX 20 36 17 37 18 38
REMARK H PARENT 11 2 11 3 3 13
ROOT
ATOM      1  N   UNL     1      43.445 131.526  17.162  1.00  0.00    -0.267 N 
ATOM      2  H   UNL     1      42.407 131.412  17.165  1.00  0.00     0.356 HD
ATOM      3  H   UNL     1      43.806 130.873  17.896  1.00  0.00     0.356 HD
ENDROOT
BRANCH   1   4
ATOM      4  C   UNL     1      43.827 132.899  17.539  1.00  0.00     0.368 C 
ATOM      5  C   UNL     1      43.342 133.443  18.837  1.00  0.00     0.455 C 
ATOM      6  O   UNL     1      44.637 132.904  18.693  1.00  0.00    -0.253 OA
BRANCH   5   7
ATOM      7  N   UNL     1      43.378 134.898  18.947  1.00  0.00    -0.089 N 
ATOM      8  C   UNL     1      42.914 137.031  18.788  1.00  0.00     0.170 A 
ATOM      9  N   UNL     1      44.109 136.887  19.392  1.00  0.00    -0.147 N 
ATOM     10  C   UNL     1      42.445 135.765  18.507  1.00  0.00     0.204 A 
ATOM     11  N   UNL     1      44.371 135.591  19.484  1.00  0.00     0.091 NA
ATOM     12  C   UNL     1      42.287 138.336  18.422  1.00  0.00     0.100 C 
ATOM     13  H   UNL     1      44.743 137.647  19.725  1.00  0.00     0.342 HD
BRANCH  10  14
ATOM     14  C   UNL     1      41.206 135.396  17.790  1.00  0.00     0.036 A 
ATOM     15  C   UNL     1      41.238 135.396  16.396  1.00  0.00     0.022 A 
ATOM     16  C   UNL     1      40.027 135.016  18.470  1.00  0.00    -0.006 A 
ATOM     17  C   UNL     1      40.128 134.997  15.651  1.00  0.00    -0.017 A 
ATOM     18  C   UNL     1      39.977 135.028  19.881  1.00  0.00     0.009 A 
ATOM     19  C   UNL     1      38.869 134.631  17.729  1.00  0.00    -0.010 A 
ATOM     20  C   UNL     1      40.219 134.970  14.250  1.00  0.00     0.009 A 
ATOM     21  C   UNL     1      38.922 134.616  16.301  1.00  0.00    -0.010 A 
ATOM     22  C   UNL     1      38.819 134.656  20.557  1.00  0.00     0.001 A 
ATOM     23  C   UNL     1      37.704 134.270  18.451  1.00  0.00     0.009 A 
ATOM     24  C   UNL     1      39.131 134.573  13.478  1.00  0.00     0.001 A 
ATOM     25  C   UNL     1      37.828 134.227  15.487  1.00  0.00     0.009 A 
ATOM     26  C   UNL     1      37.688 134.280  19.845  1.00  0.00     0.001 A 
ATOM     27  C   UNL     1      37.939 134.206  14.096  1.00  0.00     0.001 A 
ENDBRANCH  10  14
ENDBRANCH   5   7
BRANCH   4  28
ATOM     28  C   UNL     1      44.433 133.767  16.510  1.00  0.00     0.170 C 
ATOM     29  N   UNL     1      44.908 134.448  15.704  1.00  0.00    -0.188 NA
ENDBRANCH   4  28
ENDBRANCH   1   4
BRANCH   1  30
ATOM     30  C   UNL     1      44.019 131.159  15.880  1.00  0.00     0.137 A 
ATOM     31  C   UNL     1      43.285 131.435  14.710  1.00  0.00     0.068 A 
ATOM     32  C   UNL     1      45.304 130.550  15.761  1.00  0.00     0.028 A 
ATOM     33  C   UNL     1      43.786 131.114  13.453  1.00  0.00     0.008 A 
ATOM     34  C   UNL     1      45.816 130.270  14.465  1.00  0.00     0.061 A 
ATOM     35  C   UNL     1      45.046 130.541  13.329  1.00  0.00     0.020 A 
ATOM     36  C   UNL     1      46.134 130.262  16.992  1.00  0.00     0.052 C 
BRANCH  34  37
ATOM     37  C   UNL     1      47.134 129.715  14.264  1.00  0.00     0.100 C 
ATOM     38  N   UNL     1      48.191 129.272  14.103  1.00  0.00    -0.192 NA
ENDBRANCH  34  37
ENDBRANCH   1  30
TORSDOF 6
ENDMDL
MODEL 3
REMARK VINA RESULT:      -6.0      0.881      2.773
REMARK SMILES Cc1[nH+]nn([C@@H]2O[C@@]2(C#N)[NH2+]c2cccc(C#N)c2C)c1-c1cc2ccccc2c2ccccc12
REMARK SMILES IDX 11 1 8 4 6 5 7 6 5 7 2 8 3 9 21 10 4 11 1 12 22 14 23 15
REMARK SMILES IDX 35 16 24 17 34 18 30 19 25 20 29 21 33 22 31 23 26 24 28 25
REMARK SMILES IDX 32 26 27 27 9 28 10 29 12 30 13 31 19 32 14 33 16 34 15 35
REMARK SMILES IDX 20 36 17 37 18 38
REMARK H PARENT 11 2 11 3 3 13
ROOT
ATOM      1  N   UNL     1      39.463 135.939  17.555  1.00  0.00    -0.267 N 
ATOM      2  H   UNL     1      38.740 135.316  17.979  1.00  0.00     0.356 HD
ATOM      3  H   UNL     1      38.935 136.653  17.001  1.00  0.00     0.356 HD
ENDROOT
BRANCH   1   4
ATOM      4  C   UNL     1      40.331 135.187  16.630  1.00  0.00     0.368 C 
ATOM      5  C   UNL     1      40.633 133.761  16.935  1.00  0.00     0.455 C 
ATOM      6  O   UNL     1      39.627 134.129  16.018  1.00  0.00    -0.253 OA
BRANCH   5   7
ATOM      7  N   UNL     1      41.805 133.221  16.255  1.00  0.00    -0.089 N 
ATOM      8  C   UNL     1      43.853 132.691  15.697  1.00  0.00     0.170 A 
ATOM      9  N   UNL     1      43.013 132.256  14.739  1.00  0.00    -0.147 N 
ATOM     10  C   UNL     1      43.086 133.302  16.666  1.00  0.00     0.204 A 
ATOM     11  N   UNL     1      41.778 132.581  15.096  1.00  0.00     0.091 NA
ATOM     12  C   UNL     1      45.343 132.595  15.642  1.00  0.00     0.100 C 
ATOM     13  H   UNL     1      43.265 131.762  13.855  1.00  0.00     0.342 HD
BRANCH  10  14
ATOM     14  C   UNL     1      43.551 133.996  17.886  1.00  0.00     0.036 A 
ATOM     15  C   UNL     1      44.101 135.268  17.740  1.00  0.00     0.022 A 
ATOM     16  C   UNL     1      43.418 133.426  19.172  1.00  0.00    -0.006 A 
ATOM     17  C   UNL     1      44.502 136.011  18.851  1.00  0.00    -0.017 A 
ATOM     18  C   UNL     1      42.878 132.131  19.332  1.00  0.00     0.009 A 
ATOM     19  C   UNL     1      43.847 134.155  20.322  1.00  0.00    -0.010 A 
ATOM     20  C   UNL     1      45.010 137.306  18.661  1.00  0.00     0.009 A 
ATOM     21  C   UNL     1      44.390 135.466  20.160  1.00  0.00    -0.010 A 
ATOM     22  C   UNL     1      42.746 131.564  20.595  1.00  0.00     0.001 A 
ATOM     23  C   UNL     1      43.708 133.541  21.593  1.00  0.00     0.009 A 
ATOM     24  C   UNL     1      45.414 138.073  19.749  1.00  0.00     0.001 A 
ATOM     25  C   UNL     1      44.821 136.269  21.248  1.00  0.00     0.009 A 
ATOM     26  C   UNL     1      43.160 132.265  21.720  1.00  0.00     0.001 A 
ATOM     27  C   UNL     1      45.322 137.554  21.037  1.00  0.00     0.001 A 
ENDBRANCH  10  14
ENDBRANCH   5   7
BRANCH   4  28
ATOM     28  C   UNL     1      41.080 135.938  15.605  1.00  0.00     0.170 C 
ATOM     29  N   UNL     1      41.667 136.527  14.799  1.00  0.00    -0.188 NA
ENDBRANCH   4  28
ENDBRANCH   1   4
BRANCH   1  30
ATOM     30  C   UNL     1      40.247 136.615  18.572  1.00  0.00     0.137 A 
ATOM     31  C   UNL     1      40.814 137.867  18.264  1.00  0.00     0.068 A 
ATOM     32  C   UNL     1      40.443 136.071  19.877  1.00  0.00     0.028 A 
ATOM     33  C   UNL     1      41.567 138.567  19.201  1.00  0.00     0.008 A 
ATOM     34  C   UNL     1      41.179 136.822  20.833  1.00  0.00     0.061 A 
ATOM     35  C   UNL     1      41.744 138.052  20.479  1.00  0.00     0.020 A 
ATOM     36  C   UNL     1      39.827 134.742  20.255  1.00  0.00     0.052 C 
BRANCH  34  37
ATOM     37  C   UNL     1      41.364 136.366  22.191  1.00  0.00     0.100 C 
ATOM     38  N   UNL     1      41.510 136.000  23.279  1.00  0.00    -0.192 NA
ENDBRANCH  34  37
ENDBRANCH   1  30
TORSDOF 6
ENDMDL
MODEL 4
REMARK VINA RESULT:      -5.5      1.085      1.137
REMARK SMILES Cc1[nH+]nn([C@@H]2O[C@@]2(C#N)[NH2+]c2cccc(C#N)c2C)c1-c1cc2ccccc2c2ccccc12
REMARK SMILES IDX 11 1 8 4 6 5 7 6 5 7 2 8 3 9 21 10 4 11 1 12 22 14 23 15
REMARK SMILES IDX 35 16 24 17 34 18 30 19 25 20 29 21 33 22 31 23 26 24 28 25
REMARK SMILES IDX 32 26 27 27 9 28 10 29 12 30 13 31 19 32 14 33 16 34 15 35
REMARK SMILES IDX 20 36 17 37 18 38
REMARK H PARENT 11 2 11 3 3 13
ROOT
ATOM      1  N   UNL     1      40.021 135.472  16.348  1.00  0.00    -0.267 N 
ATOM      2  H   UNL     1      39.212 134.913  16.699  1.00  0.00     0.356 HD
ATOM      3  H   UNL     1      39.636 136.087  15.594  1.00  0.00     0.356 HD
ENDROOT
BRANCH   1   4
ATOM      4  C   UNL     1      41.049 134.600  15.753  1.00  0.00     0.368 C 
ATOM      5  C   UNL     1      41.115 133.176  16.187  1.00  0.00     0.455 C 
ATOM      6  O   UNL     1      40.462 133.563  14.998  1.00  0.00    -0.253 OA
BRANCH   5   7
ATOM      7  N   UNL     1      42.381 132.506  15.907  1.00  0.00    -0.089 N 
ATOM      8  C   UNL     1      44.392 131.660  16.069  1.00  0.00     0.170 A 
ATOM      9  N   UNL     1      43.958 131.517  14.802  1.00  0.00    -0.147 N 
ATOM     10  C   UNL     1      43.387 132.286  16.776  1.00  0.00     0.204 A 
ATOM     11  N   UNL     1      42.738 132.030  14.724  1.00  0.00     0.091 NA
ATOM     12  C   UNL     1      45.751 131.283  16.560  1.00  0.00     0.100 C 
ATOM     13  H   UNL     1      44.478 131.095  14.001  1.00  0.00     0.342 HD
BRANCH  10  14
ATOM     14  C   UNL     1      43.408 132.721  18.188  1.00  0.00     0.036 A 
ATOM     15  C   UNL     1      43.001 131.805  19.157  1.00  0.00     0.022 A 
ATOM     16  C   UNL     1      43.859 134.004  18.574  1.00  0.00    -0.006 A 
ATOM     17  C   UNL     1      43.055 132.121  20.514  1.00  0.00    -0.017 A 
ATOM     18  C   UNL     1      44.258 134.947  17.601  1.00  0.00     0.009 A 
ATOM     19  C   UNL     1      43.897 134.360  19.956  1.00  0.00    -0.010 A 
ATOM     20  C   UNL     1      42.677 131.151  21.458  1.00  0.00     0.009 A 
ATOM     21  C   UNL     1      43.495 133.404  20.939  1.00  0.00    -0.010 A 
ATOM     22  C   UNL     1      44.701 136.211  17.974  1.00  0.00     0.001 A 
ATOM     23  C   UNL     1      44.343 135.662  20.298  1.00  0.00     0.009 A 
ATOM     24  C   UNL     1      42.724 131.434  22.820  1.00  0.00     0.001 A 
ATOM     25  C   UNL     1      43.522 133.666  22.333  1.00  0.00     0.009 A 
ATOM     26  C   UNL     1      44.742 136.568  19.316  1.00  0.00     0.001 A 
ATOM     27  C   UNL     1      43.143 132.688  23.254  1.00  0.00     0.001 A 
ENDBRANCH  10  14
ENDBRANCH   5   7
BRANCH   4  28
ATOM     28  C   UNL     1      42.133 135.224  14.970  1.00  0.00     0.170 C 
ATOM     29  N   UNL     1      42.984 135.713  14.357  1.00  0.00    -0.188 NA
ENDBRANCH   4  28
ENDBRANCH   1   4
BRANCH   1  30
ATOM     30  C   UNL     1      40.586 136.305  17.394  1.00  0.00     0.137 A 
ATOM     31  C   UNL     1      41.159 137.541  17.036  1.00  0.00     0.068 A 
ATOM     32  C   UNL     1      40.561 135.930  18.771  1.00  0.00     0.028 A 
ATOM     33  C   UNL     1      41.708 138.386  17.994  1.00  0.00     0.008 A 
ATOM     34  C   UNL     1      41.088 136.827  19.739  1.00  0.00     0.061 A 
ATOM     35  C   UNL     1      41.668 138.035  19.338  1.00  0.00     0.020 A 
ATOM     36  C   UNL     1      39.930 134.623  19.199  1.00  0.00     0.052 C 
BRANCH  34  37
ATOM     37  C   UNL     1      41.039 136.545  21.155  1.00  0.00     0.100 C 
ATOM     38  N   UNL     1      40.999 136.318  22.289  1.00  0.00    -0.192 NA
ENDBRANCH  34  37
ENDBRANCH   1  30
TORSDOF 6
ENDMDL
MODEL 5
REMARK VINA RESULT:      -5.3      2.924      8.022
REMARK SMILES Cc1[nH+]nn([C@@H]2O[C@@]2(C#N)[NH2+]c2cccc(C#N)c2C)c1-c1cc2ccccc2c2ccccc12
REMARK SMILES IDX 11 1 8 4 6 5 7 6 5 7 2 8 3 9 21 10 4 11 1 12 22 14 23 15
REMARK SMILES IDX 35 16 24 17 34 18 30 19 25 20 29 21 33 22 31 23 26 24 28 25
REMARK SMILES IDX 32 26 27 27 9 28 10 29 12 30 13 31 19 32 14 33 16 34 15 35
REMARK SMILES IDX 20 36 17 37 18 38
REMARK H PARENT 11 2 11 3 3 13
ROOT
ATOM      1  N   UNL     1      43.182 130.719  16.084  1.00  0.00    -0.267 N 
ATOM      2  H   UNL     1      42.516 130.474  15.317  1.00  0.00     0.356 HD
ATOM      3  H   UNL     1      42.985 130.043  16.858  1.00  0.00     0.356 HD
ENDROOT
BRANCH   1   4
ATOM      4  C   UNL     1      42.932 132.082  16.586  1.00  0.00     0.368 C 
ATOM      5  C   UNL     1      42.874 133.204  15.608  1.00  0.00     0.455 C 
ATOM      6  O   UNL     1      41.707 132.586  16.102  1.00  0.00    -0.253 OA
BRANCH   5   7
ATOM      7  N   UNL     1      43.061 134.532  16.183  1.00  0.00    -0.089 N 
ATOM      8  C   UNL     1      42.749 136.578  16.893  1.00  0.00     0.170 A 
ATOM      9  N   UNL     1      44.050 136.259  17.035  1.00  0.00    -0.147 N 
ATOM     10  C   UNL     1      42.116 135.477  16.355  1.00  0.00     0.204 A 
ATOM     11  N   UNL     1      44.219 135.017  16.605  1.00  0.00     0.091 NA
ATOM     12  C   UNL     1      42.154 137.916  17.188  1.00  0.00     0.100 C 
ATOM     13  H   UNL     1      44.813 136.870  17.401  1.00  0.00     0.342 HD
BRANCH  10  14
ATOM     14  C   UNL     1      40.699 135.354  15.953  1.00  0.00     0.036 A 
ATOM     15  C   UNL     1      40.378 135.595  14.619  1.00  0.00     0.022 A 
ATOM     16  C   UNL     1      39.690 134.967  16.864  1.00  0.00    -0.006 A 
ATOM     17  C   UNL     1      39.074 135.435  14.151  1.00  0.00    -0.017 A 
ATOM     18  C   UNL     1      39.998 134.736  18.223  1.00  0.00     0.009 A 
ATOM     19  C   UNL     1      38.342 134.824  16.416  1.00  0.00    -0.010 A 
ATOM     20  C   UNL     1      38.805 135.647  12.789  1.00  0.00     0.009 A 
ATOM     21  C   UNL     1      38.031 135.055  15.040  1.00  0.00    -0.010 A 
ATOM     22  C   UNL     1      39.009 134.357  19.124  1.00  0.00     0.001 A 
ATOM     23  C   UNL     1      37.358 134.448  17.365  1.00  0.00     0.009 A 
ATOM     24  C   UNL     1      37.514 135.491  12.291  1.00  0.00     0.001 A 
ATOM     25  C   UNL     1      36.725 134.915  14.505  1.00  0.00     0.009 A 
ATOM     26  C   UNL     1      37.695 134.214  18.698  1.00  0.00     0.001 A 
ATOM     27  C   UNL     1      36.479 135.129  13.148  1.00  0.00     0.001 A 
ENDBRANCH  10  14
ENDBRANCH   5   7
BRANCH   4  28
ATOM     28  C   UNL     1      43.022 132.322  18.039  1.00  0.00     0.170 C 
ATOM     29  N   UNL     1      43.092 132.511  19.179  1.00  0.00    -0.188 NA
ENDBRANCH   4  28
ENDBRANCH   1   4
BRANCH   1  30
ATOM     30  C   UNL     1      44.561 130.564  15.660  1.00  0.00     0.137 A 
ATOM     31  C   UNL     1      45.537 130.276  16.635  1.00  0.00     0.068 A 
ATOM     32  C   UNL     1      44.961 130.669  14.294  1.00  0.00     0.028 A 
ATOM     33  C   UNL     1      46.873 130.108  16.288  1.00  0.00     0.008 A 
ATOM     34  C   UNL     1      46.324 130.451  13.956  1.00  0.00     0.061 A 
ATOM     35  C   UNL     1      47.265 130.188  14.958  1.00  0.00     0.020 A 
ATOM     36  C   UNL     1      43.939 130.950  13.215  1.00  0.00     0.052 C 
BRANCH  34  37
ATOM     37  C   UNL     1      46.790 130.476  12.590  1.00  0.00     0.100 C 
ATOM     38  N   UNL     1      47.165 130.498  11.495  1.00  0.00    -0.192 NA
ENDBRANCH  34  37
ENDBRANCH   1  30
TORSDOF 6
ENDMDL
MODEL 6
REMARK VINA RESULT:      -5.3      2.585      6.784
REMARK SMILES Cc1[nH+]nn([C@@H]2O[C@@]2(C#N)[NH2+]c2cccc(C#N)c2C)c1-c1cc2ccccc2c2ccccc12
REMARK SMILES IDX 11 1 8 4 6 5 7 6 5 7 2 8 3 9 21 10 4 11 1 12 22 14 23 15
REMARK SMILES IDX 35 16 24 17 34 18 30 19 25 20 29 21 33 22 31 23 26 24 28 25
REMARK SMILES IDX 32 26 27 27 9 28 10 29 12 30 13 31 19 32 14 33 16 34 15 35
REMARK SMILES IDX 20 36 17 37 18 38
REMARK H PARENT 11 2 11 3 3 13
ROOT
ATOM      1  N   UNL     1      44.109 131.245  19.046  1.00  0.00    -0.267 N 
ATOM      2  H   UNL     1      43.327 130.569  18.897  1.00  0.00     0.356 HD
ATOM      3  H   UNL     1      44.937 130.666  19.323  1.00  0.00     0.356 HD
ENDROOT
BRANCH   1   4
ATOM      4  C   UNL     1      43.804 132.171  20.151  1.00  0.00     0.368 C 
ATOM      5  C   UNL     1      42.378 132.399  20.517  1.00  0.00     0.455 C 
ATOM      6  O   UNL     1      43.193 131.495  21.228  1.00  0.00    -0.253 OA
BRANCH   5   7
ATOM      7  N   UNL     1      42.128 133.613  21.289  1.00  0.00    -0.089 N 
ATOM      8  C   UNL     1      41.584 135.643  21.895  1.00  0.00     0.170 A 
ATOM      9  N   UNL     1      42.101 134.994  22.956  1.00  0.00    -0.147 N 
ATOM     10  C   UNL     1      41.597 134.764  20.833  1.00  0.00     0.204 A 
ATOM     11  N   UNL     1      42.419 133.766  22.571  1.00  0.00     0.091 NA
ATOM     12  C   UNL     1      41.170 137.078  21.883  1.00  0.00     0.100 C 
ATOM     13  H   UNL     1      42.249 135.373  23.917  1.00  0.00     0.342 HD
BRANCH  10  14
ATOM     14  C   UNL     1      41.193 135.026  19.435  1.00  0.00     0.036 A 
ATOM     15  C   UNL     1      40.070 134.360  18.947  1.00  0.00     0.022 A 
ATOM     16  C   UNL     1      41.883 135.945  18.613  1.00  0.00    -0.006 A 
ATOM     17  C   UNL     1      39.591 134.604  17.660  1.00  0.00    -0.017 A 
ATOM     18  C   UNL     1      43.032 136.614  19.089  1.00  0.00     0.009 A 
ATOM     19  C   UNL     1      41.428 136.191  17.282  1.00  0.00    -0.010 A 
ATOM     20  C   UNL     1      38.430 133.943  17.226  1.00  0.00     0.009 A 
ATOM     21  C   UNL     1      40.264 135.516  16.802  1.00  0.00    -0.010 A 
ATOM     22  C   UNL     1      43.716 137.518  18.284  1.00  0.00     0.001 A 
ATOM     23  C   UNL     1      42.157 137.111  16.486  1.00  0.00     0.009 A 
ATOM     24  C   UNL     1      37.924 134.169  15.949  1.00  0.00     0.001 A 
ATOM     25  C   UNL     1      39.730 135.717  15.503  1.00  0.00     0.009 A 
ATOM     26  C   UNL     1      43.281 137.765  16.988  1.00  0.00     0.001 A 
ATOM     27  C   UNL     1      38.575 135.051  15.091  1.00  0.00     0.001 A 
ENDBRANCH  10  14
ENDBRANCH   5   7
BRANCH   4  28
ATOM     28  C   UNL     1      44.886 133.034  20.663  1.00  0.00     0.170 C 
ATOM     29  N   UNL     1      45.735 133.710  21.066  1.00  0.00    -0.188 NA
ENDBRANCH   4  28
ENDBRANCH   1   4
BRANCH   1  30
ATOM     30  C   UNL     1      44.426 131.970  17.830  1.00  0.00     0.137 A 
ATOM     31  C   UNL     1      43.891 133.262  17.657  1.00  0.00     0.068 A 
ATOM     32  C   UNL     1      45.276 131.435  16.816  1.00  0.00     0.028 A 
ATOM     33  C   UNL     1      44.166 134.009  16.517  1.00  0.00     0.008 A 
ATOM     34  C   UNL     1      45.579 132.231  15.679  1.00  0.00     0.061 A 
ATOM     35  C   UNL     1      45.010 133.501  15.536  1.00  0.00     0.020 A 
ATOM     36  C   UNL     1      45.892 130.062  16.978  1.00  0.00     0.052 C 
BRANCH  34  37
ATOM     37  C   UNL     1      46.483 131.783  14.646  1.00  0.00     0.100 C 
ATOM     38  N   UNL     1      47.206 131.425  13.817  1.00  0.00    -0.192 NA
ENDBRANCH  34  37
ENDBRANCH   1  30
TORSDOF 6
ENDMDL
MODEL 7
REMARK VINA RESULT:      -5.2      1.918      5.129
REMARK SMILES Cc1[nH+]nn([C@@H]2O[C@@]2(C#N)[NH2+]c2cccc(C#N)c2C)c1-c1cc2ccccc2c2ccccc12
REMARK SMILES IDX 11 1 8 4 6 5 7 6 5 7 2 8 3 9 21 10 4 11 1 12 22 14 23 15
REMARK SMILES IDX 35 16 24 17 34 18 30 19 25 20 29 21 33 22 31 23 26 24 28 25
REMARK SMILES IDX 32 26 27 27 9 28 10 29 12 30 13 31 19 32 14 33 16 34 15 35
REMARK SMILES IDX 20 36 17 37 18 38
REMARK H PARENT 11 2 11 3 3 13
ROOT
ATOM      1  N   UNL     1      43.613 133.991  15.141  1.00  0.00    -0.267 N 
ATOM      2  H   UNL     1      44.345 134.708  14.940  1.00  0.00     0.356 HD
ATOM      3  H   UNL     1      43.311 133.623  14.208  1.00  0.00     0.356 HD
ENDROOT
BRANCH   1   4
ATOM      4  C   UNL     1      42.443 134.598  15.799  1.00  0.00     0.368 C 
ATOM      5  C   UNL     1      42.669 135.676  16.802  1.00  0.00     0.455 C 
ATOM      6  O   UNL     1      42.323 135.963  15.465  1.00  0.00    -0.253 OA
BRANCH   5   7
ATOM      7  N   UNL     1      41.550 135.918  17.707  1.00  0.00    -0.089 N 
ATOM      8  C   UNL     1      40.232 135.975  19.453  1.00  0.00     0.170 A 
ATOM      9  N   UNL     1      39.589 136.519  18.402  1.00  0.00    -0.147 N 
ATOM     10  C   UNL     1      41.483 135.595  19.013  1.00  0.00     0.204 A 
ATOM     11  N   UNL     1      40.403 136.481  17.356  1.00  0.00     0.091 NA
ATOM     12  C   UNL     1      39.637 135.755  20.805  1.00  0.00     0.100 C 
ATOM     13  H   UNL     1      38.616 136.897  18.385  1.00  0.00     0.342 HD
BRANCH  10  14
ATOM     14  C   UNL     1      42.537 134.893  19.775  1.00  0.00     0.036 A 
ATOM     15  C   UNL     1      42.296 133.573  20.152  1.00  0.00     0.022 A 
ATOM     16  C   UNL     1      43.771 135.505  20.091  1.00  0.00    -0.006 A 
ATOM     17  C   UNL     1      43.268 132.825  20.816  1.00  0.00    -0.017 A 
ATOM     18  C   UNL     1      44.021 136.847  19.730  1.00  0.00     0.009 A 
ATOM     19  C   UNL     1      44.771 134.769  20.796  1.00  0.00    -0.010 A 
ATOM     20  C   UNL     1      42.999 131.485  21.137  1.00  0.00     0.009 A 
ATOM     21  C   UNL     1      44.519 133.410  21.158  1.00  0.00    -0.010 A 
ATOM     22  C   UNL     1      45.233 137.455  20.040  1.00  0.00     0.001 A 
ATOM     23  C   UNL     1      45.990 135.424  21.105  1.00  0.00     0.009 A 
ATOM     24  C   UNL     1      43.950 130.711  21.796  1.00  0.00     0.001 A 
ATOM     25  C   UNL     1      45.463 132.599  21.838  1.00  0.00     0.009 A 
ATOM     26  C   UNL     1      46.213 136.747  20.724  1.00  0.00     0.001 A 
ATOM     27  C   UNL     1      45.176 131.268  22.148  1.00  0.00     0.001 A 
ENDBRANCH  10  14
ENDBRANCH   5   7
BRANCH   4  28
ATOM     28  C   UNL     1      41.132 133.939  15.648  1.00  0.00     0.170 C 
ATOM     29  N   UNL     1      40.104 133.420  15.531  1.00  0.00    -0.188 NA
ENDBRANCH   4  28
ENDBRANCH   1   4
BRANCH   1  30
ATOM     30  C   UNL     1      44.145 132.894  15.930  1.00  0.00     0.137 A 
ATOM     31  C   UNL     1      44.447 133.124  17.286  1.00  0.00     0.068 A 
ATOM     32  C   UNL     1      44.350 131.589  15.390  1.00  0.00     0.028 A 
ATOM     33  C   UNL     1      44.950 132.111  18.094  1.00  0.00     0.008 A 
ATOM     34  C   UNL     1      44.824 130.557  16.243  1.00  0.00     0.061 A 
ATOM     35  C   UNL     1      45.132 130.833  17.579  1.00  0.00     0.020 A 
ATOM     36  C   UNL     1      44.011 131.295  13.945  1.00  0.00     0.052 C 
BRANCH  34  37
ATOM     37  C   UNL     1      44.993 129.198  15.784  1.00  0.00     0.100 C 
ATOM     38  N   UNL     1      45.129 128.108  15.418  1.00  0.00    -0.192 NA
ENDBRANCH  34  37
ENDBRANCH   1  30
TORSDOF 6
ENDMDL
MODEL 8
REMARK VINA RESULT:      -5.2      2.353      5.744
REMARK SMILES Cc1[nH+]nn([C@@H]2O[C@@]2(C#N)[NH2+]c2cccc(C#N)c2C)c1-c1cc2ccccc2c2ccccc12
REMARK SMILES IDX 11 1 8 4 6 5 7 6 5 7 2 8 3 9 21 10 4 11 1 12 22 14 23 15
REMARK SMILES IDX 35 16 24 17 34 18 30 19 25 20 29 21 33 22 31 23 26 24 28 25
REMARK SMILES IDX 32 26 27 27 9 28 10 29 12 30 13 31 19 32 14 33 16 34 15 35
REMARK SMILES IDX 20 36 17 37 18 38
REMARK H PARENT 11 2 11 3 3 13
ROOT
ATOM      1  N   UNL     1      44.547 137.089  19.642  1.00  0.00    -0.267 N 
ATOM      2  H   UNL     1      45.368 137.041  18.998  1.00  0.00     0.356 HD
ATOM      3  H   UNL     1      44.605 138.027  20.106  1.00  0.00     0.356 HD
ENDROOT
BRANCH   1   4
ATOM      4  C   UNL     1      44.630 136.052  20.685  1.00  0.00     0.368 C 
ATOM      5  C   UNL     1      45.421 134.821  20.406  1.00  0.00     0.455 C 
ATOM      6  O   UNL     1      45.954 135.897  21.145  1.00  0.00    -0.253 OA
BRANCH   5   7
ATOM      7  N   UNL     1      45.112 133.683  21.265  1.00  0.00    -0.089 N 
ATOM      8  C   UNL     1      44.162 131.940  22.184  1.00  0.00     0.170 A 
ATOM      9  N   UNL     1      45.239 132.286  22.914  1.00  0.00    -0.147 N 
ATOM     10  C   UNL     1      44.081 132.826  21.131  1.00  0.00     0.204 A 
ATOM     11  N   UNL     1      45.804 133.339  22.341  1.00  0.00     0.091 NA
ATOM     12  C   UNL     1      43.201 130.850  22.532  1.00  0.00     0.100 C 
ATOM     13  H   UNL     1      45.581 131.831  23.789  1.00  0.00     0.342 HD
BRANCH  10  14
ATOM     14  C   UNL     1      43.035 132.903  20.089  1.00  0.00     0.036 A 
ATOM     15  C   UNL     1      41.803 133.449  20.445  1.00  0.00     0.022 A 
ATOM     16  C   UNL     1      43.264 132.479  18.760  1.00  0.00    -0.006 A 
ATOM     17  C   UNL     1      40.789 133.614  19.501  1.00  0.00    -0.017 A 
ATOM     18  C   UNL     1      44.502 131.909  18.392  1.00  0.00     0.009 A 
ATOM     19  C   UNL     1      42.232 132.612  17.783  1.00  0.00    -0.010 A 
ATOM     20  C   UNL     1      39.579 134.209  19.893  1.00  0.00     0.009 A 
ATOM     21  C   UNL     1      40.981 133.192  18.156  1.00  0.00    -0.010 A 
ATOM     22  C   UNL     1      44.733 131.489  17.086  1.00  0.00     0.001 A 
ATOM     23  C   UNL     1      42.499 132.162  16.465  1.00  0.00     0.009 A 
ATOM     24  C   UNL     1      38.550 134.391  18.974  1.00  0.00     0.001 A 
ATOM     25  C   UNL     1      39.910 133.381  17.246  1.00  0.00     0.009 A 
ATOM     26  C   UNL     1      43.736 131.614  16.127  1.00  0.00     0.001 A 
ATOM     27  C   UNL     1      38.715 133.976  17.656  1.00  0.00     0.001 A 
ENDBRANCH  10  14
ENDBRANCH   5   7
BRANCH   4  28
ATOM     28  C   UNL     1      43.716 136.143  21.839  1.00  0.00     0.170 C 
ATOM     29  N   UNL     1      42.998 136.215  22.745  1.00  0.00    -0.188 NA
ENDBRANCH   4  28
ENDBRANCH   1   4
BRANCH   1  30
ATOM     30  C   UNL     1      43.294 136.999  18.914  1.00  0.00     0.137 A 
ATOM     31  C   UNL     1      42.144 137.587  19.477  1.00  0.00     0.068 A 
ATOM     32  C   UNL     1      43.190 136.360  17.642  1.00  0.00     0.028 A 
ATOM     33  C   UNL     1      40.918 137.540  18.823  1.00  0.00     0.008 A 
ATOM     34  C   UNL     1      41.938 136.361  16.971  1.00  0.00     0.061 A 
ATOM     35  C   UNL     1      40.815 136.938  17.575  1.00  0.00     0.020 A 
ATOM     36  C   UNL     1      44.408 135.741  16.992  1.00  0.00     0.052 C 
BRANCH  34  37
ATOM     37  C   UNL     1      41.771 135.792  15.654  1.00  0.00     0.100 C 
ATOM     38  N   UNL     1      41.639 135.336  14.599  1.00  0.00    -0.192 NA
ENDBRANCH  34  37
ENDBRANCH   1  30
TORSDOF 6
ENDMDL
MODEL 9
REMARK VINA RESULT:      -5.1      2.650      7.140
REMARK SMILES Cc1[nH+]nn([C@@H]2O[C@@]2(C#N)[NH2+]c2cccc(C#N)c2C)c1-c1cc2ccccc2c2ccccc12
REMARK SMILES IDX 11 1 8 4 6 5 7 6 5 7 2 8 3 9 21 10 4 11 1 12 22 14 23 15
REMARK SMILES IDX 35 16 24 17 34 18 30 19 25 20 29 21 33 22 31 23 26 24 28 25
REMARK SMILES IDX 32 26 27 27 9 28 10 29 12 30 13 31 19 32 14 33 16 34 15 35
REMARK SMILES IDX 20 36 17 37 18 38
REMARK H PARENT 11 2 11 3 3 13
ROOT
ATOM      1  N   UNL     1      42.975 131.630  19.525  1.00  0.00    -0.267 N 
ATOM      2  H   UNL     1      42.110 131.065  19.680  1.00  0.00     0.356 HD
ATOM      3  H   UNL     1      43.772 131.018  19.823  1.00  0.00     0.356 HD
ENDROOT
BRANCH   1   4
ATOM      4  C   UNL     1      42.978 132.836  20.371  1.00  0.00     0.368 C 
ATOM      5  C   UNL     1      41.702 133.262  21.011  1.00  0.00     0.455 C 
ATOM      6  O   UNL     1      42.675 132.519  21.712  1.00  0.00    -0.253 OA
BRANCH   5   7
ATOM      7  N   UNL     1      41.670 134.652  21.455  1.00  0.00    -0.089 N 
ATOM      8  C   UNL     1      41.384 136.818  21.560  1.00  0.00     0.170 A 
ATOM      9  N   UNL     1      42.010 136.405  22.679  1.00  0.00    -0.147 N 
ATOM     10  C   UNL     1      41.163 135.702  20.781  1.00  0.00     0.204 A 
ATOM     11  N   UNL     1      42.170 135.091  22.600  1.00  0.00     0.091 NA
ATOM     12  C   UNL     1      41.085 138.241  21.219  1.00  0.00     0.100 C 
ATOM     13  H   UNL     1      42.336 136.996  23.475  1.00  0.00     0.342 HD
BRANCH  10  14
ATOM     14  C   UNL     1      40.566 135.645  19.430  1.00  0.00     0.036 A 
ATOM     15  C   UNL     1      41.329 136.116  18.362  1.00  0.00     0.022 A 
ATOM     16  C   UNL     1      39.283 135.101  19.196  1.00  0.00    -0.006 A 
ATOM     17  C   UNL     1      40.859 136.034  17.051  1.00  0.00    -0.017 A 
ATOM     18  C   UNL     1      38.493 134.637  20.271  1.00  0.00     0.009 A 
ATOM     19  C   UNL     1      38.769 135.033  17.866  1.00  0.00    -0.010 A 
ATOM     20  C   UNL     1      41.680 136.480  16.002  1.00  0.00     0.009 A 
ATOM     21  C   UNL     1      39.570 135.501  16.779  1.00  0.00    -0.010 A 
ATOM     22  C   UNL     1      37.229 134.102  20.048  1.00  0.00     0.001 A 
ATOM     23  C   UNL     1      37.472 134.493  17.678  1.00  0.00     0.009 A 
ATOM     24  C   UNL     1      41.242 136.408  14.683  1.00  0.00     0.001 A 
ATOM     25  C   UNL     1      39.148 135.451  15.426  1.00  0.00     0.009 A 
ATOM     26  C   UNL     1      36.720 134.031  18.758  1.00  0.00     0.001 A 
ATOM     27  C   UNL     1      39.979 135.898  14.398  1.00  0.00     0.001 A 
ENDBRANCH  10  14
ENDBRANCH   5   7
BRANCH   4  28
ATOM     28  C   UNL     1      44.159 133.719  20.331  1.00  0.00     0.170 C 
ATOM     29  N   UNL     1      45.086 134.412  20.298  1.00  0.00    -0.188 NA
ENDBRANCH   4  28
ENDBRANCH   1   4
BRANCH   1  30
ATOM     30  C   UNL     1      43.142 131.974  18.125  1.00  0.00     0.137 A 
ATOM     31  C   UNL     1      42.077 132.608  17.455  1.00  0.00     0.068 A 
ATOM     32  C   UNL     1      44.350 131.716  17.410  1.00  0.00     0.028 A 
ATOM     33  C   UNL     1      42.182 132.970  16.116  1.00  0.00     0.008 A 
ATOM     34  C   UNL     1      44.452 132.132  16.055  1.00  0.00     0.061 A 
ATOM     35  C   UNL     1      43.363 132.740  15.421  1.00  0.00     0.020 A 
ATOM     36  C   UNL     1      45.526 131.061  18.102  1.00  0.00     0.052 C 
BRANCH  34  37
ATOM     37  C   UNL     1      45.664 131.964  15.289  1.00  0.00     0.100 C 
ATOM     38  N   UNL     1      46.636 131.828  14.675  1.00  0.00    -0.192 NA
ENDBRANCH  34  37
ENDBRANCH   1  30
TORSDOF 6
ENDMDL


