MODEL 1
REMARK VINA RESULT:      -6.1      0.000      0.000
REMARK SMILES C#C/C(N=[N+]=[N-])=N\[C@H](c1c(C)[nH+]nn1-c1c2ccccc2c(C=O)c2ccccc12)C(C)C
REMARK SMILES IDX 7 1 3 2 2 3 1 4 4 5 5 6 6 7 8 8 9 9 10 10 14 11 12 12 13 13
REMARK SMILES IDX 11 14 15 16 16 17 30 18 17 19 21 20 29 21 25 22 18 23 20 24
REMARK SMILES IDX 22 25 28 26 26 27 19 28 27 29 23 30 24 31 31 32 32 33 33 34
REMARK H PARENT 12 15
ROOT
ATOM      1  N   UNL     1      43.937 132.128  17.011  1.00  0.00    -0.262 NA
ENDROOT
BRANCH   1   2
ATOM      2  C   UNL     1      45.035 131.442  16.856  1.00  0.00     0.172 C 
BRANCH   2   3
ATOM      3  C   UNL     1      45.871 131.592  15.694  1.00  0.00    -0.049 C 
ATOM      4  C   UNL     1      46.587 131.733  14.735  1.00  0.00     0.011 C 
ENDBRANCH   2   3
BRANCH   2   5
ATOM      5  N   UNL     1      45.441 130.510  17.862  1.00  0.00    -0.032 NA
BRANCH   5   6
ATOM      6  N   UNL     1      45.595 130.856  19.034  1.00  0.00     0.008 N 
ATOM      7  N   UNL     1      45.748 131.200  20.206  1.00  0.00    -0.003 NA
ENDBRANCH   5   6
ENDBRANCH   2   5
ENDBRANCH   1   2
BRANCH   1   8
ATOM      8  C   UNL     1      43.826 133.543  17.385  1.00  0.00     0.186 C 
BRANCH   8   9
ATOM      9  C   UNL     1      42.909 133.737  18.585  1.00  0.00     0.201 A 
ATOM     10  C   UNL     1      41.792 132.999  18.968  1.00  0.00     0.167 A 
ATOM     11  N   UNL     1      42.990 134.765  19.463  1.00  0.00    -0.095 N 
ATOM     12  N   UNL     1      41.278 133.587  20.066  1.00  0.00    -0.147 N 
ATOM     13  N   UNL     1      42.007 134.656  20.343  1.00  0.00     0.094 NA
ATOM     14  C   UNL     1      41.217 131.767  18.342  1.00  0.00     0.100 C 
ATOM     15  H   UNL     1      40.440 133.284  20.610  1.00  0.00     0.342 HD
BRANCH  11  16
ATOM     16  C   UNL     1      43.904 135.875  19.437  1.00  0.00     0.171 A 
ATOM     17  C   UNL     1      43.590 137.027  18.685  1.00  0.00     0.032 A 
ATOM     18  C   UNL     1      45.110 135.814  20.165  1.00  0.00     0.032 A 
ATOM     19  C   UNL     1      42.370 137.110  17.977  1.00  0.00     0.013 A 
ATOM     20  C   UNL     1      44.514 138.104  18.606  1.00  0.00    -0.003 A 
ATOM     21  C   UNL     1      45.396 134.699  20.979  1.00  0.00     0.013 A 
ATOM     22  C   UNL     1      46.034 136.891  20.107  1.00  0.00    -0.003 A 
ATOM     23  C   UNL     1      42.077 138.217  17.186  1.00  0.00     0.001 A 
ATOM     24  C   UNL     1      44.202 139.203  17.771  1.00  0.00     0.009 A 
ATOM     25  C   UNL     1      45.736 138.040  19.328  1.00  0.00     0.030 A 
ATOM     26  C   UNL     1      46.579 134.637  21.714  1.00  0.00     0.001 A 
ATOM     27  C   UNL     1      47.226 136.801  20.866  1.00  0.00     0.009 A 
ATOM     28  C   UNL     1      42.994 139.257  17.077  1.00  0.00     0.001 A 
ATOM     29  C   UNL     1      47.492 135.683  21.654  1.00  0.00     0.001 A 
BRANCH  25  30
ATOM     30  C   UNL     1      46.699 139.169  19.288  1.00  0.00     0.261 C 
ATOM     31  O   UNL     1      47.541 139.265  18.356  1.00  0.00    -0.298 OA
ENDBRANCH  25  30
ENDBRANCH  11  16
ENDBRANCH   8   9
BRANCH   8  32
ATOM     32  C   UNL     1      43.355 134.369  16.161  1.00  0.00     0.016 C 
ATOM     33  C   UNL     1      42.831 133.493  15.013  1.00  0.00     0.010 C 
ATOM     34  C   UNL     1      44.476 135.288  15.654  1.00  0.00     0.010 C 
ENDBRANCH   8  32
ENDBRANCH   1   8
TORSDOF 9
ENDMDL
MODEL 2
REMARK VINA RESULT:      -5.7      2.091      3.212
REMARK SMILES C#C/C(N=[N+]=[N-])=N\[C@H](c1c(C)[nH+]nn1-c1c2ccccc2c(C=O)c2ccccc12)C(C)C
REMARK SMILES IDX 7 1 3 2 2 3 1 4 4 5 5 6 6 7 8 8 9 9 10 10 14 11 12 12 13 13
REMARK SMILES IDX 11 14 15 16 16 17 30 18 17 19 21 20 29 21 25 22 18 23 20 24
REMARK SMILES IDX 22 25 28 26 26 27 19 28 27 29 23 30 24 31 31 32 32 33 33 34
REMARK H PARENT 12 15
ROOT
ATOM      1  N   UNL     1      42.820 132.453  16.369  1.00  0.00    -0.262 NA
ENDROOT
BRANCH   1   2
ATOM      2  C   UNL     1      43.802 131.639  16.100  1.00  0.00     0.172 C 
BRANCH   2   3
ATOM      3  C   UNL     1      44.069 131.183  14.760  1.00  0.00    -0.049 C 
ATOM      4  C   UNL     1      44.283 130.823  13.630  1.00  0.00     0.011 C 
ENDBRANCH   2   3
BRANCH   2   5
ATOM      5  N   UNL     1      44.653 131.176  17.151  1.00  0.00    -0.032 NA
BRANCH   5   6
ATOM      6  N   UNL     1      45.729 130.626  16.913  1.00  0.00     0.008 N 
ATOM      7  N   UNL     1      46.804 130.076  16.675  1.00  0.00    -0.003 NA
ENDBRANCH   5   6
ENDBRANCH   2   5
ENDBRANCH   1   2
BRANCH   1   8
ATOM      8  C   UNL     1      42.910 133.746  17.058  1.00  0.00     0.186 C 
BRANCH   8   9
ATOM      9  C   UNL     1      41.793 133.919  18.078  1.00  0.00     0.201 A 
ATOM     10  C   UNL     1      40.420 134.022  17.870  1.00  0.00     0.167 A 
ATOM     11  N   UNL     1      41.979 134.095  19.408  1.00  0.00    -0.095 N 
ATOM     12  N   UNL     1      39.845 134.218  19.073  1.00  0.00    -0.147 N 
ATOM     13  N   UNL     1      40.801 134.270  19.986  1.00  0.00     0.094 NA
ATOM     14  C   UNL     1      39.651 133.928  16.589  1.00  0.00     0.100 C 
ATOM     15  H   UNL     1      38.827 134.332  19.274  1.00  0.00     0.342 HD
BRANCH  11  16
ATOM     16  C   UNL     1      43.226 134.189  20.117  1.00  0.00     0.171 A 
ATOM     17  C   UNL     1      43.972 135.386  20.072  1.00  0.00     0.032 A 
ATOM     18  C   UNL     1      43.700 133.089  20.860  1.00  0.00     0.032 A 
ATOM     19  C   UNL     1      43.490 136.504  19.355  1.00  0.00     0.013 A 
ATOM     20  C   UNL     1      45.234 135.467  20.721  1.00  0.00    -0.003 A 
ATOM     21  C   UNL     1      42.924 131.917  20.973  1.00  0.00     0.013 A 
ATOM     22  C   UNL     1      44.953 133.164  21.527  1.00  0.00    -0.003 A 
ATOM     23  C   UNL     1      44.246 137.669  19.256  1.00  0.00     0.001 A 
ATOM     24  C   UNL     1      45.992 136.654  20.579  1.00  0.00     0.009 A 
ATOM     25  C   UNL     1      45.721 134.356  21.460  1.00  0.00     0.030 A 
ATOM     26  C   UNL     1      43.379 130.830  21.718  1.00  0.00     0.001 A 
ATOM     27  C   UNL     1      45.387 132.045  22.279  1.00  0.00     0.009 A 
ATOM     28  C   UNL     1      45.497 137.741  19.859  1.00  0.00     0.001 A 
ATOM     29  C   UNL     1      44.607 130.893  22.365  1.00  0.00     0.001 A 
BRANCH  25  30
ATOM     30  C   UNL     1      47.019 134.432  22.175  1.00  0.00     0.261 C 
ATOM     31  O   UNL     1      48.095 134.131  21.593  1.00  0.00    -0.298 OA
ENDBRANCH  25  30
ENDBRANCH  11  16
ENDBRANCH   8   9
BRANCH   8  32
ATOM     32  C   UNL     1      42.918 134.893  16.015  1.00  0.00     0.016 C 
ATOM     33  C   UNL     1      42.455 134.438  14.622  1.00  0.00     0.010 C 
ATOM     34  C   UNL     1      44.307 135.542  15.923  1.00  0.00     0.010 C 
ENDBRANCH   8  32
ENDBRANCH   1   8
TORSDOF 9
ENDMDL
MODEL 3
REMARK VINA RESULT:      -5.7      2.895      6.104
REMARK SMILES C#C/C(N=[N+]=[N-])=N\[C@H](c1c(C)[nH+]nn1-c1c2ccccc2c(C=O)c2ccccc12)C(C)C
REMARK SMILES IDX 7 1 3 2 2 3 1 4 4 5 5 6 6 7 8 8 9 9 10 10 14 11 12 12 13 13
REMARK SMILES IDX 11 14 15 16 16 17 30 18 17 19 21 20 29 21 25 22 18 23 20 24
REMARK SMILES IDX 22 25 28 26 26 27 19 28 27 29 23 30 24 31 31 32 32 33 33 34
REMARK H PARENT 12 15
ROOT
ATOM      1  N   UNL     1      42.510 137.304  17.497  1.00  0.00    -0.262 NA
ENDROOT
BRANCH   1   2
ATOM      2  C   UNL     1      41.863 137.571  16.397  1.00  0.00     0.172 C 
BRANCH   2   3
ATOM      3  C   UNL     1      40.948 138.679  16.300  1.00  0.00    -0.049 C 
ATOM      4  C   UNL     1      40.202 139.622  16.214  1.00  0.00     0.011 C 
ENDBRANCH   2   3
BRANCH   2   5
ATOM      5  N   UNL     1      42.056 136.754  15.240  1.00  0.00    -0.032 NA
BRANCH   5   6
ATOM      6  N   UNL     1      41.111 136.408  14.532  1.00  0.00     0.008 N 
ATOM      7  N   UNL     1      40.165 136.061  13.825  1.00  0.00    -0.003 NA
ENDBRANCH   5   6
ENDBRANCH   2   5
ENDBRANCH   1   2
BRANCH   1   8
ATOM      8  C   UNL     1      43.022 135.997  17.924  1.00  0.00     0.186 C 
BRANCH   8   9
ATOM      9  C   UNL     1      41.923 135.132  18.527  1.00  0.00     0.201 A 
ATOM     10  C   UNL     1      40.796 135.517  19.250  1.00  0.00     0.167 A 
ATOM     11  N   UNL     1      41.917 133.778  18.530  1.00  0.00    -0.095 N 
ATOM     12  N   UNL     1      40.152 134.393  19.619  1.00  0.00    -0.147 N 
ATOM     13  N   UNL     1      40.848 133.355  19.186  1.00  0.00     0.094 NA
ATOM     14  C   UNL     1      40.315 136.895  19.581  1.00  0.00     0.100 C 
ATOM     15  H   UNL     1      39.267 134.325  20.169  1.00  0.00     0.342 HD
BRANCH  11  16
ATOM     16  C   UNL     1      42.926 132.893  18.013  1.00  0.00     0.171 A 
ATOM     17  C   UNL     1      42.949 132.580  16.637  1.00  0.00     0.032 A 
ATOM     18  C   UNL     1      43.894 132.343  18.879  1.00  0.00     0.032 A 
ATOM     19  C   UNL     1      42.003 133.151  15.757  1.00  0.00     0.013 A 
ATOM     20  C   UNL     1      43.907 131.661  16.129  1.00  0.00    -0.003 A 
ATOM     21  C   UNL     1      43.925 132.710  20.240  1.00  0.00     0.013 A 
ATOM     22  C   UNL     1      44.866 131.435  18.378  1.00  0.00    -0.003 A 
ATOM     23  C   UNL     1      41.981 132.804  14.409  1.00  0.00     0.001 A 
ATOM     24  C   UNL     1      43.841 131.306  14.760  1.00  0.00     0.009 A 
ATOM     25  C   UNL     1      44.875 131.094  17.000  1.00  0.00     0.030 A 
ATOM     26  C   UNL     1      44.887 132.182  21.099  1.00  0.00     0.001 A 
ATOM     27  C   UNL     1      45.833 130.918  19.275  1.00  0.00     0.009 A 
ATOM     28  C   UNL     1      42.892 131.878  13.914  1.00  0.00     0.001 A 
ATOM     29  C   UNL     1      45.835 131.287  20.619  1.00  0.00     0.001 A 
BRANCH  25  30
ATOM     30  C   UNL     1      45.905 130.161  16.483  1.00  0.00     0.261 C 
ATOM     31  O   UNL     1      46.951 130.596  15.931  1.00  0.00    -0.298 OA
ENDBRANCH  25  30
ENDBRANCH  11  16
ENDBRANCH   8   9
BRANCH   8  32
ATOM     32  C   UNL     1      44.202 136.197  18.910  1.00  0.00     0.016 C 
ATOM     33  C   UNL     1      43.739 136.420  20.358  1.00  0.00     0.010 C 
ATOM     34  C   UNL     1      45.104 137.355  18.459  1.00  0.00     0.010 C 
ENDBRANCH   8  32
ENDBRANCH   1   8
TORSDOF 9
ENDMDL
MODEL 4
REMARK VINA RESULT:      -5.7      2.729      5.260
REMARK SMILES C#C/C(N=[N+]=[N-])=N\[C@H](c1c(C)[nH+]nn1-c1c2ccccc2c(C=O)c2ccccc12)C(C)C
REMARK SMILES IDX 7 1 3 2 2 3 1 4 4 5 5 6 6 7 8 8 9 9 10 10 14 11 12 12 13 13
REMARK SMILES IDX 11 14 15 16 16 17 30 18 17 19 21 20 29 21 25 22 18 23 20 24
REMARK SMILES IDX 22 25 28 26 26 27 19 28 27 29 23 30 24 31 31 32 32 33 33 34
REMARK H PARENT 12 15
ROOT
ATOM      1  N   UNL     1      44.193 134.049  15.755  1.00  0.00    -0.262 NA
ENDROOT
BRANCH   1   2
ATOM      2  C   UNL     1      43.418 134.822  15.046  1.00  0.00     0.172 C 
BRANCH   2   3
ATOM      3  C   UNL     1      42.104 134.407  14.627  1.00  0.00    -0.049 C 
ATOM      4  C   UNL     1      41.007 134.076  14.255  1.00  0.00     0.011 C 
ENDBRANCH   2   3
BRANCH   2   5
ATOM      5  N   UNL     1      43.867 136.125  14.666  1.00  0.00    -0.032 NA
BRANCH   5   6
ATOM      6  N   UNL     1      43.115 137.100  14.704  1.00  0.00     0.008 N 
ATOM      7  N   UNL     1      42.364 138.074  14.741  1.00  0.00    -0.003 NA
ENDBRANCH   5   6
ENDBRANCH   2   5
ENDBRANCH   1   2
BRANCH   1   8
ATOM      8  C   UNL     1      43.867 132.721  16.287  1.00  0.00     0.186 C 
BRANCH   8   9
ATOM      9  C   UNL     1      44.044 132.661  17.798  1.00  0.00     0.201 A 
ATOM     10  C   UNL     1      44.728 131.723  18.567  1.00  0.00     0.167 A 
ATOM     11  N   UNL     1      43.461 133.507  18.681  1.00  0.00    -0.095 N 
ATOM     12  N   UNL     1      44.558 132.062  19.860  1.00  0.00    -0.147 N 
ATOM     13  N   UNL     1      43.783 133.132  19.909  1.00  0.00     0.094 NA
ATOM     14  C   UNL     1      45.536 130.545  18.118  1.00  0.00     0.100 C 
ATOM     15  H   UNL     1      44.943 131.570  20.697  1.00  0.00     0.342 HD
BRANCH  11  16
ATOM     16  C   UNL     1      42.552 134.585  18.398  1.00  0.00     0.171 A 
ATOM     17  C   UNL     1      43.024 135.915  18.382  1.00  0.00     0.032 A 
ATOM     18  C   UNL     1      41.195 134.313  18.130  1.00  0.00     0.032 A 
ATOM     19  C   UNL     1      44.388 136.194  18.618  1.00  0.00     0.013 A 
ATOM     20  C   UNL     1      42.121 136.990  18.161  1.00  0.00    -0.003 A 
ATOM     21  C   UNL     1      40.733 132.982  18.068  1.00  0.00     0.013 A 
ATOM     22  C   UNL     1      40.287 135.379  17.892  1.00  0.00    -0.003 A 
ATOM     23  C   UNL     1      44.851 137.507  18.663  1.00  0.00     0.001 A 
ATOM     24  C   UNL     1      42.615 138.315  18.242  1.00  0.00     0.009 A 
ATOM     25  C   UNL     1      40.750 136.721  17.905  1.00  0.00     0.030 A 
ATOM     26  C   UNL     1      39.396 132.704  17.790  1.00  0.00     0.001 A 
ATOM     27  C   UNL     1      38.935 135.065  17.609  1.00  0.00     0.009 A 
ATOM     28  C   UNL     1      43.965 138.564  18.484  1.00  0.00     0.001 A 
ATOM     29  C   UNL     1      38.500 133.742  17.565  1.00  0.00     0.001 A 
BRANCH  25  30
ATOM     30  C   UNL     1      39.798 137.828  17.636  1.00  0.00     0.261 C 
ATOM     31  O   UNL     1      39.550 138.192  16.456  1.00  0.00    -0.298 OA
ENDBRANCH  25  30
ENDBRANCH  11  16
ENDBRANCH   8   9
BRANCH   8  32
ATOM     32  C   UNL     1      44.720 131.647  15.565  1.00  0.00     0.016 C 
ATOM     33  C   UNL     1      46.108 132.163  15.154  1.00  0.00     0.010 C 
ATOM     34  C   UNL     1      43.980 131.090  14.340  1.00  0.00     0.010 C 
ENDBRANCH   8  32
ENDBRANCH   1   8
TORSDOF 9
ENDMDL
MODEL 5
REMARK VINA RESULT:      -5.6      2.609      3.609
REMARK SMILES C#C/C(N=[N+]=[N-])=N\[C@H](c1c(C)[nH+]nn1-c1c2ccccc2c(C=O)c2ccccc12)C(C)C
REMARK SMILES IDX 7 1 3 2 2 3 1 4 4 5 5 6 6 7 8 8 9 9 10 10 14 11 12 12 13 13
REMARK SMILES IDX 11 14 15 16 16 17 30 18 17 19 21 20 29 21 25 22 18 23 20 24
REMARK SMILES IDX 22 25 28 26 26 27 19 28 27 29 23 30 24 31 31 32 32 33 33 34
REMARK H PARENT 12 15
ROOT
ATOM      1  N   UNL     1      44.927 133.098  15.286  1.00  0.00    -0.262 NA
ENDROOT
BRANCH   1   2
ATOM      2  C   UNL     1      45.466 131.912  15.244  1.00  0.00     0.172 C 
BRANCH   2   3
ATOM      3  C   UNL     1      46.580 131.610  14.383  1.00  0.00    -0.049 C 
ATOM      4  C   UNL     1      47.509 131.380  13.651  1.00  0.00     0.011 C 
ENDBRANCH   2   3
BRANCH   2   5
ATOM      5  N   UNL     1      44.952 130.866  16.073  1.00  0.00    -0.032 NA
BRANCH   5   6
ATOM      6  N   UNL     1      45.030 129.683  15.738  1.00  0.00     0.008 N 
ATOM      7  N   UNL     1      45.109 128.502  15.403  1.00  0.00    -0.003 NA
ENDBRANCH   5   6
ENDBRANCH   2   5
ENDBRANCH   1   2
BRANCH   1   8
ATOM      8  C   UNL     1      44.369 133.772  16.464  1.00  0.00     0.186 C 
BRANCH   8   9
ATOM      9  C   UNL     1      42.962 133.282  16.779  1.00  0.00     0.201 A 
ATOM     10  C   UNL     1      41.943 132.908  15.905  1.00  0.00     0.167 A 
ATOM     11  N   UNL     1      42.425 133.214  18.021  1.00  0.00    -0.095 N 
ATOM     12  N   UNL     1      40.866 132.601  16.652  1.00  0.00    -0.147 N 
ATOM     13  N   UNL     1      41.171 132.801  17.923  1.00  0.00     0.094 NA
ATOM     14  C   UNL     1      41.969 132.822  14.411  1.00  0.00     0.100 C 
ATOM     15  H   UNL     1      39.933 132.278  16.311  1.00  0.00     0.342 HD
BRANCH  11  16
ATOM     16  C   UNL     1      43.032 133.606  19.264  1.00  0.00     0.171 A 
ATOM     17  C   UNL     1      42.565 134.751  19.943  1.00  0.00     0.032 A 
ATOM     18  C   UNL     1      44.088 132.845  19.805  1.00  0.00     0.032 A 
ATOM     19  C   UNL     1      41.487 135.502  19.424  1.00  0.00     0.013 A 
ATOM     20  C   UNL     1      43.198 135.179  21.142  1.00  0.00    -0.003 A 
ATOM     21  C   UNL     1      44.509 131.657  19.173  1.00  0.00     0.013 A 
ATOM     22  C   UNL     1      44.717 133.254  21.012  1.00  0.00    -0.003 A 
ATOM     23  C   UNL     1      41.058 136.666  20.056  1.00  0.00     0.001 A 
ATOM     24  C   UNL     1      42.758 136.382  21.746  1.00  0.00     0.009 A 
ATOM     25  C   UNL     1      44.271 134.422  21.683  1.00  0.00     0.030 A 
ATOM     26  C   UNL     1      45.542 130.891  19.709  1.00  0.00     0.001 A 
ATOM     27  C   UNL     1      45.762 132.454  21.534  1.00  0.00     0.009 A 
ATOM     28  C   UNL     1      41.696 137.109  21.209  1.00  0.00     0.001 A 
ATOM     29  C   UNL     1      46.169 131.290  20.884  1.00  0.00     0.001 A 
BRANCH  25  30
ATOM     30  C   UNL     1      44.922 134.832  22.953  1.00  0.00     0.261 C 
ATOM     31  O   UNL     1      45.918 135.603  22.947  1.00  0.00    -0.298 OA
ENDBRANCH  25  30
ENDBRANCH  11  16
ENDBRANCH   8   9
BRANCH   8  32
ATOM     32  C   UNL     1      44.408 135.308  16.252  1.00  0.00     0.016 C 
ATOM     33  C   UNL     1      44.599 136.087  17.563  1.00  0.00     0.010 C 
ATOM     34  C   UNL     1      43.144 135.795  15.528  1.00  0.00     0.010 C 
ENDBRANCH   8  32
ENDBRANCH   1   8
TORSDOF 9
ENDMDL
MODEL 6
REMARK VINA RESULT:      -5.5      2.213      3.492
REMARK SMILES C#C/C(N=[N+]=[N-])=N\[C@H](c1c(C)[nH+]nn1-c1c2ccccc2c(C=O)c2ccccc12)C(C)C
REMARK SMILES IDX 7 1 3 2 2 3 1 4 4 5 5 6 6 7 8 8 9 9 10 10 14 11 12 12 13 13
REMARK SMILES IDX 11 14 15 16 16 17 30 18 17 19 21 20 29 21 25 22 18 23 20 24
REMARK SMILES IDX 22 25 28 26 26 27 19 28 27 29 23 30 24 31 31 32 32 33 33 34
REMARK H PARENT 12 15
ROOT
ATOM      1  N   UNL     1      42.781 132.510  16.566  1.00  0.00    -0.262 NA
ENDROOT
BRANCH   1   2
ATOM      2  C   UNL     1      43.872 131.815  16.396  1.00  0.00     0.172 C 
BRANCH   2   3
ATOM      3  C   UNL     1      44.660 131.348  17.507  1.00  0.00    -0.049 C 
ATOM      4  C   UNL     1      45.319 130.981  18.446  1.00  0.00     0.011 C 
ENDBRANCH   2   3
BRANCH   2   5
ATOM      5  N   UNL     1      44.313 131.494  15.075  1.00  0.00    -0.032 NA
BRANCH   5   6
ATOM      6  N   UNL     1      45.492 131.619  14.742  1.00  0.00     0.008 N 
ATOM      7  N   UNL     1      46.670 131.743  14.410  1.00  0.00    -0.003 NA
ENDBRANCH   5   6
ENDBRANCH   2   5
ENDBRANCH   1   2
BRANCH   1   8
ATOM      8  C   UNL     1      42.676 133.868  17.111  1.00  0.00     0.186 C 
BRANCH   8   9
ATOM      9  C   UNL     1      41.587 133.967  18.170  1.00  0.00     0.201 A 
ATOM     10  C   UNL     1      40.205 134.039  18.008  1.00  0.00     0.167 A 
ATOM     11  N   UNL     1      41.808 134.095  19.500  1.00  0.00    -0.095 N 
ATOM     12  N   UNL     1      39.663 134.169  19.234  1.00  0.00    -0.147 N 
ATOM     13  N   UNL     1      40.644 134.212  20.119  1.00  0.00     0.094 NA
ATOM     14  C   UNL     1      39.400 133.974  16.747  1.00  0.00     0.100 C 
ATOM     15  H   UNL     1      38.649 134.246  19.470  1.00  0.00     0.342 HD
BRANCH  11  16
ATOM     16  C   UNL     1      43.074 134.196  20.175  1.00  0.00     0.171 A 
ATOM     17  C   UNL     1      43.789 135.413  20.150  1.00  0.00     0.032 A 
ATOM     18  C   UNL     1      43.597 133.084  20.866  1.00  0.00     0.032 A 
ATOM     19  C   UNL     1      43.258 136.542  19.487  1.00  0.00     0.013 A 
ATOM     20  C   UNL     1      45.067 135.504  20.765  1.00  0.00    -0.003 A 
ATOM     21  C   UNL     1      42.854 131.889  20.961  1.00  0.00     0.013 A 
ATOM     22  C   UNL     1      44.867 133.168  21.498  1.00  0.00    -0.003 A 
ATOM     23  C   UNL     1      43.982 137.729  19.407  1.00  0.00     0.001 A 
ATOM     24  C   UNL     1      45.792 136.714  20.641  1.00  0.00     0.009 A 
ATOM     25  C   UNL     1      45.604 134.381  21.449  1.00  0.00     0.030 A 
ATOM     26  C   UNL     1      43.357 130.789  21.654  1.00  0.00     0.001 A 
ATOM     27  C   UNL     1      45.351 132.036  22.197  1.00  0.00     0.009 A 
ATOM     28  C   UNL     1      45.248 137.811  19.975  1.00  0.00     0.001 A 
ATOM     29  C   UNL     1      44.603 130.862  22.266  1.00  0.00     0.001 A 
BRANCH  25  30
ATOM     30  C   UNL     1      46.921 134.466  22.128  1.00  0.00     0.261 C 
ATOM     31  O   UNL     1      47.977 134.129  21.531  1.00  0.00    -0.298 OA
ENDBRANCH  25  30
ENDBRANCH  11  16
ENDBRANCH   8   9
BRANCH   8  32
ATOM     32  C   UNL     1      42.448 134.876  15.956  1.00  0.00     0.016 C 
ATOM     33  C   UNL     1      43.646 134.970  14.998  1.00  0.00     0.010 C 
ATOM     34  C   UNL     1      42.100 136.269  16.504  1.00  0.00     0.010 C 
ENDBRANCH   8  32
ENDBRANCH   1   8
TORSDOF 9
ENDMDL
MODEL 7
REMARK VINA RESULT:      -5.4      2.180      4.106
REMARK SMILES C#C/C(N=[N+]=[N-])=N\[C@H](c1c(C)[nH+]nn1-c1c2ccccc2c(C=O)c2ccccc12)C(C)C
REMARK SMILES IDX 7 1 3 2 2 3 1 4 4 5 5 6 6 7 8 8 9 9 10 10 14 11 12 12 13 13
REMARK SMILES IDX 11 14 15 16 16 17 30 18 17 19 21 20 29 21 25 22 18 23 20 24
REMARK SMILES IDX 22 25 28 26 26 27 19 28 27 29 23 30 24 31 31 32 32 33 33 34
REMARK H PARENT 12 15
ROOT
ATOM      1  N   UNL     1      43.067 132.650  17.686  1.00  0.00    -0.262 NA
ENDROOT
BRANCH   1   2
ATOM      2  C   UNL     1      44.042 131.787  17.629  1.00  0.00     0.172 C 
BRANCH   2   3
ATOM      3  C   UNL     1      44.770 131.380  18.803  1.00  0.00    -0.049 C 
ATOM      4  C   UNL     1      45.400 131.054  19.777  1.00  0.00     0.011 C 
ENDBRANCH   2   3
BRANCH   2   5
ATOM      5  N   UNL     1      44.412 131.211  16.373  1.00  0.00    -0.032 NA
BRANCH   5   6
ATOM      6  N   UNL     1      45.314 131.691  15.687  1.00  0.00     0.008 N 
ATOM      7  N   UNL     1      46.215 132.171  15.000  1.00  0.00    -0.003 NA
ENDBRANCH   5   6
ENDBRANCH   2   5
ENDBRANCH   1   2
BRANCH   1   8
ATOM      8  C   UNL     1      43.185 134.111  17.758  1.00  0.00     0.186 C 
BRANCH   8   9
ATOM      9  C   UNL     1      42.225 134.703  18.781  1.00  0.00     0.201 A 
ATOM     10  C   UNL     1      40.884 135.047  18.633  1.00  0.00     0.167 A 
ATOM     11  N   UNL     1      42.568 135.089  20.033  1.00  0.00    -0.095 N 
ATOM     12  N   UNL     1      40.475 135.584  19.798  1.00  0.00    -0.147 N 
ATOM     13  N   UNL     1      41.506 135.611  20.627  1.00  0.00     0.094 NA
ATOM     14  C   UNL     1      39.992 134.871  17.443  1.00  0.00     0.100 C 
ATOM     15  H   UNL     1      39.522 135.943  20.028  1.00  0.00     0.342 HD
BRANCH  11  16
ATOM     16  C   UNL     1      43.872 135.056  20.638  1.00  0.00     0.171 A 
ATOM     17  C   UNL     1      44.190 134.045  21.570  1.00  0.00     0.032 A 
ATOM     18  C   UNL     1      44.834 136.028  20.295  1.00  0.00     0.032 A 
ATOM     19  C   UNL     1      43.243 133.048  21.895  1.00  0.00     0.013 A 
ATOM     20  C   UNL     1      45.456 134.040  22.215  1.00  0.00    -0.003 A 
ATOM     21  C   UNL     1      44.551 136.995  19.308  1.00  0.00     0.013 A 
ATOM     22  C   UNL     1      46.109 136.023  20.922  1.00  0.00    -0.003 A 
ATOM     23  C   UNL     1      43.526 132.082  22.857  1.00  0.00     0.001 A 
ATOM     24  C   UNL     1      45.704 133.063  23.209  1.00  0.00     0.009 A 
ATOM     25  C   UNL     1      46.422 135.026  21.883  1.00  0.00     0.030 A 
ATOM     26  C   UNL     1      45.501 137.951  18.953  1.00  0.00     0.001 A 
ATOM     27  C   UNL     1      47.055 137.005  20.539  1.00  0.00     0.009 A 
ATOM     28  C   UNL     1      44.749 132.094  23.518  1.00  0.00     0.001 A 
ATOM     29  C   UNL     1      46.747 137.958  19.569  1.00  0.00     0.001 A 
BRANCH  25  30
ATOM     30  C   UNL     1      47.763 135.017  22.519  1.00  0.00     0.261 C 
ATOM     31  O   UNL     1      48.713 134.363  22.012  1.00  0.00    -0.298 OA
ENDBRANCH  25  30
ENDBRANCH  11  16
ENDBRANCH   8   9
BRANCH   8  32
ATOM     32  C   UNL     1      42.972 134.722  16.349  1.00  0.00     0.016 C 
ATOM     33  C   UNL     1      42.294 133.749  15.372  1.00  0.00     0.010 C 
ATOM     34  C   UNL     1      44.301 135.221  15.761  1.00  0.00     0.010 C 
ENDBRANCH   8  32
ENDBRANCH   1   8
TORSDOF 9
ENDMDL
MODEL 8
REMARK VINA RESULT:      -5.4      2.119      4.152
REMARK SMILES C#C/C(N=[N+]=[N-])=N\[C@H](c1c(C)[nH+]nn1-c1c2ccccc2c(C=O)c2ccccc12)C(C)C
REMARK SMILES IDX 7 1 3 2 2 3 1 4 4 5 5 6 6 7 8 8 9 9 10 10 14 11 12 12 13 13
REMARK SMILES IDX 11 14 15 16 16 17 30 18 17 19 21 20 29 21 25 22 18 23 20 24
REMARK SMILES IDX 22 25 28 26 26 27 19 28 27 29 23 30 24 31 31 32 32 33 33 34
REMARK H PARENT 12 15
ROOT
ATOM      1  N   UNL     1      43.864 131.936  17.707  1.00  0.00    -0.262 NA
ENDROOT
BRANCH   1   2
ATOM      2  C   UNL     1      44.991 131.313  17.910  1.00  0.00     0.172 C 
BRANCH   2   3
ATOM      3  C   UNL     1      45.502 131.071  19.234  1.00  0.00    -0.049 C 
ATOM      4  C   UNL     1      45.952 130.878  20.335  1.00  0.00     0.011 C 
ENDBRANCH   2   3
BRANCH   2   5
ATOM      5  N   UNL     1      45.757 130.846  16.796  1.00  0.00    -0.032 NA
BRANCH   5   6
ATOM      6  N   UNL     1      45.419 129.849  16.157  1.00  0.00     0.008 N 
ATOM      7  N   UNL     1      45.082 128.853  15.518  1.00  0.00    -0.003 NA
ENDBRANCH   5   6
ENDBRANCH   2   5
ENDBRANCH   1   2
BRANCH   1   8
ATOM      8  C   UNL     1      43.648 133.387  17.685  1.00  0.00     0.186 C 
BRANCH   8   9
ATOM      9  C   UNL     1      42.473 133.795  18.563  1.00  0.00     0.201 A 
ATOM     10  C   UNL     1      41.119 133.862  18.246  1.00  0.00     0.167 A 
ATOM     11  N   UNL     1      42.579 134.265  19.829  1.00  0.00    -0.095 N 
ATOM     12  N   UNL     1      40.475 134.329  19.333  1.00  0.00    -0.147 N 
ATOM     13  N   UNL     1      41.372 134.577  20.273  1.00  0.00     0.094 NA
ATOM     14  C   UNL     1      40.430 133.489  16.970  1.00  0.00     0.100 C 
ATOM     15  H   UNL     1      39.449 134.495  19.435  1.00  0.00     0.342 HD
BRANCH  11  16
ATOM     16  C   UNL     1      43.781 134.505  20.581  1.00  0.00     0.171 A 
ATOM     17  C   UNL     1      44.125 133.648  21.649  1.00  0.00     0.032 A 
ATOM     18  C   UNL     1      44.618 135.590  20.248  1.00  0.00     0.032 A 
ATOM     19  C   UNL     1      43.309 132.540  21.968  1.00  0.00     0.013 A 
ATOM     20  C   UNL     1      45.280 133.912  22.433  1.00  0.00    -0.003 A 
ATOM     21  C   UNL     1      44.322 136.404  19.136  1.00  0.00     0.013 A 
ATOM     22  C   UNL     1      45.784 135.853  21.017  1.00  0.00    -0.003 A 
ATOM     23  C   UNL     1      43.608 131.723  23.056  1.00  0.00     0.001 A 
ATOM     24  C   UNL     1      45.542 133.081  23.550  1.00  0.00     0.009 A 
ATOM     25  C   UNL     1      46.118 135.012  22.110  1.00  0.00     0.030 A 
ATOM     26  C   UNL     1      45.152 137.470  18.792  1.00  0.00     0.001 A 
ATOM     27  C   UNL     1      46.609 136.941  20.641  1.00  0.00     0.009 A 
ATOM     28  C   UNL     1      44.717 131.998  23.849  1.00  0.00     0.001 A 
ATOM     29  C   UNL     1      46.289 137.739  19.544  1.00  0.00     0.001 A 
BRANCH  25  30
ATOM     30  C   UNL     1      47.348 135.283  22.895  1.00  0.00     0.261 C 
ATOM     31  O   UNL     1      48.436 134.719  22.604  1.00  0.00    -0.298 OA
ENDBRANCH  25  30
ENDBRANCH  11  16
ENDBRANCH   8   9
BRANCH   8  32
ATOM     32  C   UNL     1      43.464 133.863  16.221  1.00  0.00     0.016 C 
ATOM     33  C   UNL     1      43.442 132.704  15.213  1.00  0.00     0.010 C 
ATOM     34  C   UNL     1      44.549 134.879  15.834  1.00  0.00     0.010 C 
ENDBRANCH   8  32
ENDBRANCH   1   8
TORSDOF 9
ENDMDL
MODEL 9
REMARK VINA RESULT:      -5.4      2.818      5.745
REMARK SMILES C#C/C(N=[N+]=[N-])=N\[C@H](c1c(C)[nH+]nn1-c1c2ccccc2c(C=O)c2ccccc12)C(C)C
REMARK SMILES IDX 7 1 3 2 2 3 1 4 4 5 5 6 6 7 8 8 9 9 10 10 14 11 12 12 13 13
REMARK SMILES IDX 11 14 15 16 16 17 30 18 17 19 21 20 29 21 25 22 18 23 20 24
REMARK SMILES IDX 22 25 28 26 26 27 19 28 27 29 23 30 24 31 31 32 32 33 33 34
REMARK H PARENT 12 15
ROOT
ATOM      1  N   UNL     1      43.248 135.444  18.254  1.00  0.00    -0.262 NA
ENDROOT
BRANCH   1   2
ATOM      2  C   UNL     1      43.845 136.386  18.928  1.00  0.00     0.172 C 
BRANCH   2   3
ATOM      3  C   UNL     1      44.770 136.093  19.993  1.00  0.00    -0.049 C 
ATOM      4  C   UNL     1      45.528 135.860  20.900  1.00  0.00     0.011 C 
ENDBRANCH   2   3
BRANCH   2   5
ATOM      5  N   UNL     1      43.592 137.758  18.614  1.00  0.00    -0.032 NA
BRANCH   5   6
ATOM      6  N   UNL     1      44.501 138.587  18.573  1.00  0.00     0.008 N 
ATOM      7  N   UNL     1      45.411 139.415  18.532  1.00  0.00    -0.003 NA
ENDBRANCH   5   6
ENDBRANCH   2   5
ENDBRANCH   1   2
BRANCH   1   8
ATOM      8  C   UNL     1      42.353 135.614  17.103  1.00  0.00     0.186 C 
BRANCH   8   9
ATOM      9  C   UNL     1      41.225 134.591  17.111  1.00  0.00     0.201 A 
ATOM     10  C   UNL     1      39.923 134.712  16.632  1.00  0.00     0.167 A 
ATOM     11  N   UNL     1      41.291 133.370  17.693  1.00  0.00    -0.095 N 
ATOM     12  N   UNL     1      39.283 133.561  16.912  1.00  0.00    -0.147 N 
ATOM     13  N   UNL     1      40.120 132.769  17.561  1.00  0.00     0.094 NA
ATOM     14  C   UNL     1      39.286 135.863  15.916  1.00  0.00     0.100 C 
ATOM     15  H   UNL     1      38.293 133.319  16.685  1.00  0.00     0.342 HD
BRANCH  11  16
ATOM     16  C   UNL     1      42.387 132.807  18.434  1.00  0.00     0.171 A 
ATOM     17  C   UNL     1      42.462 132.996  19.831  1.00  0.00     0.032 A 
ATOM     18  C   UNL     1      43.382 132.062  17.768  1.00  0.00     0.032 A 
ATOM     19  C   UNL     1      41.454 133.714  20.512  1.00  0.00     0.013 A 
ATOM     20  C   UNL     1      43.573 132.493  20.562  1.00  0.00    -0.003 A 
ATOM     21  C   UNL     1      43.273 131.803  16.386  1.00  0.00     0.013 A 
ATOM     22  C   UNL     1      44.488 131.541  18.491  1.00  0.00    -0.003 A 
ATOM     23  C   UNL     1      41.550 133.956  21.880  1.00  0.00     0.001 A 
ATOM     24  C   UNL     1      43.657 132.780  21.946  1.00  0.00     0.009 A 
ATOM     25  C   UNL     1      44.584 131.754  19.891  1.00  0.00     0.030 A 
ATOM     26  C   UNL     1      44.244 131.056  15.722  1.00  0.00     0.001 A 
ATOM     27  C   UNL     1      45.457 130.782  17.790  1.00  0.00     0.009 A 
ATOM     28  C   UNL     1      42.652 133.498  22.593  1.00  0.00     0.001 A 
ATOM     29  C   UNL     1      45.334 130.551  16.421  1.00  0.00     0.001 A 
BRANCH  25  30
ATOM     30  C   UNL     1      45.733 131.189  20.642  1.00  0.00     0.261 C 
ATOM     31  O   UNL     1      46.709 131.916  20.970  1.00  0.00    -0.298 OA
ENDBRANCH  25  30
ENDBRANCH  11  16
ENDBRANCH   8   9
BRANCH   8  32
ATOM     32  C   UNL     1      43.176 135.553  15.790  1.00  0.00     0.016 C 
ATOM     33  C   UNL     1      42.454 134.792  14.667  1.00  0.00     0.010 C 
ATOM     34  C   UNL     1      44.561 134.937  16.039  1.00  0.00     0.010 C 
ENDBRANCH   8  32
ENDBRANCH   1   8
TORSDOF 9
ENDMDL


