MODEL 1
REMARK VINA RESULT:      -6.7      0.000      0.000
REMARK SMILES C#C/C(C#N)=N\[C@H](c1c(C)nnn1-c1c2ccccc2c(C(=O)N=[N+]=[N-])c2ccccc12)C(C)C
REMARK SMILES IDX 8 1 9 2 10 3 11 4 12 5 13 6 7 7 6 8 3 9 2 10 1 11 4 12 5 13
REMARK SMILES IDX 33 14 34 15 35 16 14 17 15 18 32 19 16 20 20 21 31 22 27 23
REMARK SMILES IDX 17 24 19 25 21 26 30 27 28 28 18 29 29 30 22 31 23 32 24 33
REMARK SMILES IDX 25 34 26 35
REMARK H PARENT
ROOT
ATOM      1  C   UNL     1      41.807 135.201  18.477  1.00  0.00     0.092 A 
ATOM      2  C   UNL     1      40.667 135.583  19.177  1.00  0.00     0.086 A 
ATOM      3  C   UNL     1      40.246 136.954  19.602  1.00  0.00     0.071 C 
ATOM      4  N   UNL     1      39.935 134.479  19.425  1.00  0.00    -0.135 NA
ATOM      5  N   UNL     1      40.602 133.448  18.928  1.00  0.00    -0.062 NA
ATOM      6  N   UNL     1      41.726 133.856  18.361  1.00  0.00    -0.214 N 
ENDROOT
BRANCH   1   7
ATOM      7  C   UNL     1      42.983 136.046  18.008  1.00  0.00     0.161 C 
BRANCH   7   8
ATOM      8  N   UNL     1      44.225 135.689  18.703  1.00  0.00    -0.256 NA
BRANCH   8   9
ATOM      9  C   UNL     1      44.964 136.474  19.430  1.00  0.00     0.186 C 
BRANCH   9  10
ATOM     10  C   UNL     1      45.329 137.803  19.009  1.00  0.00    -0.039 C 
ATOM     11  C   UNL     1      45.650 138.904  18.640  1.00  0.00     0.012 C 
ENDBRANCH   9  10
BRANCH   9  12
ATOM     12  C   UNL     1      45.432 136.005  20.703  1.00  0.00     0.129 C 
ATOM     13  N   UNL     1      45.810 135.627  21.729  1.00  0.00    -0.190 NA
ENDBRANCH   9  12
ENDBRANCH   8   9
ENDBRANCH   7   8
BRANCH   7  14
ATOM     14  C   UNL     1      43.192 135.939  16.475  1.00  0.00     0.014 C 
ATOM     15  C   UNL     1      42.876 137.271  15.783  1.00  0.00     0.010 C 
ATOM     16  C   UNL     1      44.606 135.469  16.097  1.00  0.00     0.010 C 
ENDBRANCH   7  14
ENDBRANCH   1   7
BRANCH   6  17
ATOM     17  C   UNL     1      42.709 132.959  17.818  1.00  0.00     0.082 A 
ATOM     18  C   UNL     1      43.690 132.392  18.658  1.00  0.00     0.009 A 
ATOM     19  C   UNL     1      42.699 132.657  16.438  1.00  0.00     0.009 A 
ATOM     20  C   UNL     1      43.761 132.751  20.020  1.00  0.00     0.011 A 
ATOM     21  C   UNL     1      44.625 131.461  18.134  1.00  0.00    -0.005 A 
ATOM     22  C   UNL     1      41.750 133.251  15.578  1.00  0.00     0.011 A 
ATOM     23  C   UNL     1      43.639 131.735  15.905  1.00  0.00    -0.005 A 
ATOM     24  C   UNL     1      44.718 132.181  20.857  1.00  0.00     0.001 A 
ATOM     25  C   UNL     1      45.572 130.882  19.011  1.00  0.00     0.009 A 
ATOM     26  C   UNL     1      44.596 131.129  16.757  1.00  0.00     0.040 A 
ATOM     27  C   UNL     1      41.732 132.947  14.218  1.00  0.00     0.001 A 
ATOM     28  C   UNL     1      43.602 131.451  14.519  1.00  0.00     0.009 A 
ATOM     29  C   UNL     1      45.614 131.243  20.357  1.00  0.00     0.001 A 
ATOM     30  C   UNL     1      42.656 132.052  13.690  1.00  0.00     0.001 A 
BRANCH  26  31
ATOM     31  C   UNL     1      45.576 130.161  16.202  1.00  0.00     0.250 C 
ATOM     32  O   UNL     1      45.268 128.943  16.129  1.00  0.00    -0.287 OA
BRANCH  31  33
ATOM     33  N   UNL     1      46.863 130.586  15.739  1.00  0.00    -0.017 NA
BRANCH  33  34
ATOM     34  N   UNL     1      47.449 129.992  14.833  1.00  0.00     0.009 N 
ATOM     35  N   UNL     1      48.036 129.401  13.928  1.00  0.00    -0.003 NA
ENDBRANCH  33  34
ENDBRANCH  31  33
ENDBRANCH  26  31
ENDBRANCH   6  17
TORSDOF 10
ENDMDL
MODEL 2
REMARK VINA RESULT:      -6.3      2.904      4.904
REMARK SMILES C#C/C(C#N)=N\[C@H](c1c(C)nnn1-c1c2ccccc2c(C(=O)N=[N+]=[N-])c2ccccc12)C(C)C
REMARK SMILES IDX 8 1 9 2 10 3 11 4 12 5 13 6 7 7 6 8 3 9 2 10 1 11 4 12 5 13
REMARK SMILES IDX 33 14 34 15 35 16 14 17 15 18 32 19 16 20 20 21 31 22 27 23
REMARK SMILES IDX 17 24 19 25 21 26 30 27 28 28 18 29 29 30 22 31 23 32 24 33
REMARK SMILES IDX 25 34 26 35
REMARK H PARENT
ROOT
ATOM      1  C   UNL     1      43.931 132.775  21.274  1.00  0.00     0.092 A 
ATOM      2  C   UNL     1      43.669 131.852  22.280  1.00  0.00     0.086 A 
ATOM      3  C   UNL     1      44.260 131.770  23.652  1.00  0.00     0.071 C 
ATOM      4  N   UNL     1      42.738 130.988  21.827  1.00  0.00    -0.135 NA
ATOM      5  N   UNL     1      42.451 131.340  20.583  1.00  0.00    -0.062 NA
ATOM      6  N   UNL     1      43.157 132.403  20.230  1.00  0.00    -0.214 N 
ENDROOT
BRANCH   1   7
ATOM      7  C   UNL     1      44.937 133.918  21.247  1.00  0.00     0.161 C 
BRANCH   7   8
ATOM      8  N   UNL     1      44.462 135.082  22.003  1.00  0.00    -0.256 NA
BRANCH   8   9
ATOM      9  C   UNL     1      44.373 136.307  21.573  1.00  0.00     0.186 C 
BRANCH   9  10
ATOM     10  C   UNL     1      44.461 136.645  20.175  1.00  0.00    -0.039 C 
ATOM     11  C   UNL     1      44.559 136.933  19.010  1.00  0.00     0.012 C 
ENDBRANCH   9  10
BRANCH   9  12
ATOM     12  C   UNL     1      44.176 137.363  22.524  1.00  0.00     0.129 C 
ATOM     13  N   UNL     1      44.017 138.215  23.289  1.00  0.00    -0.190 NA
ENDBRANCH   9  12
ENDBRANCH   8   9
ENDBRANCH   7   8
BRANCH   7  14
ATOM     14  C   UNL     1      46.323 133.475  21.785  1.00  0.00     0.014 C 
ATOM     15  C   UNL     1      46.839 132.246  21.027  1.00  0.00     0.010 C 
ATOM     16  C   UNL     1      47.367 134.602  21.740  1.00  0.00     0.010 C 
ENDBRANCH   7  14
ENDBRANCH   1   7
BRANCH   6  17
ATOM     17  C   UNL     1      43.135 132.962  18.906  1.00  0.00     0.082 A 
ATOM     18  C   UNL     1      43.968 132.430  17.900  1.00  0.00     0.009 A 
ATOM     19  C   UNL     1      42.288 134.055  18.618  1.00  0.00     0.009 A 
ATOM     20  C   UNL     1      44.878 131.393  18.197  1.00  0.00     0.011 A 
ATOM     21  C   UNL     1      43.906 132.943  16.578  1.00  0.00    -0.005 A 
ATOM     22  C   UNL     1      41.482 134.626  19.626  1.00  0.00     0.011 A 
ATOM     23  C   UNL     1      42.230 134.582  17.300  1.00  0.00    -0.005 A 
ATOM     24  C   UNL     1      45.690 130.854  17.202  1.00  0.00     0.001 A 
ATOM     25  C   UNL     1      44.727 132.362  15.583  1.00  0.00     0.009 A 
ATOM     26  C   UNL     1      43.031 134.017  16.277  1.00  0.00     0.040 A 
ATOM     27  C   UNL     1      40.637 135.698  19.342  1.00  0.00     0.001 A 
ATOM     28  C   UNL     1      41.369 135.675  17.042  1.00  0.00     0.009 A 
ATOM     29  C   UNL     1      45.609 131.329  15.898  1.00  0.00     0.001 A 
ATOM     30  C   UNL     1      40.583 136.222  18.055  1.00  0.00     0.001 A 
BRANCH  26  31
ATOM     31  C   UNL     1      42.967 134.563  14.897  1.00  0.00     0.250 C 
ATOM     32  O   UNL     1      43.644 135.582  14.604  1.00  0.00    -0.287 OA
BRANCH  31  33
ATOM     33  N   UNL     1      42.157 133.947  13.890  1.00  0.00    -0.017 NA
BRANCH  33  34
ATOM     34  N   UNL     1      40.968 133.691  14.087  1.00  0.00     0.009 N 
ATOM     35  N   UNL     1      39.782 133.434  14.285  1.00  0.00    -0.003 NA
ENDBRANCH  33  34
ENDBRANCH  31  33
ENDBRANCH  26  31
ENDBRANCH   6  17
TORSDOF 10
ENDMDL
MODEL 3
REMARK VINA RESULT:      -6.0      3.454      6.816
REMARK SMILES C#C/C(C#N)=N\[C@H](c1c(C)nnn1-c1c2ccccc2c(C(=O)N=[N+]=[N-])c2ccccc12)C(C)C
REMARK SMILES IDX 8 1 9 2 10 3 11 4 12 5 13 6 7 7 6 8 3 9 2 10 1 11 4 12 5 13
REMARK SMILES IDX 33 14 34 15 35 16 14 17 15 18 32 19 16 20 20 21 31 22 27 23
REMARK SMILES IDX 17 24 19 25 21 26 30 27 28 28 18 29 29 30 22 31 23 32 24 33
REMARK SMILES IDX 25 34 26 35
REMARK H PARENT
ROOT
ATOM      1  C   UNL     1      43.920 133.109  17.327  1.00  0.00     0.092 A 
ATOM      2  C   UNL     1      44.900 132.206  16.928  1.00  0.00     0.086 A 
ATOM      3  C   UNL     1      45.487 131.062  17.693  1.00  0.00     0.071 C 
ATOM      4  N   UNL     1      45.266 132.513  15.667  1.00  0.00    -0.135 NA
ATOM      5  N   UNL     1      44.565 133.577  15.305  1.00  0.00    -0.062 NA
ATOM      6  N   UNL     1      43.758 133.953  16.284  1.00  0.00    -0.214 N 
ENDROOT
BRANCH   1   7
ATOM      7  C   UNL     1      43.216 133.240  18.671  1.00  0.00     0.161 C 
BRANCH   7   8
ATOM      8  N   UNL     1      41.807 132.839  18.593  1.00  0.00    -0.256 NA
BRANCH   8   9
ATOM      9  C   UNL     1      40.771 133.625  18.609  1.00  0.00     0.186 C 
BRANCH   9  10
ATOM     10  C   UNL     1      40.786 134.913  19.255  1.00  0.00    -0.039 C 
ATOM     11  C   UNL     1      40.774 135.987  19.801  1.00  0.00     0.012 C 
ENDBRANCH   9  10
BRANCH   9  12
ATOM     12  C   UNL     1      39.567 133.200  17.955  1.00  0.00     0.129 C 
ATOM     13  N   UNL     1      38.596 132.857  17.428  1.00  0.00    -0.190 NA
ENDBRANCH   9  12
ENDBRANCH   8   9
ENDBRANCH   7   8
BRANCH   7  14
ATOM     14  C   UNL     1      43.933 132.422  19.777  1.00  0.00     0.014 C 
ATOM     15  C   UNL     1      44.804 133.329  20.655  1.00  0.00     0.010 C 
ATOM     16  C   UNL     1      42.956 131.619  20.652  1.00  0.00     0.010 C 
ENDBRANCH   7  14
ENDBRANCH   1   7
BRANCH   6  17
ATOM     17  C   UNL     1      42.942 135.135  16.226  1.00  0.00     0.082 A 
ATOM     18  C   UNL     1      43.333 136.299  16.918  1.00  0.00     0.009 A 
ATOM     19  C   UNL     1      41.739 135.123  15.485  1.00  0.00     0.009 A 
ATOM     20  C   UNL     1      44.488 136.298  17.728  1.00  0.00     0.011 A 
ATOM     21  C   UNL     1      42.558 137.484  16.816  1.00  0.00    -0.005 A 
ATOM     22  C   UNL     1      41.313 133.951  14.824  1.00  0.00     0.011 A 
ATOM     23  C   UNL     1      40.952 136.302  15.387  1.00  0.00    -0.005 A 
ATOM     24  C   UNL     1      44.887 137.451  18.401  1.00  0.00     0.001 A 
ATOM     25  C   UNL     1      42.998 138.646  17.492  1.00  0.00     0.009 A 
ATOM     26  C   UNL     1      41.369 137.486  16.044  1.00  0.00     0.040 A 
ATOM     27  C   UNL     1      40.132 133.940  14.083  1.00  0.00     0.001 A 
ATOM     28  C   UNL     1      39.754 136.259  14.636  1.00  0.00     0.009 A 
ATOM     29  C   UNL     1      44.151 138.623  18.276  1.00  0.00     0.001 A 
ATOM     30  C   UNL     1      39.355 135.089  13.992  1.00  0.00     0.001 A 
BRANCH  26  31
ATOM     31  C   UNL     1      40.551 138.721  15.938  1.00  0.00     0.250 C 
ATOM     32  O   UNL     1      39.710 138.984  16.837  1.00  0.00    -0.287 OA
BRANCH  31  33
ATOM     33  N   UNL     1      40.704 139.624  14.837  1.00  0.00    -0.017 NA
BRANCH  33  34
ATOM     34  N   UNL     1      39.918 139.624  13.889  1.00  0.00     0.009 N 
ATOM     35  N   UNL     1      39.132 139.624  12.943  1.00  0.00    -0.003 NA
ENDBRANCH  33  34
ENDBRANCH  31  33
ENDBRANCH  26  31
ENDBRANCH   6  17
TORSDOF 10
ENDMDL
MODEL 4
REMARK VINA RESULT:      -5.8      3.015      6.775
REMARK SMILES C#C/C(C#N)=N\[C@H](c1c(C)nnn1-c1c2ccccc2c(C(=O)N=[N+]=[N-])c2ccccc12)C(C)C
REMARK SMILES IDX 8 1 9 2 10 3 11 4 12 5 13 6 7 7 6 8 3 9 2 10 1 11 4 12 5 13
REMARK SMILES IDX 33 14 34 15 35 16 14 17 15 18 32 19 16 20 20 21 31 22 27 23
REMARK SMILES IDX 17 24 19 25 21 26 30 27 28 28 18 29 29 30 22 31 23 32 24 33
REMARK SMILES IDX 25 34 26 35
REMARK H PARENT
ROOT
ATOM      1  C   UNL     1      43.912 133.101  17.504  1.00  0.00     0.092 A 
ATOM      2  C   UNL     1      44.892 132.149  17.243  1.00  0.00     0.086 A 
ATOM      3  C   UNL     1      45.339 131.007  18.101  1.00  0.00     0.071 C 
ATOM      4  N   UNL     1      45.411 132.401  16.025  1.00  0.00    -0.135 NA
ATOM      5  N   UNL     1      44.803 133.481  15.557  1.00  0.00    -0.062 NA
ATOM      6  N   UNL     1      43.907 133.919  16.427  1.00  0.00    -0.214 N 
ENDROOT
BRANCH   1   7
ATOM      7  C   UNL     1      43.068 133.303  18.754  1.00  0.00     0.161 C 
BRANCH   7   8
ATOM      8  N   UNL     1      41.653 132.998  18.513  1.00  0.00    -0.256 NA
BRANCH   8   9
ATOM      9  C   UNL     1      40.655 133.830  18.578  1.00  0.00     0.186 C 
BRANCH   9  10
ATOM     10  C   UNL     1      39.477 133.692  17.759  1.00  0.00    -0.039 C 
ATOM     11  C   UNL     1      38.479 133.575  17.095  1.00  0.00     0.012 C 
ENDBRANCH   9  10
BRANCH   9  12
ATOM     12  C   UNL     1      40.722 134.924  19.504  1.00  0.00     0.129 C 
ATOM     13  N   UNL     1      40.776 135.806  20.250  1.00  0.00    -0.190 NA
ENDBRANCH   9  12
ENDBRANCH   8   9
ENDBRANCH   7   8
BRANCH   7  14
ATOM     14  C   UNL     1      43.590 132.455  19.944  1.00  0.00     0.014 C 
ATOM     15  C   UNL     1      44.332 133.333  20.960  1.00  0.00     0.010 C 
ATOM     16  C   UNL     1      42.476 131.660  20.644  1.00  0.00     0.010 C 
ENDBRANCH   7  14
ENDBRANCH   1   7
BRANCH   6  17
ATOM     17  C   UNL     1      43.153 135.129  16.244  1.00  0.00     0.082 A 
ATOM     18  C   UNL     1      43.542 136.310  16.910  1.00  0.00     0.009 A 
ATOM     19  C   UNL     1      42.015 135.130  15.408  1.00  0.00     0.009 A 
ATOM     20  C   UNL     1      44.626 136.302  17.811  1.00  0.00     0.011 A 
ATOM     21  C   UNL     1      42.833 137.520  16.686  1.00  0.00    -0.005 A 
ATOM     22  C   UNL     1      41.589 133.944  14.771  1.00  0.00     0.011 A 
ATOM     23  C   UNL     1      41.294 136.334  15.188  1.00  0.00    -0.005 A 
ATOM     24  C   UNL     1      45.023 137.470  18.458  1.00  0.00     0.001 A 
ATOM     25  C   UNL     1      43.271 138.696  17.339  1.00  0.00     0.009 A 
ATOM     26  C   UNL     1      41.711 137.532  15.819  1.00  0.00     0.040 A 
ATOM     27  C   UNL     1      40.473 133.944  13.936  1.00  0.00     0.001 A 
ATOM     28  C   UNL     1      40.160 136.303  14.343  1.00  0.00     0.009 A 
ATOM     29  C   UNL     1      44.355 138.665  18.216  1.00  0.00     0.001 A 
ATOM     30  C   UNL     1      39.760 135.119  13.725  1.00  0.00     0.001 A 
BRANCH  26  31
ATOM     31  C   UNL     1      40.963 138.793  15.586  1.00  0.00     0.250 C 
ATOM     32  O   UNL     1      41.383 139.612  14.727  1.00  0.00    -0.287 OA
BRANCH  31  33
ATOM     33  N   UNL     1      39.766 139.094  16.312  1.00  0.00    -0.017 NA
BRANCH  33  34
ATOM     34  N   UNL     1      39.702 138.955  17.535  1.00  0.00     0.009 N 
ATOM     35  N   UNL     1      39.640 138.816  18.755  1.00  0.00    -0.003 NA
ENDBRANCH  33  34
ENDBRANCH  31  33
ENDBRANCH  26  31
ENDBRANCH   6  17
TORSDOF 10
ENDMDL
MODEL 5
REMARK VINA RESULT:      -5.7      3.136      6.621
REMARK SMILES C#C/C(C#N)=N\[C@H](c1c(C)nnn1-c1c2ccccc2c(C(=O)N=[N+]=[N-])c2ccccc12)C(C)C
REMARK SMILES IDX 8 1 9 2 10 3 11 4 12 5 13 6 7 7 6 8 3 9 2 10 1 11 4 12 5 13
REMARK SMILES IDX 33 14 34 15 35 16 14 17 15 18 32 19 16 20 20 21 31 22 27 23
REMARK SMILES IDX 17 24 19 25 21 26 30 27 28 28 18 29 29 30 22 31 23 32 24 33
REMARK SMILES IDX 25 34 26 35
REMARK H PARENT
ROOT
ATOM      1  C   UNL     1      44.194 132.471  17.740  1.00  0.00     0.092 A 
ATOM      2  C   UNL     1      44.922 131.548  18.483  1.00  0.00     0.086 A 
ATOM      3  C   UNL     1      45.677 130.348  18.004  1.00  0.00     0.071 C 
ATOM      4  N   UNL     1      44.863 131.911  19.780  1.00  0.00    -0.135 NA
ATOM      5  N   UNL     1      44.108 132.997  19.848  1.00  0.00    -0.062 NA
ATOM      6  N   UNL     1      43.693 133.347  18.641  1.00  0.00    -0.214 N 
ENDROOT
BRANCH   1   7
ATOM      7  C   UNL     1      43.895 132.492  16.248  1.00  0.00     0.161 C 
BRANCH   7   8
ATOM      8  N   UNL     1      43.997 133.844  15.688  1.00  0.00    -0.256 NA
BRANCH   8   9
ATOM      9  C   UNL     1      43.070 134.496  15.051  1.00  0.00     0.186 C 
BRANCH   9  10
ATOM     10  C   UNL     1      43.111 135.925  14.873  1.00  0.00    -0.039 C 
ATOM     11  C   UNL     1      43.142 137.117  14.698  1.00  0.00     0.012 C 
ENDBRANCH   9  10
BRANCH   9  12
ATOM     12  C   UNL     1      41.964 133.767  14.498  1.00  0.00     0.129 C 
ATOM     13  N   UNL     1      41.073 133.181  14.052  1.00  0.00    -0.190 NA
ENDBRANCH   9  12
ENDBRANCH   8   9
ENDBRANCH   7   8
BRANCH   7  14
ATOM     14  C   UNL     1      44.824 131.529  15.462  1.00  0.00     0.014 C 
ATOM     15  C   UNL     1      44.122 130.988  14.210  1.00  0.00     0.010 C 
ATOM     16  C   UNL     1      46.166 132.174  15.081  1.00  0.00     0.010 C 
ENDBRANCH   7  14
ENDBRANCH   1   7
BRANCH   6  17
ATOM     17  C   UNL     1      42.779 134.430  18.402  1.00  0.00     0.082 A 
ATOM     18  C   UNL     1      43.232 135.763  18.460  1.00  0.00     0.009 A 
ATOM     19  C   UNL     1      41.422 134.155  18.123  1.00  0.00     0.009 A 
ATOM     20  C   UNL     1      44.565 136.053  18.819  1.00  0.00     0.011 A 
ATOM     21  C   UNL     1      42.343 136.832  18.168  1.00  0.00    -0.005 A 
ATOM     22  C   UNL     1      40.945 132.826  18.106  1.00  0.00     0.011 A 
ATOM     23  C   UNL     1      40.524 135.219  17.842  1.00  0.00    -0.005 A 
ATOM     24  C   UNL     1      45.020 137.369  18.862  1.00  0.00     0.001 A 
ATOM     25  C   UNL     1      42.838 138.156  18.198  1.00  0.00     0.009 A 
ATOM     26  C   UNL     1      40.988 136.557  17.853  1.00  0.00     0.040 A 
ATOM     27  C   UNL     1      39.608 132.552  17.821  1.00  0.00     0.001 A 
ATOM     28  C   UNL     1      39.171 134.911  17.563  1.00  0.00     0.009 A 
ATOM     29  C   UNL     1      44.164 138.416  18.543  1.00  0.00     0.001 A 
ATOM     30  C   UNL     1      38.724 133.591  17.553  1.00  0.00     0.001 A 
BRANCH  26  31
ATOM     31  C   UNL     1      40.053 137.671  17.553  1.00  0.00     0.250 C 
ATOM     32  O   UNL     1      39.423 138.219  18.495  1.00  0.00    -0.287 OA
BRANCH  31  33
ATOM     33  N   UNL     1      39.858 138.139  16.214  1.00  0.00    -0.017 NA
BRANCH  33  34
ATOM     34  N   UNL     1      38.753 138.093  15.670  1.00  0.00     0.009 N 
ATOM     35  N   UNL     1      37.651 138.045  15.126  1.00  0.00    -0.003 NA
ENDBRANCH  33  34
ENDBRANCH  31  33
ENDBRANCH  26  31
ENDBRANCH   6  17
TORSDOF 10
ENDMDL
MODEL 6
REMARK VINA RESULT:      -5.6      3.042      5.197
REMARK SMILES C#C/C(C#N)=N\[C@H](c1c(C)nnn1-c1c2ccccc2c(C(=O)N=[N+]=[N-])c2ccccc12)C(C)C
REMARK SMILES IDX 8 1 9 2 10 3 11 4 12 5 13 6 7 7 6 8 3 9 2 10 1 11 4 12 5 13
REMARK SMILES IDX 33 14 34 15 35 16 14 17 15 18 32 19 16 20 20 21 31 22 27 23
REMARK SMILES IDX 17 24 19 25 21 26 30 27 28 28 18 29 29 30 22 31 23 32 24 33
REMARK SMILES IDX 25 34 26 35
REMARK H PARENT
ROOT
ATOM      1  C   UNL     1      43.708 133.005  21.806  1.00  0.00     0.092 A 
ATOM      2  C   UNL     1      43.719 132.255  22.978  1.00  0.00     0.086 A 
ATOM      3  C   UNL     1      44.282 132.618  24.316  1.00  0.00     0.071 C 
ATOM      4  N   UNL     1      43.101 131.082  22.734  1.00  0.00    -0.135 NA
ATOM      5  N   UNL     1      42.744 131.088  21.458  1.00  0.00    -0.062 NA
ATOM      6  N   UNL     1      43.101 132.225  20.884  1.00  0.00    -0.214 N 
ENDROOT
BRANCH   1   7
ATOM      7  C   UNL     1      44.321 134.369  21.525  1.00  0.00     0.161 C 
BRANCH   7   8
ATOM      8  N   UNL     1      43.920 135.366  22.525  1.00  0.00    -0.256 NA
BRANCH   8   9
ATOM      9  C   UNL     1      42.866 136.126  22.488  1.00  0.00     0.186 C 
BRANCH   9  10
ATOM     10  C   UNL     1      41.588 135.705  23.004  1.00  0.00    -0.039 C 
ATOM     11  C   UNL     1      40.511 135.355  23.412  1.00  0.00     0.012 C 
ENDBRANCH   9  10
BRANCH   9  12
ATOM     12  C   UNL     1      42.976 137.438  21.916  1.00  0.00     0.129 C 
ATOM     13  N   UNL     1      43.064 138.494  21.454  1.00  0.00    -0.190 NA
ENDBRANCH   9  12
ENDBRANCH   8   9
ENDBRANCH   7   8
BRANCH   7  14
ATOM     14  C   UNL     1      45.869 134.299  21.449  1.00  0.00     0.014 C 
ATOM     15  C   UNL     1      46.512 135.026  22.637  1.00  0.00     0.010 C 
ATOM     16  C   UNL     1      46.396 132.857  21.362  1.00  0.00     0.010 C 
ENDBRANCH   7  14
ENDBRANCH   1   7
BRANCH   6  17
ATOM     17  C   UNL     1      42.936 132.488  19.480  1.00  0.00     0.082 A 
ATOM     18  C   UNL     1      41.865 133.287  19.032  1.00  0.00     0.009 A 
ATOM     19  C   UNL     1      43.841 131.932  18.549  1.00  0.00     0.009 A 
ATOM     20  C   UNL     1      40.907 133.779  19.944  1.00  0.00     0.011 A 
ATOM     21  C   UNL     1      41.733 133.595  17.652  1.00  0.00    -0.005 A 
ATOM     22  C   UNL     1      44.892 131.093  18.980  1.00  0.00     0.011 A 
ATOM     23  C   UNL     1      43.709 132.226  17.166  1.00  0.00    -0.005 A 
ATOM     24  C   UNL     1      39.856 134.583  19.507  1.00  0.00     0.001 A 
ATOM     25  C   UNL     1      40.669 134.431  17.239  1.00  0.00     0.009 A 
ATOM     26  C   UNL     1      42.661 133.067  16.719  1.00  0.00     0.040 A 
ATOM     27  C   UNL     1      45.793 130.552  18.065  1.00  0.00     0.001 A 
ATOM     28  C   UNL     1      44.634 131.656  16.259  1.00  0.00     0.009 A 
ATOM     29  C   UNL     1      39.743 134.916  18.162  1.00  0.00     0.001 A 
ATOM     30  C   UNL     1      45.663 130.830  16.709  1.00  0.00     0.001 A 
BRANCH  26  31
ATOM     31  C   UNL     1      42.525 133.381  15.274  1.00  0.00     0.250 C 
ATOM     32  O   UNL     1      41.733 132.704  14.567  1.00  0.00    -0.287 OA
BRANCH  31  33
ATOM     33  N   UNL     1      43.270 134.443  14.669  1.00  0.00    -0.017 NA
BRANCH  33  34
ATOM     34  N   UNL     1      43.055 135.623  14.952  1.00  0.00     0.009 N 
ATOM     35  N   UNL     1      42.840 136.800  15.236  1.00  0.00    -0.003 NA
ENDBRANCH  33  34
ENDBRANCH  31  33
ENDBRANCH  26  31
ENDBRANCH   6  17
TORSDOF 10
ENDMDL
MODEL 7
REMARK VINA RESULT:      -5.6      2.991      6.053
REMARK SMILES C#C/C(C#N)=N\[C@H](c1c(C)nnn1-c1c2ccccc2c(C(=O)N=[N+]=[N-])c2ccccc12)C(C)C
REMARK SMILES IDX 8 1 9 2 10 3 11 4 12 5 13 6 7 7 6 8 3 9 2 10 1 11 4 12 5 13
REMARK SMILES IDX 33 14 34 15 35 16 14 17 15 18 32 19 16 20 20 21 31 22 27 23
REMARK SMILES IDX 17 24 19 25 21 26 30 27 28 28 18 29 29 30 22 31 23 32 24 33
REMARK SMILES IDX 25 34 26 35
REMARK H PARENT
ROOT
ATOM      1  C   UNL     1      40.544 134.928  15.868  1.00  0.00     0.092 A 
ATOM      2  C   UNL     1      39.922 134.526  14.691  1.00  0.00     0.086 A 
ATOM      3  C   UNL     1      40.194 134.974  13.289  1.00  0.00     0.071 C 
ATOM      4  N   UNL     1      38.986 133.608  15.001  1.00  0.00    -0.135 NA
ATOM      5  N   UNL     1      39.003 133.462  16.318  1.00  0.00    -0.062 NA
ATOM      6  N   UNL     1      39.923 134.245  16.857  1.00  0.00    -0.214 N 
ENDROOT
BRANCH   1   7
ATOM      7  C   UNL     1      41.623 135.981  16.082  1.00  0.00     0.161 C 
BRANCH   7   8
ATOM      8  N   UNL     1      42.953 135.483  15.714  1.00  0.00    -0.256 NA
BRANCH   8   9
ATOM      9  C   UNL     1      43.833 134.950  16.510  1.00  0.00     0.186 C 
BRANCH   9  10
ATOM     10  C   UNL     1      44.024 135.399  17.866  1.00  0.00    -0.039 C 
ATOM     11  C   UNL     1      44.175 135.751  19.008  1.00  0.00     0.012 C 
ENDBRANCH   9  10
BRANCH   9  12
ATOM     12  C   UNL     1      44.643 133.869  16.025  1.00  0.00     0.129 C 
ATOM     13  N   UNL     1      45.296 132.999  15.634  1.00  0.00    -0.190 NA
ENDBRANCH   9  12
ENDBRANCH   8   9
ENDBRANCH   7   8
BRANCH   7  14
ATOM     14  C   UNL     1      41.317 137.284  15.298  1.00  0.00     0.014 C 
ATOM     15  C   UNL     1      40.393 138.206  16.105  1.00  0.00     0.010 C 
ATOM     16  C   UNL     1      42.588 138.041  14.880  1.00  0.00     0.010 C 
ENDBRANCH   7  14
ENDBRANCH   1   7
BRANCH   6  17
ATOM     17  C   UNL     1      40.115 134.380  18.275  1.00  0.00     0.082 A 
ATOM     18  C   UNL     1      41.054 133.568  18.942  1.00  0.00     0.009 A 
ATOM     19  C   UNL     1      39.350 135.320  19.001  1.00  0.00     0.009 A 
ATOM     20  C   UNL     1      41.764 132.570  18.242  1.00  0.00     0.011 A 
ATOM     21  C   UNL     1      41.286 133.740  20.332  1.00  0.00    -0.005 A 
ATOM     22  C   UNL     1      38.375 136.109  18.354  1.00  0.00     0.011 A 
ATOM     23  C   UNL     1      39.568 135.490  20.395  1.00  0.00    -0.005 A 
ATOM     24  C   UNL     1      42.705 131.776  18.894  1.00  0.00     0.001 A 
ATOM     25  C   UNL     1      42.262 132.935  20.965  1.00  0.00     0.009 A 
ATOM     26  C   UNL     1      40.545 134.706  21.058  1.00  0.00     0.040 A 
ATOM     27  C   UNL     1      37.626 137.044  19.066  1.00  0.00     0.001 A 
ATOM     28  C   UNL     1      38.787 136.440  21.094  1.00  0.00     0.009 A 
ATOM     29  C   UNL     1      42.961 131.964  20.248  1.00  0.00     0.001 A 
ATOM     30  C   UNL     1      37.830 137.207  20.432  1.00  0.00     0.001 A 
BRANCH  26  31
ATOM     31  C   UNL     1      40.778 134.886  22.513  1.00  0.00     0.250 C 
ATOM     32  O   UNL     1      40.203 134.121  23.330  1.00  0.00    -0.287 OA
BRANCH  31  33
ATOM     33  N   UNL     1      41.652 135.908  23.007  1.00  0.00    -0.017 NA
BRANCH  33  34
ATOM     34  N   UNL     1      42.872 135.843  22.850  1.00  0.00     0.009 N 
ATOM     35  N   UNL     1      44.090 135.777  22.693  1.00  0.00    -0.003 NA
ENDBRANCH  33  34
ENDBRANCH  31  33
ENDBRANCH  26  31
ENDBRANCH   6  17
TORSDOF 10
ENDMDL
MODEL 8
REMARK VINA RESULT:      -5.5      3.001      7.072
REMARK SMILES C#C/C(C#N)=N\[C@H](c1c(C)nnn1-c1c2ccccc2c(C(=O)N=[N+]=[N-])c2ccccc12)C(C)C
REMARK SMILES IDX 8 1 9 2 10 3 11 4 12 5 13 6 7 7 6 8 3 9 2 10 1 11 4 12 5 13
REMARK SMILES IDX 33 14 34 15 35 16 14 17 15 18 32 19 16 20 20 21 31 22 27 23
REMARK SMILES IDX 17 24 19 25 21 26 30 27 28 28 18 29 29 30 22 31 23 32 24 33
REMARK SMILES IDX 25 34 26 35
REMARK H PARENT
ROOT
ATOM      1  C   UNL     1      44.163 132.362  17.611  1.00  0.00     0.092 A 
ATOM      2  C   UNL     1      44.903 131.433  18.335  1.00  0.00     0.086 A 
ATOM      3  C   UNL     1      45.681 130.259  17.830  1.00  0.00     0.071 C 
ATOM      4  N   UNL     1      44.831 131.762  19.640  1.00  0.00    -0.135 NA
ATOM      5  N   UNL     1      44.057 132.833  19.731  1.00  0.00    -0.062 NA
ATOM      6  N   UNL     1      43.642 133.206  18.531  1.00  0.00    -0.214 N 
ENDROOT
BRANCH   1   7
ATOM      7  C   UNL     1      43.871 132.415  16.118  1.00  0.00     0.161 C 
BRANCH   7   8
ATOM      8  N   UNL     1      43.975 133.780  15.589  1.00  0.00    -0.256 NA
BRANCH   8   9
ATOM      9  C   UNL     1      43.042 134.454  14.984  1.00  0.00     0.186 C 
BRANCH   9  10
ATOM     10  C   UNL     1      43.083 135.889  14.853  1.00  0.00    -0.039 C 
ATOM     11  C   UNL     1      43.095 137.087  14.732  1.00  0.00     0.012 C 
ENDBRANCH   9  10
BRANCH   9  12
ATOM     12  C   UNL     1      41.928 133.746  14.419  1.00  0.00     0.129 C 
ATOM     13  N   UNL     1      41.032 133.176  13.964  1.00  0.00    -0.190 NA
ENDBRANCH   9  12
ENDBRANCH   8   9
ENDBRANCH   7   8
BRANCH   7  14
ATOM     14  C   UNL     1      44.806 131.471  15.316  1.00  0.00     0.014 C 
ATOM     15  C   UNL     1      44.121 130.978  14.035  1.00  0.00     0.010 C 
ATOM     16  C   UNL     1      46.159 132.117  14.979  1.00  0.00     0.010 C 
ENDBRANCH   7  14
ENDBRANCH   1   7
BRANCH   6  17
ATOM     17  C   UNL     1      42.711 134.279  18.314  1.00  0.00     0.082 A 
ATOM     18  C   UNL     1      41.352 133.996  18.065  1.00  0.00     0.009 A 
ATOM     19  C   UNL     1      43.162 135.617  18.337  1.00  0.00     0.009 A 
ATOM     20  C   UNL     1      40.905 132.662  17.958  1.00  0.00     0.011 A 
ATOM     21  C   UNL     1      40.420 135.056  17.908  1.00  0.00    -0.005 A 
ATOM     22  C   UNL     1      44.527 135.913  18.541  1.00  0.00     0.011 A 
ATOM     23  C   UNL     1      42.237 136.683  18.169  1.00  0.00    -0.005 A 
ATOM     24  C   UNL     1      39.561 132.378  17.728  1.00  0.00     0.001 A 
ATOM     25  C   UNL     1      39.058 134.738  17.697  1.00  0.00     0.009 A 
ATOM     26  C   UNL     1      40.864 136.401  17.965  1.00  0.00     0.040 A 
ATOM     27  C   UNL     1      44.973 137.233  18.574  1.00  0.00     0.001 A 
ATOM     28  C   UNL     1      42.720 138.012  18.199  1.00  0.00     0.009 A 
ATOM     29  C   UNL     1      38.639 133.411  17.608  1.00  0.00     0.001 A 
ATOM     30  C   UNL     1      44.073 138.279  18.402  1.00  0.00     0.001 A 
BRANCH  26  31
ATOM     31  C   UNL     1      39.895 137.513  17.795  1.00  0.00     0.250 C 
ATOM     32  O   UNL     1      39.677 137.972  16.644  1.00  0.00    -0.287 OA
BRANCH  31  33
ATOM     33  N   UNL     1      39.196 138.070  18.915  1.00  0.00    -0.017 NA
BRANCH  33  34
ATOM     34  N   UNL     1      38.249 138.843  18.762  1.00  0.00     0.009 N 
ATOM     35  N   UNL     1      37.304 139.614  18.609  1.00  0.00    -0.003 NA
ENDBRANCH  33  34
ENDBRANCH  31  33
ENDBRANCH  26  31
ENDBRANCH   6  17
TORSDOF 10
ENDMDL
MODEL 9
REMARK VINA RESULT:      -5.5      2.910      6.448
REMARK SMILES C#C/C(C#N)=N\[C@H](c1c(C)nnn1-c1c2ccccc2c(C(=O)N=[N+]=[N-])c2ccccc12)C(C)C
REMARK SMILES IDX 8 1 9 2 10 3 11 4 12 5 13 6 7 7 6 8 3 9 2 10 1 11 4 12 5 13
REMARK SMILES IDX 33 14 34 15 35 16 14 17 15 18 32 19 16 20 20 21 31 22 27 23
REMARK SMILES IDX 17 24 19 25 21 26 30 27 28 28 18 29 29 30 22 31 23 32 24 33
REMARK SMILES IDX 25 34 26 35
REMARK H PARENT
ROOT
ATOM      1  C   UNL     1      43.922 133.008  17.350  1.00  0.00     0.092 A 
ATOM      2  C   UNL     1      44.930 132.084  17.092  1.00  0.00     0.086 A 
ATOM      3  C   UNL     1      45.305 130.866  17.875  1.00  0.00     0.071 C 
ATOM      4  N   UNL     1      45.559 132.452  15.958  1.00  0.00    -0.135 NA
ATOM      5  N   UNL     1      44.987 133.572  15.540  1.00  0.00    -0.062 NA
ATOM      6  N   UNL     1      44.010 133.925  16.360  1.00  0.00    -0.214 N 
ENDROOT
BRANCH   1   7
ATOM      7  C   UNL     1      42.963 133.089  18.529  1.00  0.00     0.161 C 
BRANCH   7   8
ATOM      8  N   UNL     1      43.573 133.754  19.686  1.00  0.00    -0.256 NA
BRANCH   8   9
ATOM      9  C   UNL     1      44.188 133.182  20.678  1.00  0.00     0.186 C 
BRANCH   9  10
ATOM     10  C   UNL     1      43.698 131.979  21.303  1.00  0.00    -0.039 C 
ATOM     11  C   UNL     1      43.269 130.973  21.808  1.00  0.00     0.012 C 
ENDBRANCH   9  10
BRANCH   9  12
ATOM     12  C   UNL     1      45.403 133.764  21.171  1.00  0.00     0.129 C 
ATOM     13  N   UNL     1      46.383 134.233  21.568  1.00  0.00    -0.190 NA
ENDBRANCH   9  12
ENDBRANCH   8   9
ENDBRANCH   7   8
BRANCH   7  14
ATOM     14  C   UNL     1      41.643 133.810  18.147  1.00  0.00     0.014 C 
ATOM     15  C   UNL     1      40.528 132.796  17.857  1.00  0.00     0.010 C 
ATOM     16  C   UNL     1      41.182 134.814  19.216  1.00  0.00     0.010 C 
ENDBRANCH   7  14
ENDBRANCH   1   7
BRANCH   6  17
ATOM     17  C   UNL     1      43.267 135.148  16.224  1.00  0.00     0.082 A 
ATOM     18  C   UNL     1      43.636 136.285  16.970  1.00  0.00     0.009 A 
ATOM     19  C   UNL     1      42.158 135.203  15.351  1.00  0.00     0.009 A 
ATOM     20  C   UNL     1      44.689 136.219  17.906  1.00  0.00     0.011 A 
ATOM     21  C   UNL     1      42.939 137.510  16.794  1.00  0.00    -0.005 A 
ATOM     22  C   UNL     1      41.751 134.059  14.630  1.00  0.00     0.011 A 
ATOM     23  C   UNL     1      41.449 136.422  15.178  1.00  0.00    -0.005 A 
ATOM     24  C   UNL     1      45.067 137.345  18.634  1.00  0.00     0.001 A 
ATOM     25  C   UNL     1      43.357 138.643  17.531  1.00  0.00     0.009 A 
ATOM     26  C   UNL     1      41.847 137.578  15.893  1.00  0.00     0.040 A 
ATOM     27  C   UNL     1      40.663 134.114  13.760  1.00  0.00     0.001 A 
ATOM     28  C   UNL     1      40.344 136.446  14.295  1.00  0.00     0.009 A 
ATOM     29  C   UNL     1      44.411 138.555  18.440  1.00  0.00     0.001 A 
ATOM     30  C   UNL     1      39.961 135.303  13.595  1.00  0.00     0.001 A 
BRANCH  26  31
ATOM     31  C   UNL     1      41.111 138.855  15.709  1.00  0.00     0.250 C 
ATOM     32  O   UNL     1      41.431 139.623  14.765  1.00  0.00    -0.287 OA
BRANCH  31  33
ATOM     33  N   UNL     1      40.036 139.227  16.580  1.00  0.00    -0.017 NA
BRANCH  33  34
ATOM     34  N   UNL     1      39.504 138.408  17.332  1.00  0.00     0.009 N 
ATOM     35  N   UNL     1      38.973 137.592  18.083  1.00  0.00    -0.003 NA
ENDBRANCH  33  34
ENDBRANCH  31  33
ENDBRANCH  26  31
ENDBRANCH   6  17
TORSDOF 10
ENDMDL


