REMARK SMILES Cc1nnn([C@@H]2O[C@@]2(C#N)[NH2+]c2cccc(C#N)c2C)c1-c1cc2ccccc2c2ccccc12
REMARK SMILES IDX 11 1 8 4 6 5 7 6 5 7 2 8 3 9 21 10 4 11 1 12 22 13 23 14
REMARK SMILES IDX 35 15 24 16 34 17 30 18 25 19 29 20 33 21 31 22 26 23 28 24
REMARK SMILES IDX 32 25 27 26 9 27 10 28 12 29 13 30 19 31 14 32 16 33 15 34
REMARK SMILES IDX 20 35 17 36 18 37
REMARK H PARENT 11 2 11 3
ROOT
ATOM      1  N   UNL     1      -3.680   0.298   0.798  1.00  0.00    -0.269 N 
ATOM      2  H   UNL     1      -3.910  -0.380   1.560  1.00  0.00     0.356 HD
ATOM      3  H   UNL     1      -4.553   0.854   0.641  1.00  0.00     0.356 HD
ENDROOT
BRANCH   1   4
ATOM      4  C   UNL     1      -3.346  -0.404  -0.454  1.00  0.00     0.344 C 
ATOM      5  C   UNL     1      -2.897  -1.823  -0.378  1.00  0.00     0.354 C 
ATOM      6  O   UNL     1      -4.229  -1.480  -0.685  1.00  0.00    -0.274 OA
BRANCH   5   7
ATOM      7  N   UNL     1      -2.183  -2.304  -1.557  1.00  0.00    -0.205 N 
ATOM      8  C   UNL     1      -0.686  -2.658  -3.102  1.00  0.00     0.088 A 
ATOM      9  N   UNL     1      -1.812  -3.318  -3.446  1.00  0.00    -0.135 NA
ATOM     10  C   UNL     1      -0.917  -2.018  -1.904  1.00  0.00     0.096 A 
ATOM     11  N   UNL     1      -2.701  -3.091  -2.487  1.00  0.00    -0.064 NA
ATOM     12  C   UNL     1       0.547  -2.590  -3.941  1.00  0.00     0.071 C 
BRANCH  10  13
ATOM     13  C   UNL     1      -0.005  -1.121  -1.163  1.00  0.00     0.010 A 
ATOM     14  C   UNL     1       0.256   0.135  -1.707  1.00  0.00     0.019 A 
ATOM     15  C   UNL     1       0.561  -1.485   0.080  1.00  0.00    -0.008 A 
ATOM     16  C   UNL     1       1.051   1.061  -1.032  1.00  0.00    -0.017 A 
ATOM     17  C   UNL     1       0.318  -2.761   0.634  1.00  0.00     0.009 A 
ATOM     18  C   UNL     1       1.400  -0.564   0.778  1.00  0.00    -0.010 A 
ATOM     19  C   UNL     1       1.251   2.331  -1.598  1.00  0.00     0.009 A 
ATOM     20  C   UNL     1       1.644   0.728   0.216  1.00  0.00    -0.010 A 
ATOM     21  C   UNL     1       0.873  -3.124   1.857  1.00  0.00     0.001 A 
ATOM     22  C   UNL     1       1.958  -0.973   2.015  1.00  0.00     0.009 A 
ATOM     23  C   UNL     1       2.036   3.279  -0.945  1.00  0.00     0.001 A 
ATOM     24  C   UNL     1       2.446   1.710   0.850  1.00  0.00     0.009 A 
ATOM     25  C   UNL     1       1.688  -2.235   2.544  1.00  0.00     0.001 A 
ATOM     26  C   UNL     1       2.633   2.968   0.272  1.00  0.00     0.001 A 
ENDBRANCH  10  13
ENDBRANCH   5   7
BRANCH   4  27
ATOM     27  C   UNL     1      -3.207   0.390  -1.688  1.00  0.00     0.167 C 
ATOM     28  N   UNL     1      -3.097   1.013  -2.658  1.00  0.00    -0.188 NA
ENDBRANCH   4  27
ENDBRANCH   1   4
BRANCH   1  29
ATOM     29  C   UNL     1      -2.611   1.198   1.192  1.00  0.00     0.137 A 
ATOM     30  C   UNL     1      -2.524   2.457   0.565  1.00  0.00     0.068 A 
ATOM     31  C   UNL     1      -1.663   0.865   2.206  1.00  0.00     0.028 A 
ATOM     32  C   UNL     1      -1.528   3.365   0.908  1.00  0.00     0.008 A 
ATOM     33  C   UNL     1      -0.682   1.825   2.573  1.00  0.00     0.061 A 
ATOM     34  C   UNL     1      -0.617   3.054   1.910  1.00  0.00     0.020 A 
ATOM     35  C   UNL     1      -1.741  -0.463   2.925  1.00  0.00     0.052 C 
BRANCH  33  36
ATOM     36  C   UNL     1       0.265   1.588   3.637  1.00  0.00     0.100 C 
ATOM     37  N   UNL     1       1.026   1.400   4.489  1.00  0.00    -0.192 NA
ENDBRANCH  33  36
ENDBRANCH   1  29
TORSDOF 6


