REMARK SMILES [N-]=[N+]=Nc1ccc2c3c(cc(/C(O)=N/[NH+]=[N-])c(OC(=O)[C@]4(N)C[C@H](CO)C4)c13)C=C2
REMARK SMILES IDX 18 1 17 2 11 3 10 4 9 5 28 6 8 7 29 8 4 9 7 10 30 11 5 12
REMARK SMILES IDX 6 13 12 14 13 15 14 17 15 18 16 20 3 21 2 22 1 23 19 24
REMARK SMILES IDX 20 25 21 26 27 27 23 28 24 29 22 30 25 33 26 34
REMARK H PARENT 13 16 15 19 22 31 22 32 26 35
ROOT
ATOM      1  O   UNL     1       0.728   0.591   0.406  1.00  0.00    -0.424 OA
ENDROOT
BRANCH   1   2
ATOM      2  C   UNL     1       0.225  -0.707   0.551  1.00  0.00     0.150 A 
ATOM      3  C   UNL     1       1.071  -1.733   1.093  1.00  0.00     0.062 A 
ATOM      4  C   UNL     1       0.565  -3.047   1.272  1.00  0.00     0.024 A 
ATOM      5  C   UNL     1      -0.750  -3.307   0.906  1.00  0.00    -0.016 A 
ATOM      6  C   UNL     1      -1.104  -1.025   0.151  1.00  0.00     0.036 A 
ATOM      7  C   UNL     1      -1.522  -2.329   0.372  1.00  0.00     0.000 A 
ATOM      8  C   UNL     1      -1.563  -4.527   0.944  1.00  0.00     0.009 C 
ATOM      9  C   UNL     1      -2.041  -0.155  -0.475  1.00  0.00     0.049 A 
ATOM     10  C   UNL     1      -2.752  -2.812   0.058  1.00  0.00    -0.017 A 
ATOM     11  C   UNL     1      -2.768  -4.229   0.434  1.00  0.00     0.009 C 
ATOM     12  C   UNL     1      -3.340  -0.651  -0.804  1.00  0.00     0.011 A 
ATOM     13  C   UNL     1      -3.701  -1.989  -0.536  1.00  0.00     0.009 A 
BRANCH   3  14
ATOM     14  C   UNL     1       2.476  -1.453   1.479  1.00  0.00     0.172 C 
BRANCH  14  15
ATOM     15  O   UNL     1       3.465  -2.421   1.288  1.00  0.00    -0.506 OA
ATOM     16  H   UNL     1       3.275  -3.297   0.818  1.00  0.00     0.293 HD
ENDBRANCH  14  15
BRANCH  14  17
ATOM     17  N   UNL     1       2.787  -0.306   2.005  1.00  0.00    -0.151 NA
BRANCH  17  18
ATOM     18  N   UNL     1       4.094   0.027   2.392  1.00  0.00    -0.169 N 
ATOM     19  H   UNL     1       4.886  -0.643   2.267  1.00  0.00     0.475 HD
ATOM     20  N   UNL     1       4.326   1.166   2.900  1.00  0.00    -0.151 NA
ENDBRANCH  17  18
ENDBRANCH  14  17
ENDBRANCH   3  14
BRANCH   9  21
ATOM     21  N   UNL     1      -1.668   1.190  -0.803  1.00  0.00    -0.060 NA
BRANCH  21  22
ATOM     22  N   UNL     1      -2.437   1.971  -1.366  1.00  0.00     0.005 N 
ATOM     23  N   UNL     1      -3.202   2.753  -1.928  1.00  0.00    -0.003 NA
ENDBRANCH  21  22
ENDBRANCH   9  21
ENDBRANCH   1   2
BRANCH   1  24
ATOM     24  C   UNL     1       0.444   1.615   1.320  1.00  0.00     0.331 C 
ATOM     25  O   UNL     1      -0.444   1.445   2.201  1.00  0.00    -0.250 OA
BRANCH  24  26
ATOM     26  C   UNL     1       1.175   2.941   1.241  1.00  0.00     0.116 C 
ATOM     27  C   UNL     1       0.532   3.940   0.272  1.00  0.00     0.040 C 
ATOM     28  C   UNL     1       2.455   2.939   0.390  1.00  0.00     0.040 C 
ATOM     29  C   UNL     1       1.815   3.951  -0.563  1.00  0.00     0.019 C 
BRANCH  26  30
ATOM     30  N   UNL     1       1.415   3.538   2.559  1.00  0.00    -0.316 NA
ATOM     31  H   UNL     1       1.917   2.840   3.155  1.00  0.00     0.119 HD
ATOM     32  H   UNL     1       0.495   3.734   3.016  1.00  0.00     0.119 HD
ENDBRANCH  26  30
BRANCH  29  33
ATOM     33  C   UNL     1       1.646   3.458  -2.010  1.00  0.00     0.159 C 
BRANCH  33  34
ATOM     34  O   UNL     1       1.011   2.209  -2.056  1.00  0.00    -0.396 OA
ATOM     35  H   UNL     1       0.931   1.976  -3.017  1.00  0.00     0.210 HD
ENDBRANCH  33  34
ENDBRANCH  29  33
ENDBRANCH  24  26
ENDBRANCH   1  24
TORSDOF 12


