REMARK SMILES CC[C@H]1C[C@@]1([NH3+])C(=O)Oc1c(C(=O)N=[N+]=[N-])cccc(O)c(NC2(CF)COC2)c(N=[N+]=[N-])c(Cl)c1Cl
REMARK SMILES IDX 20 1 19 2 18 3 17 4 11 5 10 6 36 7 37 8 34 9 35 10 30 11
REMARK SMILES IDX 22 12 21 13 23 15 24 17 27 18 29 19 28 20 25 21 26 22 31 23
REMARK SMILES IDX 32 24 33 25 12 26 13 27 14 28 15 29 16 30 9 31 7 32 8 33
REMARK SMILES IDX 5 34 4 35 3 36 6 37 2 41 1 42
REMARK H PARENT 21 14 23 16 6 38 6 39 6 40
ROOT
ATOM      1  C   UNL     1      -2.566   1.664   1.038  1.00  0.00     0.139 A 
ATOM      2  C   UNL     1      -2.549   1.650   2.448  1.00  0.00     0.048 A 
ATOM      3  C   UNL     1      -1.413   1.479   3.262  1.00  0.00     0.005 A 
ATOM      4  C   UNL     1      -0.220   0.870   2.850  1.00  0.00     0.016 A 
ATOM      5  C   UNL     1      -0.157  -0.111   1.844  1.00  0.00     0.069 A 
ATOM      6  C   UNL     1       0.870  -0.082   0.870  1.00  0.00     0.162 A 
ATOM      7  C   UNL     1       1.499   1.105   0.427  1.00  0.00     0.103 A 
ATOM      8  Cl  UNL     1       3.085   0.905  -0.318  1.00  0.00    -0.079 Cl
ATOM      9  C   UNL     1       0.986   2.425   0.548  1.00  0.00     0.075 A 
ATOM     10  Cl  UNL     1       2.139   3.760   0.547  1.00  0.00    -0.082 Cl
ATOM     11  C   UNL     1      -0.375   2.767   0.695  1.00  0.00     0.085 A 
ATOM     12  C   UNL     1      -1.425   1.930   0.238  1.00  0.00     0.088 A 
ENDROOT
BRANCH   1  13
ATOM     13  O   UNL     1      -3.787   1.401   0.419  1.00  0.00    -0.506 OA
ATOM     14  H   UNL     1      -3.907   1.441  -0.585  1.00  0.00     0.293 HD
ENDBRANCH   1  13
BRANCH  12  15
ATOM     15  N   UNL     1      -1.362   1.350  -1.080  1.00  0.00    -0.369 N 
ATOM     16  H   UNL     1      -1.728   0.377  -1.197  1.00  0.00     0.161 HD
BRANCH  15  17
ATOM     17  C   UNL     1      -1.016   2.087  -2.307  1.00  0.00     0.113 C 
ATOM     18  C   UNL     1      -1.448   3.547  -2.337  1.00  0.00     0.193 C 
ATOM     19  C   UNL     1      -2.079   1.940  -3.381  1.00  0.00     0.193 C 
ATOM     20  O   UNL     1      -2.399   3.315  -3.350  1.00  0.00    -0.376 OA
BRANCH  17  21
ATOM     21  C   UNL     1       0.411   1.820  -2.812  1.00  0.00     0.247 C 
ATOM     22  F   UNL     1       0.650   0.455  -2.876  1.00  0.00    -0.248 F 
ENDBRANCH  17  21
ENDBRANCH  15  17
ENDBRANCH  12  15
BRANCH  11  23
ATOM     23  N   UNL     1      -0.677   4.017   1.348  1.00  0.00    -0.057 NA
BRANCH  23  24
ATOM     24  N   UNL     1      -1.804   4.514   1.347  1.00  0.00     0.005 N 
ATOM     25  N   UNL     1      -2.927   5.013   1.349  1.00  0.00    -0.003 NA
ENDBRANCH  23  24
ENDBRANCH  11  23
BRANCH   5  26
ATOM     26  C   UNL     1      -1.187  -1.186   1.782  1.00  0.00     0.252 C 
ATOM     27  O   UNL     1      -1.587  -1.587   0.659  1.00  0.00    -0.287 OA
BRANCH  26  28
ATOM     28  N   UNL     1      -1.733  -1.795   2.957  1.00  0.00    -0.017 NA
BRANCH  28  29
ATOM     29  N   UNL     1      -1.258  -1.597   4.075  1.00  0.00     0.009 N 
ATOM     30  N   UNL     1      -0.782  -1.397   5.191  1.00  0.00    -0.003 NA
ENDBRANCH  28  29
ENDBRANCH  26  28
ENDBRANCH   5  26
BRANCH   6  31
ATOM     31  O   UNL     1       1.286  -1.284   0.269  1.00  0.00    -0.419 OA
BRANCH  31  32
ATOM     32  C   UNL     1       1.576  -2.457   0.976  1.00  0.00     0.373 C 
ATOM     33  O   UNL     1       1.671  -2.446   2.236  1.00  0.00    -0.244 OA
BRANCH  32  34
ATOM     34  C   UNL     1       1.732  -3.752   0.232  1.00  0.00     0.196 C 
ATOM     35  C   UNL     1       2.955  -4.592   0.604  1.00  0.00     0.092 C 
ATOM     36  C   UNL     1       2.860  -3.954  -0.787  1.00  0.00     0.069 C 
BRANCH  34  37
ATOM     37  N   UNL     1       0.506  -4.522  -0.002  1.00  0.00    -0.343 N 
ATOM     38  H   UNL     1      -0.164  -3.933  -0.546  1.00  0.00     0.345 HD
ATOM     39  H   UNL     1       0.688  -5.402  -0.537  1.00  0.00     0.345 HD
ATOM     40  H   UNL     1       0.075  -4.771   0.919  1.00  0.00     0.345 HD
ENDBRANCH  34  37
BRANCH  36  41
ATOM     41  C   UNL     1       3.870  -2.817  -1.018  1.00  0.00     0.007 C 
ATOM     42  C   UNL     1       3.510  -2.036  -2.276  1.00  0.00     0.004 C 
ENDBRANCH  36  41
ENDBRANCH  32  34
ENDBRANCH  31  32
ENDBRANCH   6  31
TORSDOF 14


