REMARK SMILES Cc1[nH+]nn(/C=C(/O)Nc2cccc(C#N)c2C)c1-c1cc2ccccc2c2ccccc12
REMARK SMILES IDX 7 1 8 2 6 4 5 5 4 6 19 7 3 8 2 9 1 11 20 12 21 13 33 14
REMARK SMILES IDX 22 15 32 16 28 17 23 18 27 19 31 20 29 21 24 22 26 23 30 24
REMARK SMILES IDX 25 25 9 26 10 28 11 29 17 30 12 31 14 32 13 33 18 34 15 35
REMARK SMILES IDX 16 36
REMARK H PARENT 8 3 3 10 9 27
ROOT
ATOM      1  C   UNL     1       2.255  -1.333   1.589  1.00  0.00     0.232 C 
ENDROOT
BRANCH   1   2
ATOM      2  O   UNL     1       2.082  -1.744   2.912  1.00  0.00    -0.492 OA
ATOM      3  H   UNL     1       2.746  -1.508   3.641  1.00  0.00     0.295 HD
ENDBRANCH   1   2
BRANCH   1   4
ATOM      4  C   UNL     1       3.351  -0.633   1.252  1.00  0.00     0.298 C 
BRANCH   4   5
ATOM      5  N   UNL     1       3.608  -0.139  -0.073  1.00  0.00    -0.096 N 
ATOM      6  N   UNL     1       4.793  -0.251  -0.654  1.00  0.00     0.094 NA
ATOM      7  C   UNL     1       2.804   0.577  -0.900  1.00  0.00     0.207 A 
ATOM      8  N   UNL     1       4.776   0.336  -1.840  1.00  0.00    -0.147 N 
ATOM      9  C   UNL     1       3.554   0.868  -2.025  1.00  0.00     0.170 A 
ATOM     10  H   UNL     1       5.586   0.375  -2.497  1.00  0.00     0.342 HD
ATOM     11  C   UNL     1       3.120   1.607  -3.249  1.00  0.00     0.100 C 
BRANCH   7  12
ATOM     12  C   UNL     1       1.403   0.991  -0.645  1.00  0.00     0.036 A 
ATOM     13  C   UNL     1       0.425   0.528  -1.527  1.00  0.00     0.022 A 
ATOM     14  C   UNL     1       1.030   1.795   0.458  1.00  0.00    -0.006 A 
ATOM     15  C   UNL     1      -0.929   0.778  -1.303  1.00  0.00    -0.017 A 
ATOM     16  C   UNL     1       2.010   2.349   1.309  1.00  0.00     0.009 A 
ATOM     17  C   UNL     1      -0.351   2.070   0.705  1.00  0.00    -0.010 A 
ATOM     18  C   UNL     1      -1.879   0.235  -2.184  1.00  0.00     0.009 A 
ATOM     19  C   UNL     1      -1.342   1.543  -0.179  1.00  0.00    -0.010 A 
ATOM     20  C   UNL     1       1.648   3.120   2.409  1.00  0.00     0.001 A 
ATOM     21  C   UNL     1      -0.683   2.858   1.836  1.00  0.00     0.009 A 
ATOM     22  C   UNL     1      -3.239   0.434  -1.964  1.00  0.00     0.001 A 
ATOM     23  C   UNL     1      -2.734   1.731   0.015  1.00  0.00     0.009 A 
ATOM     24  C   UNL     1       0.307   3.367   2.675  1.00  0.00     0.001 A 
ATOM     25  C   UNL     1      -3.664   1.178  -0.868  1.00  0.00     0.001 A 
ENDBRANCH   7  12
ENDBRANCH   4   5
ENDBRANCH   1   4
BRANCH   1  26
ATOM     26  N   UNL     1       1.278  -1.712   0.608  1.00  0.00    -0.323 N 
ATOM     27  H   UNL     1       1.617  -1.895  -0.362  1.00  0.00     0.170 HD
BRANCH  26  28
ATOM     28  C   UNL     1      -0.137  -1.793   0.887  1.00  0.00     0.045 A 
ATOM     29  C   UNL     1      -0.689  -1.052   1.950  1.00  0.00     0.026 A 
ATOM     30  C   UNL     1      -1.003  -2.529   0.034  1.00  0.00    -0.010 A 
ATOM     31  C   UNL     1      -2.064  -1.026   2.165  1.00  0.00     0.004 A 
ATOM     32  C   UNL     1      -2.404  -2.460   0.244  1.00  0.00     0.057 A 
ATOM     33  C   UNL     1      -2.918  -1.718   1.313  1.00  0.00     0.020 A 
ATOM     34  C   UNL     1      -0.433  -3.328  -1.117  1.00  0.00     0.048 C 
BRANCH  32  35
ATOM     35  C   UNL     1      -3.341  -3.116  -0.636  1.00  0.00     0.099 C 
ATOM     36  N   UNL     1      -4.093  -3.640  -1.343  1.00  0.00    -0.192 NA
ENDBRANCH  32  35
ENDBRANCH  26  28
ENDBRANCH   1  26
TORSDOF 7


