REMARK SMILES C[C@@H](C#N)N(C)CCCCc1cn(-c2cc(N)c3c4c(cccc24)C(O)=N3)nn1
REMARK SMILES IDX 8 1 7 2 5 3 6 4 2 5 1 6 3 7 4 8 9 9 10 10 11 11 12 12 29 13
REMARK SMILES IDX 13 14 28 15 14 16 15 17 24 18 16 19 23 20 19 21 18 22 22 23
REMARK SMILES IDX 20 24 27 25 21 26 25 27 17 28 26 31
REMARK H PARENT 17 29 17 30 26 32
ROOT
ATOM      1  C   UNL     1       1.825   0.918   2.904  1.00  0.00     0.016 C 
ENDROOT
BRANCH   1   2
ATOM      2  C   UNL     1       0.689  -0.117   2.884  1.00  0.00     0.085 C 
BRANCH   2   3
ATOM      3  N   UNL     1      -0.621   0.564   2.998  1.00  0.00    -0.291 NA
ATOM      4  C   UNL     1      -0.998   0.771   4.411  1.00  0.00     0.106 C 
BRANCH   3   5
ATOM      5  C   UNL     1      -1.679  -0.090   2.184  1.00  0.00     0.157 C 
ATOM      6  C   UNL     1      -2.139  -1.446   2.746  1.00  0.00     0.041 C 
BRANCH   5   7
ATOM      7  C   UNL     1      -2.830   0.810   2.014  1.00  0.00     0.081 C 
ATOM      8  N   UNL     1      -3.736   1.519   1.878  1.00  0.00    -0.197 NA
ENDBRANCH   5   7
ENDBRANCH   3   5
ENDBRANCH   2   3
ENDBRANCH   1   2
BRANCH   1   9
ATOM      9  C   UNL     1       3.164   0.341   2.397  1.00  0.00     0.008 C 
BRANCH   9  10
ATOM     10  C   UNL     1       3.447   0.660   0.918  1.00  0.00     0.060 C 
BRANCH  10  11
ATOM     11  C   UNL     1       2.459   0.009   0.001  1.00  0.00     0.083 A 
ATOM     12  C   UNL     1       1.295   0.567  -0.479  1.00  0.00     0.140 A 
ATOM     13  N   UNL     1       2.487  -1.292  -0.351  1.00  0.00    -0.135 NA
ATOM     14  N   UNL     1       0.641  -0.424  -1.109  1.00  0.00    -0.220 N 
ATOM     15  N   UNL     1       1.374  -1.524  -1.034  1.00  0.00    -0.062 NA
BRANCH  14  16
ATOM     16  C   UNL     1      -0.648  -0.333  -1.736  1.00  0.00     0.076 A 
ATOM     17  C   UNL     1      -0.970   0.819  -2.517  1.00  0.00     0.056 A 
ATOM     18  C   UNL     1      -1.629  -1.350  -1.573  1.00  0.00     0.011 A 
ATOM     19  C   UNL     1      -2.236   0.954  -3.144  1.00  0.00     0.060 A 
ATOM     20  C   UNL     1      -1.533  -2.507  -0.763  1.00  0.00     0.011 A 
ATOM     21  C   UNL     1      -2.833  -1.160  -2.224  1.00  0.00     0.024 A 
ATOM     22  C   UNL     1      -3.156  -0.082  -2.975  1.00  0.00     0.099 A 
ATOM     23  C   UNL     1      -2.637  -3.398  -0.665  1.00  0.00     0.002 A 
ATOM     24  C   UNL     1      -3.898  -1.987  -2.142  1.00  0.00     0.047 A 
ATOM     25  N   UNL     1      -4.509  -0.188  -3.434  1.00  0.00    -0.211 NA
ATOM     26  C   UNL     1      -3.843  -3.138  -1.359  1.00  0.00     0.014 A 
ATOM     27  C   UNL     1      -4.935  -1.319  -2.935  1.00  0.00     0.219 C 
BRANCH  19  28
ATOM     28  N   UNL     1      -2.558   2.114  -3.914  1.00  0.00    -0.397 N 
ATOM     29  H   UNL     1      -3.491   2.210  -4.372  1.00  0.00     0.156 HD
ATOM     30  H   UNL     1      -1.863   2.885  -4.031  1.00  0.00     0.156 HD
ENDBRANCH  19  28
BRANCH  27  31
ATOM     31  O   UNL     1      -6.221  -1.807  -3.138  1.00  0.00    -0.493 OA
ATOM     32  H   UNL     1      -6.888  -1.290  -3.698  1.00  0.00     0.295 HD
ENDBRANCH  27  31
ENDBRANCH  14  16
ENDBRANCH  10  11
ENDBRANCH   9  10
ENDBRANCH   1   9
TORSDOF 10


