MODEL 1
REMARK VINA RESULT:      -6.2      0.000      0.000
REMARK SMILES Cc1nnn([C@@H]2O[C@@]2(C#N)[NH2+]c2cccc(C#N)c2C)c1-c1cc2ccccc2c2ccccc12
REMARK SMILES IDX 11 1 8 4 6 5 7 6 5 7 2 8 3 9 21 10 4 11 1 12 22 13 23 14
REMARK SMILES IDX 35 15 24 16 34 17 30 18 25 19 29 20 33 21 31 22 26 23 28 24
REMARK SMILES IDX 32 25 27 26 9 27 10 28 12 29 13 30 19 31 14 32 16 33 15 34
REMARK SMILES IDX 20 35 17 36 18 37
REMARK H PARENT 11 2 11 3
ROOT
ATOM      1  N   UNL     1      39.555 135.355  17.714  1.00  0.00    -0.269 N 
ATOM      2  H   UNL     1      39.013 134.637  18.251  1.00  0.00     0.356 HD
ATOM      3  H   UNL     1      38.836 135.939  17.231  1.00  0.00     0.356 HD
ENDROOT
BRANCH   1   4
ATOM      4  C   UNL     1      40.424 134.695  16.720  1.00  0.00     0.344 C 
ATOM      5  C   UNL     1      40.852 133.286  16.961  1.00  0.00     0.354 C 
ATOM      6  O   UNL     1      39.778 133.597  16.106  1.00  0.00    -0.274 OA
BRANCH   5   7
ATOM      7  N   UNL     1      42.044 132.883  16.223  1.00  0.00    -0.205 N 
ATOM      8  C   UNL     1      44.098 132.413  15.660  1.00  0.00     0.088 A 
ATOM      9  N   UNL     1      43.314 132.254  14.573  1.00  0.00    -0.135 NA
ATOM     10  C   UNL     1      43.295 132.822  16.705  1.00  0.00     0.096 A 
ATOM     11  N   UNL     1      42.072 132.539  14.945  1.00  0.00    -0.064 NA
ATOM     12  C   UNL     1      45.581 132.239  15.665  1.00  0.00     0.071 C 
BRANCH  10  13
ATOM     13  C   UNL     1      43.687 133.098  18.103  1.00  0.00     0.010 A 
ATOM     14  C   UNL     1      43.557 132.060  19.024  1.00  0.00     0.019 A 
ATOM     15  C   UNL     1      44.147 134.366  18.527  1.00  0.00    -0.008 A 
ATOM     16  C   UNL     1      43.922 132.232  20.360  1.00  0.00    -0.017 A 
ATOM     17  C   UNL     1      44.226 135.442  17.619  1.00  0.00     0.009 A 
ATOM     18  C   UNL     1      44.511 134.571  19.893  1.00  0.00    -0.010 A 
ATOM     19  C   UNL     1      43.789 131.154  21.250  1.00  0.00     0.009 A 
ATOM     20  C   UNL     1      44.420 133.482  20.815  1.00  0.00    -0.010 A 
ATOM     21  C   UNL     1      44.646 136.701  18.038  1.00  0.00     0.001 A 
ATOM     22  C   UNL     1      44.933 135.866  20.285  1.00  0.00     0.009 A 
ATOM     23  C   UNL     1      44.152 131.293  22.587  1.00  0.00     0.001 A 
ATOM     24  C   UNL     1      44.798 133.588  22.178  1.00  0.00     0.009 A 
ATOM     25  C   UNL     1      44.995 136.911  19.365  1.00  0.00     0.001 A 
ATOM     26  C   UNL     1      44.659 132.503  23.047  1.00  0.00     0.001 A 
ENDBRANCH  10  13
ENDBRANCH   5   7
BRANCH   4  27
ATOM     27  C   UNL     1      41.053 135.529  15.681  1.00  0.00     0.167 C 
ATOM     28  N   UNL     1      41.545 136.187  14.866  1.00  0.00    -0.188 NA
ENDBRANCH   4  27
ENDBRANCH   1   4
BRANCH   1  29
ATOM     29  C   UNL     1      40.325 136.167  18.638  1.00  0.00     0.137 A 
ATOM     30  C   UNL     1      40.791 137.423  18.205  1.00  0.00     0.068 A 
ATOM     31  C   UNL     1      40.650 135.726  19.956  1.00  0.00     0.028 A 
ATOM     32  C   UNL     1      41.557 138.232  19.037  1.00  0.00     0.008 A 
ATOM     33  C   UNL     1      41.461 136.554  20.778  1.00  0.00     0.061 A 
ATOM     34  C   UNL     1      41.897 137.798  20.312  1.00  0.00     0.020 A 
ATOM     35  C   UNL     1      40.208 134.363  20.443  1.00  0.00     0.052 C 
BRANCH  33  36
ATOM     36  C   UNL     1      41.871 136.155  22.105  1.00  0.00     0.100 C 
ATOM     37  N   UNL     1      42.198 135.836  23.167  1.00  0.00    -0.192 NA
ENDBRANCH  33  36
ENDBRANCH   1  29
TORSDOF 6
ENDMDL
MODEL 2
REMARK VINA RESULT:      -6.1      2.445      4.687
REMARK SMILES Cc1nnn([C@@H]2O[C@@]2(C#N)[NH2+]c2cccc(C#N)c2C)c1-c1cc2ccccc2c2ccccc12
REMARK SMILES IDX 11 1 8 4 6 5 7 6 5 7 2 8 3 9 21 10 4 11 1 12 22 13 23 14
REMARK SMILES IDX 35 15 24 16 34 17 30 18 25 19 29 20 33 21 31 22 26 23 28 24
REMARK SMILES IDX 32 25 27 26 9 27 10 28 12 29 13 30 19 31 14 32 16 33 15 34
REMARK SMILES IDX 20 35 17 36 18 37
REMARK H PARENT 11 2 11 3
ROOT
ATOM      1  N   UNL     1      39.668 133.849  19.617  1.00  0.00    -0.269 N 
ATOM      2  H   UNL     1      39.431 132.844  19.798  1.00  0.00     0.356 HD
ATOM      3  H   UNL     1      39.277 134.375  20.431  1.00  0.00     0.356 HD
ENDROOT
BRANCH   1   4
ATOM      4  C   UNL     1      39.032 134.303  18.365  1.00  0.00     0.344 C 
ATOM      5  C   UNL     1      38.992 133.372  17.200  1.00  0.00     0.354 C 
ATOM      6  O   UNL     1      37.884 133.538  18.053  1.00  0.00    -0.274 OA
BRANCH   5   7
ATOM      7  N   UNL     1      38.796 134.028  15.911  1.00  0.00    -0.205 N 
ATOM      8  C   UNL     1      39.123 134.998  13.986  1.00  0.00     0.088 A 
ATOM      9  N   UNL     1      37.795 134.972  14.226  1.00  0.00    -0.135 NA
ATOM     10  C   UNL     1      39.760 134.409  15.058  1.00  0.00     0.096 A 
ATOM     11  N   UNL     1      37.625 134.371  15.399  1.00  0.00    -0.064 NA
ATOM     12  C   UNL     1      39.753 135.633  12.790  1.00  0.00     0.071 C 
BRANCH  10  13
ATOM     13  C   UNL     1      41.208 134.178  15.246  1.00  0.00     0.010 A 
ATOM     14  C   UNL     1      41.703 132.914  14.930  1.00  0.00     0.019 A 
ATOM     15  C   UNL     1      42.076 135.169  15.758  1.00  0.00    -0.008 A 
ATOM     16  C   UNL     1      43.061 132.618  15.060  1.00  0.00    -0.017 A 
ATOM     17  C   UNL     1      41.578 136.432  16.140  1.00  0.00     0.009 A 
ATOM     18  C   UNL     1      43.467 134.885  15.916  1.00  0.00    -0.010 A 
ATOM     19  C   UNL     1      43.518 131.336  14.714  1.00  0.00     0.009 A 
ATOM     20  C   UNL     1      43.968 133.601  15.539  1.00  0.00    -0.010 A 
ATOM     21  C   UNL     1      42.422 137.400  16.675  1.00  0.00     0.001 A 
ATOM     22  C   UNL     1      44.297 135.893  16.466  1.00  0.00     0.009 A 
ATOM     23  C   UNL     1      44.868 131.014  14.826  1.00  0.00     0.001 A 
ATOM     24  C   UNL     1      45.339 133.248  15.626  1.00  0.00     0.009 A 
ATOM     25  C   UNL     1      43.774 137.130  16.839  1.00  0.00     0.001 A 
ATOM     26  C   UNL     1      45.775 131.968  15.276  1.00  0.00     0.001 A 
ENDBRANCH  10  13
ENDBRANCH   5   7
BRANCH   4  27
ATOM     27  C   UNL     1      38.712 135.734  18.226  1.00  0.00     0.167 C 
ATOM     28  N   UNL     1      38.458 136.858  18.119  1.00  0.00    -0.188 NA
ENDBRANCH   4  27
ENDBRANCH   1   4
BRANCH   1  29
ATOM     29  C   UNL     1      41.111 134.000  19.567  1.00  0.00     0.137 A 
ATOM     30  C   UNL     1      41.663 135.275  19.797  1.00  0.00     0.068 A 
ATOM     31  C   UNL     1      41.984 132.913  19.265  1.00  0.00     0.028 A 
ATOM     32  C   UNL     1      43.036 135.486  19.733  1.00  0.00     0.008 A 
ATOM     33  C   UNL     1      43.381 133.157  19.174  1.00  0.00     0.061 A 
ATOM     34  C   UNL     1      43.889 134.436  19.416  1.00  0.00     0.020 A 
ATOM     35  C   UNL     1      41.427 131.538  18.966  1.00  0.00     0.052 C 
BRANCH  33  36
ATOM     36  C   UNL     1      44.322 132.118  18.826  1.00  0.00     0.100 C 
ATOM     37  N   UNL     1      45.077 131.286  18.549  1.00  0.00    -0.192 NA
ENDBRANCH  33  36
ENDBRANCH   1  29
TORSDOF 6
ENDMDL
MODEL 3
REMARK VINA RESULT:      -6.1      2.289      4.678
REMARK SMILES Cc1nnn([C@@H]2O[C@@]2(C#N)[NH2+]c2cccc(C#N)c2C)c1-c1cc2ccccc2c2ccccc12
REMARK SMILES IDX 11 1 8 4 6 5 7 6 5 7 2 8 3 9 21 10 4 11 1 12 22 13 23 14
REMARK SMILES IDX 35 15 24 16 34 17 30 18 25 19 29 20 33 21 31 22 26 23 28 24
REMARK SMILES IDX 32 25 27 26 9 27 10 28 12 29 13 30 19 31 14 32 16 33 15 34
REMARK SMILES IDX 20 35 17 36 18 37
REMARK H PARENT 11 2 11 3
ROOT
ATOM      1  N   UNL     1      40.112 134.126  20.573  1.00  0.00    -0.269 N 
ATOM      2  H   UNL     1      39.647 133.251  20.916  1.00  0.00     0.356 HD
ATOM      3  H   UNL     1      40.079 134.789  21.380  1.00  0.00     0.356 HD
ENDROOT
BRANCH   1   4
ATOM      4  C   UNL     1      39.364 134.683  19.428  1.00  0.00     0.344 C 
ATOM      5  C   UNL     1      39.121 133.816  18.238  1.00  0.00     0.354 C 
ATOM      6  O   UNL     1      38.137 134.009  19.226  1.00  0.00    -0.274 OA
BRANCH   5   7
ATOM      7  N   UNL     1      38.820 134.546  17.012  1.00  0.00    -0.205 N 
ATOM      8  C   UNL     1      38.983 135.590  15.103  1.00  0.00     0.088 A 
ATOM      9  N   UNL     1      37.695 135.637  15.503  1.00  0.00    -0.135 NA
ATOM     10  C   UNL     1      39.700 134.907  16.065  1.00  0.00     0.096 A 
ATOM     11  N   UNL     1      37.623 134.990  16.661  1.00  0.00    -0.064 NA
ATOM     12  C   UNL     1      39.509 136.242  13.868  1.00  0.00     0.071 C 
BRANCH  10  13
ATOM     13  C   UNL     1      41.141 134.574  16.064  1.00  0.00     0.010 A 
ATOM     14  C   UNL     1      41.521 133.368  15.479  1.00  0.00     0.019 A 
ATOM     15  C   UNL     1      42.114 135.410  16.657  1.00  0.00    -0.008 A 
ATOM     16  C   UNL     1      42.862 132.986  15.420  1.00  0.00    -0.017 A 
ATOM     17  C   UNL     1      41.736 136.604  17.307  1.00  0.00     0.009 A 
ATOM     18  C   UNL     1      43.491 135.034  16.624  1.00  0.00    -0.010 A 
ATOM     19  C   UNL     1      43.201 131.770  14.807  1.00  0.00     0.009 A 
ATOM     20  C   UNL     1      43.871 133.818  15.975  1.00  0.00    -0.010 A 
ATOM     21  C   UNL     1      42.687 137.414  17.921  1.00  0.00     0.001 A 
ATOM     22  C   UNL     1      44.431 135.881  17.261  1.00  0.00     0.009 A 
ATOM     23  C   UNL     1      44.531 131.366  14.726  1.00  0.00     0.001 A 
ATOM     24  C   UNL     1      45.218 133.388  15.863  1.00  0.00     0.009 A 
ATOM     25  C   UNL     1      44.026 137.052  17.900  1.00  0.00     0.001 A 
ATOM     26  C   UNL     1      45.535 132.175  15.248  1.00  0.00     0.001 A 
ENDBRANCH  10  13
ENDBRANCH   5   7
BRANCH   4  27
ATOM     27  C   UNL     1      39.131 136.136  19.389  1.00  0.00     0.167 C 
ATOM     28  N   UNL     1      38.950 137.279  19.355  1.00  0.00    -0.188 NA
ENDBRANCH   4  27
ENDBRANCH   1   4
BRANCH   1  29
ATOM     29  C   UNL     1      41.488 133.832  20.219  1.00  0.00     0.137 A 
ATOM     30  C   UNL     1      41.753 132.698  19.426  1.00  0.00     0.068 A 
ATOM     31  C   UNL     1      42.581 134.632  20.669  1.00  0.00     0.028 A 
ATOM     32  C   UNL     1      43.054 132.352  19.080  1.00  0.00     0.008 A 
ATOM     33  C   UNL     1      43.905 134.242  20.330  1.00  0.00     0.061 A 
ATOM     34  C   UNL     1      44.124 133.113  19.535  1.00  0.00     0.020 A 
ATOM     35  C   UNL     1      42.343 135.831  21.560  1.00  0.00     0.052 C 
BRANCH  33  36
ATOM     36  C   UNL     1      45.063 134.972  20.787  1.00  0.00     0.100 C 
ATOM     37  N   UNL     1      45.991 135.559  21.155  1.00  0.00    -0.192 NA
ENDBRANCH  33  36
ENDBRANCH   1  29
TORSDOF 6
ENDMDL
MODEL 4
REMARK VINA RESULT:      -6.1      2.753      5.688
REMARK SMILES Cc1nnn([C@@H]2O[C@@]2(C#N)[NH2+]c2cccc(C#N)c2C)c1-c1cc2ccccc2c2ccccc12
REMARK SMILES IDX 11 1 8 4 6 5 7 6 5 7 2 8 3 9 21 10 4 11 1 12 22 13 23 14
REMARK SMILES IDX 35 15 24 16 34 17 30 18 25 19 29 20 33 21 31 22 26 23 28 24
REMARK SMILES IDX 32 25 27 26 9 27 10 28 12 29 13 30 19 31 14 32 16 33 15 34
REMARK SMILES IDX 20 35 17 36 18 37
REMARK H PARENT 11 2 11 3
ROOT
ATOM      1  N   UNL     1      44.771 136.944  18.987  1.00  0.00    -0.269 N 
ATOM      2  H   UNL     1      45.793 136.831  18.784  1.00  0.00     0.356 HD
ATOM      3  H   UNL     1      44.651 137.949  19.247  1.00  0.00     0.356 HD
ENDROOT
BRANCH   1   4
ATOM      4  C   UNL     1      44.379 136.078  20.117  1.00  0.00     0.344 C 
ATOM      5  C   UNL     1      45.227 134.895  20.444  1.00  0.00     0.354 C 
ATOM      6  O   UNL     1      45.339 136.105  21.155  1.00  0.00    -0.274 OA
BRANCH   5   7
ATOM      7  N   UNL     1      44.548 133.862  21.219  1.00  0.00    -0.205 N 
ATOM      8  C   UNL     1      43.407 132.100  21.811  1.00  0.00     0.088 A 
ATOM      9  N   UNL     1      43.735 132.786  22.926  1.00  0.00    -0.135 NA
ATOM     10  C   UNL     1      43.913 132.787  20.726  1.00  0.00     0.096 A 
ATOM     11  N   UNL     1      44.433 133.848  22.537  1.00  0.00    -0.064 NA
ATOM     12  C   UNL     1      42.576 130.860  21.796  1.00  0.00     0.071 C 
BRANCH  10  13
ATOM     13  C   UNL     1      43.837 132.419  19.297  1.00  0.00     0.010 A 
ATOM     14  C   UNL     1      44.920 131.729  18.753  1.00  0.00     0.019 A 
ATOM     15  C   UNL     1      42.739 132.769  18.479  1.00  0.00    -0.008 A 
ATOM     16  C   UNL     1      44.921 131.328  17.416  1.00  0.00    -0.017 A 
ATOM     17  C   UNL     1      41.665 133.519  19.001  1.00  0.00     0.009 A 
ATOM     18  C   UNL     1      42.724 132.384  17.103  1.00  0.00    -0.010 A 
ATOM     19  C   UNL     1      46.026 130.621  16.915  1.00  0.00     0.009 A 
ATOM     20  C   UNL     1      43.818 131.633  16.573  1.00  0.00    -0.010 A 
ATOM     21  C   UNL     1      40.597 133.895  18.192  1.00  0.00     0.001 A 
ATOM     22  C   UNL     1      41.622 132.785  16.309  1.00  0.00     0.009 A 
ATOM     23  C   UNL     1      46.052 130.201  15.587  1.00  0.00     0.001 A 
ATOM     24  C   UNL     1      43.867 131.177  15.230  1.00  0.00     0.009 A 
ATOM     25  C   UNL     1      40.578 133.532  16.853  1.00  0.00     0.001 A 
ATOM     26  C   UNL     1      44.975 130.474  14.751  1.00  0.00     0.001 A 
ENDBRANCH  10  13
ENDBRANCH   5   7
BRANCH   4  27
ATOM     27  C   UNL     1      43.035 136.252  20.694  1.00  0.00     0.167 C 
ATOM     28  N   UNL     1      41.980 136.385  21.150  1.00  0.00    -0.188 NA
ENDBRANCH   4  27
ENDBRANCH   1   4
BRANCH   1  29
ATOM     29  C   UNL     1      44.007 136.639  17.792  1.00  0.00     0.137 A 
ATOM     30  C   UNL     1      44.453 135.597  16.954  1.00  0.00     0.068 A 
ATOM     31  C   UNL     1      42.842 137.373  17.420  1.00  0.00     0.028 A 
ATOM     32  C   UNL     1      43.778 135.280  15.781  1.00  0.00     0.008 A 
ATOM     33  C   UNL     1      42.185 137.053  16.201  1.00  0.00     0.061 A 
ATOM     34  C   UNL     1      42.656 136.007  15.402  1.00  0.00     0.020 A 
ATOM     35  C   UNL     1      42.357 138.529  18.268  1.00  0.00     0.052 C 
BRANCH  33  36
ATOM     36  C   UNL     1      41.029 137.782  15.735  1.00  0.00     0.100 C 
ATOM     37  N   UNL     1      40.102 138.366  15.363  1.00  0.00    -0.192 NA
ENDBRANCH  33  36
ENDBRANCH   1  29
TORSDOF 6
ENDMDL
MODEL 5
REMARK VINA RESULT:      -6.1      2.686      7.698
REMARK SMILES Cc1nnn([C@@H]2O[C@@]2(C#N)[NH2+]c2cccc(C#N)c2C)c1-c1cc2ccccc2c2ccccc12
REMARK SMILES IDX 11 1 8 4 6 5 7 6 5 7 2 8 3 9 21 10 4 11 1 12 22 13 23 14
REMARK SMILES IDX 35 15 24 16 34 17 30 18 25 19 29 20 33 21 31 22 26 23 28 24
REMARK SMILES IDX 32 25 27 26 9 27 10 28 12 29 13 30 19 31 14 32 16 33 15 34
REMARK SMILES IDX 20 35 17 36 18 37
REMARK H PARENT 11 2 11 3
ROOT
ATOM      1  N   UNL     1      43.061 131.818  16.850  1.00  0.00    -0.269 N 
ATOM      2  H   UNL     1      42.359 131.891  16.075  1.00  0.00     0.356 HD
ATOM      3  H   UNL     1      42.620 131.192  17.562  1.00  0.00     0.356 HD
ENDROOT
BRANCH   1   4
ATOM      4  C   UNL     1      43.315 133.150  17.432  1.00  0.00     0.344 C 
ATOM      5  C   UNL     1      42.584 133.544  18.671  1.00  0.00     0.354 C 
ATOM      6  O   UNL     1      43.904 133.058  18.715  1.00  0.00    -0.274 OA
BRANCH   5   7
ATOM      7  N   UNL     1      42.521 134.984  18.902  1.00  0.00    -0.205 N 
ATOM      8  C   UNL     1      41.949 137.088  18.854  1.00  0.00     0.088 A 
ATOM      9  N   UNL     1      43.050 136.966  19.626  1.00  0.00    -0.135 NA
ATOM     10  C   UNL     1      41.618 135.833  18.385  1.00  0.00     0.096 A 
ATOM     11  N   UNL     1      43.371 135.677  19.643  1.00  0.00    -0.064 NA
ATOM     12  C   UNL     1      41.285 138.384  18.529  1.00  0.00     0.071 C 
BRANCH  10  13
ATOM     13  C   UNL     1      40.478 135.450  17.527  1.00  0.00     0.010 A 
ATOM     14  C   UNL     1      40.638 135.583  16.148  1.00  0.00     0.019 A 
ATOM     15  C   UNL     1      39.248 134.997  18.054  1.00  0.00    -0.008 A 
ATOM     16  C   UNL     1      39.618 135.226  15.266  1.00  0.00    -0.017 A 
ATOM     17  C   UNL     1      39.050 134.916  19.449  1.00  0.00     0.009 A 
ATOM     18  C   UNL     1      38.182 134.641  17.172  1.00  0.00    -0.010 A 
ATOM     19  C   UNL     1      39.830 135.361  13.885  1.00  0.00     0.009 A 
ATOM     20  C   UNL     1      38.380 134.734  15.760  1.00  0.00    -0.010 A 
ATOM     21  C   UNL     1      37.830 134.502  19.974  1.00  0.00     0.001 A 
ATOM     22  C   UNL     1      36.953 134.226  17.742  1.00  0.00     0.009 A 
ATOM     23  C   UNL     1      38.833 135.007  12.980  1.00  0.00     0.001 A 
ATOM     24  C   UNL     1      37.390 134.366  14.813  1.00  0.00     0.009 A 
ATOM     25  C   UNL     1      36.786 134.162  19.125  1.00  0.00     0.001 A 
ATOM     26  C   UNL     1      37.620 134.506  13.443  1.00  0.00     0.001 A 
ENDBRANCH  10  13
ENDBRANCH   5   7
BRANCH   4  27
ATOM     27  C   UNL     1      44.061 134.132  16.626  1.00  0.00     0.167 C 
ATOM     28  N   UNL     1      44.650 134.904  15.996  1.00  0.00    -0.188 NA
ENDBRANCH   4  27
ENDBRANCH   1   4
BRANCH   1  29
ATOM     29  C   UNL     1      44.280 131.218  16.339  1.00  0.00     0.137 A 
ATOM     30  C   UNL     1      45.216 130.707  17.258  1.00  0.00     0.068 A 
ATOM     31  C   UNL     1      44.576 131.157  14.944  1.00  0.00     0.028 A 
ATOM     32  C   UNL     1      46.414 130.148  16.828  1.00  0.00     0.008 A 
ATOM     33  C   UNL     1      45.820 130.610  14.528  1.00  0.00     0.061 A 
ATOM     34  C   UNL     1      46.719 130.106  15.473  1.00  0.00     0.020 A 
ATOM     35  C   UNL     1      43.618 131.737  13.927  1.00  0.00     0.052 C 
BRANCH  33  36
ATOM     36  C   UNL     1      46.211 130.556  13.139  1.00  0.00     0.100 C 
ATOM     37  N   UNL     1      46.526 130.513  12.027  1.00  0.00    -0.192 NA
ENDBRANCH  33  36
ENDBRANCH   1  29
TORSDOF 6
ENDMDL
MODEL 6
REMARK VINA RESULT:      -5.8      2.457      5.576
REMARK SMILES Cc1nnn([C@@H]2O[C@@]2(C#N)[NH2+]c2cccc(C#N)c2C)c1-c1cc2ccccc2c2ccccc12
REMARK SMILES IDX 11 1 8 4 6 5 7 6 5 7 2 8 3 9 21 10 4 11 1 12 22 13 23 14
REMARK SMILES IDX 35 15 24 16 34 17 30 18 25 19 29 20 33 21 31 22 26 23 28 24
REMARK SMILES IDX 32 25 27 26 9 27 10 28 12 29 13 30 19 31 14 32 16 33 15 34
REMARK SMILES IDX 20 35 17 36 18 37
REMARK H PARENT 11 2 11 3
ROOT
ATOM      1  N   UNL     1      41.470 135.207  13.778  1.00  0.00    -0.269 N 
ATOM      2  H   UNL     1      41.785 136.067  13.267  1.00  0.00     0.356 HD
ATOM      3  H   UNL     1      41.259 134.506  13.032  1.00  0.00     0.356 HD
ENDROOT
BRANCH   1   4
ATOM      4  C   UNL     1      40.253 135.499  14.560  1.00  0.00     0.344 C 
ATOM      5  C   UNL     1      40.206 136.745  15.379  1.00  0.00     0.354 C 
ATOM      6  O   UNL     1      39.608 136.674  14.107  1.00  0.00    -0.274 OA
BRANCH   5   7
ATOM      7  N   UNL     1      39.219 136.724  16.453  1.00  0.00    -0.205 N 
ATOM      8  C   UNL     1      38.230 136.486  18.383  1.00  0.00     0.088 A 
ATOM      9  N   UNL     1      37.306 136.876  17.478  1.00  0.00    -0.135 NA
ATOM     10  C   UNL     1      39.442 136.380  17.732  1.00  0.00     0.096 A 
ATOM     11  N   UNL     1      37.936 137.019  16.317  1.00  0.00    -0.064 NA
ATOM     12  C   UNL     1      37.932 136.165  19.810  1.00  0.00     0.071 C 
BRANCH  10  13
ATOM     13  C   UNL     1      40.755 136.013  18.302  1.00  0.00     0.010 A 
ATOM     14  C   UNL     1      41.596 137.051  18.699  1.00  0.00     0.019 A 
ATOM     15  C   UNL     1      41.185 134.672  18.420  1.00  0.00    -0.008 A 
ATOM     16  C   UNL     1      42.845 136.792  19.265  1.00  0.00    -0.017 A 
ATOM     17  C   UNL     1      40.370 133.614  17.965  1.00  0.00     0.009 A 
ATOM     18  C   UNL     1      42.466 134.380  18.980  1.00  0.00    -0.010 A 
ATOM     19  C   UNL     1      43.651 137.869  19.666  1.00  0.00     0.009 A 
ATOM     20  C   UNL     1      43.295 135.454  19.431  1.00  0.00    -0.010 A 
ATOM     21  C   UNL     1      40.802 132.293  18.049  1.00  0.00     0.001 A 
ATOM     22  C   UNL     1      42.874 133.025  19.048  1.00  0.00     0.009 A 
ATOM     23  C   UNL     1      44.899 137.640  20.240  1.00  0.00     0.001 A 
ATOM     24  C   UNL     1      44.563 135.253  20.033  1.00  0.00     0.009 A 
ATOM     25  C   UNL     1      42.048 132.002  18.585  1.00  0.00     0.001 A 
ATOM     26  C   UNL     1      45.350 136.338  20.427  1.00  0.00     0.001 A 
ENDBRANCH  10  13
ENDBRANCH   5   7
BRANCH   4  27
ATOM     27  C   UNL     1      39.254 134.429  14.719  1.00  0.00     0.167 C 
ATOM     28  N   UNL     1      38.471 133.586  14.847  1.00  0.00    -0.188 NA
ENDBRANCH   4  27
ENDBRANCH   1   4
BRANCH   1  29
ATOM     29  C   UNL     1      42.547 134.731  14.626  1.00  0.00     0.137 A 
ATOM     30  C   UNL     1      43.338 135.677  15.306  1.00  0.00     0.068 A 
ATOM     31  C   UNL     1      42.851 133.344  14.770  1.00  0.00     0.028 A 
ATOM     32  C   UNL     1      44.402 135.280  16.109  1.00  0.00     0.008 A 
ATOM     33  C   UNL     1      43.961 132.963  15.570  1.00  0.00     0.061 A 
ATOM     34  C   UNL     1      44.717 133.933  16.235  1.00  0.00     0.020 A 
ATOM     35  C   UNL     1      42.055 132.299  14.020  1.00  0.00     0.052 C 
BRANCH  33  36
ATOM     36  C   UNL     1      44.359 131.583  15.726  1.00  0.00     0.100 C 
ATOM     37  N   UNL     1      44.678 130.478  15.853  1.00  0.00    -0.192 NA
ENDBRANCH  33  36
ENDBRANCH   1  29
TORSDOF 6
ENDMDL
MODEL 7
REMARK VINA RESULT:      -5.8      1.973      5.857
REMARK SMILES Cc1nnn([C@@H]2O[C@@]2(C#N)[NH2+]c2cccc(C#N)c2C)c1-c1cc2ccccc2c2ccccc12
REMARK SMILES IDX 11 1 8 4 6 5 7 6 5 7 2 8 3 9 21 10 4 11 1 12 22 13 23 14
REMARK SMILES IDX 35 15 24 16 34 17 30 18 25 19 29 20 33 21 31 22 26 23 28 24
REMARK SMILES IDX 32 25 27 26 9 27 10 28 12 29 13 30 19 31 14 32 16 33 15 34
REMARK SMILES IDX 20 35 17 36 18 37
REMARK H PARENT 11 2 11 3
ROOT
ATOM      1  N   UNL     1      43.486 133.932  15.849  1.00  0.00    -0.269 N 
ATOM      2  H   UNL     1      44.213 134.676  15.718  1.00  0.00     0.356 HD
ATOM      3  H   UNL     1      43.134 133.720  14.888  1.00  0.00     0.356 HD
ENDROOT
BRANCH   1   4
ATOM      4  C   UNL     1      42.386 134.441  16.692  1.00  0.00     0.344 C 
ATOM      5  C   UNL     1      42.588 135.710  17.450  1.00  0.00     0.354 C 
ATOM      6  O   UNL     1      41.897 135.682  16.223  1.00  0.00    -0.274 OA
BRANCH   5   7
ATOM      7  N   UNL     1      41.687 135.885  18.584  1.00  0.00    -0.205 N 
ATOM      8  C   UNL     1      40.834 135.933  20.591  1.00  0.00     0.088 A 
ATOM      9  N   UNL     1      39.878 136.309  19.715  1.00  0.00    -0.135 NA
ATOM     10  C   UNL     1      41.980 135.654  19.874  1.00  0.00     0.096 A 
ATOM     11  N   UNL     1      40.426 136.277  18.505  1.00  0.00    -0.064 NA
ATOM     12  C   UNL     1      40.621 135.785  22.061  1.00  0.00     0.071 C 
BRANCH  10  13
ATOM     13  C   UNL     1      43.299 135.231  20.390  1.00  0.00     0.010 A 
ATOM     14  C   UNL     1      44.334 136.163  20.345  1.00  0.00     0.019 A 
ATOM     15  C   UNL     1      43.541 133.929  20.883  1.00  0.00    -0.008 A 
ATOM     16  C   UNL     1      45.606 135.852  20.828  1.00  0.00    -0.017 A 
ATOM     17  C   UNL     1      42.518 132.957  20.877  1.00  0.00     0.009 A 
ATOM     18  C   UNL     1      44.838 133.581  21.368  1.00  0.00    -0.010 A 
ATOM     19  C   UNL     1      46.615 136.827  20.778  1.00  0.00     0.009 A 
ATOM     20  C   UNL     1      45.876 134.564  21.363  1.00  0.00    -0.010 A 
ATOM     21  C   UNL     1      42.760 131.664  21.331  1.00  0.00     0.001 A 
ATOM     22  C   UNL     1      45.049 132.255  21.821  1.00  0.00     0.009 A 
ATOM     23  C   UNL     1      47.891 136.548  21.260  1.00  0.00     0.001 A 
ATOM     24  C   UNL     1      47.181 134.315  21.861  1.00  0.00     0.009 A 
ATOM     25  C   UNL     1      44.020 131.315  21.797  1.00  0.00     0.001 A 
ATOM     26  C   UNL     1      48.170 135.299  21.804  1.00  0.00     0.001 A 
ENDBRANCH  10  13
ENDBRANCH   5   7
BRANCH   4  27
ATOM     27  C   UNL     1      41.250 133.546  16.968  1.00  0.00     0.167 C 
ATOM     28  N   UNL     1      40.355 132.844  17.189  1.00  0.00    -0.188 NA
ENDBRANCH   4  27
ENDBRANCH   1   4
BRANCH   1  29
ATOM     29  C   UNL     1      44.103 132.755  16.431  1.00  0.00     0.137 A 
ATOM     30  C   UNL     1      44.572 132.825  17.757  1.00  0.00     0.068 A 
ATOM     31  C   UNL     1      44.277 131.542  15.699  1.00  0.00     0.028 A 
ATOM     32  C   UNL     1      45.198 131.737  18.356  1.00  0.00     0.008 A 
ATOM     33  C   UNL     1      44.946 130.453  16.320  1.00  0.00     0.061 A 
ATOM     34  C   UNL     1      45.391 130.562  17.642  1.00  0.00     0.020 A 
ATOM     35  C   UNL     1      43.828 131.440  14.258  1.00  0.00     0.052 C 
BRANCH  33  36
ATOM     36  C   UNL     1      45.202 129.211  15.629  1.00  0.00     0.100 C 
ATOM     37  N   UNL     1      45.405 128.215  15.077  1.00  0.00    -0.192 NA
ENDBRANCH  33  36
ENDBRANCH   1  29
TORSDOF 6
ENDMDL
MODEL 8
REMARK VINA RESULT:      -5.4      1.333      3.147
REMARK SMILES Cc1nnn([C@@H]2O[C@@]2(C#N)[NH2+]c2cccc(C#N)c2C)c1-c1cc2ccccc2c2ccccc12
REMARK SMILES IDX 11 1 8 4 6 5 7 6 5 7 2 8 3 9 21 10 4 11 1 12 22 13 23 14
REMARK SMILES IDX 35 15 24 16 34 17 30 18 25 19 29 20 33 21 31 22 26 23 28 24
REMARK SMILES IDX 32 25 27 26 9 27 10 28 12 29 13 30 19 31 14 32 16 33 15 34
REMARK SMILES IDX 20 35 17 36 18 37
REMARK H PARENT 11 2 11 3
ROOT
ATOM      1  N   UNL     1      39.724 135.248  19.891  1.00  0.00    -0.269 N 
ATOM      2  H   UNL     1      39.349 134.490  20.510  1.00  0.00     0.356 HD
ATOM      3  H   UNL     1      38.899 135.849  19.663  1.00  0.00     0.356 HD
ENDROOT
BRANCH   1   4
ATOM      4  C   UNL     1      40.284 134.665  18.656  1.00  0.00     0.344 C 
ATOM      5  C   UNL     1      40.947 133.330  18.727  1.00  0.00     0.354 C 
ATOM      6  O   UNL     1      39.616 133.473  18.290  1.00  0.00    -0.274 OA
BRANCH   5   7
ATOM      7  N   UNL     1      41.861 133.051  17.625  1.00  0.00    -0.205 N 
ATOM      8  C   UNL     1      43.622 132.943  16.343  1.00  0.00     0.088 A 
ATOM      9  N   UNL     1      42.588 132.371  15.691  1.00  0.00    -0.135 NA
ATOM     10  C   UNL     1      43.160 133.385  17.566  1.00  0.00     0.096 A 
ATOM     11  N   UNL     1      41.533 132.445  16.495  1.00  0.00    -0.064 NA
ATOM     12  C   UNL     1      44.990 133.115  15.771  1.00  0.00     0.071 C 
BRANCH  10  13
ATOM     13  C   UNL     1      43.922 134.049  18.644  1.00  0.00     0.010 A 
ATOM     14  C   UNL     1      44.248 135.393  18.466  1.00  0.00     0.019 A 
ATOM     15  C   UNL     1      44.348 133.367  19.806  1.00  0.00    -0.008 A 
ATOM     16  C   UNL     1      44.950 136.100  19.443  1.00  0.00    -0.017 A 
ATOM     17  C   UNL     1      44.078 131.992  19.972  1.00  0.00     0.009 A 
ATOM     18  C   UNL     1      45.082 134.065  20.814  1.00  0.00    -0.010 A 
ATOM     19  C   UNL     1      45.243 137.456  19.228  1.00  0.00     0.009 A 
ATOM     20  C   UNL     1      45.364 135.455  20.639  1.00  0.00    -0.010 A 
ATOM     21  C   UNL     1      44.523 131.308  21.099  1.00  0.00     0.001 A 
ATOM     22  C   UNL     1      45.521 133.336  21.946  1.00  0.00     0.009 A 
ATOM     23  C   UNL     1      45.935 138.190  20.188  1.00  0.00     0.001 A 
ATOM     24  C   UNL     1      46.052 136.233  21.606  1.00  0.00     0.009 A 
ATOM     25  C   UNL     1      45.244 131.977  22.079  1.00  0.00     0.001 A 
ATOM     26  C   UNL     1      46.333 137.581  21.373  1.00  0.00     0.001 A 
ENDBRANCH  10  13
ENDBRANCH   5   7
BRANCH   4  27
ATOM     27  C   UNL     1      40.412 135.532  17.472  1.00  0.00     0.167 C 
ATOM     28  N   UNL     1      40.508 136.214  16.542  1.00  0.00    -0.188 NA
ENDBRANCH   4  27
ENDBRANCH   1   4
BRANCH   1  29
ATOM     29  C   UNL     1      40.719 136.014  20.618  1.00  0.00     0.137 A 
ATOM     30  C   UNL     1      41.054 137.300  20.150  1.00  0.00     0.068 A 
ATOM     31  C   UNL     1      41.391 135.500  21.767  1.00  0.00     0.028 A 
ATOM     32  C   UNL     1      42.021 138.068  20.788  1.00  0.00     0.008 A 
ATOM     33  C   UNL     1      42.398 136.289  22.386  1.00  0.00     0.061 A 
ATOM     34  C   UNL     1      42.695 137.564  21.894  1.00  0.00     0.020 A 
ATOM     35  C   UNL     1      41.093 134.106  22.274  1.00  0.00     0.052 C 
BRANCH  33  36
ATOM     36  C   UNL     1      43.153 135.819  23.523  1.00  0.00     0.100 C 
ATOM     37  N   UNL     1      43.756 135.442  24.436  1.00  0.00    -0.192 NA
ENDBRANCH  33  36
ENDBRANCH   1  29
TORSDOF 6
ENDMDL
MODEL 9
REMARK VINA RESULT:      -5.4      1.919      4.407
REMARK SMILES Cc1nnn([C@@H]2O[C@@]2(C#N)[NH2+]c2cccc(C#N)c2C)c1-c1cc2ccccc2c2ccccc12
REMARK SMILES IDX 11 1 8 4 6 5 7 6 5 7 2 8 3 9 21 10 4 11 1 12 22 13 23 14
REMARK SMILES IDX 35 15 24 16 34 17 30 18 25 19 29 20 33 21 31 22 26 23 28 24
REMARK SMILES IDX 32 25 27 26 9 27 10 28 12 29 13 30 19 31 14 32 16 33 15 34
REMARK SMILES IDX 20 35 17 36 18 37
REMARK H PARENT 11 2 11 3
ROOT
ATOM      1  N   UNL     1      41.965 133.397  15.010  1.00  0.00    -0.269 N 
ATOM      2  H   UNL     1      41.093 132.817  14.987  1.00  0.00     0.356 HD
ATOM      3  H   UNL     1      42.365 133.331  14.046  1.00  0.00     0.356 HD
ENDROOT
BRANCH   1   4
ATOM      4  C   UNL     1      42.917 132.843  15.993  1.00  0.00     0.344 C 
ATOM      5  C   UNL     1      42.395 132.355  17.302  1.00  0.00     0.354 C 
ATOM      6  O   UNL     1      42.675 131.472  16.242  1.00  0.00    -0.274 OA
BRANCH   5   7
ATOM      7  N   UNL     1      43.397 132.278  18.360  1.00  0.00    -0.205 N 
ATOM      8  C   UNL     1      44.626 132.696  20.113  1.00  0.00     0.088 A 
ATOM      9  N   UNL     1      45.097 131.578  19.522  1.00  0.00    -0.135 NA
ATOM     10  C   UNL     1      43.553 133.148  19.371  1.00  0.00     0.096 A 
ATOM     11  N   UNL     1      44.329 131.344  18.464  1.00  0.00    -0.064 NA
ATOM     12  C   UNL     1      45.236 133.338  21.315  1.00  0.00     0.071 C 
BRANCH  10  13
ATOM     13  C   UNL     1      42.692 134.320  19.632  1.00  0.00     0.010 A 
ATOM     14  C   UNL     1      41.464 134.089  20.251  1.00  0.00     0.019 A 
ATOM     15  C   UNL     1      43.056 135.631  19.251  1.00  0.00    -0.008 A 
ATOM     16  C   UNL     1      40.599 135.142  20.550  1.00  0.00    -0.017 A 
ATOM     17  C   UNL     1      44.268 135.870  18.570  1.00  0.00     0.009 A 
ATOM     18  C   UNL     1      42.180 136.724  19.531  1.00  0.00    -0.010 A 
ATOM     19  C   UNL     1      39.379 134.866  21.188  1.00  0.00     0.009 A 
ATOM     20  C   UNL     1      40.947 136.478  20.211  1.00  0.00    -0.010 A 
ATOM     21  C   UNL     1      44.616 137.155  18.162  1.00  0.00     0.001 A 
ATOM     22  C   UNL     1      42.565 138.017  19.100  1.00  0.00     0.009 A 
ATOM     23  C   UNL     1      38.498 135.897  21.506  1.00  0.00     0.001 A 
ATOM     24  C   UNL     1      40.037 137.508  20.563  1.00  0.00     0.009 A 
ATOM     25  C   UNL     1      43.767 138.221  18.424  1.00  0.00     0.001 A 
ATOM     26  C   UNL     1      38.829 137.212  21.199  1.00  0.00     0.001 A 
ENDBRANCH  10  13
ENDBRANCH   5   7
BRANCH   4  27
ATOM     27  C   UNL     1      44.357 133.046  15.759  1.00  0.00     0.167 C 
ATOM     28  N   UNL     1      45.488 133.210  15.574  1.00  0.00    -0.188 NA
ENDBRANCH   4  27
ENDBRANCH   1   4
BRANCH   1  29
ATOM     29  C   UNL     1      41.621 134.773  15.317  1.00  0.00     0.137 A 
ATOM     30  C   UNL     1      42.527 135.790  14.961  1.00  0.00     0.068 A 
ATOM     31  C   UNL     1      40.415 135.126  15.994  1.00  0.00     0.028 A 
ATOM     32  C   UNL     1      42.263 137.123  15.256  1.00  0.00     0.008 A 
ATOM     33  C   UNL     1      40.180 136.490  16.314  1.00  0.00     0.061 A 
ATOM     34  C   UNL     1      41.102 137.471  15.935  1.00  0.00     0.020 A 
ATOM     35  C   UNL     1      39.438 134.059  16.435  1.00  0.00     0.052 C 
BRANCH  33  36
ATOM     36  C   UNL     1      39.007 136.920  17.038  1.00  0.00     0.100 C 
ATOM     37  N   UNL     1      38.066 137.265  17.616  1.00  0.00    -0.192 NA
ENDBRANCH  33  36
ENDBRANCH   1  29
TORSDOF 6
ENDMDL


