REMARK SMILES CC/C=C(/O)N(C)C(=O)C1(C)CC1
REMARK SMILES IDX 4 1 5 2 3 4 2 5 1 6 6 7 7 8 8 9 9 10 10 11 12 12 13 13 11 14
REMARK H PARENT 5 3
ROOT
ATOM      1  C   UNL     1       1.105  -0.640  -0.601  1.00  0.00     0.189 C 
ENDROOT
BRANCH   1   2
ATOM      2  O   UNL     1       2.017  -0.317   0.400  1.00  0.00    -0.495 OA
ATOM      3  H   UNL     1       1.947   0.560   0.903  1.00  0.00     0.295 HD
ENDBRANCH   1   2
BRANCH   1   4
ATOM      4  C   UNL     1       1.272  -1.780  -1.283  1.00  0.00     0.039 C 
BRANCH   4   5
ATOM      5  C   UNL     1       0.374  -2.235  -2.402  1.00  0.00     0.029 C 
ATOM      6  C   UNL     1       1.152  -2.317  -3.711  1.00  0.00     0.008 C 
ENDBRANCH   4   5
ENDBRANCH   1   4
BRANCH   1   7
ATOM      7  N   UNL     1       0.029   0.267  -0.891  1.00  0.00    -0.286 N 
ATOM      8  C   UNL     1       0.189   1.200  -2.008  1.00  0.00     0.156 C 
BRANCH   7   9
ATOM      9  C   UNL     1      -1.026   0.481   0.069  1.00  0.00     0.234 C 
ATOM     10  O   UNL     1      -1.702   1.546   0.029  1.00  0.00    -0.274 OA
BRANCH   9  11
ATOM     11  C   UNL     1      -1.348  -0.533   1.136  1.00  0.00     0.047 C 
ATOM     12  C   UNL     1      -1.699  -1.941   0.675  1.00  0.00     0.018 C 
ATOM     13  C   UNL     1      -2.800  -1.001   1.144  1.00  0.00     0.018 C 
ATOM     14  C   UNL     1      -0.706  -0.382   2.518  1.00  0.00     0.022 C 
ENDBRANCH   9  11
ENDBRANCH   7   9
ENDBRANCH   1   7
TORSDOF 6


