REMARK SMILES C[C@H]1CN(C(=O)[C@]2([NH3+])C[C@@H](CO)C2)CCCN1
REMARK SMILES IDX 4 1 3 2 2 3 1 4 17 5 16 7 5 9 6 10 7 11 9 12 13 13 10 14
REMARK SMILES IDX 8 15 11 19 12 20 14 22 15 23
REMARK H PARENT 17 6 8 16 8 17 8 18 12 21
REMARK Flexibility Score:   15.900
ROOT
ATOM      1  N   UNL     1      -1.583  -0.123   0.279  1.00  0.00    -0.336 N 
ENDROOT
BRANCH   1   2
ATOM      2  C   UNL     1      -3.004  -0.341   0.577  1.00  0.00     0.138 C 
BRANCH   2   3
ATOM      3  C   UNL     1      -3.185  -1.617   1.427  1.00  0.00     0.070 C 
ATOM      4  C   UNL     1      -4.662  -2.034   1.414  1.00  0.00     0.026 C 
BRANCH   3   5
ATOM      5  N   UNL     1      -2.754  -1.398   2.820  1.00  0.00    -0.312 NA
ATOM      6  H   UNL     1      -2.926  -2.285   3.351  1.00  0.00     0.123 HD
BRANCH   5   7
ATOM      7  C   UNL     1      -1.316  -1.107   2.938  1.00  0.00     0.083 CG0
ATOM      8  G   UNL     1      -1.045   0.382   2.678  1.00  0.00     0.000 G0
ENDBRANCH   5   7
ENDBRANCH   3   5
ENDBRANCH   2   3
ENDBRANCH   1   2
BRANCH   1   9
ATOM      9  C   UNL     1      -1.012  -0.766  -0.891  1.00  0.00     0.283 C 
ATOM     10  O   UNL     1      -1.570  -1.800  -1.351  1.00  0.00    -0.268 OA
BRANCH   9  11
ATOM     11  C   UNL     1       0.261  -0.287  -1.577  1.00  0.00     0.174 C 
ATOM     12  C   UNL     1       0.174  -0.338  -3.116  1.00  0.00     0.085 C 
ATOM     13  C   UNL     1       0.445   1.239  -1.659  1.00  0.00     0.085 C 
ATOM     14  C   UNL     1       0.395   1.172  -3.185  1.00  0.00     0.028 C 
BRANCH  11  15
ATOM     15  N   UNL     1       1.454  -0.996  -1.085  1.00  0.00    -0.345 N 
ATOM     16  H   UNL     1       1.361  -2.018  -1.286  1.00  0.00     0.345 HD
ATOM     17  H   UNL     1       1.562  -0.872  -0.055  1.00  0.00     0.345 HD
ATOM     18  H   UNL     1       2.322  -0.645  -1.553  1.00  0.00     0.345 HD
ENDBRANCH  11  15
BRANCH  14  19
ATOM     19  C   UNL     1       1.709   1.571  -3.868  1.00  0.00     0.160 C 
BRANCH  19  20
ATOM     20  O   UNL     1       1.899   2.952  -3.745  1.00  0.00    -0.396 OA
ATOM     21  H   UNL     1       2.754   3.155  -4.206  1.00  0.00     0.210 HD
ENDBRANCH  19  20
ENDBRANCH  14  19
ENDBRANCH   9  11
ENDBRANCH   1   9
BRANCH   1  22
ATOM     22  C   UNL     1      -0.785   0.709   1.196  1.00  0.00     0.121 C 
BRANCH  22  23
ATOM     23  C   UNL     1      -1.045   0.382   2.678  1.00  0.00     0.037 CG0
ATOM     24  G   UNL     1      -1.316  -1.107   2.938  1.00  0.00     0.000 G0
ENDBRANCH  22  23
ENDBRANCH   1  22
TORSDOF 5


