REMARK SMILES C[C@@H](C#N)N(C)CCCCc1cn(-c2cc(N=C=O)c3c4c(cccc24)C(=O)[N-]3)nn1
REMARK SMILES IDX 9 1 10 2 11 3 13 4 30 5 12 6 31 7 14 8 24 9 23 10 25 11
REMARK SMILES IDX 22 12 26 13 21 14 27 15 20 16 29 17 15 18 16 19 28 20 17 21
REMARK SMILES IDX 18 22 19 23 8 24 7 25 5 26 6 27 2 28 1 29 3 30 4 31
REMARK H PARENT
ROOT
ATOM      1  C   UNL     1       0.719  -4.919   0.947  1.00  0.00     0.008 C 
ENDROOT
BRANCH   1   2
ATOM      2  C   UNL     1      -0.707  -4.896   0.369  1.00  0.00     0.060 C 
BRANCH   2   3
ATOM      3  C   UNL     1      -1.114  -3.541  -0.124  1.00  0.00     0.083 A 
ATOM      4  N   UNL     1      -1.186  -1.637  -1.175  1.00  0.00    -0.220 N 
ATOM      5  N   UNL     1      -2.245  -1.738  -0.386  1.00  0.00    -0.062 NA
ATOM      6  C   UNL     1      -0.459  -2.762  -1.053  1.00  0.00     0.140 A 
ATOM      7  N   UNL     1      -2.226  -2.889   0.271  1.00  0.00    -0.135 NA
BRANCH   4   8
ATOM      8  C   UNL     1      -0.920  -0.532  -2.056  1.00  0.00     0.076 A 
ATOM      9  C   UNL     1      -1.741   2.638  -0.125  1.00  0.00     0.001 A 
ATOM     10  C   UNL     1      -1.486   3.596  -1.132  1.00  0.00     0.011 A 
ATOM     11  C   UNL     1      -1.573   1.252  -0.380  1.00  0.00     0.011 A 
ATOM     12  C   UNL     1      -1.067   3.128  -2.375  1.00  0.00     0.006 A 
ATOM     13  C   UNL     1      -1.156   0.811  -1.660  1.00  0.00     0.007 A 
ATOM     14  C   UNL     1      -0.913   1.798  -2.603  1.00  0.00    -0.019 A 
ATOM     15  C   UNL     1      -0.663   3.773  -3.619  1.00  0.00     0.086 C 
ATOM     16  C   UNL     1      -0.446   1.570  -3.864  1.00  0.00    -0.098 A 
ATOM     17  N   UNL     1      -0.259   2.792  -4.589  1.00  0.00    -0.620 NA
ATOM     18  C   UNL     1      -0.420  -0.788  -3.368  1.00  0.00     0.057 A 
ATOM     19  C   UNL     1      -0.175   0.269  -4.288  1.00  0.00     0.064 A 
ATOM     20  O   UNL     1      -0.657   5.013  -3.833  1.00  0.00    -0.315 OA
BRANCH  19  21
ATOM     21  N   UNL     1       0.330   0.048  -5.613  1.00  0.00    -0.169 NA
BRANCH  21  22
ATOM     22  C   UNL     1       0.624  -1.103  -6.073  1.00  0.00     0.240 C 
ATOM     23  O   UNL     1       0.908  -2.221  -6.519  1.00  0.00    -0.211 OA
ENDBRANCH  21  22
ENDBRANCH  19  21
ENDBRANCH   4   8
ENDBRANCH   2   3
ENDBRANCH   1   2
BRANCH   1  24
ATOM     24  C   UNL     1       0.847  -4.250   2.329  1.00  0.00     0.016 C 
BRANCH  24  25
ATOM     25  C   UNL     1       0.874  -2.715   2.264  1.00  0.00     0.085 C 
BRANCH  25  26
ATOM     26  N   UNL     1       1.359  -2.157   3.550  1.00  0.00    -0.291 NA
ATOM     27  C   UNL     1       0.249  -1.994   4.509  1.00  0.00     0.106 C 
BRANCH  26  28
ATOM     28  C   UNL     1       2.130  -0.893   3.413  1.00  0.00     0.157 C 
ATOM     29  C   UNL     1       3.550  -1.172   2.909  1.00  0.00     0.041 C 
BRANCH  28  30
ATOM     30  C   UNL     1       1.456   0.099   2.547  1.00  0.00     0.081 C 
ATOM     31  N   UNL     1       0.929   0.875   1.869  1.00  0.00    -0.197 NA
ENDBRANCH  28  30
ENDBRANCH  26  28
ENDBRANCH  25  26
ENDBRANCH  24  25
ENDBRANCH   1  24
TORSDOF 10


