MODEL 1
REMARK VINA RESULT:      -6.5      0.000      0.000
REMARK SMILES Cc1[nH+]nn(/C=C(/O)Nc2cccc(C#N)c2C)c1-c1cc2ccccc2c2ccccc12
REMARK SMILES IDX 7 1 8 2 6 4 5 5 4 6 19 7 3 8 2 9 1 11 20 12 21 13 33 14
REMARK SMILES IDX 22 15 32 16 28 17 23 18 27 19 31 20 29 21 24 22 26 23 30 24
REMARK SMILES IDX 25 25 9 26 10 28 11 29 17 30 12 31 14 32 13 33 18 34 15 35
REMARK SMILES IDX 16 36
REMARK H PARENT 8 3 3 10 9 27
ROOT
ATOM      1  C   UNL     1      44.048 132.877  15.490  1.00  0.00     0.232 C 
ENDROOT
BRANCH   1   2
ATOM      2  O   UNL     1      45.205 133.658  15.528  1.00  0.00    -0.492 OA
ATOM      3  H   UNL     1      45.805 133.693  16.343  1.00  0.00     0.295 HD
ENDBRANCH   1   2
BRANCH   1   4
ATOM      4  C   UNL     1      44.028 131.690  16.119  1.00  0.00     0.298 C 
BRANCH   4   5
ATOM      5  N   UNL     1      44.259 131.554  17.529  1.00  0.00    -0.096 N 
ATOM      6  N   UNL     1      45.261 130.853  18.035  1.00  0.00     0.094 NA
ATOM      7  C   UNL     1      43.595 132.141  18.551  1.00  0.00     0.207 A 
ATOM      8  N   UNL     1      45.260 130.952  19.356  1.00  0.00    -0.147 N 
ATOM      9  C   UNL     1      44.246 131.763  19.711  1.00  0.00     0.170 A 
ATOM     10  H   UNL     1      45.952 130.494  19.988  1.00  0.00     0.342 HD
ATOM     11  C   UNL     1      43.921 132.161  21.116  1.00  0.00     0.100 C 
BRANCH   7  12
ATOM     12  C   UNL     1      42.534 133.164  18.425  1.00  0.00     0.036 A 
ATOM     13  C   UNL     1      41.235 132.718  18.183  1.00  0.00     0.022 A 
ATOM     14  C   UNL     1      42.796 134.550  18.538  1.00  0.00    -0.006 A 
ATOM     15  C   UNL     1      40.178 133.618  18.044  1.00  0.00    -0.017 A 
ATOM     16  C   UNL     1      44.103 135.018  18.803  1.00  0.00     0.009 A 
ATOM     17  C   UNL     1      41.727 135.490  18.417  1.00  0.00    -0.010 A 
ATOM     18  C   UNL     1      38.886 133.123  17.804  1.00  0.00     0.009 A 
ATOM     19  C   UNL     1      40.403 135.017  18.157  1.00  0.00    -0.010 A 
ATOM     20  C   UNL     1      44.358 136.376  18.956  1.00  0.00     0.001 A 
ATOM     21  C   UNL     1      42.024 136.867  18.580  1.00  0.00     0.009 A 
ATOM     22  C   UNL     1      37.809 133.995  17.672  1.00  0.00     0.001 A 
ATOM     23  C   UNL     1      39.286 135.880  18.015  1.00  0.00     0.009 A 
ATOM     24  C   UNL     1      43.324 137.295  18.846  1.00  0.00     0.001 A 
ATOM     25  C   UNL     1      38.009 135.367  17.775  1.00  0.00     0.001 A 
ENDBRANCH   7  12
ENDBRANCH   4   5
ENDBRANCH   1   4
BRANCH   1  26
ATOM     26  N   UNL     1      42.913 133.340  14.740  1.00  0.00    -0.323 N 
ATOM     27  H   UNL     1      42.607 132.768  13.921  1.00  0.00     0.170 HD
BRANCH  26  28
ATOM     28  C   UNL     1      42.423 134.690  14.808  1.00  0.00     0.045 A 
ATOM     29  C   UNL     1      43.351 135.713  15.044  1.00  0.00     0.026 A 
ATOM     30  C   UNL     1      41.056 135.021  14.589  1.00  0.00    -0.010 A 
ATOM     31  C   UNL     1      42.944 137.043  15.124  1.00  0.00     0.004 A 
ATOM     32  C   UNL     1      40.655 136.376  14.699  1.00  0.00     0.057 A 
ATOM     33  C   UNL     1      41.601 137.373  14.964  1.00  0.00     0.020 A 
ATOM     34  C   UNL     1      40.030 133.970  14.240  1.00  0.00     0.048 C 
BRANCH  32  35
ATOM     35  C   UNL     1      39.274 136.770  14.536  1.00  0.00     0.099 C 
ATOM     36  N   UNL     1      38.168 137.085  14.404  1.00  0.00    -0.192 NA
ENDBRANCH  32  35
ENDBRANCH  26  28
ENDBRANCH   1  26
TORSDOF 7
ENDMDL
MODEL 2
REMARK VINA RESULT:      -6.4      2.635      5.636
REMARK SMILES Cc1[nH+]nn(/C=C(/O)Nc2cccc(C#N)c2C)c1-c1cc2ccccc2c2ccccc12
REMARK SMILES IDX 7 1 8 2 6 4 5 5 4 6 19 7 3 8 2 9 1 11 20 12 21 13 33 14
REMARK SMILES IDX 22 15 32 16 28 17 23 18 27 19 31 20 29 21 24 22 26 23 30 24
REMARK SMILES IDX 25 25 9 26 10 28 11 29 17 30 12 31 14 32 13 33 18 34 15 35
REMARK SMILES IDX 16 36
REMARK H PARENT 8 3 3 10 9 27
ROOT
ATOM      1  C   UNL     1      40.664 134.015  14.820  1.00  0.00     0.232 C 
ENDROOT
BRANCH   1   2
ATOM      2  O   UNL     1      40.210 133.049  13.920  1.00  0.00    -0.492 OA
ATOM      3  H   UNL     1      39.224 132.851  13.795  1.00  0.00     0.295 HD
ENDBRANCH   1   2
BRANCH   1   4
ATOM      4  C   UNL     1      41.710 134.791  14.488  1.00  0.00     0.298 C 
BRANCH   4   5
ATOM      5  N   UNL     1      42.318 135.710  15.407  1.00  0.00    -0.096 N 
ATOM      6  N   UNL     1      41.914 136.962  15.556  1.00  0.00     0.094 NA
ATOM      7  C   UNL     1      43.303 135.475  16.305  1.00  0.00     0.207 A 
ATOM      8  N   UNL     1      42.617 137.553  16.510  1.00  0.00    -0.147 N 
ATOM      9  C   UNL     1      43.480 136.650  17.012  1.00  0.00     0.170 A 
ATOM     10  H   UNL     1      42.488 138.541  16.820  1.00  0.00     0.342 HD
ATOM     11  C   UNL     1      44.435 136.910  18.133  1.00  0.00     0.100 C 
BRANCH   7  12
ATOM     12  C   UNL     1      43.900 134.157  16.614  1.00  0.00     0.036 A 
ATOM     13  C   UNL     1      44.774 133.610  15.677  1.00  0.00     0.022 A 
ATOM     14  C   UNL     1      43.612 133.453  17.808  1.00  0.00    -0.006 A 
ATOM     15  C   UNL     1      45.375 132.368  15.889  1.00  0.00    -0.017 A 
ATOM     16  C   UNL     1      42.743 134.002  18.777  1.00  0.00     0.009 A 
ATOM     17  C   UNL     1      44.228 132.188  18.056  1.00  0.00    -0.010 A 
ATOM     18  C   UNL     1      46.252 131.858  14.918  1.00  0.00     0.009 A 
ATOM     19  C   UNL     1      45.113 131.635  17.078  1.00  0.00    -0.010 A 
ATOM     20  C   UNL     1      42.489 133.333  19.970  1.00  0.00     0.001 A 
ATOM     21  C   UNL     1      43.946 131.535  19.282  1.00  0.00     0.009 A 
ATOM     22  C   UNL     1      46.875 130.627  15.106  1.00  0.00     0.001 A 
ATOM     23  C   UNL     1      45.760 130.383  17.240  1.00  0.00     0.009 A 
ATOM     24  C   UNL     1      43.087 132.106  20.221  1.00  0.00     0.001 A 
ATOM     25  C   UNL     1      46.629 129.893  16.261  1.00  0.00     0.001 A 
ENDBRANCH   7  12
ENDBRANCH   4   5
ENDBRANCH   1   4
BRANCH   1  26
ATOM     26  N   UNL     1      40.032 134.129  16.105  1.00  0.00    -0.323 N 
ATOM     27  H   UNL     1      40.300 133.437  16.841  1.00  0.00     0.170 HD
BRANCH  26  28
ATOM     28  C   UNL     1      38.818 134.868  16.320  1.00  0.00     0.045 A 
ATOM     29  C   UNL     1      37.716 134.572  15.505  1.00  0.00     0.026 A 
ATOM     30  C   UNL     1      38.682 135.834  17.357  1.00  0.00    -0.010 A 
ATOM     31  C   UNL     1      36.511 135.251  15.659  1.00  0.00     0.004 A 
ATOM     32  C   UNL     1      37.456 136.534  17.483  1.00  0.00     0.057 A 
ATOM     33  C   UNL     1      36.383 136.236  16.636  1.00  0.00     0.020 A 
ATOM     34  C   UNL     1      39.805 136.126  18.323  1.00  0.00     0.048 C 
BRANCH  32  35
ATOM     35  C   UNL     1      37.272 137.559  18.484  1.00  0.00     0.099 C 
ATOM     36  N   UNL     1      37.126 138.381  19.286  1.00  0.00    -0.192 NA
ENDBRANCH  32  35
ENDBRANCH  26  28
ENDBRANCH   1  26
TORSDOF 7
ENDMDL
MODEL 3
REMARK VINA RESULT:      -6.3      2.574      5.906
REMARK SMILES Cc1[nH+]nn(/C=C(/O)Nc2cccc(C#N)c2C)c1-c1cc2ccccc2c2ccccc12
REMARK SMILES IDX 7 1 8 2 6 4 5 5 4 6 19 7 3 8 2 9 1 11 20 12 21 13 33 14
REMARK SMILES IDX 22 15 32 16 28 17 23 18 27 19 31 20 29 21 24 22 26 23 30 24
REMARK SMILES IDX 25 25 9 26 10 28 11 29 17 30 12 31 14 32 13 33 18 34 15 35
REMARK SMILES IDX 16 36
REMARK H PARENT 8 3 3 10 9 27
ROOT
ATOM      1  C   UNL     1      42.630 133.570  15.495  1.00  0.00     0.232 C 
ENDROOT
BRANCH   1   2
ATOM      2  O   UNL     1      42.125 133.882  14.232  1.00  0.00    -0.492 OA
ATOM      3  H   UNL     1      42.672 133.760  13.388  1.00  0.00     0.295 HD
ENDBRANCH   1   2
BRANCH   1   4
ATOM      4  C   UNL     1      43.067 134.555  16.297  1.00  0.00     0.298 C 
BRANCH   4   5
ATOM      5  N   UNL     1      42.185 135.351  17.102  1.00  0.00    -0.096 N 
ATOM      6  N   UNL     1      41.156 136.020  16.606  1.00  0.00     0.094 NA
ATOM      7  C   UNL     1      42.178 135.502  18.447  1.00  0.00     0.207 A 
ATOM      8  N   UNL     1      40.490 136.614  17.585  1.00  0.00    -0.147 N 
ATOM      9  C   UNL     1      41.088 136.297  18.748  1.00  0.00     0.170 A 
ATOM     10  H   UNL     1      39.636 137.199  17.455  1.00  0.00     0.342 HD
ATOM     11  C   UNL     1      40.624 136.742  20.099  1.00  0.00     0.100 C 
BRANCH   7  12
ATOM     12  C   UNL     1      43.032 134.768  19.407  1.00  0.00     0.036 A 
ATOM     13  C   UNL     1      42.625 133.490  19.785  1.00  0.00     0.022 A 
ATOM     14  C   UNL     1      44.222 135.318  19.942  1.00  0.00    -0.006 A 
ATOM     15  C   UNL     1      43.370 132.734  20.691  1.00  0.00    -0.017 A 
ATOM     16  C   UNL     1      44.659 136.605  19.555  1.00  0.00     0.009 A 
ATOM     17  C   UNL     1      45.010 134.556  20.858  1.00  0.00    -0.010 A 
ATOM     18  C   UNL     1      42.923 131.448  21.039  1.00  0.00     0.009 A 
ATOM     19  C   UNL     1      44.573 133.251  21.244  1.00  0.00    -0.010 A 
ATOM     20  C   UNL     1      45.848 137.133  20.046  1.00  0.00     0.001 A 
ATOM     21  C   UNL     1      46.217 135.127  21.337  1.00  0.00     0.009 A 
ATOM     22  C   UNL     1      43.650 130.666  21.931  1.00  0.00     0.001 A 
ATOM     23  C   UNL     1      45.289 132.431  22.152  1.00  0.00     0.009 A 
ATOM     24  C   UNL     1      46.623 136.397  20.932  1.00  0.00     0.001 A 
ATOM     25  C   UNL     1      44.827 131.156  22.486  1.00  0.00     0.001 A 
ENDBRANCH   7  12
ENDBRANCH   4   5
ENDBRANCH   1   4
BRANCH   1  26
ATOM     26  N   UNL     1      42.713 132.193  15.897  1.00  0.00    -0.323 N 
ATOM     27  H   UNL     1      41.848 131.745  16.276  1.00  0.00     0.170 HD
BRANCH  26  28
ATOM     28  C   UNL     1      43.958 131.524  16.158  1.00  0.00     0.045 A 
ATOM     29  C   UNL     1      44.391 131.441  17.489  1.00  0.00     0.026 A 
ATOM     30  C   UNL     1      44.725 130.901  15.133  1.00  0.00    -0.010 A 
ATOM     31  C   UNL     1      45.589 130.808  17.813  1.00  0.00     0.004 A 
ATOM     32  C   UNL     1      45.953 130.284  15.477  1.00  0.00     0.057 A 
ATOM     33  C   UNL     1      46.373 130.242  16.811  1.00  0.00     0.020 A 
ATOM     34  C   UNL     1      44.260 130.879  13.697  1.00  0.00     0.048 C 
BRANCH  32  35
ATOM     35  C   UNL     1      46.799 129.678  14.475  1.00  0.00     0.099 C 
ATOM     36  N   UNL     1      47.477 129.192  13.672  1.00  0.00    -0.192 NA
ENDBRANCH  32  35
ENDBRANCH  26  28
ENDBRANCH   1  26
TORSDOF 7
ENDMDL
MODEL 4
REMARK VINA RESULT:      -6.3      2.493      6.564
REMARK SMILES Cc1[nH+]nn(/C=C(/O)Nc2cccc(C#N)c2C)c1-c1cc2ccccc2c2ccccc12
REMARK SMILES IDX 7 1 8 2 6 4 5 5 4 6 19 7 3 8 2 9 1 11 20 12 21 13 33 14
REMARK SMILES IDX 22 15 32 16 28 17 23 18 27 19 31 20 29 21 24 22 26 23 30 24
REMARK SMILES IDX 25 25 9 26 10 28 11 29 17 30 12 31 14 32 13 33 18 34 15 35
REMARK SMILES IDX 16 36
REMARK H PARENT 8 3 3 10 9 27
ROOT
ATOM      1  C   UNL     1      42.587 133.050  15.094  1.00  0.00     0.232 C 
ENDROOT
BRANCH   1   2
ATOM      2  O   UNL     1      41.272 132.822  15.502  1.00  0.00    -0.492 OA
ATOM      3  H   UNL     1      40.935 131.897  15.742  1.00  0.00     0.295 HD
ENDBRANCH   1   2
BRANCH   1   4
ATOM      4  C   UNL     1      43.120 134.276  15.226  1.00  0.00     0.298 C 
BRANCH   4   5
ATOM      5  N   UNL     1      42.326 135.445  15.479  1.00  0.00    -0.096 N 
ATOM      6  N   UNL     1      41.326 135.826  14.699  1.00  0.00     0.094 NA
ATOM      7  C   UNL     1      42.382 136.289  16.536  1.00  0.00     0.207 A 
ATOM      8  N   UNL     1      40.741 136.900  15.208  1.00  0.00    -0.147 N 
ATOM      9  C   UNL     1      41.362 137.205  16.363  1.00  0.00     0.170 A 
ATOM     10  H   UNL     1      39.924 137.390  14.782  1.00  0.00     0.342 HD
ATOM     11  C   UNL     1      40.982 138.335  17.265  1.00  0.00     0.100 C 
BRANCH   7  12
ATOM     12  C   UNL     1      43.221 136.115  17.742  1.00  0.00     0.036 A 
ATOM     13  C   UNL     1      44.301 136.980  17.906  1.00  0.00     0.022 A 
ATOM     14  C   UNL     1      42.962 135.116  18.711  1.00  0.00    -0.006 A 
ATOM     15  C   UNL     1      45.145 136.879  19.013  1.00  0.00    -0.017 A 
ATOM     16  C   UNL     1      41.860 134.243  18.570  1.00  0.00     0.009 A 
ATOM     17  C   UNL     1      43.802 135.004  19.862  1.00  0.00    -0.010 A 
ATOM     18  C   UNL     1      46.220 137.776  19.138  1.00  0.00     0.009 A 
ATOM     19  C   UNL     1      44.913 135.892  20.008  1.00  0.00    -0.010 A 
ATOM     20  C   UNL     1      41.578 133.286  19.540  1.00  0.00     0.001 A 
ATOM     21  C   UNL     1      43.484 134.018  20.829  1.00  0.00     0.009 A 
ATOM     22  C   UNL     1      47.072 137.707  20.235  1.00  0.00     0.001 A 
ATOM     23  C   UNL     1      45.801 135.846  21.114  1.00  0.00     0.009 A 
ATOM     24  C   UNL     1      42.385 133.175  20.663  1.00  0.00     0.001 A 
ATOM     25  C   UNL     1      46.864 136.746  21.219  1.00  0.00     0.001 A 
ENDBRANCH   7  12
ENDBRANCH   4   5
ENDBRANCH   1   4
BRANCH   1  26
ATOM     26  N   UNL     1      43.333 131.976  14.499  1.00  0.00    -0.323 N 
ATOM     27  H   UNL     1      42.881 131.444  13.721  1.00  0.00     0.170 HD
BRANCH  26  28
ATOM     28  C   UNL     1      44.466 131.359  15.133  1.00  0.00     0.045 A 
ATOM     29  C   UNL     1      44.486 131.309  16.534  1.00  0.00     0.026 A 
ATOM     30  C   UNL     1      45.523 130.755  14.396  1.00  0.00    -0.010 A 
ATOM     31  C   UNL     1      45.555 130.728  17.212  1.00  0.00     0.004 A 
ATOM     32  C   UNL     1      46.614 130.191  15.102  1.00  0.00     0.057 A 
ATOM     33  C   UNL     1      46.620 130.181  16.501  1.00  0.00     0.020 A 
ATOM     34  C   UNL     1      45.507 130.698  12.887  1.00  0.00     0.048 C 
BRANCH  32  35
ATOM     35  C   UNL     1      47.740 129.606  14.410  1.00  0.00     0.099 C 
ATOM     36  N   UNL     1      48.641 129.137  13.856  1.00  0.00    -0.192 NA
ENDBRANCH  32  35
ENDBRANCH  26  28
ENDBRANCH   1  26
TORSDOF 7
ENDMDL
MODEL 5
REMARK VINA RESULT:      -6.2      2.555      5.984
REMARK SMILES Cc1[nH+]nn(/C=C(/O)Nc2cccc(C#N)c2C)c1-c1cc2ccccc2c2ccccc12
REMARK SMILES IDX 7 1 8 2 6 4 5 5 4 6 19 7 3 8 2 9 1 11 20 12 21 13 33 14
REMARK SMILES IDX 22 15 32 16 28 17 23 18 27 19 31 20 29 21 24 22 26 23 30 24
REMARK SMILES IDX 25 25 9 26 10 28 11 29 17 30 12 31 14 32 13 33 18 34 15 35
REMARK SMILES IDX 16 36
REMARK H PARENT 8 3 3 10 9 27
ROOT
ATOM      1  C   UNL     1      42.495 132.664  14.567  1.00  0.00     0.232 C 
ENDROOT
BRANCH   1   2
ATOM      2  O   UNL     1      41.657 133.326  13.668  1.00  0.00    -0.492 OA
ATOM      3  H   UNL     1      42.020 133.909  12.923  1.00  0.00     0.295 HD
ENDBRANCH   1   2
BRANCH   1   4
ATOM      4  C   UNL     1      42.588 133.104  15.834  1.00  0.00     0.298 C 
BRANCH   4   5
ATOM      5  N   UNL     1      41.455 133.580  16.576  1.00  0.00    -0.096 N 
ATOM      6  N   UNL     1      40.203 133.375  16.199  1.00  0.00     0.094 NA
ATOM      7  C   UNL     1      41.438 134.218  17.769  1.00  0.00     0.207 A 
ATOM      8  N   UNL     1      39.373 133.874  17.103  1.00  0.00    -0.147 N 
ATOM      9  C   UNL     1      40.108 134.390  18.104  1.00  0.00     0.170 A 
ATOM     10  H   UNL     1      38.332 133.836  17.039  1.00  0.00     0.342 HD
ATOM     11  C   UNL     1      39.549 135.023  19.339  1.00  0.00     0.100 C 
BRANCH   7  12
ATOM     12  C   UNL     1      42.610 134.465  18.638  1.00  0.00     0.036 A 
ATOM     13  C   UNL     1      43.021 133.429  19.475  1.00  0.00     0.022 A 
ATOM     14  C   UNL     1      43.306 135.697  18.643  1.00  0.00    -0.006 A 
ATOM     15  C   UNL     1      44.113 133.583  20.331  1.00  0.00    -0.017 A 
ATOM     16  C   UNL     1      42.915 136.751  17.787  1.00  0.00     0.009 A 
ATOM     17  C   UNL     1      44.438 135.873  19.498  1.00  0.00    -0.010 A 
ATOM     18  C   UNL     1      44.494 132.510  21.154  1.00  0.00     0.009 A 
ATOM     19  C   UNL     1      44.840 134.804  20.359  1.00  0.00    -0.010 A 
ATOM     20  C   UNL     1      43.621 137.949  17.759  1.00  0.00     0.001 A 
ATOM     21  C   UNL     1      45.134 137.107  19.442  1.00  0.00     0.009 A 
ATOM     22  C   UNL     1      45.585 132.630  22.009  1.00  0.00     0.001 A 
ATOM     23  C   UNL     1      45.945 134.896  21.243  1.00  0.00     0.009 A 
ATOM     24  C   UNL     1      44.725 138.125  18.582  1.00  0.00     0.001 A 
ATOM     25  C   UNL     1      46.306 133.817  22.054  1.00  0.00     0.001 A 
ENDBRANCH   7  12
ENDBRANCH   4   5
ENDBRANCH   1   4
BRANCH   1  26
ATOM     26  N   UNL     1      43.278 131.550  14.108  1.00  0.00    -0.323 N 
ATOM     27  H   UNL     1      42.844 130.909  13.406  1.00  0.00     0.170 HD
BRANCH  26  28
ATOM     28  C   UNL     1      44.432 131.059  14.809  1.00  0.00     0.045 A 
ATOM     29  C   UNL     1      44.370 130.990  16.208  1.00  0.00     0.026 A 
ATOM     30  C   UNL     1      45.596 130.591  14.136  1.00  0.00    -0.010 A 
ATOM     31  C   UNL     1      45.454 130.525  16.949  1.00  0.00     0.004 A 
ATOM     32  C   UNL     1      46.699 130.145  14.906  1.00  0.00     0.057 A 
ATOM     33  C   UNL     1      46.618 130.115  16.303  1.00  0.00     0.020 A 
ATOM     34  C   UNL     1      45.682 130.556  12.629  1.00  0.00     0.048 C 
BRANCH  32  35
ATOM     35  C   UNL     1      47.926 129.705  14.283  1.00  0.00     0.099 C 
ATOM     36  N   UNL     1      48.909 129.352  13.784  1.00  0.00    -0.192 NA
ENDBRANCH  32  35
ENDBRANCH  26  28
ENDBRANCH   1  26
TORSDOF 7
ENDMDL
MODEL 6
REMARK VINA RESULT:      -6.1      2.684      6.005
REMARK SMILES Cc1[nH+]nn(/C=C(/O)Nc2cccc(C#N)c2C)c1-c1cc2ccccc2c2ccccc12
REMARK SMILES IDX 7 1 8 2 6 4 5 5 4 6 19 7 3 8 2 9 1 11 20 12 21 13 33 14
REMARK SMILES IDX 22 15 32 16 28 17 23 18 27 19 31 20 29 21 24 22 26 23 30 24
REMARK SMILES IDX 25 25 9 26 10 28 11 29 17 30 12 31 14 32 13 33 18 34 15 35
REMARK SMILES IDX 16 36
REMARK H PARENT 8 3 3 10 9 27
ROOT
ATOM      1  C   UNL     1      42.629 132.706  14.885  1.00  0.00     0.232 C 
ENDROOT
BRANCH   1   2
ATOM      2  O   UNL     1      41.977 133.620  14.055  1.00  0.00    -0.492 OA
ATOM      3  H   UNL     1      42.090 133.609  13.048  1.00  0.00     0.295 HD
ENDBRANCH   1   2
BRANCH   1   4
ATOM      4  C   UNL     1      42.569 132.860  16.218  1.00  0.00     0.298 C 
BRANCH   4   5
ATOM      5  N   UNL     1      41.411 133.378  16.889  1.00  0.00    -0.096 N 
ATOM      6  N   UNL     1      40.233 133.515  16.301  1.00  0.00     0.094 NA
ATOM      7  C   UNL     1      41.278 133.728  18.189  1.00  0.00     0.207 A 
ATOM      8  N   UNL     1      39.342 133.959  17.175  1.00  0.00    -0.147 N 
ATOM      9  C   UNL     1      39.954 134.085  18.367  1.00  0.00     0.170 A 
ATOM     10  H   UNL     1      38.338 134.145  16.959  1.00  0.00     0.342 HD
ATOM     11  C   UNL     1      39.286 134.529  19.629  1.00  0.00     0.100 C 
BRANCH   7  12
ATOM     12  C   UNL     1      42.294 133.539  19.248  1.00  0.00     0.036 A 
ATOM     13  C   UNL     1      42.260 132.345  19.968  1.00  0.00     0.022 A 
ATOM     14  C   UNL     1      43.275 134.515  19.545  1.00  0.00    -0.006 A 
ATOM     15  C   UNL     1      43.179 132.091  20.987  1.00  0.00    -0.017 A 
ATOM     16  C   UNL     1      43.335 135.722  18.812  1.00  0.00     0.009 A 
ATOM     17  C   UNL     1      44.237 134.270  20.572  1.00  0.00    -0.010 A 
ATOM     18  C   UNL     1      43.109 130.872  21.682  1.00  0.00     0.009 A 
ATOM     19  C   UNL     1      44.181 133.045  21.308  1.00  0.00    -0.010 A 
ATOM     20  C   UNL     1      44.322 136.667  19.073  1.00  0.00     0.001 A 
ATOM     21  C   UNL     1      45.228 135.255  20.809  1.00  0.00     0.009 A 
ATOM     22  C   UNL     1      44.017 130.585  22.696  1.00  0.00     0.001 A 
ATOM     23  C   UNL     1      45.090 132.725  22.349  1.00  0.00     0.009 A 
ATOM     24  C   UNL     1      45.264 136.434  20.065  1.00  0.00     0.001 A 
ATOM     25  C   UNL     1      45.003 131.508  23.029  1.00  0.00     0.001 A 
ENDBRANCH   7  12
ENDBRANCH   4   5
ENDBRANCH   1   4
BRANCH   1  26
ATOM     26  N   UNL     1      43.391 131.641  14.293  1.00  0.00    -0.323 N 
ATOM     27  H   UNL     1      42.934 131.078  13.540  1.00  0.00     0.170 HD
BRANCH  26  28
ATOM     28  C   UNL     1      44.558 131.072  14.910  1.00  0.00     0.045 A 
ATOM     29  C   UNL     1      44.564 130.941  16.305  1.00  0.00     0.026 A 
ATOM     30  C   UNL     1      45.666 130.591  14.157  1.00  0.00    -0.010 A 
ATOM     31  C   UNL     1      45.664 130.400  16.967  1.00  0.00     0.004 A 
ATOM     32  C   UNL     1      46.787 130.067  14.847  1.00  0.00     0.057 A 
ATOM     33  C   UNL     1      46.775 129.976  16.244  1.00  0.00     0.020 A 
ATOM     34  C   UNL     1      45.673 130.623  12.647  1.00  0.00     0.048 C 
BRANCH  32  35
ATOM     35  C   UNL     1      47.961 129.609  14.142  1.00  0.00     0.099 C 
ATOM     36  N   UNL     1      48.902 129.241  13.576  1.00  0.00    -0.192 NA
ENDBRANCH  32  35
ENDBRANCH  26  28
ENDBRANCH   1  26
TORSDOF 7
ENDMDL
MODEL 7
REMARK VINA RESULT:      -6.1      1.827      4.444
REMARK SMILES Cc1[nH+]nn(/C=C(/O)Nc2cccc(C#N)c2C)c1-c1cc2ccccc2c2ccccc12
REMARK SMILES IDX 7 1 8 2 6 4 5 5 4 6 19 7 3 8 2 9 1 11 20 12 21 13 33 14
REMARK SMILES IDX 22 15 32 16 28 17 23 18 27 19 31 20 29 21 24 22 26 23 30 24
REMARK SMILES IDX 25 25 9 26 10 28 11 29 17 30 12 31 14 32 13 33 18 34 15 35
REMARK SMILES IDX 16 36
REMARK H PARENT 8 3 3 10 9 27
ROOT
ATOM      1  C   UNL     1      41.803 132.335  19.007  1.00  0.00     0.232 C 
ENDROOT
BRANCH   1   2
ATOM      2  O   UNL     1      41.254 131.495  18.037  1.00  0.00    -0.492 OA
ATOM      3  H   UNL     1      41.760 131.238  17.197  1.00  0.00     0.295 HD
ENDBRANCH   1   2
BRANCH   1   4
ATOM      4  C   UNL     1      43.124 132.293  19.250  1.00  0.00     0.298 C 
BRANCH   4   5
ATOM      5  N   UNL     1      44.093 132.012  18.230  1.00  0.00    -0.096 N 
ATOM      6  N   UNL     1      44.720 130.850  18.124  1.00  0.00     0.094 NA
ATOM      7  C   UNL     1      44.476 132.793  17.193  1.00  0.00     0.207 A 
ATOM      8  N   UNL     1      45.509 130.858  17.061  1.00  0.00    -0.147 N 
ATOM      9  C   UNL     1      45.368 132.047  16.446  1.00  0.00     0.170 A 
ATOM     10  H   UNL     1      46.107 130.058  16.757  1.00  0.00     0.342 HD
ATOM     11  C   UNL     1      46.064 132.446  15.184  1.00  0.00     0.100 C 
BRANCH   7  12
ATOM     12  C   UNL     1      43.876 134.092  16.818  1.00  0.00     0.036 A 
ATOM     13  C   UNL     1      44.320 135.227  17.496  1.00  0.00     0.022 A 
ATOM     14  C   UNL     1      42.886 134.211  15.814  1.00  0.00    -0.006 A 
ATOM     15  C   UNL     1      43.801 136.489  17.207  1.00  0.00    -0.017 A 
ATOM     16  C   UNL     1      42.439 133.075  15.103  1.00  0.00     0.009 A 
ATOM     17  C   UNL     1      42.352 135.496  15.487  1.00  0.00    -0.010 A 
ATOM     18  C   UNL     1      44.281 137.604  17.913  1.00  0.00     0.009 A 
ATOM     19  C   UNL     1      42.809 136.648  16.201  1.00  0.00    -0.010 A 
ATOM     20  C   UNL     1      41.496 133.192  14.088  1.00  0.00     0.001 A 
ATOM     21  C   UNL     1      41.393 135.577  14.446  1.00  0.00     0.009 A 
ATOM     22  C   UNL     1      43.791 138.878  17.640  1.00  0.00     0.001 A 
ATOM     23  C   UNL     1      42.328 137.957  15.947  1.00  0.00     0.009 A 
ATOM     24  C   UNL     1      40.977 134.437  13.761  1.00  0.00     0.001 A 
ATOM     25  C   UNL     1      42.818 139.053  16.662  1.00  0.00     0.001 A 
ENDBRANCH   7  12
ENDBRANCH   4   5
ENDBRANCH   1   4
BRANCH   1  26
ATOM     26  N   UNL     1      40.936 133.200  19.759  1.00  0.00    -0.323 N 
ATOM     27  H   UNL     1      40.205 132.752  20.357  1.00  0.00     0.170 HD
BRANCH  26  28
ATOM     28  C   UNL     1      40.765 134.595  19.459  1.00  0.00     0.045 A 
ATOM     29  C   UNL     1      41.463 135.524  20.243  1.00  0.00     0.026 A 
ATOM     30  C   UNL     1      39.968 135.054  18.373  1.00  0.00    -0.010 A 
ATOM     31  C   UNL     1      41.340 136.892  20.008  1.00  0.00     0.004 A 
ATOM     32  C   UNL     1      39.834 136.449  18.164  1.00  0.00     0.057 A 
ATOM     33  C   UNL     1      40.521 137.354  18.982  1.00  0.00     0.020 A 
ATOM     34  C   UNL     1      39.268 134.094  17.440  1.00  0.00     0.048 C 
BRANCH  32  35
ATOM     35  C   UNL     1      39.001 136.978  17.109  1.00  0.00     0.099 C 
ATOM     36  N   UNL     1      38.333 137.401  16.263  1.00  0.00    -0.192 NA
ENDBRANCH  32  35
ENDBRANCH  26  28
ENDBRANCH   1  26
TORSDOF 7
ENDMDL
MODEL 8
REMARK VINA RESULT:      -6.1      1.932      4.546
REMARK SMILES Cc1[nH+]nn(/C=C(/O)Nc2cccc(C#N)c2C)c1-c1cc2ccccc2c2ccccc12
REMARK SMILES IDX 7 1 8 2 6 4 5 5 4 6 19 7 3 8 2 9 1 11 20 12 21 13 33 14
REMARK SMILES IDX 22 15 32 16 28 17 23 18 27 19 31 20 29 21 24 22 26 23 30 24
REMARK SMILES IDX 25 25 9 26 10 28 11 29 17 30 12 31 14 32 13 33 18 34 15 35
REMARK SMILES IDX 16 36
REMARK H PARENT 8 3 3 10 9 27
ROOT
ATOM      1  C   UNL     1      41.978 132.361  19.102  1.00  0.00     0.232 C 
ENDROOT
BRANCH   1   2
ATOM      2  O   UNL     1      41.263 131.336  18.479  1.00  0.00    -0.492 OA
ATOM      3  H   UNL     1      41.632 130.827  17.684  1.00  0.00     0.295 HD
ENDBRANCH   1   2
BRANCH   1   4
ATOM      4  C   UNL     1      43.295 132.213  19.322  1.00  0.00     0.298 C 
BRANCH   4   5
ATOM      5  N   UNL     1      44.231 131.929  18.272  1.00  0.00    -0.096 N 
ATOM      6  N   UNL     1      44.866 130.773  18.159  1.00  0.00     0.094 NA
ATOM      7  C   UNL     1      44.567 132.701  17.212  1.00  0.00     0.207 A 
ATOM      8  N   UNL     1      45.618 130.776  17.068  1.00  0.00    -0.147 N 
ATOM      9  C   UNL     1      45.441 131.955  16.443  1.00  0.00     0.170 A 
ATOM     10  H   UNL     1      46.214 129.979  16.754  1.00  0.00     0.342 HD
ATOM     11  C   UNL     1      46.088 132.345  15.153  1.00  0.00     0.100 C 
BRANCH   7  12
ATOM     12  C   UNL     1      43.939 133.989  16.842  1.00  0.00     0.036 A 
ATOM     13  C   UNL     1      44.339 135.125  17.542  1.00  0.00     0.022 A 
ATOM     14  C   UNL     1      42.966 134.094  15.820  1.00  0.00    -0.006 A 
ATOM     15  C   UNL     1      43.791 136.377  17.259  1.00  0.00    -0.017 A 
ATOM     16  C   UNL     1      42.564 132.955  15.086  1.00  0.00     0.009 A 
ATOM     17  C   UNL     1      42.403 135.368  15.500  1.00  0.00    -0.010 A 
ATOM     18  C   UNL     1      44.227 137.495  17.989  1.00  0.00     0.009 A 
ATOM     19  C   UNL     1      42.815 136.522  16.236  1.00  0.00    -0.010 A 
ATOM     20  C   UNL     1      41.638 133.060  14.054  1.00  0.00     0.001 A 
ATOM     21  C   UNL     1      41.463 135.437  14.441  1.00  0.00     0.009 A 
ATOM     22  C   UNL     1      43.707 138.758  17.722  1.00  0.00     0.001 A 
ATOM     23  C   UNL     1      42.303 137.821  15.990  1.00  0.00     0.009 A 
ATOM     24  C   UNL     1      41.091 134.295  13.733  1.00  0.00     0.001 A 
ATOM     25  C   UNL     1      42.749 138.920  16.728  1.00  0.00     0.001 A 
ENDBRANCH   7  12
ENDBRANCH   4   5
ENDBRANCH   1   4
BRANCH   1  26
ATOM     26  N   UNL     1      41.280 133.540  19.535  1.00  0.00    -0.323 N 
ATOM     27  H   UNL     1      41.144 133.672  20.563  1.00  0.00     0.170 HD
BRANCH  26  28
ATOM     28  C   UNL     1      40.452 134.328  18.665  1.00  0.00     0.045 A 
ATOM     29  C   UNL     1      39.717 133.660  17.675  1.00  0.00     0.026 A 
ATOM     30  C   UNL     1      40.310 135.737  18.809  1.00  0.00    -0.010 A 
ATOM     31  C   UNL     1      38.897 134.363  16.796  1.00  0.00     0.004 A 
ATOM     32  C   UNL     1      39.491 136.440  17.891  1.00  0.00     0.057 A 
ATOM     33  C   UNL     1      38.792 135.748  16.895  1.00  0.00     0.020 A 
ATOM     34  C   UNL     1      41.004 136.496  19.915  1.00  0.00     0.048 C 
BRANCH  32  35
ATOM     35  C   UNL     1      39.344 137.876  17.956  1.00  0.00     0.099 C 
ATOM     36  N   UNL     1      39.227 139.026  18.008  1.00  0.00    -0.192 NA
ENDBRANCH  32  35
ENDBRANCH  26  28
ENDBRANCH   1  26
TORSDOF 7
ENDMDL
MODEL 9
REMARK VINA RESULT:      -6.0      2.349      4.102
REMARK SMILES Cc1[nH+]nn(/C=C(/O)Nc2cccc(C#N)c2C)c1-c1cc2ccccc2c2ccccc12
REMARK SMILES IDX 7 1 8 2 6 4 5 5 4 6 19 7 3 8 2 9 1 11 20 12 21 13 33 14
REMARK SMILES IDX 22 15 32 16 28 17 23 18 27 19 31 20 29 21 24 22 26 23 30 24
REMARK SMILES IDX 25 25 9 26 10 28 11 29 17 30 12 31 14 32 13 33 18 34 15 35
REMARK SMILES IDX 16 36
REMARK H PARENT 8 3 3 10 9 27
ROOT
ATOM      1  C   UNL     1      44.171 132.302  20.231  1.00  0.00     0.232 C 
ENDROOT
BRANCH   1   2
ATOM      2  O   UNL     1      45.430 132.800  20.569  1.00  0.00    -0.492 OA
ATOM      3  H   UNL     1      45.706 133.753  20.362  1.00  0.00     0.295 HD
ENDBRANCH   1   2
BRANCH   1   4
ATOM      4  C   UNL     1      43.089 132.715  20.911  1.00  0.00     0.298 C 
BRANCH   4   5
ATOM      5  N   UNL     1      42.961 134.045  21.434  1.00  0.00    -0.096 N 
ATOM      6  N   UNL     1      43.614 134.470  22.504  1.00  0.00     0.094 NA
ATOM      7  C   UNL     1      42.260 135.086  20.927  1.00  0.00     0.207 A 
ATOM      8  N   UNL     1      43.347 135.750  22.718  1.00  0.00    -0.147 N 
ATOM      9  C   UNL     1      42.521 136.171  21.742  1.00  0.00     0.170 A 
ATOM     10  H   UNL     1      43.743 136.319  23.498  1.00  0.00     0.342 HD
ATOM     11  C   UNL     1      42.007 137.568  21.601  1.00  0.00     0.100 C 
BRANCH   7  12
ATOM     12  C   UNL     1      41.549 135.104  19.629  1.00  0.00     0.036 A 
ATOM     13  C   UNL     1      40.182 134.833  19.640  1.00  0.00     0.022 A 
ATOM     14  C   UNL     1      42.205 135.381  18.406  1.00  0.00    -0.006 A 
ATOM     15  C   UNL     1      39.439 134.824  18.459  1.00  0.00    -0.017 A 
ATOM     16  C   UNL     1      43.587 135.676  18.380  1.00  0.00     0.009 A 
ATOM     17  C   UNL     1      41.462 135.395  17.186  1.00  0.00    -0.010 A 
ATOM     18  C   UNL     1      38.063 134.549  18.519  1.00  0.00     0.009 A 
ATOM     19  C   UNL     1      40.063 135.103  17.213  1.00  0.00    -0.010 A 
ATOM     20  C   UNL     1      44.228 135.989  17.185  1.00  0.00     0.001 A 
ATOM     21  C   UNL     1      42.149 135.718  15.988  1.00  0.00     0.009 A 
ATOM     22  C   UNL     1      37.293 134.544  17.359  1.00  0.00     0.001 A 
ATOM     23  C   UNL     1      39.252 135.087  16.049  1.00  0.00     0.009 A 
ATOM     24  C   UNL     1      43.512 136.010  15.996  1.00  0.00     0.001 A 
ATOM     25  C   UNL     1      37.885 134.810  16.130  1.00  0.00     0.001 A 
ENDBRANCH   7  12
ENDBRANCH   4   5
ENDBRANCH   1   4
BRANCH   1  26
ATOM     26  N   UNL     1      44.062 131.320  19.187  1.00  0.00    -0.323 N 
ATOM     27  H   UNL     1      44.188 130.316  19.450  1.00  0.00     0.170 HD
BRANCH  26  28
ATOM     28  C   UNL     1      44.168 131.642  17.791  1.00  0.00     0.045 A 
ATOM     29  C   UNL     1      45.444 131.629  17.209  1.00  0.00     0.026 A 
ATOM     30  C   UNL     1      43.032 131.912  16.977  1.00  0.00    -0.010 A 
ATOM     31  C   UNL     1      45.618 131.934  15.861  1.00  0.00     0.004 A 
ATOM     32  C   UNL     1      43.229 132.245  15.614  1.00  0.00     0.057 A 
ATOM     33  C   UNL     1      44.518 132.252  15.069  1.00  0.00     0.020 A 
ATOM     34  C   UNL     1      41.628 131.849  17.529  1.00  0.00     0.048 C 
BRANCH  32  35
ATOM     35  C   UNL     1      42.119 132.576  14.750  1.00  0.00     0.099 C 
ATOM     36  N   UNL     1      41.231 132.841  14.058  1.00  0.00    -0.192 NA
ENDBRANCH  32  35
ENDBRANCH  26  28
ENDBRANCH   1  26
TORSDOF 7
ENDMDL


