MODEL 1
REMARK VINA RESULT:      -7.0      0.000      0.000
REMARK SMILES C#CCOC(=O)C[C@@H]1CC[C@H]2C(=O)[N-]c3c(N=[N+]=[N-])cc(Cl)c1c32
REMARK SMILES IDX 5 1 6 2 4 3 3 4 2 5 1 6 7 7 8 8 23 9 9 10 21 11 24 12 10 13
REMARK SMILES IDX 20 14 15 15 11 16 16 17 14 18 12 19 22 20 13 21 17 22 18 23
REMARK SMILES IDX 19 24
REMARK H PARENT
ROOT
ATOM      1  C   UNL     1      46.368 130.185  15.591  1.00  0.00     0.307 C 
ATOM      2  O   UNL     1      45.535 129.260  15.790  1.00  0.00    -0.252 OA
ENDROOT
BRANCH   1   3
ATOM      3  O   UNL     1      47.696 129.891  15.271  1.00  0.00    -0.452 OA
BRANCH   3   4
ATOM      4  C   UNL     1      48.080 129.295  14.039  1.00  0.00     0.322 C 
BRANCH   4   5
ATOM      5  C   UNL     1      47.466 130.040  12.939  1.00  0.00    -0.065 C 
ATOM      6  C   UNL     1      46.960 130.659  12.037  1.00  0.00     0.007 C 
ENDBRANCH   4   5
ENDBRANCH   3   4
ENDBRANCH   1   3
BRANCH   1   7
ATOM      7  C   UNL     1      45.931 131.619  15.663  1.00  0.00     0.131 C 
BRANCH   7   8
ATOM      8  C   UNL     1      44.449 131.771  16.084  1.00  0.00     0.032 C 
ATOM      9  C   UNL     1      44.303 132.775  17.224  1.00  0.00    -0.023 A 
ATOM     10  C   UNL     1      43.527 132.067  14.841  1.00  0.00     0.010 C 
ATOM     11  C   UNL     1      44.604 132.478  18.576  1.00  0.00     0.045 A 
ATOM     12  C   UNL     1      43.771 134.030  16.943  1.00  0.00    -0.048 A 
ATOM     13  C   UNL     1      42.517 133.223  15.028  1.00  0.00     0.015 C 
ATOM     14  C   UNL     1      44.296 133.414  19.587  1.00  0.00     0.029 A 
ATOM     15  C   UNL     1      43.368 134.897  17.933  1.00  0.00    -0.120 A 
ATOM     16  C   UNL     1      43.236 134.431  15.625  1.00  0.00     0.066 C 
ATOM     17  C   UNL     1      43.644 134.623  19.283  1.00  0.00     0.025 A 
ATOM     18  N   UNL     1      42.486 135.894  17.435  1.00  0.00    -0.626 NA
ATOM     19  C   UNL     1      42.360 135.569  16.050  1.00  0.00     0.062 C 
ATOM     20  Cl  UNL     1      45.293 130.931  19.052  1.00  0.00    -0.084 Cl
ATOM     21  O   UNL     1      41.616 136.215  15.267  1.00  0.00    -0.320 OA
BRANCH  17  22
ATOM     22  N   UNL     1      43.259 135.497  20.354  1.00  0.00    -0.062 NA
BRANCH  22  23
ATOM     23  N   UNL     1      43.299 135.157  21.537  1.00  0.00     0.005 N 
ATOM     24  N   UNL     1      43.342 134.821  22.720  1.00  0.00    -0.003 NA
ENDBRANCH  22  23
ENDBRANCH  17  22
ENDBRANCH   7   8
ENDBRANCH   1   7
TORSDOF 7
ENDMDL
MODEL 2
REMARK VINA RESULT:      -6.7      2.588      2.863
REMARK SMILES C#CCOC(=O)C[C@@H]1CC[C@H]2C(=O)[N-]c3c(N=[N+]=[N-])cc(Cl)c1c32
REMARK SMILES IDX 5 1 6 2 4 3 3 4 2 5 1 6 7 7 8 8 23 9 9 10 21 11 24 12 10 13
REMARK SMILES IDX 20 14 15 15 11 16 16 17 14 18 12 19 22 20 13 21 17 22 18 23
REMARK SMILES IDX 19 24
REMARK H PARENT
ROOT
ATOM      1  C   UNL     1      45.937 131.030  16.564  1.00  0.00     0.307 C 
ATOM      2  O   UNL     1      45.904 130.136  17.452  1.00  0.00    -0.252 OA
ENDROOT
BRANCH   1   3
ATOM      3  O   UNL     1      46.832 130.942  15.496  1.00  0.00    -0.452 OA
BRANCH   3   4
ATOM      4  C   UNL     1      46.930 129.795  14.663  1.00  0.00     0.322 C 
BRANCH   4   5
ATOM      5  C   UNL     1      47.045 130.227  13.270  1.00  0.00    -0.065 C 
ATOM      6  C   UNL     1      47.145 130.587  12.123  1.00  0.00     0.007 C 
ENDBRANCH   4   5
ENDBRANCH   3   4
ENDBRANCH   1   3
BRANCH   1   7
ATOM      7  C   UNL     1      44.983 132.189  16.630  1.00  0.00     0.131 C 
BRANCH   7   8
ATOM      8  C   UNL     1      43.542 131.799  16.223  1.00  0.00     0.032 C 
ATOM      9  C   UNL     1      42.523 132.763  16.825  1.00  0.00    -0.023 A 
ATOM     10  C   UNL     1      43.415 131.619  14.663  1.00  0.00     0.010 C 
ATOM     11  C   UNL     1      42.100 132.716  18.176  1.00  0.00     0.045 A 
ATOM     12  C   UNL     1      41.911 133.694  15.990  1.00  0.00    -0.048 A 
ATOM     13  C   UNL     1      42.196 132.314  14.014  1.00  0.00     0.015 C 
ATOM     14  C   UNL     1      41.043 133.544  18.612  1.00  0.00     0.029 A 
ATOM     15  C   UNL     1      40.810 134.420  16.382  1.00  0.00    -0.120 A 
ATOM     16  C   UNL     1      42.102 133.750  14.526  1.00  0.00     0.066 C 
ATOM     17  C   UNL     1      40.362 134.385  17.713  1.00  0.00     0.025 A 
ATOM     18  N   UNL     1      40.112 134.962  15.268  1.00  0.00    -0.626 NA
ATOM     19  C   UNL     1      40.863 134.500  14.145  1.00  0.00     0.062 C 
ATOM     20  Cl  UNL     1      42.810 131.593  19.329  1.00  0.00    -0.084 Cl
ATOM     21  O   UNL     1      40.527 134.748  12.957  1.00  0.00    -0.320 OA
BRANCH  17  22
ATOM     22  N   UNL     1      39.230 135.132  18.178  1.00  0.00    -0.062 NA
BRANCH  22  23
ATOM     23  N   UNL     1      38.360 134.643  18.900  1.00  0.00     0.005 N 
ATOM     24  N   UNL     1      37.493 134.150  19.621  1.00  0.00    -0.003 NA
ENDBRANCH  22  23
ENDBRANCH  17  22
ENDBRANCH   7   8
ENDBRANCH   1   7
TORSDOF 7
ENDMDL
MODEL 3
REMARK VINA RESULT:      -6.7      1.347      1.498
REMARK SMILES C#CCOC(=O)C[C@@H]1CC[C@H]2C(=O)[N-]c3c(N=[N+]=[N-])cc(Cl)c1c32
REMARK SMILES IDX 5 1 6 2 4 3 3 4 2 5 1 6 7 7 8 8 23 9 9 10 21 11 24 12 10 13
REMARK SMILES IDX 20 14 15 15 11 16 16 17 14 18 12 19 22 20 13 21 17 22 18 23
REMARK SMILES IDX 19 24
REMARK H PARENT
ROOT
ATOM      1  C   UNL     1      45.990 129.906  16.127  1.00  0.00     0.307 C 
ATOM      2  O   UNL     1      45.322 128.878  15.834  1.00  0.00    -0.252 OA
ENDROOT
BRANCH   1   3
ATOM      3  O   UNL     1      47.066 130.308  15.332  1.00  0.00    -0.452 OA
BRANCH   3   4
ATOM      4  C   UNL     1      46.993 131.403  14.430  1.00  0.00     0.322 C 
BRANCH   4   5
ATOM      5  C   UNL     1      47.081 130.897  13.060  1.00  0.00    -0.065 C 
ATOM      6  C   UNL     1      47.160 130.482  11.931  1.00  0.00     0.007 C 
ENDBRANCH   4   5
ENDBRANCH   3   4
ENDBRANCH   1   3
BRANCH   1   7
ATOM      7  C   UNL     1      45.611 130.733  17.323  1.00  0.00     0.131 C 
BRANCH   7   8
ATOM      8  C   UNL     1      44.243 131.436  17.152  1.00  0.00     0.032 C 
ATOM      9  C   UNL     1      44.184 132.725  17.968  1.00  0.00    -0.023 A 
ATOM     10  C   UNL     1      43.878 131.620  15.630  1.00  0.00     0.010 C 
ATOM     11  C   UNL     1      43.970 132.759  19.368  1.00  0.00     0.045 A 
ATOM     12  C   UNL     1      44.266 133.943  17.299  1.00  0.00    -0.048 A 
ATOM     13  C   UNL     1      43.371 133.027  15.237  1.00  0.00     0.015 C 
ATOM     14  C   UNL     1      43.777 133.995  20.021  1.00  0.00     0.029 A 
ATOM     15  C   UNL     1      43.969 135.139  17.911  1.00  0.00    -0.120 A 
ATOM     16  C   UNL     1      44.304 134.083  15.829  1.00  0.00     0.066 C 
ATOM     17  C   UNL     1      43.742 135.200  19.296  1.00  0.00     0.025 A 
ATOM     18  N   UNL     1      43.701 136.164  16.963  1.00  0.00    -0.626 NA
ATOM     19  C   UNL     1      43.844 135.503  15.705  1.00  0.00     0.062 C 
ATOM     20  Cl  UNL     1      43.864 131.286  20.324  1.00  0.00    -0.084 Cl
ATOM     21  O   UNL     1      43.644 136.085  14.607  1.00  0.00    -0.320 OA
BRANCH  17  22
ATOM     22  N   UNL     1      43.441 136.422  19.986  1.00  0.00    -0.062 NA
BRANCH  22  23
ATOM     23  N   UNL     1      42.289 136.784  20.228  1.00  0.00     0.005 N 
ATOM     24  N   UNL     1      41.137 137.147  20.464  1.00  0.00    -0.003 NA
ENDBRANCH  22  23
ENDBRANCH  17  22
ENDBRANCH   7   8
ENDBRANCH   1   7
TORSDOF 7
ENDMDL
MODEL 4
REMARK VINA RESULT:      -6.6      1.266      1.549
REMARK SMILES C#CCOC(=O)C[C@@H]1CC[C@H]2C(=O)[N-]c3c(N=[N+]=[N-])cc(Cl)c1c32
REMARK SMILES IDX 5 1 6 2 4 3 3 4 2 5 1 6 7 7 8 8 23 9 9 10 21 11 24 12 10 13
REMARK SMILES IDX 20 14 15 15 11 16 16 17 14 18 12 19 22 20 13 21 17 22 18 23
REMARK SMILES IDX 19 24
REMARK H PARENT
ROOT
ATOM      1  C   UNL     1      45.549 131.460  15.078  1.00  0.00     0.307 C 
ATOM      2  O   UNL     1      46.255 132.497  14.956  1.00  0.00    -0.252 OA
ENDROOT
BRANCH   1   3
ATOM      3  O   UNL     1      45.247 130.668  13.967  1.00  0.00    -0.452 OA
BRANCH   3   4
ATOM      4  C   UNL     1      46.128 130.522  12.861  1.00  0.00     0.322 C 
BRANCH   4   5
ATOM      5  C   UNL     1      47.380 129.924  13.325  1.00  0.00    -0.065 C 
ATOM      6  C   UNL     1      48.414 129.438  13.709  1.00  0.00     0.007 C 
ENDBRANCH   4   5
ENDBRANCH   3   4
ENDBRANCH   1   3
BRANCH   1   7
ATOM      7  C   UNL     1      45.050 131.045  16.433  1.00  0.00     0.131 C 
BRANCH   7   8
ATOM      8  C   UNL     1      43.761 131.795  16.849  1.00  0.00     0.032 C 
ATOM      9  C   UNL     1      44.086 132.983  17.751  1.00  0.00    -0.023 A 
ATOM     10  C   UNL     1      42.879 132.159  15.595  1.00  0.00     0.010 C 
ATOM     11  C   UNL     1      44.399 132.861  19.127  1.00  0.00     0.045 A 
ATOM     12  C   UNL     1      43.995 134.267  17.222  1.00  0.00    -0.048 A 
ATOM     13  C   UNL     1      42.354 133.613  15.556  1.00  0.00     0.015 C 
ATOM     14  C   UNL     1      44.536 134.019  19.922  1.00  0.00     0.029 A 
ATOM     15  C   UNL     1      44.017 135.392  18.014  1.00  0.00    -0.120 A 
ATOM     16  C   UNL     1      43.502 134.574  15.862  1.00  0.00     0.066 C 
ATOM     17  C   UNL     1      44.315 135.300  19.383  1.00  0.00     0.025 A 
ATOM     18  N   UNL     1      43.488 136.524  17.336  1.00  0.00    -0.626 NA
ATOM     19  C   UNL     1      43.120 136.008  16.057  1.00  0.00     0.062 C 
ATOM     20  Cl  UNL     1      44.556 131.291  19.905  1.00  0.00    -0.084 Cl
ATOM     21  O   UNL     1      42.571 136.717  15.173  1.00  0.00    -0.320 OA
BRANCH  17  22
ATOM     22  N   UNL     1      44.365 136.441  20.252  1.00  0.00    -0.062 NA
BRANCH  22  23
ATOM     23  N   UNL     1      43.534 136.639  21.139  1.00  0.00     0.005 N 
ATOM     24  N   UNL     1      42.700 136.835  22.023  1.00  0.00    -0.003 NA
ENDBRANCH  22  23
ENDBRANCH  17  22
ENDBRANCH   7   8
ENDBRANCH   1   7
TORSDOF 7
ENDMDL
MODEL 5
REMARK VINA RESULT:      -6.6      2.587      4.068
REMARK SMILES C#CCOC(=O)C[C@@H]1CC[C@H]2C(=O)[N-]c3c(N=[N+]=[N-])cc(Cl)c1c32
REMARK SMILES IDX 5 1 6 2 4 3 3 4 2 5 1 6 7 7 8 8 23 9 9 10 21 11 24 12 10 13
REMARK SMILES IDX 20 14 15 15 11 16 16 17 14 18 12 19 22 20 13 21 17 22 18 23
REMARK SMILES IDX 19 24
REMARK H PARENT
ROOT
ATOM      1  C   UNL     1      43.160 131.965  14.833  1.00  0.00     0.307 C 
ATOM      2  O   UNL     1      42.165 132.149  14.082  1.00  0.00    -0.252 OA
ENDROOT
BRANCH   1   3
ATOM      3  O   UNL     1      44.420 131.691  14.294  1.00  0.00    -0.452 OA
BRANCH   3   4
ATOM      4  C   UNL     1      44.794 130.405  13.819  1.00  0.00     0.322 C 
BRANCH   4   5
ATOM      5  C   UNL     1      46.058 130.516  13.091  1.00  0.00    -0.065 C 
ATOM      6  C   UNL     1      47.100 130.614  12.493  1.00  0.00     0.007 C 
ENDBRANCH   4   5
ENDBRANCH   3   4
ENDBRANCH   1   3
BRANCH   1   7
ATOM      7  C   UNL     1      43.006 132.072  16.323  1.00  0.00     0.131 C 
BRANCH   7   8
ATOM      8  C   UNL     1      44.352 132.322  17.046  1.00  0.00     0.032 C 
ATOM      9  C   UNL     1      44.199 133.377  18.138  1.00  0.00    -0.023 A 
ATOM     10  C   UNL     1      44.998 130.973  17.538  1.00  0.00     0.010 C 
ATOM     11  C   UNL     1      44.134 134.769  17.884  1.00  0.00     0.045 A 
ATOM     12  C   UNL     1      44.201 132.965  19.468  1.00  0.00    -0.048 A 
ATOM     13  C   UNL     1      45.516 130.980  18.996  1.00  0.00     0.015 C 
ATOM     14  C   UNL     1      44.147 135.683  18.959  1.00  0.00     0.029 A 
ATOM     15  C   UNL     1      44.325 133.852  20.512  1.00  0.00    -0.120 A 
ATOM     16  C   UNL     1      44.445 131.575  19.908  1.00  0.00     0.066 C 
ATOM     17  C   UNL     1      44.275 135.238  20.287  1.00  0.00     0.025 A 
ATOM     18  N   UNL     1      44.731 133.203  21.711  1.00  0.00    -0.626 NA
ATOM     19  C   UNL     1      44.862 131.835  21.323  1.00  0.00     0.062 C 
ATOM     20  Cl  UNL     1      44.111 135.409  16.245  1.00  0.00    -0.084 Cl
ATOM     21  O   UNL     1      45.249 130.939  22.118  1.00  0.00    -0.320 OA
BRANCH  17  22
ATOM     22  N   UNL     1      44.386 136.206  21.340  1.00  0.00    -0.062 NA
BRANCH  22  23
ATOM     23  N   UNL     1      45.469 136.645  21.730  1.00  0.00     0.005 N 
ATOM     24  N   UNL     1      46.550 137.087  22.116  1.00  0.00    -0.003 NA
ENDBRANCH  22  23
ENDBRANCH  17  22
ENDBRANCH   7   8
ENDBRANCH   1   7
TORSDOF 7
ENDMDL
MODEL 6
REMARK VINA RESULT:      -6.6      1.494      1.858
REMARK SMILES C#CCOC(=O)C[C@@H]1CC[C@H]2C(=O)[N-]c3c(N=[N+]=[N-])cc(Cl)c1c32
REMARK SMILES IDX 5 1 6 2 4 3 3 4 2 5 1 6 7 7 8 8 23 9 9 10 21 11 24 12 10 13
REMARK SMILES IDX 20 14 15 15 11 16 16 17 14 18 12 19 22 20 13 21 17 22 18 23
REMARK SMILES IDX 19 24
REMARK H PARENT
ROOT
ATOM      1  C   UNL     1      45.443 130.641  15.768  1.00  0.00     0.307 C 
ATOM      2  O   UNL     1      45.745 129.927  16.762  1.00  0.00    -0.252 OA
ENDROOT
BRANCH   1   3
ATOM      3  O   UNL     1      45.089 130.056  14.550  1.00  0.00    -0.452 OA
BRANCH   3   4
ATOM      4  C   UNL     1      45.695 130.415  13.316  1.00  0.00     0.322 C 
BRANCH   4   5
ATOM      5  C   UNL     1      47.077 129.935  13.308  1.00  0.00    -0.065 C 
ATOM      6  C   UNL     1      48.214 129.534  13.299  1.00  0.00     0.007 C 
ENDBRANCH   4   5
ENDBRANCH   3   4
ENDBRANCH   1   3
BRANCH   1   7
ATOM      7  C   UNL     1      45.429 132.138  15.896  1.00  0.00     0.131 C 
BRANCH   7   8
ATOM      8  C   UNL     1      44.019 132.697  16.206  1.00  0.00     0.032 C 
ATOM      9  C   UNL     1      44.089 133.809  17.249  1.00  0.00    -0.023 A 
ATOM     10  C   UNL     1      43.258 133.097  14.887  1.00  0.00     0.010 C 
ATOM     11  C   UNL     1      44.247 133.576  18.637  1.00  0.00     0.045 A 
ATOM     12  C   UNL     1      43.909 135.125  16.833  1.00  0.00    -0.048 A 
ATOM     13  C   UNL     1      42.571 134.482  14.913  1.00  0.00     0.015 C 
ATOM     14  C   UNL     1      44.147 134.650  19.547  1.00  0.00     0.029 A 
ATOM     15  C   UNL     1      43.702 136.155  17.722  1.00  0.00    -0.120 A 
ATOM     16  C   UNL     1      43.551 135.521  15.455  1.00  0.00     0.066 C 
ATOM     17  C   UNL     1      43.841 135.950  19.104  1.00  0.00     0.025 A 
ATOM     18  N   UNL     1      43.126 137.291  17.088  1.00  0.00    -0.626 NA
ATOM     19  C   UNL     1      42.980 136.878  15.729  1.00  0.00     0.062 C 
ATOM     20  Cl  UNL     1      44.495 131.958  19.281  1.00  0.00    -0.084 Cl
ATOM     21  O   UNL     1      42.460 137.614  14.850  1.00  0.00    -0.320 OA
BRANCH  17  22
ATOM     22  N   UNL     1      43.650 136.990  20.074  1.00  0.00    -0.062 NA
BRANCH  22  23
ATOM     23  N   UNL     1      44.490 137.866  20.286  1.00  0.00     0.005 N 
ATOM     24  N   UNL     1      45.333 138.737  20.497  1.00  0.00    -0.003 NA
ENDBRANCH  22  23
ENDBRANCH  17  22
ENDBRANCH   7   8
ENDBRANCH   1   7
TORSDOF 7
ENDMDL
MODEL 7
REMARK VINA RESULT:      -6.6      1.443      1.804
REMARK SMILES C#CCOC(=O)C[C@@H]1CC[C@H]2C(=O)[N-]c3c(N=[N+]=[N-])cc(Cl)c1c32
REMARK SMILES IDX 5 1 6 2 4 3 3 4 2 5 1 6 7 7 8 8 23 9 9 10 21 11 24 12 10 13
REMARK SMILES IDX 20 14 15 15 11 16 16 17 14 18 12 19 22 20 13 21 17 22 18 23
REMARK SMILES IDX 19 24
REMARK H PARENT
ROOT
ATOM      1  C   UNL     1      45.875 130.594  15.926  1.00  0.00     0.307 C 
ATOM      2  O   UNL     1      46.892 130.079  16.465  1.00  0.00    -0.252 OA
ENDROOT
BRANCH   1   3
ATOM      3  O   UNL     1      45.152 129.898  14.954  1.00  0.00    -0.452 OA
BRANCH   3   4
ATOM      4  C   UNL     1      44.923 130.410  13.648  1.00  0.00     0.322 C 
BRANCH   4   5
ATOM      5  C   UNL     1      46.203 130.516  12.948  1.00  0.00    -0.065 C 
ATOM      6  C   UNL     1      47.258 130.610  12.373  1.00  0.00     0.007 C 
ENDBRANCH   4   5
ENDBRANCH   3   4
ENDBRANCH   1   3
BRANCH   1   7
ATOM      7  C   UNL     1      45.408 131.957  16.353  1.00  0.00     0.131 C 
BRANCH   7   8
ATOM      8  C   UNL     1      44.085 131.910  17.155  1.00  0.00     0.032 C 
ATOM      9  C   UNL     1      44.181 132.759  18.419  1.00  0.00    -0.023 A 
ATOM     10  C   UNL     1      42.849 132.252  16.241  1.00  0.00     0.010 C 
ATOM     11  C   UNL     1      44.851 132.343  19.596  1.00  0.00     0.045 A 
ATOM     12  C   UNL     1      43.511 133.979  18.456  1.00  0.00    -0.048 A 
ATOM     13  C   UNL     1      41.849 133.272  16.835  1.00  0.00     0.015 C 
ATOM     14  C   UNL     1      44.761 133.122  20.770  1.00  0.00     0.029 A 
ATOM     15  C   UNL     1      43.330 134.683  19.625  1.00  0.00    -0.120 A 
ATOM     16  C   UNL     1      42.619 134.471  17.386  1.00  0.00     0.066 C 
ATOM     17  C   UNL     1      43.973 134.287  20.809  1.00  0.00     0.025 A 
ATOM     18  N   UNL     1      42.282 135.637  19.509  1.00  0.00    -0.626 NA
ATOM     19  C   UNL     1      41.815 135.460  18.171  1.00  0.00     0.062 C 
ATOM     20  Cl  UNL     1      45.743 130.829  19.666  1.00  0.00    -0.084 Cl
ATOM     21  O   UNL     1      40.847 136.113  17.700  1.00  0.00    -0.320 OA
BRANCH  17  22
ATOM     22  N   UNL     1      43.830 134.991  22.051  1.00  0.00    -0.062 NA
BRANCH  22  23
ATOM     23  N   UNL     1      44.632 135.847  22.427  1.00  0.00     0.005 N 
ATOM     24  N   UNL     1      45.437 136.698  22.803  1.00  0.00    -0.003 NA
ENDBRANCH  22  23
ENDBRANCH  17  22
ENDBRANCH   7   8
ENDBRANCH   1   7
TORSDOF 7
ENDMDL
MODEL 8
REMARK VINA RESULT:      -6.6      1.193      1.386
REMARK SMILES C#CCOC(=O)C[C@@H]1CC[C@H]2C(=O)[N-]c3c(N=[N+]=[N-])cc(Cl)c1c32
REMARK SMILES IDX 5 1 6 2 4 3 3 4 2 5 1 6 7 7 8 8 23 9 9 10 21 11 24 12 10 13
REMARK SMILES IDX 20 14 15 15 11 16 16 17 14 18 12 19 22 20 13 21 17 22 18 23
REMARK SMILES IDX 19 24
REMARK H PARENT
ROOT
ATOM      1  C   UNL     1      46.496 130.369  15.774  1.00  0.00     0.307 C 
ATOM      2  O   UNL     1      47.009 129.983  16.859  1.00  0.00    -0.252 OA
ENDROOT
BRANCH   1   3
ATOM      3  O   UNL     1      46.449 129.520  14.666  1.00  0.00    -0.452 OA
BRANCH   3   4
ATOM      4  C   UNL     1      47.571 129.283  13.826  1.00  0.00     0.322 C 
BRANCH   4   5
ATOM      5  C   UNL     1      47.412 130.052  12.592  1.00  0.00    -0.065 C 
ATOM      6  C   UNL     1      47.288 130.686  11.574  1.00  0.00     0.007 C 
ENDBRANCH   4   5
ENDBRANCH   3   4
ENDBRANCH   1   3
BRANCH   1   7
ATOM      7  C   UNL     1      45.896 131.742  15.673  1.00  0.00     0.131 C 
BRANCH   7   8
ATOM      8  C   UNL     1      44.374 131.750  15.952  1.00  0.00     0.032 C 
ATOM      9  C   UNL     1      43.997 132.881  16.905  1.00  0.00    -0.023 A 
ATOM     10  C   UNL     1      43.546 131.733  14.612  1.00  0.00     0.010 C 
ATOM     11  C   UNL     1      44.202 132.830  18.305  1.00  0.00     0.045 A 
ATOM     12  C   UNL     1      43.344 133.998  16.390  1.00  0.00    -0.048 A 
ATOM     13  C   UNL     1      42.387 132.755  14.537  1.00  0.00     0.015 C 
ATOM     14  C   UNL     1      43.686 133.852  19.130  1.00  0.00     0.029 A 
ATOM     15  C   UNL     1      42.745 134.937  17.198  1.00  0.00    -0.120 A 
ATOM     16  C   UNL     1      42.893 134.125  14.988  1.00  0.00     0.066 C 
ATOM     17  C   UNL     1      42.923 134.903  18.591  1.00  0.00     0.025 A 
ATOM     18  N   UNL     1      41.799 135.720  16.483  1.00  0.00    -0.626 NA
ATOM     19  C   UNL     1      41.847 135.182  15.162  1.00  0.00     0.062 C 
ATOM     20  Cl  UNL     1      45.028 131.478  19.070  1.00  0.00    -0.084 Cl
ATOM     21  O   UNL     1      41.107 135.599  14.233  1.00  0.00    -0.320 OA
BRANCH  17  22
ATOM     22  N   UNL     1      42.334 135.865  19.478  1.00  0.00    -0.062 NA
BRANCH  22  23
ATOM     23  N   UNL     1      41.138 135.851  19.776  1.00  0.00     0.005 N 
ATOM     24  N   UNL     1      39.945 135.833  20.076  1.00  0.00    -0.003 NA
ENDBRANCH  22  23
ENDBRANCH  17  22
ENDBRANCH   7   8
ENDBRANCH   1   7
TORSDOF 7
ENDMDL
MODEL 9
REMARK VINA RESULT:      -6.5      1.821      2.170
REMARK SMILES C#CCOC(=O)C[C@@H]1CC[C@H]2C(=O)[N-]c3c(N=[N+]=[N-])cc(Cl)c1c32
REMARK SMILES IDX 5 1 6 2 4 3 3 4 2 5 1 6 7 7 8 8 23 9 9 10 21 11 24 12 10 13
REMARK SMILES IDX 20 14 15 15 11 16 16 17 14 18 12 19 22 20 13 21 17 22 18 23
REMARK SMILES IDX 19 24
REMARK H PARENT
ROOT
ATOM      1  C   UNL     1      45.429 131.522  15.910  1.00  0.00     0.307 C 
ATOM      2  O   UNL     1      45.963 132.577  15.472  1.00  0.00    -0.252 OA
ENDROOT
BRANCH   1   3
ATOM      3  O   UNL     1      45.251 130.415  15.078  1.00  0.00    -0.452 OA
BRANCH   3   4
ATOM      4  C   UNL     1      44.952 130.529  13.694  1.00  0.00     0.322 C 
BRANCH   4   5
ATOM      5  C   UNL     1      46.203 130.529  12.936  1.00  0.00    -0.065 C 
ATOM      6  C   UNL     1      47.234 130.536  12.311  1.00  0.00     0.007 C 
ENDBRANCH   4   5
ENDBRANCH   3   4
ENDBRANCH   1   3
BRANCH   1   7
ATOM      7  C   UNL     1      45.010 131.435  17.350  1.00  0.00     0.131 C 
BRANCH   7   8
ATOM      8  C   UNL     1      43.714 132.230  17.643  1.00  0.00     0.032 C 
ATOM      9  C   UNL     1      44.035 133.606  18.221  1.00  0.00    -0.023 A 
ATOM     10  C   UNL     1      42.766 132.264  16.386  1.00  0.00     0.010 C 
ATOM     11  C   UNL     1      44.414 133.823  19.569  1.00  0.00     0.045 A 
ATOM     12  C   UNL     1      43.875 134.725  17.408  1.00  0.00    -0.048 A 
ATOM     13  C   UNL     1      42.186 133.654  16.032  1.00  0.00     0.015 C 
ATOM     14  C   UNL     1      44.543 135.140  20.059  1.00  0.00     0.029 A 
ATOM     15  C   UNL     1      43.891 136.006  17.910  1.00  0.00    -0.120 A 
ATOM     16  C   UNL     1      43.312 134.687  16.042  1.00  0.00     0.066 C 
ATOM     17  C   UNL     1      44.252 136.250  19.245  1.00  0.00     0.025 A 
ATOM     18  N   UNL     1      43.292 136.931  17.012  1.00  0.00    -0.626 NA
ATOM     19  C   UNL     1      42.887 136.117  15.912  1.00  0.00     0.062 C 
ATOM     20  Cl  UNL     1      44.662 132.488  20.687  1.00  0.00    -0.084 Cl
ATOM     21  O   UNL     1      42.273 136.581  14.915  1.00  0.00    -0.320 OA
BRANCH  17  22
ATOM     22  N   UNL     1      44.299 137.566  19.816  1.00  0.00    -0.062 NA
BRANCH  22  23
ATOM     23  N   UNL     1      45.324 138.043  20.304  1.00  0.00     0.005 N 
ATOM     24  N   UNL     1      46.349 138.516  20.795  1.00  0.00    -0.003 NA
ENDBRANCH  22  23
ENDBRANCH  17  22
ENDBRANCH   7   8
ENDBRANCH   1   7
TORSDOF 7
ENDMDL


