MODEL 1
REMARK VINA RESULT:      -6.0      0.000      0.000
REMARK SMILES [N-]=[N+]=NC(=O)c1cc2c3c(ccc(N=[N+]=[N-])c3c1OCCc1cn(C[C@H](N=C=S)C(=O)[O-])n[nH+]1)CC2
REMARK SMILES IDX 20 1 19 2 18 3 12 4 11 5 13 6 10 7 17 8 9 9 35 10 8 11 36 12
REMARK SMILES IDX 6 13 7 14 14 15 15 16 16 17 4 18 5 19 3 20 2 21 1 22 21 23
REMARK SMILES IDX 22 24 23 25 34 26 24 27 33 28 25 30 26 31 27 32 28 33 29 34
REMARK SMILES IDX 30 35 31 36 32 37
REMARK H PARENT 34 29
ROOT
ATOM      1  C   UNL     1      42.773 134.640  18.072  1.00  0.00     0.238 C 
ENDROOT
BRANCH   1   2
ATOM      2  O   UNL     1      42.433 133.313  17.661  1.00  0.00    -0.492 OA
BRANCH   2   3
ATOM      3  C   UNL     1      43.384 132.313  17.434  1.00  0.00     0.138 A 
ATOM      4  C   UNL     1      43.163 131.633  13.706  1.00  0.00     0.011 A 
ATOM      5  C   UNL     1      44.326 130.854  13.551  1.00  0.00     0.005 A 
ATOM      6  C   UNL     1      42.749 132.084  14.983  1.00  0.00     0.049 A 
ATOM      7  C   UNL     1      45.066 130.535  14.686  1.00  0.00    -0.039 A 
ATOM      8  C   UNL     1      43.563 131.800  16.121  1.00  0.00     0.035 A 
ATOM      9  C   UNL     1      44.686 131.002  15.905  1.00  0.00    -0.008 A 
ATOM     10  C   UNL     1      46.321 129.730  14.798  1.00  0.00     0.041 C 
ATOM     11  C   UNL     1      45.548 130.623  16.882  1.00  0.00    -0.039 A 
ATOM     12  C   UNL     1      46.643 129.775  16.317  1.00  0.00     0.041 C 
ATOM     13  C   UNL     1      44.220 131.842  18.499  1.00  0.00     0.067 A 
ATOM     14  C   UNL     1      45.323 131.005  18.202  1.00  0.00     0.020 A 
BRANCH   6  15
ATOM     15  N   UNL     1      41.492 132.763  15.072  1.00  0.00    -0.060 NA
BRANCH  15  16
ATOM     16  N   UNL     1      41.133 133.569  14.211  1.00  0.00     0.005 N 
ATOM     17  N   UNL     1      40.771 134.373  13.354  1.00  0.00    -0.003 NA
ENDBRANCH  15  16
ENDBRANCH   6  15
BRANCH  13  18
ATOM     18  C   UNL     1      43.918 132.153  19.919  1.00  0.00     0.252 C 
ATOM     19  O   UNL     1      42.909 131.644  20.481  1.00  0.00    -0.287 OA
BRANCH  18  20
ATOM     20  N   UNL     1      44.798 132.993  20.673  1.00  0.00    -0.017 NA
BRANCH  20  21
ATOM     21  N   UNL     1      44.442 133.504  21.735  1.00  0.00     0.009 N 
ATOM     22  N   UNL     1      44.087 134.016  22.795  1.00  0.00    -0.003 NA
ENDBRANCH  20  21
ENDBRANCH  18  20
ENDBRANCH  13  18
ENDBRANCH   2   3
ENDBRANCH   1   2
BRANCH   1  23
ATOM     23  C   UNL     1      42.719 135.625  16.897  1.00  0.00     0.128 C 
BRANCH  23  24
ATOM     24  C   UNL     1      41.318 136.082  16.613  1.00  0.00     0.168 A 
ATOM     25  C   UNL     1      40.216 135.928  17.428  1.00  0.00     0.274 A 
ATOM     26  N   UNL     1      40.911 136.708  15.493  1.00  0.00    -0.148 N 
ATOM     27  N   UNL     1      39.179 136.480  16.769  1.00  0.00    -0.135 N 
ATOM     28  N   UNL     1      39.615 136.946  15.608  1.00  0.00     0.088 NA
ATOM     29  H   UNL     1      41.489 136.956  14.660  1.00  0.00     0.342 HD
BRANCH  27  30
ATOM     30  C   UNL     1      37.791 136.559  17.221  1.00  0.00     0.303 C 
BRANCH  30  31
ATOM     31  C   UNL     1      37.012 135.272  16.907  1.00  0.00     0.206 C 
BRANCH  31  32
ATOM     32  N   UNL     1      36.607 134.615  18.149  1.00  0.00    -0.219 NA
BRANCH  32  33
ATOM     33  C   UNL     1      37.267 134.752  19.229  1.00  0.00     0.059 C 
ATOM     34  S   UNL     1      38.107 134.926  20.593  1.00  0.00    -0.006 S 
ENDBRANCH  32  33
ENDBRANCH  31  32
BRANCH  31  35
ATOM     35  C   UNL     1      37.824 134.348  16.039  1.00  0.00     0.071 C 
ATOM     36  O   UNL     1      37.712 134.382  14.784  1.00  0.00    -0.548 OA
ATOM     37  O   UNL     1      38.668 133.414  16.624  1.00  0.00    -0.548 OA
ENDBRANCH  31  35
ENDBRANCH  30  31
ENDBRANCH  27  30
ENDBRANCH  23  24
ENDBRANCH   1  23
TORSDOF 14
ENDMDL
MODEL 2
REMARK VINA RESULT:      -5.9      2.540      4.559
REMARK SMILES [N-]=[N+]=NC(=O)c1cc2c3c(ccc(N=[N+]=[N-])c3c1OCCc1cn(C[C@H](N=C=S)C(=O)[O-])n[nH+]1)CC2
REMARK SMILES IDX 20 1 19 2 18 3 12 4 11 5 13 6 10 7 17 8 9 9 35 10 8 11 36 12
REMARK SMILES IDX 6 13 7 14 14 15 15 16 16 17 4 18 5 19 3 20 2 21 1 22 21 23
REMARK SMILES IDX 22 24 23 25 34 26 24 27 33 28 25 30 26 31 27 32 28 33 29 34
REMARK SMILES IDX 30 35 31 36 32 37
REMARK H PARENT 34 29
ROOT
ATOM      1  C   UNL     1      42.461 133.340  14.805  1.00  0.00     0.238 C 
ENDROOT
BRANCH   1   2
ATOM      2  O   UNL     1      43.606 133.838  15.502  1.00  0.00    -0.492 OA
BRANCH   2   3
ATOM      3  C   UNL     1      44.143 133.220  16.636  1.00  0.00     0.138 A 
ATOM      4  C   UNL     1      42.763 135.230  19.545  1.00  0.00     0.011 A 
ATOM      5  C   UNL     1      43.116 134.368  20.601  1.00  0.00     0.005 A 
ATOM      6  C   UNL     1      43.143 134.947  18.211  1.00  0.00     0.049 A 
ATOM      7  C   UNL     1      43.851 133.224  20.304  1.00  0.00    -0.039 A 
ATOM      8  C   UNL     1      43.837 133.732  17.925  1.00  0.00     0.035 A 
ATOM      9  C   UNL     1      44.181 132.937  19.017  1.00  0.00    -0.008 A 
ATOM     10  C   UNL     1      44.352 132.159  21.227  1.00  0.00     0.041 C 
ATOM     11  C   UNL     1      44.859 131.765  18.919  1.00  0.00    -0.039 A 
ATOM     12  C   UNL     1      45.064 131.161  20.272  1.00  0.00     0.041 C 
ATOM     13  C   UNL     1      44.949 132.041  16.515  1.00  0.00     0.067 A 
ATOM     14  C   UNL     1      45.285 131.304  17.677  1.00  0.00     0.020 A 
BRANCH   6  15
ATOM     15  N   UNL     1      42.853 135.933  17.214  1.00  0.00    -0.060 NA
BRANCH  15  16
ATOM     16  N   UNL     1      43.233 137.100  17.333  1.00  0.00     0.005 N 
ATOM     17  N   UNL     1      43.614 138.263  17.454  1.00  0.00    -0.003 NA
ENDBRANCH  15  16
ENDBRANCH   6  15
BRANCH  13  18
ATOM     18  C   UNL     1      45.501 131.608  15.207  1.00  0.00     0.252 C 
ATOM     19  O   UNL     1      46.515 132.182  14.724  1.00  0.00    -0.287 OA
BRANCH  18  20
ATOM     20  N   UNL     1      44.914 130.504  14.509  1.00  0.00    -0.017 NA
BRANCH  20  21
ATOM     21  N   UNL     1      44.991 129.356  14.948  1.00  0.00     0.009 N 
ATOM     22  N   UNL     1      45.065 128.209  15.387  1.00  0.00    -0.003 NA
ENDBRANCH  20  21
ENDBRANCH  18  20
ENDBRANCH  13  18
ENDBRANCH   2   3
ENDBRANCH   1   2
BRANCH   1  23
ATOM     23  C   UNL     1      41.659 134.476  14.156  1.00  0.00     0.128 C 
BRANCH  23  24
ATOM     24  C   UNL     1      40.284 134.598  14.744  1.00  0.00     0.168 A 
ATOM     25  C   UNL     1      39.869 135.503  15.698  1.00  0.00     0.274 A 
ATOM     26  N   UNL     1      39.230 133.820  14.436  1.00  0.00    -0.148 N 
ATOM     27  N   UNL     1      38.567 135.241  15.926  1.00  0.00    -0.135 N 
ATOM     28  N   UNL     1      38.199 134.228  15.157  1.00  0.00     0.088 NA
ATOM     29  H   UNL     1      39.208 133.019  13.767  1.00  0.00     0.342 HD
BRANCH  27  30
ATOM     30  C   UNL     1      37.683 135.929  16.864  1.00  0.00     0.303 C 
BRANCH  30  31
ATOM     31  C   UNL     1      38.035 135.608  18.325  1.00  0.00     0.206 C 
BRANCH  31  32
ATOM     32  N   UNL     1      39.126 136.469  18.780  1.00  0.00    -0.219 NA
BRANCH  32  33
ATOM     33  C   UNL     1      39.151 136.959  19.954  1.00  0.00     0.059 C 
ATOM     34  S   UNL     1      39.178 137.576  21.442  1.00  0.00    -0.006 S 
ENDBRANCH  32  33
ENDBRANCH  31  32
BRANCH  31  35
ATOM     35  C   UNL     1      38.382 134.152  18.488  1.00  0.00     0.071 C 
ATOM     36  O   UNL     1      37.484 133.270  18.452  1.00  0.00    -0.548 OA
ATOM     37  O   UNL     1      39.697 133.779  18.732  1.00  0.00    -0.548 OA
ENDBRANCH  31  35
ENDBRANCH  30  31
ENDBRANCH  27  30
ENDBRANCH  23  24
ENDBRANCH   1  23
TORSDOF 14
ENDMDL
MODEL 3
REMARK VINA RESULT:      -5.8      3.431      5.261
REMARK SMILES [N-]=[N+]=NC(=O)c1cc2c3c(ccc(N=[N+]=[N-])c3c1OCCc1cn(C[C@H](N=C=S)C(=O)[O-])n[nH+]1)CC2
REMARK SMILES IDX 20 1 19 2 18 3 12 4 11 5 13 6 10 7 17 8 9 9 35 10 8 11 36 12
REMARK SMILES IDX 6 13 7 14 14 15 15 16 16 17 4 18 5 19 3 20 2 21 1 22 21 23
REMARK SMILES IDX 22 24 23 25 34 26 24 27 33 28 25 30 26 31 27 32 28 33 29 34
REMARK SMILES IDX 30 35 31 36 32 37
REMARK H PARENT 34 29
ROOT
ATOM      1  C   UNL     1      43.166 131.656  15.032  1.00  0.00     0.238 C 
ENDROOT
BRANCH   1   2
ATOM      2  O   UNL     1      43.220 132.504  16.181  1.00  0.00    -0.492 OA
BRANCH   2   3
ATOM      3  C   UNL     1      43.945 132.189  17.334  1.00  0.00     0.138 A 
ATOM      4  C   UNL     1      41.705 133.300  20.190  1.00  0.00     0.011 A 
ATOM      5  C   UNL     1      42.383 132.685  21.259  1.00  0.00     0.005 A 
ATOM      6  C   UNL     1      42.214 133.241  18.870  1.00  0.00     0.049 A 
ATOM      7  C   UNL     1      43.572 132.012  20.991  1.00  0.00    -0.039 A 
ATOM      8  C   UNL     1      43.399 132.487  18.611  1.00  0.00     0.035 A 
ATOM      9  C   UNL     1      44.037 131.925  19.716  1.00  0.00    -0.008 A 
ATOM     10  C   UNL     1      44.478 131.287  21.933  1.00  0.00     0.041 C 
ATOM     11  C   UNL     1      45.181 131.200  19.644  1.00  0.00    -0.039 A 
ATOM     12  C   UNL     1      45.599 130.741  21.005  1.00  0.00     0.041 C 
ATOM     13  C   UNL     1      45.208 131.516  17.244  1.00  0.00     0.067 A 
ATOM     14  C   UNL     1      45.810 131.002  18.418  1.00  0.00     0.020 A 
BRANCH   6  15
ATOM     15  N   UNL     1      41.533 133.996  17.861  1.00  0.00    -0.060 NA
BRANCH  15  16
ATOM     16  N   UNL     1      40.429 133.652  17.435  1.00  0.00     0.005 N 
ATOM     17  N   UNL     1      39.328 133.311  17.006  1.00  0.00    -0.003 NA
ENDBRANCH  15  16
ENDBRANCH   6  15
BRANCH  13  18
ATOM     18  C   UNL     1      45.937 131.402  15.956  1.00  0.00     0.252 C 
ATOM     19  O   UNL     1      46.130 132.425  15.242  1.00  0.00    -0.287 OA
BRANCH  18  20
ATOM     20  N   UNL     1      46.469 130.140  15.539  1.00  0.00    -0.017 NA
BRANCH  20  21
ATOM     21  N   UNL     1      47.121 130.031  14.502  1.00  0.00     0.009 N 
ATOM     22  N   UNL     1      47.773 129.924  13.464  1.00  0.00    -0.003 NA
ENDBRANCH  20  21
ENDBRANCH  18  20
ENDBRANCH  13  18
ENDBRANCH   2   3
ENDBRANCH   1   2
BRANCH   1  23
ATOM     23  C   UNL     1      42.296 132.264  13.923  1.00  0.00     0.128 C 
BRANCH  23  24
ATOM     24  C   UNL     1      41.959 133.699  14.199  1.00  0.00     0.168 A 
ATOM     25  C   UNL     1      40.745 134.320  13.991  1.00  0.00     0.274 A 
ATOM     26  N   UNL     1      42.809 134.622  14.686  1.00  0.00    -0.148 N 
ATOM     27  N   UNL     1      40.906 135.602  14.373  1.00  0.00    -0.135 N 
ATOM     28  N   UNL     1      42.152 135.766  14.790  1.00  0.00     0.088 NA
ATOM     29  H   UNL     1      43.816 134.492  14.929  1.00  0.00     0.342 HD
BRANCH  27  30
ATOM     30  C   UNL     1      39.902 136.663  14.335  1.00  0.00     0.303 C 
BRANCH  30  31
ATOM     31  C   UNL     1      38.730 136.311  13.405  1.00  0.00     0.206 C 
BRANCH  31  32
ATOM     32  N   UNL     1      38.479 137.411  12.475  1.00  0.00    -0.219 NA
BRANCH  32  33
ATOM     33  C   UNL     1      38.017 137.212  11.306  1.00  0.00     0.059 C 
ATOM     34  S   UNL     1      37.429 136.957   9.828  1.00  0.00    -0.006 S 
ENDBRANCH  32  33
ENDBRANCH  31  32
BRANCH  31  35
ATOM     35  C   UNL     1      37.496 135.971  14.197  1.00  0.00     0.071 C 
ATOM     36  O   UNL     1      37.423 136.247  15.424  1.00  0.00    -0.548 OA
ATOM     37  O   UNL     1      36.446 135.299  13.585  1.00  0.00    -0.548 OA
ENDBRANCH  31  35
ENDBRANCH  30  31
ENDBRANCH  27  30
ENDBRANCH  23  24
ENDBRANCH   1  23
TORSDOF 14
ENDMDL
MODEL 4
REMARK VINA RESULT:      -5.7      2.833      4.655
REMARK SMILES [N-]=[N+]=NC(=O)c1cc2c3c(ccc(N=[N+]=[N-])c3c1OCCc1cn(C[C@H](N=C=S)C(=O)[O-])n[nH+]1)CC2
REMARK SMILES IDX 20 1 19 2 18 3 12 4 11 5 13 6 10 7 17 8 9 9 35 10 8 11 36 12
REMARK SMILES IDX 6 13 7 14 14 15 15 16 16 17 4 18 5 19 3 20 2 21 1 22 21 23
REMARK SMILES IDX 22 24 23 25 34 26 24 27 33 28 25 30 26 31 27 32 28 33 29 34
REMARK SMILES IDX 30 35 31 36 32 37
REMARK H PARENT 34 29
ROOT
ATOM      1  C   UNL     1      42.690 133.223  14.695  1.00  0.00     0.238 C 
ENDROOT
BRANCH   1   2
ATOM      2  O   UNL     1      43.822 133.687  15.436  1.00  0.00    -0.492 OA
BRANCH   2   3
ATOM      3  C   UNL     1      44.341 133.013  16.546  1.00  0.00     0.138 A 
ATOM      4  C   UNL     1      43.430 135.217  19.498  1.00  0.00     0.011 A 
ATOM      5  C   UNL     1      43.731 134.326  20.545  1.00  0.00     0.005 A 
ATOM      6  C   UNL     1      43.683 134.874  18.148  1.00  0.00     0.049 A 
ATOM      7  C   UNL     1      44.286 133.090  20.224  1.00  0.00    -0.039 A 
ATOM      8  C   UNL     1      44.190 133.574  17.842  1.00  0.00     0.035 A 
ATOM      9  C   UNL     1      44.492 132.749  18.924  1.00  0.00    -0.008 A 
ATOM     10  C   UNL     1      44.697 131.976  21.133  1.00  0.00     0.041 C 
ATOM     11  C   UNL     1      45.000 131.496  18.805  1.00  0.00    -0.039 A 
ATOM     12  C   UNL     1      45.208 130.883  20.154  1.00  0.00     0.041 C 
ATOM     13  C   UNL     1      44.973 131.735  16.396  1.00  0.00     0.067 A 
ATOM     14  C   UNL     1      45.281 130.970  17.548  1.00  0.00     0.020 A 
BRANCH   6  15
ATOM     15  N   UNL     1      43.466 135.881  17.154  1.00  0.00    -0.060 NA
BRANCH  15  16
ATOM     16  N   UNL     1      42.926 136.953  17.431  1.00  0.00     0.005 N 
ATOM     17  N   UNL     1      42.386 138.024  17.704  1.00  0.00    -0.003 NA
ENDBRANCH  15  16
ENDBRANCH   6  15
BRANCH  13  18
ATOM     18  C   UNL     1      45.378 131.220  15.064  1.00  0.00     0.252 C 
ATOM     19  O   UNL     1      44.692 130.330  14.491  1.00  0.00    -0.287 OA
BRANCH  18  20
ATOM     20  N   UNL     1      46.522 131.768  14.399  1.00  0.00    -0.017 NA
BRANCH  20  21
ATOM     21  N   UNL     1      47.378 131.041  13.895  1.00  0.00     0.009 N 
ATOM     22  N   UNL     1      48.234 130.314  13.394  1.00  0.00    -0.003 NA
ENDBRANCH  20  21
ENDBRANCH  18  20
ENDBRANCH  13  18
ENDBRANCH   2   3
ENDBRANCH   1   2
BRANCH   1  23
ATOM     23  C   UNL     1      41.985 134.374  13.964  1.00  0.00     0.128 C 
BRANCH  23  24
ATOM     24  C   UNL     1      41.050 135.122  14.868  1.00  0.00     0.168 A 
ATOM     25  C   UNL     1      40.369 134.617  15.956  1.00  0.00     0.274 A 
ATOM     26  N   UNL     1      40.713 136.419  14.744  1.00  0.00    -0.148 N 
ATOM     27  N   UNL     1      39.649 135.639  16.458  1.00  0.00    -0.135 N 
ATOM     28  N   UNL     1      39.869 136.715  15.719  1.00  0.00     0.088 NA
ATOM     29  H   UNL     1      41.030 137.089  14.009  1.00  0.00     0.342 HD
BRANCH  27  30
ATOM     30  C   UNL     1      38.756 135.600  17.614  1.00  0.00     0.303 C 
BRANCH  30  31
ATOM     31  C   UNL     1      38.612 136.981  18.274  1.00  0.00     0.206 C 
BRANCH  31  32
ATOM     32  N   UNL     1      38.484 136.834  19.723  1.00  0.00    -0.219 NA
BRANCH  32  33
ATOM     33  C   UNL     1      39.148 135.964  20.372  1.00  0.00     0.059 C 
ATOM     34  S   UNL     1      39.992 134.865  21.193  1.00  0.00    -0.006 S 
ENDBRANCH  32  33
ENDBRANCH  31  32
BRANCH  31  35
ATOM     35  C   UNL     1      37.445 137.736  17.694  1.00  0.00     0.071 C 
ATOM     36  O   UNL     1      37.405 138.994  17.743  1.00  0.00    -0.548 OA
ATOM     37  O   UNL     1      36.376 137.040  17.146  1.00  0.00    -0.548 OA
ENDBRANCH  31  35
ENDBRANCH  30  31
ENDBRANCH  27  30
ENDBRANCH  23  24
ENDBRANCH   1  23
TORSDOF 14
ENDMDL
MODEL 5
REMARK VINA RESULT:      -5.6      2.915      4.760
REMARK SMILES [N-]=[N+]=NC(=O)c1cc2c3c(ccc(N=[N+]=[N-])c3c1OCCc1cn(C[C@H](N=C=S)C(=O)[O-])n[nH+]1)CC2
REMARK SMILES IDX 20 1 19 2 18 3 12 4 11 5 13 6 10 7 17 8 9 9 35 10 8 11 36 12
REMARK SMILES IDX 6 13 7 14 14 15 15 16 16 17 4 18 5 19 3 20 2 21 1 22 21 23
REMARK SMILES IDX 22 24 23 25 34 26 24 27 33 28 25 30 26 31 27 32 28 33 29 34
REMARK SMILES IDX 30 35 31 36 32 37
REMARK H PARENT 34 29
ROOT
ATOM      1  C   UNL     1      44.159 131.729  14.070  1.00  0.00     0.238 C 
ENDROOT
BRANCH   1   2
ATOM      2  O   UNL     1      44.758 132.609  15.024  1.00  0.00    -0.492 OA
BRANCH   2   3
ATOM      3  C   UNL     1      44.953 132.266  16.367  1.00  0.00     0.138 A 
ATOM      4  C   UNL     1      43.482 135.180  18.304  1.00  0.00     0.011 A 
ATOM      5  C   UNL     1      43.467 134.609  19.591  1.00  0.00     0.005 A 
ATOM      6  C   UNL     1      44.035 134.485  17.202  1.00  0.00     0.049 A 
ATOM      7  C   UNL     1      44.010 133.338  19.758  1.00  0.00    -0.039 A 
ATOM      8  C   UNL     1      44.524 133.156  17.387  1.00  0.00     0.035 A 
ATOM      9  C   UNL     1      44.506 132.659  18.690  1.00  0.00    -0.008 A 
ATOM     10  C   UNL     1      44.123 132.517  21.003  1.00  0.00     0.041 C 
ATOM     11  C   UNL     1      44.954 131.426  19.038  1.00  0.00    -0.039 A 
ATOM     12  C   UNL     1      44.792 131.204  20.508  1.00  0.00     0.041 C 
ATOM     13  C   UNL     1      45.527 131.002  16.724  1.00  0.00     0.067 A 
ATOM     14  C   UNL     1      45.501 130.582  18.076  1.00  0.00     0.020 A 
BRANCH   6  15
ATOM     15  N   UNL     1      44.125 135.182  15.954  1.00  0.00    -0.060 NA
BRANCH  15  16
ATOM     16  N   UNL     1      43.586 136.278  15.789  1.00  0.00     0.005 N 
ATOM     17  N   UNL     1      43.048 137.372  15.627  1.00  0.00    -0.003 NA
ENDBRANCH  15  16
ENDBRANCH   6  15
BRANCH  13  18
ATOM     18  C   UNL     1      46.212 130.149  15.721  1.00  0.00     0.252 C 
ATOM     19  O   UNL     1      47.456 130.257  15.538  1.00  0.00    -0.287 OA
BRANCH  18  20
ATOM     20  N   UNL     1      45.474 129.164  14.990  1.00  0.00    -0.017 NA
BRANCH  20  21
ATOM     21  N   UNL     1      45.147 128.096  15.507  1.00  0.00     0.009 N 
ATOM     22  N   UNL     1      44.818 127.028  16.022  1.00  0.00    -0.003 NA
ENDBRANCH  20  21
ENDBRANCH  18  20
ENDBRANCH  13  18
ENDBRANCH   2   3
ENDBRANCH   1   2
BRANCH   1  23
ATOM     23  C   UNL     1      42.667 131.516  14.360  1.00  0.00     0.128 C 
BRANCH  23  24
ATOM     24  C   UNL     1      41.931 132.816  14.499  1.00  0.00     0.168 A 
ATOM     25  C   UNL     1      41.089 133.185  15.527  1.00  0.00     0.274 A 
ATOM     26  N   UNL     1      41.968 133.833  13.618  1.00  0.00    -0.148 N 
ATOM     27  N   UNL     1      40.654 134.426  15.232  1.00  0.00    -0.135 N 
ATOM     28  N   UNL     1      41.193 134.801  14.082  1.00  0.00     0.088 NA
ATOM     29  H   UNL     1      42.490 133.871  12.715  1.00  0.00     0.342 HD
BRANCH  27  30
ATOM     30  C   UNL     1      39.732 135.244  16.016  1.00  0.00     0.303 C 
BRANCH  30  31
ATOM     31  C   UNL     1      38.402 134.520  16.277  1.00  0.00     0.206 C 
BRANCH  31  32
ATOM     32  N   UNL     1      37.576 134.537  15.070  1.00  0.00    -0.219 NA
BRANCH  32  33
ATOM     33  C   UNL     1      37.422 135.592  14.375  1.00  0.00     0.059 C 
ATOM     34  S   UNL     1      37.233 136.928  13.495  1.00  0.00    -0.006 S 
ENDBRANCH  32  33
ENDBRANCH  31  32
BRANCH  31  35
ATOM     35  C   UNL     1      37.676 135.130  17.446  1.00  0.00     0.071 C 
ATOM     36  O   UNL     1      36.716 134.525  17.993  1.00  0.00    -0.548 OA
ATOM     37  O   UNL     1      38.032 136.394  17.896  1.00  0.00    -0.548 OA
ENDBRANCH  31  35
ENDBRANCH  30  31
ENDBRANCH  27  30
ENDBRANCH  23  24
ENDBRANCH   1  23
TORSDOF 14
ENDMDL
MODEL 6
REMARK VINA RESULT:      -5.4      3.002      4.225
REMARK SMILES [N-]=[N+]=NC(=O)c1cc2c3c(ccc(N=[N+]=[N-])c3c1OCCc1cn(C[C@H](N=C=S)C(=O)[O-])n[nH+]1)CC2
REMARK SMILES IDX 20 1 19 2 18 3 12 4 11 5 13 6 10 7 17 8 9 9 35 10 8 11 36 12
REMARK SMILES IDX 6 13 7 14 14 15 15 16 16 17 4 18 5 19 3 20 2 21 1 22 21 23
REMARK SMILES IDX 22 24 23 25 34 26 24 27 33 28 25 30 26 31 27 32 28 33 29 34
REMARK SMILES IDX 30 35 31 36 32 37
REMARK H PARENT 34 29
ROOT
ATOM      1  C   UNL     1      41.913 134.170  15.044  1.00  0.00     0.238 C 
ENDROOT
BRANCH   1   2
ATOM      2  O   UNL     1      41.863 132.840  15.567  1.00  0.00    -0.492 OA
BRANCH   2   3
ATOM      3  C   UNL     1      42.212 132.521  16.884  1.00  0.00     0.138 A 
ATOM      4  C   UNL     1      45.487 130.630  16.559  1.00  0.00     0.011 A 
ATOM      5  C   UNL     1      45.875 130.620  17.912  1.00  0.00     0.005 A 
ATOM      6  C   UNL     1      44.243 131.175  16.158  1.00  0.00     0.049 A 
ATOM      7  C   UNL     1      45.006 131.163  18.855  1.00  0.00    -0.039 A 
ATOM      8  C   UNL     1      43.401 131.786  17.137  1.00  0.00     0.035 A 
ATOM      9  C   UNL     1      43.830 131.720  18.461  1.00  0.00    -0.008 A 
ATOM     10  C   UNL     1      45.172 131.273  20.337  1.00  0.00     0.041 C 
ATOM     11  C   UNL     1      43.138 132.231  19.510  1.00  0.00    -0.039 A 
ATOM     12  C   UNL     1      43.873 131.994  20.792  1.00  0.00     0.041 C 
ATOM     13  C   UNL     1      41.413 132.976  17.983  1.00  0.00     0.067 A 
ATOM     14  C   UNL     1      41.904 132.841  19.305  1.00  0.00     0.020 A 
BRANCH   6  15
ATOM     15  N   UNL     1      43.868 131.035  14.784  1.00  0.00    -0.060 NA
BRANCH  15  16
ATOM     16  N   UNL     1      44.699 130.776  13.912  1.00  0.00     0.005 N 
ATOM     17  N   UNL     1      45.528 130.520  13.040  1.00  0.00    -0.003 NA
ENDBRANCH  15  16
ENDBRANCH   6  15
BRANCH  13  18
ATOM     18  C   UNL     1      40.048 133.524  17.778  1.00  0.00     0.252 C 
ATOM     19  O   UNL     1      39.084 132.750  17.523  1.00  0.00    -0.287 OA
BRANCH  18  20
ATOM     20  N   UNL     1      39.809 134.928  17.918  1.00  0.00    -0.017 NA
BRANCH  20  21
ATOM     21  N   UNL     1      39.569 135.431  19.015  1.00  0.00     0.009 N 
ATOM     22  N   UNL     1      39.328 135.935  20.111  1.00  0.00    -0.003 NA
ENDBRANCH  20  21
ENDBRANCH  18  20
ENDBRANCH  13  18
ENDBRANCH   2   3
ENDBRANCH   1   2
BRANCH   1  23
ATOM     23  C   UNL     1      43.106 134.953  15.608  1.00  0.00     0.128 C 
BRANCH  23  24
ATOM     24  C   UNL     1      42.771 136.398  15.835  1.00  0.00     0.168 A 
ATOM     25  C   UNL     1      41.732 137.105  15.268  1.00  0.00     0.274 A 
ATOM     26  N   UNL     1      43.455 137.244  16.627  1.00  0.00    -0.148 N 
ATOM     27  N   UNL     1      41.822 138.360  15.752  1.00  0.00    -0.135 N 
ATOM     28  N   UNL     1      42.862 138.426  16.568  1.00  0.00     0.088 NA
ATOM     29  H   UNL     1      44.314 137.038  17.183  1.00  0.00     0.342 HD
BRANCH  27  30
ATOM     30  C   UNL     1      40.945 139.487  15.440  1.00  0.00     0.303 C 
BRANCH  30  31
ATOM     31  C   UNL     1      39.462 139.126  15.619  1.00  0.00     0.206 C 
BRANCH  31  32
ATOM     32  N   UNL     1      39.272 138.381  16.862  1.00  0.00    -0.219 NA
BRANCH  32  33
ATOM     33  C   UNL     1      39.479 138.909  18.002  1.00  0.00     0.059 C 
ATOM     34  S   UNL     1      39.740 139.582  19.442  1.00  0.00    -0.006 S 
ENDBRANCH  32  33
ENDBRANCH  31  32
BRANCH  31  35
ATOM     35  C   UNL     1      38.948 138.353  14.433  1.00  0.00     0.071 C 
ATOM     36  O   UNL     1      38.315 137.276  14.593  1.00  0.00    -0.548 OA
ATOM     37  O   UNL     1      39.218 138.802  13.147  1.00  0.00    -0.548 OA
ENDBRANCH  31  35
ENDBRANCH  30  31
ENDBRANCH  27  30
ENDBRANCH  23  24
ENDBRANCH   1  23
TORSDOF 14
ENDMDL
MODEL 7
REMARK VINA RESULT:      -5.2      3.104      5.095
REMARK SMILES [N-]=[N+]=NC(=O)c1cc2c3c(ccc(N=[N+]=[N-])c3c1OCCc1cn(C[C@H](N=C=S)C(=O)[O-])n[nH+]1)CC2
REMARK SMILES IDX 20 1 19 2 18 3 12 4 11 5 13 6 10 7 17 8 9 9 35 10 8 11 36 12
REMARK SMILES IDX 6 13 7 14 14 15 15 16 16 17 4 18 5 19 3 20 2 21 1 22 21 23
REMARK SMILES IDX 22 24 23 25 34 26 24 27 33 28 25 30 26 31 27 32 28 33 29 34
REMARK SMILES IDX 30 35 31 36 32 37
REMARK H PARENT 34 29
ROOT
ATOM      1  C   UNL     1      42.691 132.402  14.836  1.00  0.00     0.238 C 
ENDROOT
BRANCH   1   2
ATOM      2  O   UNL     1      42.144 132.113  16.125  1.00  0.00    -0.492 OA
BRANCH   2   3
ATOM      3  C   UNL     1      42.856 132.284  17.317  1.00  0.00     0.138 A 
ATOM      4  C   UNL     1      40.429 134.086  19.613  1.00  0.00     0.011 A 
ATOM      5  C   UNL     1      41.123 133.944  20.829  1.00  0.00     0.005 A 
ATOM      6  C   UNL     1      40.985 133.627  18.394  1.00  0.00     0.049 A 
ATOM      7  C   UNL     1      42.377 133.338  20.809  1.00  0.00    -0.039 A 
ATOM      8  C   UNL     1      42.242 132.948  18.412  1.00  0.00     0.035 A 
ATOM      9  C   UNL     1      42.890 132.865  19.643  1.00  0.00    -0.008 A 
ATOM     10  C   UNL     1      43.313 133.071  21.944  1.00  0.00     0.041 C 
ATOM     11  C   UNL     1      44.097 132.273  19.826  1.00  0.00    -0.039 A 
ATOM     12  C   UNL     1      44.510 132.352  21.262  1.00  0.00     0.041 C 
ATOM     13  C   UNL     1      44.176 131.747  17.464  1.00  0.00     0.067 A 
ATOM     14  C   UNL     1      44.783 131.728  18.744  1.00  0.00     0.020 A 
BRANCH   6  15
ATOM     15  N   UNL     1      40.274 133.920  17.187  1.00  0.00    -0.060 NA
BRANCH  15  16
ATOM     16  N   UNL     1      39.233 134.580  17.196  1.00  0.00     0.005 N 
ATOM     17  N   UNL     1      38.194 135.238  17.203  1.00  0.00    -0.003 NA
ENDBRANCH  15  16
ENDBRANCH   6  15
BRANCH  13  18
ATOM     18  C   UNL     1      44.956 131.269  16.295  1.00  0.00     0.252 C 
ATOM     19  O   UNL     1      44.807 130.090  15.870  1.00  0.00    -0.287 OA
BRANCH  18  20
ATOM     20  N   UNL     1      45.844 132.160  15.610  1.00  0.00    -0.017 NA
BRANCH  20  21
ATOM     21  N   UNL     1      46.487 131.793  14.628  1.00  0.00     0.009 N 
ATOM     22  N   UNL     1      47.129 131.424  13.645  1.00  0.00    -0.003 NA
ENDBRANCH  20  21
ENDBRANCH  18  20
ENDBRANCH  13  18
ENDBRANCH   2   3
ENDBRANCH   1   2
BRANCH   1  23
ATOM     23  C   UNL     1      42.120 133.705  14.261  1.00  0.00     0.128 C 
BRANCH  23  24
ATOM     24  C   UNL     1      42.637 134.912  14.989  1.00  0.00     0.168 A 
ATOM     25  C   UNL     1      42.091 136.179  14.983  1.00  0.00     0.274 A 
ATOM     26  N   UNL     1      43.740 134.948  15.759  1.00  0.00    -0.148 N 
ATOM     27  N   UNL     1      42.886 136.935  15.765  1.00  0.00    -0.135 N 
ATOM     28  N   UNL     1      43.872 136.179  16.224  1.00  0.00     0.088 NA
ATOM     29  H   UNL     1      44.403 134.165  15.954  1.00  0.00     0.342 HD
BRANCH  27  30
ATOM     30  C   UNL     1      42.727 138.356  16.066  1.00  0.00     0.303 C 
BRANCH  30  31
ATOM     31  C   UNL     1      41.479 138.624  16.923  1.00  0.00     0.206 C 
BRANCH  31  32
ATOM     32  N   UNL     1      41.264 137.520  17.857  1.00  0.00    -0.219 NA
BRANCH  32  33
ATOM     33  C   UNL     1      41.596 137.602  19.083  1.00  0.00     0.059 C 
ATOM     34  S   UNL     1      42.010 137.708  20.636  1.00  0.00    -0.006 S 
ENDBRANCH  32  33
ENDBRANCH  31  32
BRANCH  31  35
ATOM     35  C   UNL     1      40.269 138.851  16.056  1.00  0.00     0.071 C 
ATOM     36  O   UNL     1      39.163 138.321  16.345  1.00  0.00    -0.548 OA
ATOM     37  O   UNL     1      40.381 139.610  14.899  1.00  0.00    -0.548 OA
ENDBRANCH  31  35
ENDBRANCH  30  31
ENDBRANCH  27  30
ENDBRANCH  23  24
ENDBRANCH   1  23
TORSDOF 14
ENDMDL
MODEL 8
REMARK VINA RESULT:      -5.2      2.763      4.467
REMARK SMILES [N-]=[N+]=NC(=O)c1cc2c3c(ccc(N=[N+]=[N-])c3c1OCCc1cn(C[C@H](N=C=S)C(=O)[O-])n[nH+]1)CC2
REMARK SMILES IDX 20 1 19 2 18 3 12 4 11 5 13 6 10 7 17 8 9 9 35 10 8 11 36 12
REMARK SMILES IDX 6 13 7 14 14 15 15 16 16 17 4 18 5 19 3 20 2 21 1 22 21 23
REMARK SMILES IDX 22 24 23 25 34 26 24 27 33 28 25 30 26 31 27 32 28 33 29 34
REMARK SMILES IDX 30 35 31 36 32 37
REMARK H PARENT 34 29
ROOT
ATOM      1  C   UNL     1      43.945 131.724  20.788  1.00  0.00     0.238 C 
ENDROOT
BRANCH   1   2
ATOM      2  O   UNL     1      44.856 132.246  19.817  1.00  0.00    -0.492 OA
BRANCH   2   3
ATOM      3  C   UNL     1      44.629 133.432  19.111  1.00  0.00     0.138 A 
ATOM      4  C   UNL     1      43.917 132.292  15.561  1.00  0.00     0.011 A 
ATOM      5  C   UNL     1      43.430 133.502  15.031  1.00  0.00     0.005 A 
ATOM      6  C   UNL     1      44.406 132.219  16.888  1.00  0.00     0.049 A 
ATOM      7  C   UNL     1      43.438 134.632  15.843  1.00  0.00    -0.039 A 
ATOM      8  C   UNL     1      44.340 133.377  17.721  1.00  0.00     0.035 A 
ATOM      9  C   UNL     1      43.873 134.549  17.129  1.00  0.00    -0.008 A 
ATOM     10  C   UNL     1      42.987 136.023  15.529  1.00  0.00     0.041 C 
ATOM     11  C   UNL     1      43.770 135.737  17.775  1.00  0.00    -0.039 A 
ATOM     12  C   UNL     1      43.234 136.790  16.858  1.00  0.00     0.041 C 
ATOM     13  C   UNL     1      44.628 134.696  19.786  1.00  0.00     0.067 A 
ATOM     14  C   UNL     1      44.170 135.850  19.103  1.00  0.00     0.020 A 
BRANCH   6  15
ATOM     15  N   UNL     1      44.998 130.986  17.311  1.00  0.00    -0.060 NA
BRANCH  15  16
ATOM     16  N   UNL     1      45.984 130.516  16.740  1.00  0.00     0.005 N 
ATOM     17  N   UNL     1      46.967 130.044  16.172  1.00  0.00    -0.003 NA
ENDBRANCH  15  16
ENDBRANCH   6  15
BRANCH  13  18
ATOM     18  C   UNL     1      45.160 134.842  21.164  1.00  0.00     0.252 C 
ATOM     19  O   UNL     1      46.406 134.865  21.365  1.00  0.00    -0.287 OA
BRANCH  18  20
ATOM     20  N   UNL     1      44.263 135.008  22.267  1.00  0.00    -0.017 NA
BRANCH  20  21
ATOM     21  N   UNL     1      44.411 134.377  23.313  1.00  0.00     0.009 N 
ATOM     22  N   UNL     1      44.558 133.748  24.360  1.00  0.00    -0.003 NA
ENDBRANCH  20  21
ENDBRANCH  18  20
ENDBRANCH  13  18
ENDBRANCH   2   3
ENDBRANCH   1   2
BRANCH   1  23
ATOM     23  C   UNL     1      42.537 131.549  20.201  1.00  0.00     0.128 C 
BRANCH  23  24
ATOM     24  C   UNL     1      41.728 132.808  20.304  1.00  0.00     0.168 A 
ATOM     25  C   UNL     1      41.071 133.456  19.278  1.00  0.00     0.274 A 
ATOM     26  N   UNL     1      41.528 133.520  21.429  1.00  0.00    -0.148 N 
ATOM     27  N   UNL     1      40.486 134.538  19.829  1.00  0.00    -0.135 N 
ATOM     28  N   UNL     1      40.770 134.561  21.123  1.00  0.00     0.088 NA
ATOM     29  H   UNL     1      41.908 133.322  22.381  1.00  0.00     0.342 HD
BRANCH  27  30
ATOM     30  C   UNL     1      39.680 135.545  19.144  1.00  0.00     0.303 C 
BRANCH  30  31
ATOM     31  C   UNL     1      38.895 134.947  17.966  1.00  0.00     0.206 C 
BRANCH  31  32
ATOM     32  N   UNL     1      39.694 135.015  16.743  1.00  0.00    -0.219 NA
BRANCH  32  33
ATOM     33  C   UNL     1      39.261 134.573  15.631  1.00  0.00     0.059 C 
ATOM     34  S   UNL     1      38.709 134.014  14.225  1.00  0.00    -0.006 S 
ENDBRANCH  32  33
ENDBRANCH  31  32
BRANCH  31  35
ATOM     35  C   UNL     1      37.569 135.641  17.793  1.00  0.00     0.071 C 
ATOM     36  O   UNL     1      37.500 136.898  17.778  1.00  0.00    -0.548 OA
ATOM     37  O   UNL     1      36.404 134.891  17.701  1.00  0.00    -0.548 OA
ENDBRANCH  31  35
ENDBRANCH  30  31
ENDBRANCH  27  30
ENDBRANCH  23  24
ENDBRANCH   1  23
TORSDOF 14
ENDMDL
MODEL 9
REMARK VINA RESULT:      -4.8      2.771      4.936
REMARK SMILES [N-]=[N+]=NC(=O)c1cc2c3c(ccc(N=[N+]=[N-])c3c1OCCc1cn(C[C@H](N=C=S)C(=O)[O-])n[nH+]1)CC2
REMARK SMILES IDX 20 1 19 2 18 3 12 4 11 5 13 6 10 7 17 8 9 9 35 10 8 11 36 12
REMARK SMILES IDX 6 13 7 14 14 15 15 16 16 17 4 18 5 19 3 20 2 21 1 22 21 23
REMARK SMILES IDX 22 24 23 25 34 26 24 27 33 28 25 30 26 31 27 32 28 33 29 34
REMARK SMILES IDX 30 35 31 36 32 37
REMARK H PARENT 34 29
ROOT
ATOM      1  C   UNL     1      42.973 133.044  16.100  1.00  0.00     0.238 C 
ENDROOT
BRANCH   1   2
ATOM      2  O   UNL     1      44.060 133.594  16.849  1.00  0.00    -0.492 OA
BRANCH   2   3
ATOM      3  C   UNL     1      44.004 133.824  18.227  1.00  0.00     0.138 A 
ATOM      4  C   UNL     1      45.764 130.827  19.754  1.00  0.00     0.011 A 
ATOM      5  C   UNL     1      45.903 131.297  21.073  1.00  0.00     0.005 A 
ATOM      6  C   UNL     1      45.073 131.583  18.777  1.00  0.00     0.049 A 
ATOM      7  C   UNL     1      45.344 132.529  21.400  1.00  0.00    -0.039 A 
ATOM      8  C   UNL     1      44.568 132.874  19.121  1.00  0.00     0.035 A 
ATOM      9  C   UNL     1      44.714 133.269  20.450  1.00  0.00    -0.008 A 
ATOM     10  C   UNL     1      45.344 133.246  22.712  1.00  0.00     0.041 C 
ATOM     11  C   UNL     1      44.271 134.453  20.942  1.00  0.00    -0.039 A 
ATOM     12  C   UNL     1      44.587 134.567  22.400  1.00  0.00     0.041 C 
ATOM     13  C   UNL     1      43.435 135.033  18.745  1.00  0.00     0.067 A 
ATOM     14  C   UNL     1      43.597 135.348  20.117  1.00  0.00     0.020 A 
BRANCH   6  15
ATOM     15  N   UNL     1      44.868 130.982  17.494  1.00  0.00    -0.060 NA
BRANCH  15  16
ATOM     16  N   UNL     1      45.809 130.544  16.829  1.00  0.00     0.005 N 
ATOM     17  N   UNL     1      46.750 130.108  16.169  1.00  0.00    -0.003 NA
ENDBRANCH  15  16
ENDBRANCH   6  15
BRANCH  13  18
ATOM     18  C   UNL     1      42.619 135.934  17.894  1.00  0.00     0.252 C 
ATOM     19  O   UNL     1      41.367 135.985  18.039  1.00  0.00    -0.287 OA
BRANCH  18  20
ATOM     20  N   UNL     1      43.255 136.790  16.937  1.00  0.00    -0.017 NA
BRANCH  20  21
ATOM     21  N   UNL     1      43.272 138.011  17.083  1.00  0.00     0.009 N 
ATOM     22  N   UNL     1      43.292 139.233  17.228  1.00  0.00    -0.003 NA
ENDBRANCH  20  21
ENDBRANCH  18  20
ENDBRANCH  13  18
ENDBRANCH   2   3
ENDBRANCH   1   2
BRANCH   1  23
ATOM     23  C   UNL     1      42.742 133.815  14.794  1.00  0.00     0.128 C 
BRANCH  23  24
ATOM     24  C   UNL     1      41.297 134.172  14.602  1.00  0.00     0.168 A 
ATOM     25  C   UNL     1      40.268 133.967  15.497  1.00  0.00     0.274 A 
ATOM     26  N   UNL     1      40.772 134.743  13.502  1.00  0.00    -0.148 N 
ATOM     27  N   UNL     1      39.153 134.434  14.903  1.00  0.00    -0.135 N 
ATOM     28  N   UNL     1      39.474 134.899  13.705  1.00  0.00     0.088 NA
ATOM     29  H   UNL     1      41.272 135.008  12.625  1.00  0.00     0.342 HD
BRANCH  27  30
ATOM     30  C   UNL     1      37.798 134.434  15.451  1.00  0.00     0.303 C 
BRANCH  30  31
ATOM     31  C   UNL     1      37.517 135.692  16.288  1.00  0.00     0.206 C 
BRANCH  31  32
ATOM     32  N   UNL     1      38.538 136.706  16.027  1.00  0.00    -0.219 NA
BRANCH  32  33
ATOM     33  C   UNL     1      38.565 137.811  16.658  1.00  0.00     0.059 C 
ATOM     34  S   UNL     1      38.595 139.212  17.453  1.00  0.00    -0.006 S 
ENDBRANCH  32  33
ENDBRANCH  31  32
BRANCH  31  35
ATOM     35  C   UNL     1      37.438 135.358  17.754  1.00  0.00     0.071 C 
ATOM     36  O   UNL     1      38.278 134.581  18.282  1.00  0.00    -0.548 OA
ATOM     37  O   UNL     1      36.401 135.868  18.523  1.00  0.00    -0.548 OA
ENDBRANCH  31  35
ENDBRANCH  30  31
ENDBRANCH  27  30
ENDBRANCH  23  24
ENDBRANCH   1  23
TORSDOF 14
ENDMDL


