MODEL 1
REMARK VINA RESULT:      -7.5      0.000      0.000
REMARK SMILES C#CC[N+](C)(C)Cc1c(C)cc(N2C[C@@H](C)[C@@H](C)[C@@H]2C)c2ccccc12
REMARK SMILES IDX 4 1 5 2 6 3 3 4 2 5 1 6 7 7 8 8 9 9 26 10 11 11 25 12 21 13
REMARK SMILES IDX 12 14 24 15 22 16 23 17 10 18 13 19 14 20 19 21 15 22 17 23
REMARK SMILES IDX 20 24 16 25 18 26
REMARK H PARENT
ROOT
ATOM      1  N   UNL     1      45.733 130.751  15.191  1.00  0.00    -0.315 N 
ATOM      2  C   UNL     1      46.909 129.922  15.556  1.00  0.00     0.335 C 
ATOM      3  C   UNL     1      46.165 132.170  15.177  1.00  0.00     0.335 C 
ENDROOT
BRANCH   1   4
ATOM      4  C   UNL     1      45.322 130.341  13.812  1.00  0.00     0.355 C 
BRANCH   4   5
ATOM      5  C   UNL     1      46.397 130.469  12.806  1.00  0.00    -0.047 C 
ATOM      6  C   UNL     1      47.274 130.572  11.986  1.00  0.00     0.010 C 
ENDBRANCH   4   5
ENDBRANCH   1   4
BRANCH   1   7
ATOM      7  C   UNL     1      44.587 130.540  16.145  1.00  0.00     0.302 C 
BRANCH   7   8
ATOM      8  C   UNL     1      44.183 131.773  16.984  1.00  0.00     0.017 A 
ATOM      9  C   UNL     1      43.333 132.773  16.424  1.00  0.00    -0.040 A 
ATOM     10  C   UNL     1      44.645 131.952  18.329  1.00  0.00    -0.007 A 
ATOM     11  C   UNL     1      43.154 133.989  17.093  1.00  0.00     0.030 A 
ATOM     12  C   UNL     1      45.296 130.923  19.053  1.00  0.00     0.009 A 
ATOM     13  C   UNL     1      44.434 133.199  18.988  1.00  0.00     0.006 A 
ATOM     14  C   UNL     1      43.719 134.222  18.342  1.00  0.00     0.045 A 
ATOM     15  C   UNL     1      45.767 131.137  20.349  1.00  0.00     0.001 A 
ATOM     16  C   UNL     1      44.920 133.391  20.298  1.00  0.00     0.011 A 
ATOM     17  C   UNL     1      45.587 132.369  20.966  1.00  0.00     0.001 A 
ATOM     18  C   UNL     1      42.565 132.574  15.137  1.00  0.00     0.045 C 
BRANCH  14  19
ATOM     19  N   UNL     1      43.524 135.502  18.964  1.00  0.00    -0.368 N 
ATOM     20  C   UNL     1      44.505 136.569  18.845  1.00  0.00     0.120 C 
ATOM     21  C   UNL     1      42.224 135.977  19.418  1.00  0.00     0.082 C 
ATOM     22  C   UNL     1      43.724 137.872  19.053  1.00  0.00     0.010 C 
ATOM     23  C   UNL     1      42.473 137.431  19.849  1.00  0.00     0.013 C 
ATOM     24  C   UNL     1      41.699 135.113  20.569  1.00  0.00     0.031 C 
ATOM     25  C   UNL     1      43.402 138.524  17.695  1.00  0.00     0.010 C 
ATOM     26  C   UNL     1      41.233 138.325  19.692  1.00  0.00     0.010 C 
ENDBRANCH  14  19
ENDBRANCH   7   8
ENDBRANCH   1   7
TORSDOF 5
ENDMDL
MODEL 2
REMARK VINA RESULT:      -7.3      1.045      1.934
REMARK SMILES C#CC[N+](C)(C)Cc1c(C)cc(N2C[C@@H](C)[C@@H](C)[C@@H]2C)c2ccccc12
REMARK SMILES IDX 4 1 5 2 6 3 3 4 2 5 1 6 7 7 8 8 9 9 26 10 11 11 25 12 21 13
REMARK SMILES IDX 12 14 24 15 22 16 23 17 10 18 13 19 14 20 19 21 15 22 17 23
REMARK SMILES IDX 20 24 16 25 18 26
REMARK H PARENT
ROOT
ATOM      1  N   UNL     1      45.611 130.909  15.313  1.00  0.00    -0.315 N 
ATOM      2  C   UNL     1      46.827 130.122  15.642  1.00  0.00     0.335 C 
ATOM      3  C   UNL     1      45.979 132.346  15.349  1.00  0.00     0.335 C 
ENDROOT
BRANCH   1   4
ATOM      4  C   UNL     1      45.210 130.531  13.922  1.00  0.00     0.355 C 
BRANCH   4   5
ATOM      5  C   UNL     1      46.327 130.545  12.955  1.00  0.00    -0.047 C 
ATOM      6  C   UNL     1      47.238 130.557  12.164  1.00  0.00     0.010 C 
ENDBRANCH   4   5
ENDBRANCH   1   4
BRANCH   1   7
ATOM      7  C   UNL     1      44.482 130.612  16.264  1.00  0.00     0.302 C 
BRANCH   7   8
ATOM      8  C   UNL     1      44.115 131.753  17.239  1.00  0.00     0.017 A 
ATOM      9  C   UNL     1      43.169 132.748  16.853  1.00  0.00    -0.040 A 
ATOM     10  C   UNL     1      44.706 131.849  18.541  1.00  0.00    -0.007 A 
ATOM     11  C   UNL     1      43.007 133.897  17.636  1.00  0.00     0.030 A 
ATOM     12  C   UNL     1      45.474 130.802  19.108  1.00  0.00     0.009 A 
ATOM     13  C   UNL     1      44.511 133.028  19.320  1.00  0.00     0.006 A 
ATOM     14  C   UNL     1      43.690 134.061  18.837  1.00  0.00     0.045 A 
ATOM     15  C   UNL     1      46.068 130.937  20.363  1.00  0.00     0.001 A 
ATOM     16  C   UNL     1      45.123 133.141  20.585  1.00  0.00     0.011 A 
ATOM     17  C   UNL     1      45.900 132.106  21.095  1.00  0.00     0.001 A 
ATOM     18  C   UNL     1      42.279 132.611  15.638  1.00  0.00     0.045 C 
BRANCH  14  19
ATOM     19  N   UNL     1      43.504 135.276  19.580  1.00  0.00    -0.368 N 
ATOM     20  C   UNL     1      42.473 135.400  20.599  1.00  0.00     0.120 C 
ATOM     21  C   UNL     1      44.519 136.316  19.672  1.00  0.00     0.082 C 
ATOM     22  C   UNL     1      42.965 136.498  21.550  1.00  0.00     0.010 C 
ATOM     23  C   UNL     1      43.952 137.320  20.688  1.00  0.00     0.013 C 
ATOM     24  C   UNL     1      44.771 136.956  18.303  1.00  0.00     0.031 C 
ATOM     25  C   UNL     1      43.603 135.872  22.804  1.00  0.00     0.010 C 
ATOM     26  C   UNL     1      45.045 138.075  21.462  1.00  0.00     0.010 C 
ENDBRANCH  14  19
ENDBRANCH   7   8
ENDBRANCH   1   7
TORSDOF 5
ENDMDL
MODEL 3
REMARK VINA RESULT:      -7.1      1.538      1.865
REMARK SMILES C#CC[N+](C)(C)Cc1c(C)cc(N2C[C@@H](C)[C@@H](C)[C@@H]2C)c2ccccc12
REMARK SMILES IDX 4 1 5 2 6 3 3 4 2 5 1 6 7 7 8 8 9 9 26 10 11 11 25 12 21 13
REMARK SMILES IDX 12 14 24 15 22 16 23 17 10 18 13 19 14 20 19 21 15 22 17 23
REMARK SMILES IDX 20 24 16 25 18 26
REMARK H PARENT
ROOT
ATOM      1  N   UNL     1      45.922 130.333  15.274  1.00  0.00    -0.315 N 
ATOM      2  C   UNL     1      46.807 129.901  16.385  1.00  0.00     0.335 C 
ATOM      3  C   UNL     1      46.323 131.707  14.884  1.00  0.00     0.335 C 
ENDROOT
BRANCH   1   4
ATOM      4  C   UNL     1      46.169 129.398  14.131  1.00  0.00     0.355 C 
BRANCH   4   5
ATOM      5  C   UNL     1      46.743 130.053  12.938  1.00  0.00    -0.047 C 
ATOM      6  C   UNL     1      47.212 130.586  11.964  1.00  0.00     0.010 C 
ENDBRANCH   4   5
ENDBRANCH   1   4
BRANCH   1   7
ATOM      7  C   UNL     1      44.469 130.281  15.667  1.00  0.00     0.302 C 
BRANCH   7   8
ATOM      8  C   UNL     1      43.841 131.631  16.077  1.00  0.00     0.017 A 
ATOM      9  C   UNL     1      43.083 132.385  15.133  1.00  0.00    -0.040 A 
ATOM     10  C   UNL     1      44.000 132.164  17.399  1.00  0.00    -0.007 A 
ATOM     11  C   UNL     1      42.711 133.701  15.430  1.00  0.00     0.030 A 
ATOM     12  C   UNL     1      44.531 131.401  18.468  1.00  0.00     0.009 A 
ATOM     13  C   UNL     1      43.597 133.504  17.673  1.00  0.00     0.006 A 
ATOM     14  C   UNL     1      42.989 134.274  16.667  1.00  0.00     0.045 A 
ATOM     15  C   UNL     1      44.706 131.956  19.735  1.00  0.00     0.001 A 
ATOM     16  C   UNL     1      43.787 134.043  18.962  1.00  0.00     0.011 A 
ATOM     17  C   UNL     1      44.344 133.275  19.980  1.00  0.00     0.001 A 
ATOM     18  C   UNL     1      42.613 131.817  13.813  1.00  0.00     0.045 C 
BRANCH  14  19
ATOM     19  N   UNL     1      42.607 135.639  16.901  1.00  0.00    -0.368 N 
ATOM     20  C   UNL     1      43.502 136.745  16.602  1.00  0.00     0.120 C 
ATOM     21  C   UNL     1      41.224 136.061  17.076  1.00  0.00     0.082 C 
ATOM     22  C   UNL     1      42.594 137.959  16.372  1.00  0.00     0.010 C 
ATOM     23  C   UNL     1      41.292 137.595  17.125  1.00  0.00     0.013 C 
ATOM     24  C   UNL     1      40.630 135.465  18.356  1.00  0.00     0.031 C 
ATOM     25  C   UNL     1      42.396 138.201  14.864  1.00  0.00     0.010 C 
ATOM     26  C   UNL     1      40.012 138.271  16.609  1.00  0.00     0.010 C 
ENDBRANCH  14  19
ENDBRANCH   7   8
ENDBRANCH   1   7
TORSDOF 5
ENDMDL
MODEL 4
REMARK VINA RESULT:      -7.1      1.258      3.639
REMARK SMILES C#CC[N+](C)(C)Cc1c(C)cc(N2C[C@@H](C)[C@@H](C)[C@@H]2C)c2ccccc12
REMARK SMILES IDX 4 1 5 2 6 3 3 4 2 5 1 6 7 7 8 8 9 9 26 10 11 11 25 12 21 13
REMARK SMILES IDX 12 14 24 15 22 16 23 17 10 18 13 19 14 20 19 21 15 22 17 23
REMARK SMILES IDX 20 24 16 25 18 26
REMARK H PARENT
ROOT
ATOM      1  N   UNL     1      45.551 130.758  15.185  1.00  0.00    -0.315 N 
ATOM      2  C   UNL     1      46.703 129.915  15.594  1.00  0.00     0.335 C 
ATOM      3  C   UNL     1      45.963 132.178  15.311  1.00  0.00     0.335 C 
ENDROOT
BRANCH   1   4
ATOM      4  C   UNL     1      45.270 130.446  13.749  1.00  0.00     0.355 C 
BRANCH   4   5
ATOM      5  C   UNL     1      46.457 130.543  12.874  1.00  0.00    -0.047 C 
ATOM      6  C   UNL     1      47.426 130.622  12.161  1.00  0.00     0.010 C 
ENDBRANCH   4   5
ENDBRANCH   1   4
BRANCH   1   7
ATOM      7  C   UNL     1      44.328 130.470  16.015  1.00  0.00     0.302 C 
BRANCH   7   8
ATOM      8  C   UNL     1      43.751 131.675  16.791  1.00  0.00     0.017 A 
ATOM      9  C   UNL     1      44.135 131.905  18.145  1.00  0.00    -0.040 A 
ATOM     10  C   UNL     1      42.823 132.585  16.186  1.00  0.00    -0.007 A 
ATOM     11  C   UNL     1      43.448 132.851  18.914  1.00  0.00     0.030 A 
ATOM     12  C   UNL     1      42.554 132.584  14.795  1.00  0.00     0.009 A 
ATOM     13  C   UNL     1      42.149 133.547  16.995  1.00  0.00     0.006 A 
ATOM     14  C   UNL     1      42.444 133.643  18.365  1.00  0.00     0.045 A 
ATOM     15  C   UNL     1      41.619 133.458  14.239  1.00  0.00     0.001 A 
ATOM     16  C   UNL     1      41.208 134.418  16.409  1.00  0.00     0.011 A 
ATOM     17  C   UNL     1      40.942 134.366  15.044  1.00  0.00     0.001 A 
ATOM     18  C   UNL     1      45.298 131.196  18.803  1.00  0.00     0.045 C 
BRANCH  14  19
ATOM     19  N   UNL     1      41.754 134.575  19.213  1.00  0.00    -0.368 N 
ATOM     20  C   UNL     1      40.481 134.246  19.836  1.00  0.00     0.120 C 
ATOM     21  C   UNL     1      42.403 135.726  19.825  1.00  0.00     0.082 C 
ATOM     22  C   UNL     1      40.389 135.139  21.079  1.00  0.00     0.010 C 
ATOM     23  C   UNL     1      41.337 136.319  20.759  1.00  0.00     0.013 C 
ATOM     24  C   UNL     1      42.860 136.726  18.758  1.00  0.00     0.031 C 
ATOM     25  C   UNL     1      40.785 134.344  22.338  1.00  0.00     0.010 C 
ATOM     26  C   UNL     1      41.938 137.041  21.976  1.00  0.00     0.010 C 
ENDBRANCH  14  19
ENDBRANCH   7   8
ENDBRANCH   1   7
TORSDOF 5
ENDMDL
MODEL 5
REMARK VINA RESULT:      -7.1      0.578      1.004
REMARK SMILES C#CC[N+](C)(C)Cc1c(C)cc(N2C[C@@H](C)[C@@H](C)[C@@H]2C)c2ccccc12
REMARK SMILES IDX 4 1 5 2 6 3 3 4 2 5 1 6 7 7 8 8 9 9 26 10 11 11 25 12 21 13
REMARK SMILES IDX 12 14 24 15 22 16 23 17 10 18 13 19 14 20 19 21 15 22 17 23
REMARK SMILES IDX 20 24 16 25 18 26
REMARK H PARENT
ROOT
ATOM      1  N   UNL     1      45.608 130.765  15.016  1.00  0.00    -0.315 N 
ATOM      2  C   UNL     1      46.227 132.106  15.165  1.00  0.00     0.335 C 
ATOM      3  C   UNL     1      45.189 130.614  13.601  1.00  0.00     0.335 C 
ENDROOT
BRANCH   1   4
ATOM      4  C   UNL     1      46.668 129.757  15.332  1.00  0.00     0.355 C 
BRANCH   4   5
ATOM      5  C   UNL     1      47.655 129.569  14.249  1.00  0.00    -0.047 C 
ATOM      6  C   UNL     1      48.462 129.416  13.366  1.00  0.00     0.010 C 
ENDBRANCH   4   5
ENDBRANCH   1   4
BRANCH   1   7
ATOM      7  C   UNL     1      44.441 130.584  15.951  1.00  0.00     0.302 C 
BRANCH   7   8
ATOM      8  C   UNL     1      44.053 131.828  16.780  1.00  0.00     0.017 A 
ATOM      9  C   UNL     1      43.212 132.832  16.214  1.00  0.00    -0.040 A 
ATOM     10  C   UNL     1      44.521 132.014  18.122  1.00  0.00    -0.007 A 
ATOM     11  C   UNL     1      43.047 134.055  16.873  1.00  0.00     0.030 A 
ATOM     12  C   UNL     1      45.165 130.985  18.853  1.00  0.00     0.009 A 
ATOM     13  C   UNL     1      44.325 133.269  18.771  1.00  0.00     0.006 A 
ATOM     14  C   UNL     1      43.619 134.294  18.118  1.00  0.00     0.045 A 
ATOM     15  C   UNL     1      45.642 131.205  20.145  1.00  0.00     0.001 A 
ATOM     16  C   UNL     1      44.818 133.467  20.077  1.00  0.00     0.011 A 
ATOM     17  C   UNL     1      45.477 132.444  20.752  1.00  0.00     0.001 A 
ATOM     18  C   UNL     1      42.437 132.629  14.932  1.00  0.00     0.045 C 
BRANCH  14  19
ATOM     19  N   UNL     1      43.439 135.581  18.730  1.00  0.00    -0.368 N 
ATOM     20  C   UNL     1      44.424 136.642  18.586  1.00  0.00     0.120 C 
ATOM     21  C   UNL     1      42.148 136.067  19.197  1.00  0.00     0.082 C 
ATOM     22  C   UNL     1      43.652 137.951  18.791  1.00  0.00     0.010 C 
ATOM     23  C   UNL     1      42.410 137.524  19.609  1.00  0.00     0.013 C 
ATOM     24  C   UNL     1      41.635 135.218  20.364  1.00  0.00     0.031 C 
ATOM     25  C   UNL     1      43.314 138.591  17.431  1.00  0.00     0.010 C 
ATOM     26  C   UNL     1      41.172 138.423  19.461  1.00  0.00     0.010 C 
ENDBRANCH  14  19
ENDBRANCH   7   8
ENDBRANCH   1   7
TORSDOF 5
ENDMDL
MODEL 6
REMARK VINA RESULT:      -6.9      1.149      2.054
REMARK SMILES C#CC[N+](C)(C)Cc1c(C)cc(N2C[C@@H](C)[C@@H](C)[C@@H]2C)c2ccccc12
REMARK SMILES IDX 4 1 5 2 6 3 3 4 2 5 1 6 7 7 8 8 9 9 26 10 11 11 25 12 21 13
REMARK SMILES IDX 12 14 24 15 22 16 23 17 10 18 13 19 14 20 19 21 15 22 17 23
REMARK SMILES IDX 20 24 16 25 18 26
REMARK H PARENT
ROOT
ATOM      1  N   UNL     1      45.694 130.807  15.237  1.00  0.00    -0.315 N 
ATOM      2  C   UNL     1      46.779 130.019  15.872  1.00  0.00     0.335 C 
ATOM      3  C   UNL     1      46.133 132.224  15.187  1.00  0.00     0.335 C 
ENDROOT
BRANCH   1   4
ATOM      4  C   UNL     1      45.533 130.285  13.844  1.00  0.00     0.355 C 
BRANCH   4   5
ATOM      5  C   UNL     1      46.682 130.577  12.961  1.00  0.00    -0.047 C 
ATOM      6  C   UNL     1      47.618 130.817  12.241  1.00  0.00     0.010 C 
ENDBRANCH   4   5
ENDBRANCH   1   4
BRANCH   1   7
ATOM      7  C   UNL     1      44.393 130.667  15.984  1.00  0.00     0.302 C 
BRANCH   7   8
ATOM      8  C   UNL     1      43.724 131.992  16.411  1.00  0.00     0.017 A 
ATOM      9  C   UNL     1      42.861 132.682  15.509  1.00  0.00    -0.040 A 
ATOM     10  C   UNL     1      43.948 132.564  17.706  1.00  0.00    -0.007 A 
ATOM     11  C   UNL     1      42.440 133.983  15.805  1.00  0.00     0.030 A 
ATOM     12  C   UNL     1      44.595 131.857  18.749  1.00  0.00     0.009 A 
ATOM     13  C   UNL     1      43.494 133.888  17.981  1.00  0.00     0.006 A 
ATOM     14  C   UNL     1      42.774 134.600  17.007  1.00  0.00     0.045 A 
ATOM     15  C   UNL     1      44.830 132.451  19.989  1.00  0.00     0.001 A 
ATOM     16  C   UNL     1      43.746 134.468  19.242  1.00  0.00     0.011 A 
ATOM     17  C   UNL     1      44.415 133.755  20.232  1.00  0.00     0.001 A 
ATOM     18  C   UNL     1      42.330 132.058  14.239  1.00  0.00     0.045 C 
BRANCH  14  19
ATOM     19  N   UNL     1      42.337 135.948  17.239  1.00  0.00    -0.368 N 
ATOM     20  C   UNL     1      41.376 136.272  18.282  1.00  0.00     0.120 C 
ATOM     21  C   UNL     1      43.061 137.116  16.755  1.00  0.00     0.082 C 
ATOM     22  C   UNL     1      41.636 137.741  18.639  1.00  0.00     0.010 C 
ATOM     23  C   UNL     1      42.326 138.312  17.378  1.00  0.00     0.013 C 
ATOM     24  C   UNL     1      43.054 137.165  15.223  1.00  0.00     0.031 C 
ATOM     25  C   UNL     1      42.491 137.837  19.917  1.00  0.00     0.010 C 
ATOM     26  C   UNL     1      43.241 139.525  17.610  1.00  0.00     0.010 C 
ENDBRANCH  14  19
ENDBRANCH   7   8
ENDBRANCH   1   7
TORSDOF 5
ENDMDL
MODEL 7
REMARK VINA RESULT:      -6.8      1.573      3.510
REMARK SMILES C#CC[N+](C)(C)Cc1c(C)cc(N2C[C@@H](C)[C@@H](C)[C@@H]2C)c2ccccc12
REMARK SMILES IDX 4 1 5 2 6 3 3 4 2 5 1 6 7 7 8 8 9 9 26 10 11 11 25 12 21 13
REMARK SMILES IDX 12 14 24 15 22 16 23 17 10 18 13 19 14 20 19 21 15 22 17 23
REMARK SMILES IDX 20 24 16 25 18 26
REMARK H PARENT
ROOT
ATOM      1  N   UNL     1      45.247 130.861  15.412  1.00  0.00    -0.315 N 
ATOM      2  C   UNL     1      45.955 129.677  15.958  1.00  0.00     0.335 C 
ATOM      3  C   UNL     1      46.188 132.008  15.449  1.00  0.00     0.335 C 
ENDROOT
BRANCH   1   4
ATOM      4  C   UNL     1      44.901 130.546  13.991  1.00  0.00     0.355 C 
BRANCH   4   5
ATOM      5  C   UNL     1      46.066 130.527  13.083  1.00  0.00    -0.047 C 
ATOM      6  C   UNL     1      47.017 130.511  12.343  1.00  0.00     0.010 C 
ENDBRANCH   4   5
ENDBRANCH   1   4
BRANCH   1   7
ATOM      7  C   UNL     1      43.991 131.164  16.185  1.00  0.00     0.302 C 
BRANCH   7   8
ATOM      8  C   UNL     1      44.043 132.425  17.075  1.00  0.00     0.017 A 
ATOM      9  C   UNL     1      44.514 132.335  18.419  1.00  0.00    -0.040 A 
ATOM     10  C   UNL     1      43.624 133.707  16.589  1.00  0.00    -0.007 A 
ATOM     11  C   UNL     1      44.350 133.418  19.289  1.00  0.00     0.030 A 
ATOM     12  C   UNL     1      43.359 133.952  15.219  1.00  0.00     0.009 A 
ATOM     13  C   UNL     1      43.480 134.795  17.500  1.00  0.00     0.006 A 
ATOM     14  C   UNL     1      43.810 134.625  18.855  1.00  0.00     0.045 A 
ATOM     15  C   UNL     1      42.919 135.200  14.779  1.00  0.00     0.001 A 
ATOM     16  C   UNL     1      43.031 136.047  17.031  1.00  0.00     0.011 A 
ATOM     17  C   UNL     1      42.747 136.241  15.683  1.00  0.00     0.001 A 
ATOM     18  C   UNL     1      45.235 131.120  18.958  1.00  0.00     0.045 C 
BRANCH  14  19
ATOM     19  N   UNL     1      43.639 135.689  19.804  1.00  0.00    -0.368 N 
ATOM     20  C   UNL     1      42.387 135.884  20.518  1.00  0.00     0.120 C 
ATOM     21  C   UNL     1      44.754 136.402  20.412  1.00  0.00     0.082 C 
ATOM     22  C   UNL     1      42.761 136.627  21.807  1.00  0.00     0.010 C 
ATOM     23  C   UNL     1      44.104 137.313  21.463  1.00  0.00     0.013 C 
ATOM     24  C   UNL     1      45.535 137.196  19.359  1.00  0.00     0.031 C 
ATOM     25  C   UNL     1      42.848 135.640  22.987  1.00  0.00     0.010 C 
ATOM     26  C   UNL     1      45.026 137.610  22.656  1.00  0.00     0.010 C 
ENDBRANCH  14  19
ENDBRANCH   7   8
ENDBRANCH   1   7
TORSDOF 5
ENDMDL
MODEL 8
REMARK VINA RESULT:      -6.7      1.404      3.736
REMARK SMILES C#CC[N+](C)(C)Cc1c(C)cc(N2C[C@@H](C)[C@@H](C)[C@@H]2C)c2ccccc12
REMARK SMILES IDX 4 1 5 2 6 3 3 4 2 5 1 6 7 7 8 8 9 9 26 10 11 11 25 12 21 13
REMARK SMILES IDX 12 14 24 15 22 16 23 17 10 18 13 19 14 20 19 21 15 22 17 23
REMARK SMILES IDX 20 24 16 25 18 26
REMARK H PARENT
ROOT
ATOM      1  N   UNL     1      45.613 130.646  14.918  1.00  0.00    -0.315 N 
ATOM      2  C   UNL     1      46.146 132.012  15.153  1.00  0.00     0.335 C 
ATOM      3  C   UNL     1      45.280 130.533  13.477  1.00  0.00     0.335 C 
ENDROOT
BRANCH   1   4
ATOM      4  C   UNL     1      46.710 129.686  15.254  1.00  0.00     0.355 C 
BRANCH   4   5
ATOM      5  C   UNL     1      47.732 129.553  14.195  1.00  0.00    -0.047 C 
ATOM      6  C   UNL     1      48.566 129.444  13.331  1.00  0.00     0.010 C 
ENDBRANCH   4   5
ENDBRANCH   1   4
BRANCH   1   7
ATOM      7  C   UNL     1      44.410 130.363  15.779  1.00  0.00     0.302 C 
BRANCH   7   8
ATOM      8  C   UNL     1      43.934 131.535  16.665  1.00  0.00     0.017 A 
ATOM      9  C   UNL     1      44.406 131.657  18.005  1.00  0.00    -0.040 A 
ATOM     10  C   UNL     1      43.013 132.521  16.178  1.00  0.00    -0.007 A 
ATOM     11  C   UNL     1      43.808 132.577  18.874  1.00  0.00     0.030 A 
ATOM     12  C   UNL     1      42.663 132.625  14.810  1.00  0.00     0.009 A 
ATOM     13  C   UNL     1      42.431 133.453  17.088  1.00  0.00     0.006 A 
ATOM     14  C   UNL     1      42.810 133.444  18.441  1.00  0.00     0.045 A 
ATOM     15  C   UNL     1      41.737 133.571  14.370  1.00  0.00     0.001 A 
ATOM     16  C   UNL     1      41.497 134.399  16.618  1.00  0.00     0.011 A 
ATOM     17  C   UNL     1      41.150 134.449  15.272  1.00  0.00     0.001 A 
ATOM     18  C   UNL     1      45.573 130.859  18.543  1.00  0.00     0.045 C 
BRANCH  14  19
ATOM     19  N   UNL     1      42.214 134.344  19.388  1.00  0.00    -0.368 N 
ATOM     20  C   UNL     1      40.970 134.023  20.071  1.00  0.00     0.120 C 
ATOM     21  C   UNL     1      42.946 135.429  20.026  1.00  0.00     0.082 C 
ATOM     22  C   UNL     1      40.993 134.836  21.371  1.00  0.00     0.010 C 
ATOM     23  C   UNL     1      41.966 135.998  21.063  1.00  0.00     0.013 C 
ATOM     24  C   UNL     1      43.375 136.478  18.996  1.00  0.00     0.031 C 
ATOM     25  C   UNL     1      41.434 133.948  22.549  1.00  0.00     0.010 C 
ATOM     26  C   UNL     1      42.671 136.618  22.280  1.00  0.00     0.010 C 
ENDBRANCH  14  19
ENDBRANCH   7   8
ENDBRANCH   1   7
TORSDOF 5
ENDMDL
MODEL 9
REMARK VINA RESULT:      -6.7      1.075      2.870
REMARK SMILES C#CC[N+](C)(C)Cc1c(C)cc(N2C[C@@H](C)[C@@H](C)[C@@H]2C)c2ccccc12
REMARK SMILES IDX 4 1 5 2 6 3 3 4 2 5 1 6 7 7 8 8 9 9 26 10 11 11 25 12 21 13
REMARK SMILES IDX 12 14 24 15 22 16 23 17 10 18 13 19 14 20 19 21 15 22 17 23
REMARK SMILES IDX 20 24 16 25 18 26
REMARK H PARENT
ROOT
ATOM      1  N   UNL     1      45.496 130.687  15.225  1.00  0.00    -0.315 N 
ATOM      2  C   UNL     1      46.348 129.551  15.656  1.00  0.00     0.335 C 
ATOM      3  C   UNL     1      46.312 131.923  15.314  1.00  0.00     0.335 C 
ENDROOT
BRANCH   1   4
ATOM      4  C   UNL     1      45.125 130.437  13.797  1.00  0.00     0.355 C 
BRANCH   4   5
ATOM      5  C   UNL     1      46.271 130.480  12.866  1.00  0.00    -0.047 C 
ATOM      6  C   UNL     1      47.207 130.516  12.107  1.00  0.00     0.010 C 
ENDBRANCH   4   5
ENDBRANCH   1   4
BRANCH   1   7
ATOM      7  C   UNL     1      44.249 130.796  16.061  1.00  0.00     0.302 C 
BRANCH   7   8
ATOM      8  C   UNL     1      44.185 132.016  17.006  1.00  0.00     0.017 A 
ATOM      9  C   UNL     1      44.683 131.916  18.339  1.00  0.00    -0.040 A 
ATOM     10  C   UNL     1      43.629 133.268  16.583  1.00  0.00    -0.007 A 
ATOM     11  C   UNL     1      44.422 132.938  19.260  1.00  0.00     0.030 A 
ATOM     12  C   UNL     1      43.320 133.544  15.228  1.00  0.00     0.009 A 
ATOM     13  C   UNL     1      43.388 134.295  17.544  1.00  0.00     0.006 A 
ATOM     14  C   UNL     1      43.755 134.100  18.886  1.00  0.00     0.045 A 
ATOM     15  C   UNL     1      42.747 134.758  14.850  1.00  0.00     0.001 A 
ATOM     16  C   UNL     1      42.806 135.513  17.136  1.00  0.00     0.011 A 
ATOM     17  C   UNL     1      42.483 135.736  15.801  1.00  0.00     0.001 A 
ATOM     18  C   UNL     1      45.533 130.760  18.816  1.00  0.00     0.045 C 
BRANCH  14  19
ATOM     19  N   UNL     1      43.490 135.099  19.883  1.00  0.00    -0.368 N 
ATOM     20  C   UNL     1      44.444 136.157  20.179  1.00  0.00     0.120 C 
ATOM     21  C   UNL     1      42.156 135.382  20.394  1.00  0.00     0.082 C 
ATOM     22  C   UNL     1      43.614 137.308  20.760  1.00  0.00     0.010 C 
ATOM     23  C   UNL     1      42.339 136.613  21.293  1.00  0.00     0.013 C 
ATOM     24  C   UNL     1      41.599 134.179  21.163  1.00  0.00     0.031 C 
ATOM     25  C   UNL     1      43.341 138.370  19.678  1.00  0.00     0.010 C 
ATOM     26  C   UNL     1      41.082 137.495  21.371  1.00  0.00     0.010 C 
ENDBRANCH  14  19
ENDBRANCH   7   8
ENDBRANCH   1   7
TORSDOF 5
ENDMDL


