REMARK SMILES Cc1nnn(Cc2nc3cc4ccccc4cc3[n-]2)c1-c1nnc([C@@H]2C[C@@H]2C)o1
REMARK SMILES IDX 1 1 2 2 3 3 4 4 5 5 20 6 21 7 22 8 29 9 23 10 24 11 25 12
REMARK SMILES IDX 26 13 27 14 28 15 6 16 7 17 8 18 19 19 9 20 18 21 10 22
REMARK SMILES IDX 17 23 11 24 16 25 12 26 15 27 13 28 14 29
REMARK H PARENT
ROOT
ATOM      1  C   UNL     1      -1.191  -4.152   4.374  1.00  0.00     0.071 C 
ATOM      2  C   UNL     1      -0.794  -2.714   4.285  1.00  0.00     0.093 A 
ATOM      3  N   UNL     1      -1.138  -1.779   5.193  1.00  0.00    -0.135 NA
ATOM      4  N   UNL     1      -0.620  -0.631   4.780  1.00  0.00    -0.066 NA
ATOM      5  N   UNL     1       0.040  -0.797   3.644  1.00  0.00    -0.236 N 
ATOM      6  C   UNL     1      -0.047  -2.100   3.296  1.00  0.00     0.149 A 
ENDROOT
BRANCH   6   7
ATOM      7  C   UNL     1       0.527  -2.719   2.085  1.00  0.00     0.267 A 
ATOM      8  N   UNL     1       0.519  -4.041   1.825  1.00  0.00    -0.106 NA
ATOM      9  O   UNL     1       1.101  -2.054   1.114  1.00  0.00    -0.419 OA
ATOM     10  N   UNL     1       1.110  -4.197   0.651  1.00  0.00    -0.112 NA
ATOM     11  C   UNL     1       1.459  -2.963   0.242  1.00  0.00     0.220 A 
BRANCH  11  12
ATOM     12  C   UNL     1       2.124  -2.662  -1.067  1.00  0.00     0.081 C 
ATOM     13  C   UNL     1       3.470  -3.353  -1.262  1.00  0.00     0.017 C 
ATOM     14  C   UNL     1       3.418  -1.846  -1.042  1.00  0.00    -0.001 C 
ATOM     15  C   UNL     1       3.971  -1.372   0.307  1.00  0.00     0.008 C 
ENDBRANCH  11  12
ENDBRANCH   6   7
BRANCH   5  16
ATOM     16  C   UNL     1       0.734   0.287   2.950  1.00  0.00     0.173 C 
BRANCH  16  17
ATOM     17  C   UNL     1       0.018   0.651   1.688  1.00  0.00    -0.060 A 
ATOM     18  N   UNL     1      -1.328   0.832   1.629  1.00  0.00    -0.438 NA
ATOM     19  N   UNL     1       0.666   0.833   0.507  1.00  0.00    -0.438 NA
ATOM     20  C   UNL     1      -1.523   1.128   0.335  1.00  0.00    -0.038 A 
ATOM     21  C   UNL     1      -0.337   1.127  -0.332  1.00  0.00    -0.038 A 
ATOM     22  C   UNL     1      -2.731   1.398  -0.301  1.00  0.00     0.012 A 
ATOM     23  C   UNL     1      -0.251   1.393  -1.695  1.00  0.00     0.012 A 
ATOM     24  C   UNL     1      -2.697   1.675  -1.685  1.00  0.00    -0.018 A 
ATOM     25  C   UNL     1      -1.450   1.672  -2.387  1.00  0.00    -0.018 A 
ATOM     26  C   UNL     1      -3.881   1.952  -2.385  1.00  0.00     0.009 A 
ATOM     27  C   UNL     1      -1.431   1.945  -3.762  1.00  0.00     0.009 A 
ATOM     28  C   UNL     1      -3.840   2.222  -3.756  1.00  0.00     0.001 A 
ATOM     29  C   UNL     1      -2.622   2.219  -4.441  1.00  0.00     0.001 A 
ENDBRANCH  16  17
ENDBRANCH   5  16
TORSDOF 4


