MODEL 1
REMARK VINA RESULT:      -6.6      0.000      0.000
REMARK SMILES CC[C@H]1C[C@@]1(N)C(=O)Oc1c(C(=O)N=[N+]=[N-])cccc([O-])c(NC2(CF)COC2)c(N=[N+]=[N-])c(Cl)c1Cl
REMARK SMILES IDX 18 1 19 2 20 3 21 4 22 5 30 6 34 7 35 8 36 9 37 10 10 11
REMARK SMILES IDX 11 12 17 13 12 14 13 15 14 16 15 17 16 18 23 19 24 21 27 22
REMARK SMILES IDX 29 23 28 24 25 25 26 26 9 27 7 28 8 29 5 30 4 31 3 32 6 33
REMARK SMILES IDX 2 36 1 37 31 38 32 39 33 40
REMARK H PARENT 23 20 6 34 6 35
ROOT
ATOM      1  C   UNL     1      44.402 134.762  16.827  1.00  0.00     0.000 A 
ATOM      2  C   UNL     1      43.886 136.046  16.635  1.00  0.00    -0.006 A 
ATOM      3  C   UNL     1      42.638 136.506  17.102  1.00  0.00    -0.084 A 
ATOM      4  O   UNL     1      42.470 137.884  17.180  1.00  0.00    -0.871 OA
ATOM      5  C   UNL     1      41.539 135.685  17.477  1.00  0.00     0.038 A 
ATOM      6  C   UNL     1      41.376 134.347  17.036  1.00  0.00     0.080 A 
ATOM      7  C   UNL     1      41.860 133.915  15.780  1.00  0.00     0.075 A 
ATOM      8  Cl  UNL     1      41.568 134.961  14.386  1.00  0.00    -0.082 Cl
ATOM      9  C   UNL     1      42.553 132.695  15.585  1.00  0.00     0.103 A 
ATOM     10  Cl  UNL     1      42.524 131.976  13.974  1.00  0.00    -0.079 Cl
ATOM     11  C   UNL     1      43.310 132.012  16.575  1.00  0.00     0.162 A 
ATOM     12  C   UNL     1      43.746 132.600  17.796  1.00  0.00     0.069 A 
ATOM     13  C   UNL     1      44.046 133.966  17.916  1.00  0.00     0.016 A 
ENDROOT
BRANCH  12  14
ATOM     14  C   UNL     1      43.771 131.772  19.024  1.00  0.00     0.252 C 
ATOM     15  O   UNL     1      42.710 131.583  19.680  1.00  0.00    -0.287 OA
BRANCH  14  16
ATOM     16  N   UNL     1      45.000 131.193  19.475  1.00  0.00    -0.017 NA
BRANCH  16  17
ATOM     17  N   UNL     1      45.291 131.165  20.671  1.00  0.00     0.009 N 
ATOM     18  N   UNL     1      45.581 131.136  21.865  1.00  0.00    -0.003 NA
ENDBRANCH  16  17
ENDBRANCH  14  16
ENDBRANCH  12  14
BRANCH   5  19
ATOM     19  N   UNL     1      40.568 136.262  18.375  1.00  0.00    -0.373 N 
ATOM     20  H   UNL     1      39.647 136.525  17.957  1.00  0.00     0.161 HD
BRANCH  19  21
ATOM     21  C   UNL     1      40.688 136.248  19.846  1.00  0.00     0.113 C 
ATOM     22  C   UNL     1      42.056 135.809  20.332  1.00  0.00     0.193 C 
ATOM     23  C   UNL     1      41.118 137.588  20.426  1.00  0.00     0.193 C 
ATOM     24  O   UNL     1      42.359 137.081  20.854  1.00  0.00    -0.376 OA
BRANCH  21  25
ATOM     25  C   UNL     1      39.491 135.621  20.586  1.00  0.00     0.247 C 
ATOM     26  F   UNL     1      38.973 136.526  21.495  1.00  0.00    -0.248 F 
ENDBRANCH  21  25
ENDBRANCH  19  21
ENDBRANCH   5  19
BRANCH  11  27
ATOM     27  O   UNL     1      43.617 130.667  16.318  1.00  0.00    -0.423 OA
BRANCH  27  28
ATOM     28  C   UNL     1      44.640 130.251  15.452  1.00  0.00     0.331 C 
ATOM     29  O   UNL     1      44.418 129.389  14.560  1.00  0.00    -0.250 OA
BRANCH  28  30
ATOM     30  C   UNL     1      46.038 130.753  15.668  1.00  0.00     0.118 C 
ATOM     31  C   UNL     1      46.318 132.182  15.218  1.00  0.00     0.040 C 
ATOM     32  C   UNL     1      46.987 131.009  14.494  1.00  0.00     0.022 C 
BRANCH  30  33
ATOM     33  N   UNL     1      46.697 130.392  16.919  1.00  0.00    -0.316 NA
ATOM     34  H   UNL     1      46.743 131.246  17.518  1.00  0.00     0.119 HD
ATOM     35  H   UNL     1      46.083 129.702  17.410  1.00  0.00     0.119 HD
ENDBRANCH  30  33
BRANCH  32  36
ATOM     36  C   UNL     1      46.482 130.801  13.057  1.00  0.00     0.003 C 
ATOM     37  C   UNL     1      47.616 130.326  12.153  1.00  0.00     0.004 C 
ENDBRANCH  32  36
ENDBRANCH  28  30
ENDBRANCH  27  28
ENDBRANCH  11  27
BRANCH   6  38
ATOM     38  N   UNL     1      40.693 133.428  17.905  1.00  0.00    -0.057 NA
BRANCH  38  39
ATOM     39  N   UNL     1      39.509 133.128  17.753  1.00  0.00     0.005 N 
ATOM     40  N   UNL     1      38.326 132.832  17.597  1.00  0.00    -0.003 NA
ENDBRANCH  38  39
ENDBRANCH   6  38
TORSDOF 13
ENDMDL
MODEL 2
REMARK VINA RESULT:      -6.6      1.486      1.655
REMARK SMILES CC[C@H]1C[C@@]1(N)C(=O)Oc1c(C(=O)N=[N+]=[N-])cccc([O-])c(NC2(CF)COC2)c(N=[N+]=[N-])c(Cl)c1Cl
REMARK SMILES IDX 18 1 19 2 20 3 21 4 22 5 30 6 34 7 35 8 36 9 37 10 10 11
REMARK SMILES IDX 11 12 17 13 12 14 13 15 14 16 15 17 16 18 23 19 24 21 27 22
REMARK SMILES IDX 29 23 28 24 25 25 26 26 9 27 7 28 8 29 5 30 4 31 3 32 6 33
REMARK SMILES IDX 2 36 1 37 31 38 32 39 33 40
REMARK H PARENT 23 20 6 34 6 35
ROOT
ATOM      1  C   UNL     1      44.351 134.971  16.666  1.00  0.00     0.000 A 
ATOM      2  C   UNL     1      43.854 136.267  16.507  1.00  0.00    -0.006 A 
ATOM      3  C   UNL     1      42.657 136.760  17.065  1.00  0.00    -0.084 A 
ATOM      4  O   UNL     1      42.529 138.141  17.148  1.00  0.00    -0.871 OA
ATOM      5  C   UNL     1      41.569 135.968  17.524  1.00  0.00     0.038 A 
ATOM      6  C   UNL     1      41.340 134.633  17.104  1.00  0.00     0.080 A 
ATOM      7  C   UNL     1      41.718 134.186  15.816  1.00  0.00     0.075 A 
ATOM      8  Cl  UNL     1      41.348 135.235  14.444  1.00  0.00    -0.082 Cl
ATOM      9  C   UNL     1      42.364 132.948  15.576  1.00  0.00     0.103 A 
ATOM     10  Cl  UNL     1      42.195 132.225  13.974  1.00  0.00    -0.079 Cl
ATOM     11  C   UNL     1      43.175 132.248  16.509  1.00  0.00     0.162 A 
ATOM     12  C   UNL     1      43.716 132.828  17.691  1.00  0.00     0.069 A 
ATOM     13  C   UNL     1      44.058 134.187  17.783  1.00  0.00     0.016 A 
ENDROOT
BRANCH  12  14
ATOM     14  C   UNL     1      43.813 132.004  18.918  1.00  0.00     0.252 C 
ATOM     15  O   UNL     1      42.764 131.603  19.494  1.00  0.00    -0.287 OA
BRANCH  14  16
ATOM     16  N   UNL     1      45.095 131.668  19.458  1.00  0.00    -0.017 NA
BRANCH  16  17
ATOM     17  N   UNL     1      45.294 131.665  20.673  1.00  0.00     0.009 N 
ATOM     18  N   UNL     1      45.492 131.662  21.886  1.00  0.00    -0.003 NA
ENDBRANCH  16  17
ENDBRANCH  14  16
ENDBRANCH  12  14
BRANCH   5  19
ATOM     19  N   UNL     1      40.683 136.572  18.490  1.00  0.00    -0.373 N 
ATOM     20  H   UNL     1      41.130 136.955  19.355  1.00  0.00     0.161 HD
BRANCH  19  21
ATOM     21  C   UNL     1      39.275 136.919  18.220  1.00  0.00     0.113 C 
ATOM     22  C   UNL     1      38.298 136.238  19.160  1.00  0.00     0.193 C 
ATOM     23  C   UNL     1      38.815 138.173  18.952  1.00  0.00     0.193 C 
ATOM     24  O   UNL     1      37.923 137.452  19.767  1.00  0.00    -0.376 OA
BRANCH  21  25
ATOM     25  C   UNL     1      38.878 136.904  16.731  1.00  0.00     0.247 C 
ATOM     26  F   UNL     1      39.563 137.895  16.052  1.00  0.00    -0.248 F 
ENDBRANCH  21  25
ENDBRANCH  19  21
ENDBRANCH   5  19
BRANCH  11  27
ATOM     27  O   UNL     1      43.429 130.895  16.236  1.00  0.00    -0.423 OA
BRANCH  27  28
ATOM     28  C   UNL     1      44.457 130.449  15.393  1.00  0.00     0.331 C 
ATOM     29  O   UNL     1      44.214 129.654  14.446  1.00  0.00    -0.250 OA
BRANCH  28  30
ATOM     30  C   UNL     1      45.877 130.829  15.696  1.00  0.00     0.118 C 
ATOM     31  C   UNL     1      46.311 132.221  15.250  1.00  0.00     0.040 C 
ATOM     32  C   UNL     1      46.920 130.982  14.586  1.00  0.00     0.022 C 
BRANCH  30  33
ATOM     33  N   UNL     1      46.418 130.433  16.992  1.00  0.00    -0.316 NA
ATOM     34  H   UNL     1      46.447 131.281  17.603  1.00  0.00     0.119 HD
ATOM     35  H   UNL     1      45.741 129.764  17.424  1.00  0.00     0.119 HD
ENDBRANCH  30  33
BRANCH  32  36
ATOM     36  C   UNL     1      46.493 130.795  13.120  1.00  0.00     0.003 C 
ATOM     37  C   UNL     1      47.631 130.186  12.305  1.00  0.00     0.004 C 
ENDBRANCH  32  36
ENDBRANCH  28  30
ENDBRANCH  27  28
ENDBRANCH  11  27
BRANCH   6  38
ATOM     38  N   UNL     1      40.702 133.733  18.025  1.00  0.00    -0.057 NA
BRANCH  38  39
ATOM     39  N   UNL     1      39.688 133.097  17.735  1.00  0.00     0.005 N 
ATOM     40  N   UNL     1      38.677 132.463  17.441  1.00  0.00    -0.003 NA
ENDBRANCH  38  39
ENDBRANCH   6  38
TORSDOF 13
ENDMDL
MODEL 3
REMARK VINA RESULT:      -6.5      2.250      2.578
REMARK SMILES CC[C@H]1C[C@@]1(N)C(=O)Oc1c(C(=O)N=[N+]=[N-])cccc([O-])c(NC2(CF)COC2)c(N=[N+]=[N-])c(Cl)c1Cl
REMARK SMILES IDX 18 1 19 2 20 3 21 4 22 5 30 6 34 7 35 8 36 9 37 10 10 11
REMARK SMILES IDX 11 12 17 13 12 14 13 15 14 16 15 17 16 18 23 19 24 21 27 22
REMARK SMILES IDX 29 23 28 24 25 25 26 26 9 27 7 28 8 29 5 30 4 31 3 32 6 33
REMARK SMILES IDX 2 36 1 37 31 38 32 39 33 40
REMARK H PARENT 23 20 6 34 6 35
ROOT
ATOM      1  C   UNL     1      44.191 135.169  16.100  1.00  0.00     0.000 A 
ATOM      2  C   UNL     1      43.460 136.301  15.732  1.00  0.00    -0.006 A 
ATOM      3  C   UNL     1      42.154 136.609  16.166  1.00  0.00    -0.084 A 
ATOM      4  O   UNL     1      41.750 137.933  16.038  1.00  0.00    -0.871 OA
ATOM      5  C   UNL     1      41.216 135.682  16.697  1.00  0.00     0.038 A 
ATOM      6  C   UNL     1      41.285 134.283  16.471  1.00  0.00     0.080 A 
ATOM      7  C   UNL     1      41.828 133.750  15.279  1.00  0.00     0.075 A 
ATOM      8  Cl  UNL     1      41.350 134.501  13.753  1.00  0.00    -0.082 Cl
ATOM      9  C   UNL     1      42.721 132.650  15.249  1.00  0.00     0.103 A 
ATOM     10  Cl  UNL     1      42.806 131.695  13.768  1.00  0.00    -0.079 Cl
ATOM     11  C   UNL     1      43.591 132.268  16.306  1.00  0.00     0.162 A 
ATOM     12  C   UNL     1      43.927 133.104  17.408  1.00  0.00     0.069 A 
ATOM     13  C   UNL     1      43.986 134.503  17.310  1.00  0.00     0.016 A 
ENDROOT
BRANCH  12  14
ATOM     14  C   UNL     1      44.103 132.494  18.746  1.00  0.00     0.252 C 
ATOM     15  O   UNL     1      45.234 132.057  19.097  1.00  0.00    -0.287 OA
BRANCH  14  16
ATOM     16  N   UNL     1      42.990 132.390  19.640  1.00  0.00    -0.017 NA
BRANCH  16  17
ATOM     17  N   UNL     1      42.654 133.335  20.353  1.00  0.00     0.009 N 
ATOM     18  N   UNL     1      42.319 134.279  21.068  1.00  0.00    -0.003 NA
ENDBRANCH  16  17
ENDBRANCH  14  16
ENDBRANCH  12  14
BRANCH   5  19
ATOM     19  N   UNL     1      40.166 136.218  17.529  1.00  0.00    -0.373 N 
ATOM     20  H   UNL     1      40.456 136.591  18.461  1.00  0.00     0.161 HD
BRANCH  19  21
ATOM     21  C   UNL     1      38.802 136.517  17.052  1.00  0.00     0.113 C 
ATOM     22  C   UNL     1      37.722 136.134  18.046  1.00  0.00     0.193 C 
ATOM     23  C   UNL     1      38.347 137.931  17.386  1.00  0.00     0.193 C 
ATOM     24  O   UNL     1      37.359 137.475  18.278  1.00  0.00    -0.376 OA
BRANCH  21  25
ATOM     25  C   UNL     1      38.525 136.118  15.589  1.00  0.00     0.247 C 
ATOM     26  F   UNL     1      37.293 136.607  15.194  1.00  0.00    -0.248 F 
ENDBRANCH  21  25
ENDBRANCH  19  21
ENDBRANCH   5  19
BRANCH  11  27
ATOM     27  O   UNL     1      44.125 130.971  16.246  1.00  0.00    -0.423 OA
BRANCH  27  28
ATOM     28  C   UNL     1      45.463 130.692  15.931  1.00  0.00     0.331 C 
ATOM     29  O   UNL     1      46.370 131.533  16.170  1.00  0.00    -0.250 OA
BRANCH  28  30
ATOM     30  C   UNL     1      45.799 129.428  15.196  1.00  0.00     0.118 C 
ATOM     31  C   UNL     1      47.268 129.224  14.842  1.00  0.00     0.040 C 
ATOM     32  C   UNL     1      46.238 129.446  13.729  1.00  0.00     0.022 C 
BRANCH  30  33
ATOM     33  N   UNL     1      45.122 128.205  15.615  1.00  0.00    -0.316 NA
ATOM     34  H   UNL     1      45.850 127.517  15.913  1.00  0.00     0.119 HD
ATOM     35  H   UNL     1      44.550 128.436  16.460  1.00  0.00     0.119 HD
ENDBRANCH  30  33
BRANCH  32  36
ATOM     36  C   UNL     1      46.392 130.794  13.005  1.00  0.00     0.003 C 
ATOM     37  C   UNL     1      47.338 130.659  11.815  1.00  0.00     0.004 C 
ENDBRANCH  32  36
ENDBRANCH  28  30
ENDBRANCH  27  28
ENDBRANCH  11  27
BRANCH   6  38
ATOM     38  N   UNL     1      40.777 133.407  17.491  1.00  0.00    -0.057 NA
BRANCH  38  39
ATOM     39  N   UNL     1      39.612 133.009  17.503  1.00  0.00     0.005 N 
ATOM     40  N   UNL     1      38.447 132.616  17.516  1.00  0.00    -0.003 NA
ENDBRANCH  38  39
ENDBRANCH   6  38
TORSDOF 13
ENDMDL
MODEL 4
REMARK VINA RESULT:      -6.5      3.096      4.490
REMARK SMILES CC[C@H]1C[C@@]1(N)C(=O)Oc1c(C(=O)N=[N+]=[N-])cccc([O-])c(NC2(CF)COC2)c(N=[N+]=[N-])c(Cl)c1Cl
REMARK SMILES IDX 18 1 19 2 20 3 21 4 22 5 30 6 34 7 35 8 36 9 37 10 10 11
REMARK SMILES IDX 11 12 17 13 12 14 13 15 14 16 15 17 16 18 23 19 24 21 27 22
REMARK SMILES IDX 29 23 28 24 25 25 26 26 9 27 7 28 8 29 5 30 4 31 3 32 6 33
REMARK SMILES IDX 2 36 1 37 31 38 32 39 33 40
REMARK H PARENT 23 20 6 34 6 35
ROOT
ATOM      1  C   UNL     1      41.073 133.125  18.551  1.00  0.00     0.000 A 
ATOM      2  C   UNL     1      40.914 133.985  19.640  1.00  0.00    -0.006 A 
ATOM      3  C   UNL     1      41.459 135.281  19.748  1.00  0.00    -0.084 A 
ATOM      4  O   UNL     1      40.877 136.126  20.686  1.00  0.00    -0.871 OA
ATOM      5  C   UNL     1      42.559 135.783  19.000  1.00  0.00     0.038 A 
ATOM      6  C   UNL     1      43.523 134.952  18.373  1.00  0.00     0.080 A 
ATOM      7  C   UNL     1      43.871 133.689  18.904  1.00  0.00     0.075 A 
ATOM      8  Cl  UNL     1      44.144 133.579  20.646  1.00  0.00    -0.082 Cl
ATOM      9  C   UNL     1      44.019 132.521  18.115  1.00  0.00     0.103 A 
ATOM     10  Cl  UNL     1      45.048 131.229  18.735  1.00  0.00    -0.079 Cl
ATOM     11  C   UNL     1      43.373 132.282  16.872  1.00  0.00     0.162 A 
ATOM     12  C   UNL     1      42.253 133.021  16.397  1.00  0.00     0.069 A 
ATOM     13  C   UNL     1      41.300 133.591  17.255  1.00  0.00     0.016 A 
ENDROOT
BRANCH  12  14
ATOM     14  C   UNL     1      42.146 133.312  14.948  1.00  0.00     0.252 C 
ATOM     15  O   UNL     1      43.075 133.928  14.357  1.00  0.00    -0.287 OA
BRANCH  14  16
ATOM     16  N   UNL     1      40.984 132.904  14.218  1.00  0.00    -0.017 NA
BRANCH  16  17
ATOM     17  N   UNL     1      40.116 133.716  13.896  1.00  0.00     0.009 N 
ATOM     18  N   UNL     1      39.250 134.526  13.572  1.00  0.00    -0.003 NA
ENDBRANCH  16  17
ENDBRANCH  14  16
ENDBRANCH  12  14
BRANCH   5  19
ATOM     19  N   UNL     1      42.658 137.216  18.865  1.00  0.00    -0.373 N 
ATOM     20  H   UNL     1      41.863 137.694  18.383  1.00  0.00     0.161 HD
BRANCH  19  21
ATOM     21  C   UNL     1      43.641 138.050  19.583  1.00  0.00     0.113 C 
ATOM     22  C   UNL     1      43.012 138.952  20.628  1.00  0.00     0.193 C 
ATOM     23  C   UNL     1      44.234 137.361  20.805  1.00  0.00     0.193 C 
ATOM     24  O   UNL     1      43.619 138.262  21.694  1.00  0.00    -0.376 OA
BRANCH  21  25
ATOM     25  C   UNL     1      44.702 138.717  18.687  1.00  0.00     0.247 C 
ATOM     26  F   UNL     1      45.593 139.433  19.465  1.00  0.00    -0.248 F 
ENDBRANCH  21  25
ENDBRANCH  19  21
ENDBRANCH   5  19
BRANCH  11  27
ATOM     27  O   UNL     1      43.904 131.259  16.071  1.00  0.00    -0.423 OA
BRANCH  27  28
ATOM     28  C   UNL     1      45.222 131.247  15.593  1.00  0.00     0.331 C 
ATOM     29  O   UNL     1      45.822 132.324  15.332  1.00  0.00    -0.250 OA
BRANCH  28  30
ATOM     30  C   UNL     1      45.881 129.936  15.278  1.00  0.00     0.118 C 
ATOM     31  C   UNL     1      47.386 129.979  15.040  1.00  0.00     0.040 C 
ATOM     32  C   UNL     1      46.440 129.634  13.884  1.00  0.00     0.022 C 
BRANCH  30  33
ATOM     33  N   UNL     1      45.438 128.764  16.025  1.00  0.00    -0.316 NA
ATOM     34  H   UNL     1      46.248 128.109  16.110  1.00  0.00     0.119 HD
ATOM     35  H   UNL     1      45.193 129.080  16.991  1.00  0.00     0.119 HD
ENDBRANCH  30  33
BRANCH  32  36
ATOM     36  C   UNL     1      46.376 130.719  12.795  1.00  0.00     0.003 C 
ATOM     37  C   UNL     1      47.453 130.483  11.740  1.00  0.00     0.004 C 
ENDBRANCH  32  36
ENDBRANCH  28  30
ENDBRANCH  27  28
ENDBRANCH  11  27
BRANCH   6  38
ATOM     38  N   UNL     1      44.151 135.432  17.173  1.00  0.00    -0.057 NA
BRANCH  38  39
ATOM     39  N   UNL     1      43.602 136.227  16.410  1.00  0.00     0.005 N 
ATOM     40  N   UNL     1      43.057 137.024  15.649  1.00  0.00    -0.003 NA
ENDBRANCH  38  39
ENDBRANCH   6  38
TORSDOF 13
ENDMDL
MODEL 5
REMARK VINA RESULT:      -6.4      1.402      1.644
REMARK SMILES CC[C@H]1C[C@@]1(N)C(=O)Oc1c(C(=O)N=[N+]=[N-])cccc([O-])c(NC2(CF)COC2)c(N=[N+]=[N-])c(Cl)c1Cl
REMARK SMILES IDX 18 1 19 2 20 3 21 4 22 5 30 6 34 7 35 8 36 9 37 10 10 11
REMARK SMILES IDX 11 12 17 13 12 14 13 15 14 16 15 17 16 18 23 19 24 21 27 22
REMARK SMILES IDX 29 23 28 24 25 25 26 26 9 27 7 28 8 29 5 30 4 31 3 32 6 33
REMARK SMILES IDX 2 36 1 37 31 38 32 39 33 40
REMARK H PARENT 23 20 6 34 6 35
ROOT
ATOM      1  C   UNL     1      43.924 135.168  16.279  1.00  0.00     0.000 A 
ATOM      2  C   UNL     1      43.145 136.244  15.847  1.00  0.00    -0.006 A 
ATOM      3  C   UNL     1      41.791 136.460  16.176  1.00  0.00    -0.084 A 
ATOM      4  O   UNL     1      41.306 137.752  16.008  1.00  0.00    -0.871 OA
ATOM      5  C   UNL     1      40.882 135.469  16.638  1.00  0.00     0.038 A 
ATOM      6  C   UNL     1      41.067 134.078  16.428  1.00  0.00     0.080 A 
ATOM      7  C   UNL     1      41.738 133.584  15.286  1.00  0.00     0.075 A 
ATOM      8  Cl  UNL     1      41.329 134.297  13.722  1.00  0.00    -0.082 Cl
ATOM      9  C   UNL     1      42.706 132.550  15.333  1.00  0.00     0.103 A 
ATOM     10  Cl  UNL     1      42.974 131.601  13.869  1.00  0.00    -0.079 Cl
ATOM     11  C   UNL     1      43.516 132.232  16.456  1.00  0.00     0.162 A 
ATOM     12  C   UNL     1      43.704 133.091  17.576  1.00  0.00     0.069 A 
ATOM     13  C   UNL     1      43.672 134.491  17.473  1.00  0.00     0.016 A 
ENDROOT
BRANCH  12  14
ATOM     14  C   UNL     1      43.818 132.497  18.927  1.00  0.00     0.252 C 
ATOM     15  O   UNL     1      42.921 131.717  19.352  1.00  0.00    -0.287 OA
BRANCH  14  16
ATOM     16  N   UNL     1      44.939 132.813  19.759  1.00  0.00    -0.017 NA
BRANCH  16  17
ATOM     17  N   UNL     1      45.572 131.930  20.338  1.00  0.00     0.009 N 
ATOM     18  N   UNL     1      46.203 131.047  20.917  1.00  0.00    -0.003 NA
ENDBRANCH  16  17
ENDBRANCH  14  16
ENDBRANCH  12  14
BRANCH   5  19
ATOM     19  N   UNL     1      39.735 135.930  17.382  1.00  0.00    -0.373 N 
ATOM     20  H   UNL     1      38.799 135.627  17.029  1.00  0.00     0.161 HD
BRANCH  19  21
ATOM     21  C   UNL     1      39.808 136.547  18.721  1.00  0.00     0.113 C 
ATOM     22  C   UNL     1      38.996 135.808  19.767  1.00  0.00     0.193 C 
ATOM     23  C   UNL     1      40.984 136.047  19.549  1.00  0.00     0.193 C 
ATOM     24  O   UNL     1      40.143 135.405  20.477  1.00  0.00    -0.376 OA
BRANCH  21  25
ATOM     25  C   UNL     1      39.664 138.082  18.735  1.00  0.00     0.247 C 
ATOM     26  F   UNL     1      40.793 138.655  19.290  1.00  0.00    -0.248 F 
ENDBRANCH  21  25
ENDBRANCH  19  21
ENDBRANCH   5  19
BRANCH  11  27
ATOM     27  O   UNL     1      44.143 130.976  16.447  1.00  0.00    -0.423 OA
BRANCH  27  28
ATOM     28  C   UNL     1      45.456 130.763  16.004  1.00  0.00     0.331 C 
ATOM     29  O   UNL     1      46.336 131.655  16.143  1.00  0.00    -0.250 OA
BRANCH  28  30
ATOM     30  C   UNL     1      45.786 129.507  15.252  1.00  0.00     0.118 C 
ATOM     31  C   UNL     1      47.255 129.298  14.902  1.00  0.00     0.040 C 
ATOM     32  C   UNL     1      46.232 129.543  13.788  1.00  0.00     0.022 C 
BRANCH  30  33
ATOM     33  N   UNL     1      45.099 128.283  15.651  1.00  0.00    -0.316 NA
ATOM     34  H   UNL     1      45.588 127.476  15.204  1.00  0.00     0.119 HD
ATOM     35  H   UNL     1      45.213 128.181  16.685  1.00  0.00     0.119 HD
ENDBRANCH  30  33
BRANCH  32  36
ATOM     36  C   UNL     1      46.399 130.900  13.084  1.00  0.00     0.003 C 
ATOM     37  C   UNL     1      47.776 131.000  12.431  1.00  0.00     0.004 C 
ENDBRANCH  32  36
ENDBRANCH  28  30
ENDBRANCH  27  28
ENDBRANCH  11  27
BRANCH   6  38
ATOM     38  N   UNL     1      40.545 133.170  17.411  1.00  0.00    -0.057 NA
BRANCH  38  39
ATOM     39  N   UNL     1      39.338 133.047  17.624  1.00  0.00     0.005 N 
ATOM     40  N   UNL     1      38.133 132.920  17.834  1.00  0.00    -0.003 NA
ENDBRANCH  38  39
ENDBRANCH   6  38
TORSDOF 13
ENDMDL
MODEL 6
REMARK VINA RESULT:      -6.3      1.650      1.855
REMARK SMILES CC[C@H]1C[C@@]1(N)C(=O)Oc1c(C(=O)N=[N+]=[N-])cccc([O-])c(NC2(CF)COC2)c(N=[N+]=[N-])c(Cl)c1Cl
REMARK SMILES IDX 18 1 19 2 20 3 21 4 22 5 30 6 34 7 35 8 36 9 37 10 10 11
REMARK SMILES IDX 11 12 17 13 12 14 13 15 14 16 15 17 16 18 23 19 24 21 27 22
REMARK SMILES IDX 29 23 28 24 25 25 26 26 9 27 7 28 8 29 5 30 4 31 3 32 6 33
REMARK SMILES IDX 2 36 1 37 31 38 32 39 33 40
REMARK H PARENT 23 20 6 34 6 35
ROOT
ATOM      1  C   UNL     1      44.236 135.690  17.859  1.00  0.00     0.000 A 
ATOM      2  C   UNL     1      43.596 136.918  18.045  1.00  0.00    -0.006 A 
ATOM      3  C   UNL     1      42.312 137.097  18.598  1.00  0.00    -0.084 A 
ATOM      4  O   UNL     1      42.011 138.367  19.077  1.00  0.00    -0.871 OA
ATOM      5  C   UNL     1      41.301 136.101  18.687  1.00  0.00     0.038 A 
ATOM      6  C   UNL     1      41.267 134.945  17.866  1.00  0.00     0.080 A 
ATOM      7  C   UNL     1      41.784 134.955  16.550  1.00  0.00     0.075 A 
ATOM      8  Cl  UNL     1      41.382 136.335  15.523  1.00  0.00    -0.082 Cl
ATOM      9  C   UNL     1      42.592 133.919  16.018  1.00  0.00     0.103 A 
ATOM     10  Cl  UNL     1      42.623 133.713  14.265  1.00  0.00    -0.079 Cl
ATOM     11  C   UNL     1      43.418 133.048  16.778  1.00  0.00     0.162 A 
ATOM     12  C   UNL     1      43.802 133.285  18.128  1.00  0.00     0.069 A 
ATOM     13  C   UNL     1      43.967 134.576  18.655  1.00  0.00     0.016 A 
ENDROOT
BRANCH  12  14
ATOM     14  C   UNL     1      43.916 132.136  19.055  1.00  0.00     0.252 C 
ATOM     15  O   UNL     1      45.023 131.547  19.199  1.00  0.00    -0.287 OA
BRANCH  14  16
ATOM     16  N   UNL     1      42.770 131.685  19.784  1.00  0.00    -0.017 NA
BRANCH  16  17
ATOM     17  N   UNL     1      42.876 131.234  20.925  1.00  0.00     0.009 N 
ATOM     18  N   UNL     1      42.982 130.783  22.064  1.00  0.00    -0.003 NA
ENDBRANCH  16  17
ENDBRANCH  14  16
ENDBRANCH  12  14
BRANCH   5  19
ATOM     19  N   UNL     1      40.284 136.290  19.693  1.00  0.00    -0.373 N 
ATOM     20  H   UNL     1      39.307 136.428  19.347  1.00  0.00     0.161 HD
BRANCH  19  21
ATOM     21  C   UNL     1      40.483 136.030  21.132  1.00  0.00     0.113 C 
ATOM     22  C   UNL     1      39.703 134.832  21.639  1.00  0.00     0.193 C 
ATOM     23  C   UNL     1      41.682 135.136  21.421  1.00  0.00     0.193 C 
ATOM     24  O   UNL     1      40.871 134.086  21.889  1.00  0.00    -0.376 OA
BRANCH  21  25
ATOM     25  C   UNL     1      40.429 137.282  22.030  1.00  0.00     0.247 C 
ATOM     26  F   UNL     1      41.705 137.775  22.227  1.00  0.00    -0.248 F 
ENDBRANCH  21  25
ENDBRANCH  19  21
ENDBRANCH   5  19
BRANCH  11  27
ATOM     27  O   UNL     1      43.854 131.876  16.140  1.00  0.00    -0.423 OA
BRANCH  27  28
ATOM     28  C   UNL     1      45.171 131.668  15.705  1.00  0.00     0.331 C 
ATOM     29  O   UNL     1      45.912 132.642  15.406  1.00  0.00    -0.250 OA
BRANCH  28  30
ATOM     30  C   UNL     1      45.661 130.267  15.483  1.00  0.00     0.118 C 
ATOM     31  C   UNL     1      47.160 130.106  15.257  1.00  0.00     0.040 C 
ATOM     32  C   UNL     1      46.181 129.807  14.118  1.00  0.00     0.022 C 
BRANCH  30  33
ATOM     33  N   UNL     1      45.074 129.210  16.300  1.00  0.00    -0.316 NA
ATOM     34  H   UNL     1      45.500 128.302  16.009  1.00  0.00     0.119 HD
ATOM     35  H   UNL     1      45.359 129.383  17.291  1.00  0.00     0.119 HD
ENDBRANCH  30  33
BRANCH  32  36
ATOM     36  C   UNL     1      46.254 130.817  12.960  1.00  0.00     0.003 C 
ATOM     37  C   UNL     1      47.321 130.399  11.951  1.00  0.00     0.004 C 
ENDBRANCH  32  36
ENDBRANCH  28  30
ENDBRANCH  27  28
ENDBRANCH  11  27
BRANCH   6  38
ATOM     38  N   UNL     1      40.684 133.748  18.407  1.00  0.00    -0.057 NA
BRANCH  38  39
ATOM     39  N   UNL     1      39.634 133.270  17.975  1.00  0.00     0.005 N 
ATOM     40  N   UNL     1      38.585 132.797  17.543  1.00  0.00    -0.003 NA
ENDBRANCH  38  39
ENDBRANCH   6  38
TORSDOF 13
ENDMDL
MODEL 7
REMARK VINA RESULT:      -6.1      1.396      1.493
REMARK SMILES CC[C@H]1C[C@@]1(N)C(=O)Oc1c(C(=O)N=[N+]=[N-])cccc([O-])c(NC2(CF)COC2)c(N=[N+]=[N-])c(Cl)c1Cl
REMARK SMILES IDX 18 1 19 2 20 3 21 4 22 5 30 6 34 7 35 8 36 9 37 10 10 11
REMARK SMILES IDX 11 12 17 13 12 14 13 15 14 16 15 17 16 18 23 19 24 21 27 22
REMARK SMILES IDX 29 23 28 24 25 25 26 26 9 27 7 28 8 29 5 30 4 31 3 32 6 33
REMARK SMILES IDX 2 36 1 37 31 38 32 39 33 40
REMARK H PARENT 23 20 6 34 6 35
ROOT
ATOM      1  C   UNL     1      44.141 135.776  17.420  1.00  0.00     0.000 A 
ATOM      2  C   UNL     1      43.460 136.992  17.512  1.00  0.00    -0.006 A 
ATOM      3  C   UNL     1      42.182 137.174  18.080  1.00  0.00    -0.084 A 
ATOM      4  O   UNL     1      41.844 138.471  18.452  1.00  0.00    -0.871 OA
ATOM      5  C   UNL     1      41.211 136.156  18.282  1.00  0.00     0.038 A 
ATOM      6  C   UNL     1      41.203 134.930  17.567  1.00  0.00     0.080 A 
ATOM      7  C   UNL     1      41.689 134.841  16.242  1.00  0.00     0.075 A 
ATOM      8  Cl  UNL     1      41.214 136.109  15.108  1.00  0.00    -0.082 Cl
ATOM      9  C   UNL     1      42.524 133.791  15.784  1.00  0.00     0.103 A 
ATOM     10  Cl  UNL     1      42.524 133.431  14.056  1.00  0.00    -0.079 Cl
ATOM     11  C   UNL     1      43.398 133.021  16.597  1.00  0.00     0.162 A 
ATOM     12  C   UNL     1      43.802 133.391  17.911  1.00  0.00     0.069 A 
ATOM     13  C   UNL     1      43.931 134.728  18.318  1.00  0.00     0.016 A 
ENDROOT
BRANCH  12  14
ATOM     14  C   UNL     1      43.979 132.334  18.933  1.00  0.00     0.252 C 
ATOM     15  O   UNL     1      45.138 131.929  19.230  1.00  0.00    -0.287 OA
BRANCH  14  16
ATOM     16  N   UNL     1      42.838 131.762  19.580  1.00  0.00    -0.017 NA
BRANCH  16  17
ATOM     17  N   UNL     1      42.815 131.591  20.799  1.00  0.00     0.009 N 
ATOM     18  N   UNL     1      42.790 131.419  22.016  1.00  0.00    -0.003 NA
ENDBRANCH  16  17
ENDBRANCH  14  16
ENDBRANCH  12  14
BRANCH   5  19
ATOM     19  N   UNL     1      40.210 136.397  19.292  1.00  0.00    -0.373 N 
ATOM     20  H   UNL     1      39.247 136.616  18.950  1.00  0.00     0.161 HD
BRANCH  19  21
ATOM     21  C   UNL     1      40.388 136.092  20.725  1.00  0.00     0.113 C 
ATOM     22  C   UNL     1      41.784 135.607  21.066  1.00  0.00     0.193 C 
ATOM     23  C   UNL     1      40.808 137.301  21.549  1.00  0.00     0.193 C 
ATOM     24  O   UNL     1      42.076 136.757  21.824  1.00  0.00    -0.376 OA
BRANCH  21  25
ATOM     25  C   UNL     1      39.236 135.291  21.364  1.00  0.00     0.247 C 
ATOM     26  F   UNL     1      38.039 135.957  21.174  1.00  0.00    -0.248 F 
ENDBRANCH  21  25
ENDBRANCH  19  21
ENDBRANCH   5  19
BRANCH  11  27
ATOM     27  O   UNL     1      43.863 131.813  16.055  1.00  0.00    -0.423 OA
BRANCH  27  28
ATOM     28  C   UNL     1      45.187 131.601  15.644  1.00  0.00     0.331 C 
ATOM     29  O   UNL     1      45.961 132.573  15.435  1.00  0.00    -0.250 OA
BRANCH  28  30
ATOM     30  C   UNL     1      45.650 130.206  15.338  1.00  0.00     0.118 C 
ATOM     31  C   UNL     1      47.154 129.966  15.402  1.00  0.00     0.040 C 
ATOM     32  C   UNL     1      46.424 129.881  14.057  1.00  0.00     0.022 C 
BRANCH  30  33
ATOM     33  N   UNL     1      44.856 129.102  15.868  1.00  0.00    -0.316 NA
ATOM     34  H   UNL     1      43.852 129.292  15.652  1.00  0.00     0.119 HD
ATOM     35  H   UNL     1      45.128 128.239  15.345  1.00  0.00     0.119 HD
ENDBRANCH  30  33
BRANCH  32  36
ATOM     36  C   UNL     1      46.785 131.018  13.086  1.00  0.00     0.003 C 
ATOM     37  C   UNL     1      47.345 130.452  11.784  1.00  0.00     0.004 C 
ENDBRANCH  32  36
ENDBRANCH  28  30
ENDBRANCH  27  28
ENDBRANCH  11  27
BRANCH   6  38
ATOM     38  N   UNL     1      40.676 133.767  18.225  1.00  0.00    -0.057 NA
BRANCH  38  39
ATOM     39  N   UNL     1      39.635 133.216  17.865  1.00  0.00     0.005 N 
ATOM     40  N   UNL     1      38.593 132.669  17.509  1.00  0.00    -0.003 NA
ENDBRANCH  38  39
ENDBRANCH   6  38
TORSDOF 13
ENDMDL
MODEL 8
REMARK VINA RESULT:      -5.8      2.209      2.626
REMARK SMILES CC[C@H]1C[C@@]1(N)C(=O)Oc1c(C(=O)N=[N+]=[N-])cccc([O-])c(NC2(CF)COC2)c(N=[N+]=[N-])c(Cl)c1Cl
REMARK SMILES IDX 18 1 19 2 20 3 21 4 22 5 30 6 34 7 35 8 36 9 37 10 10 11
REMARK SMILES IDX 11 12 17 13 12 14 13 15 14 16 15 17 16 18 23 19 24 21 27 22
REMARK SMILES IDX 29 23 28 24 25 25 26 26 9 27 7 28 8 29 5 30 4 31 3 32 6 33
REMARK SMILES IDX 2 36 1 37 31 38 32 39 33 40
REMARK H PARENT 23 20 6 34 6 35
ROOT
ATOM      1  C   UNL     1      43.755 135.127  16.134  1.00  0.00     0.000 A 
ATOM      2  C   UNL     1      42.988 136.224  15.734  1.00  0.00    -0.006 A 
ATOM      3  C   UNL     1      41.651 136.470  16.110  1.00  0.00    -0.084 A 
ATOM      4  O   UNL     1      41.192 137.774  15.964  1.00  0.00    -0.871 OA
ATOM      5  C   UNL     1      40.736 135.499  16.600  1.00  0.00     0.038 A 
ATOM      6  C   UNL     1      40.879 134.105  16.377  1.00  0.00     0.080 A 
ATOM      7  C   UNL     1      41.499 133.600  15.211  1.00  0.00     0.075 A 
ATOM      8  Cl  UNL     1      41.053 134.331  13.665  1.00  0.00    -0.082 Cl
ATOM      9  C   UNL     1      42.443 132.543  15.220  1.00  0.00     0.103 A 
ATOM     10  Cl  UNL     1      42.637 131.596  13.744  1.00  0.00    -0.079 Cl
ATOM     11  C   UNL     1      43.283 132.200  16.314  1.00  0.00     0.162 A 
ATOM     12  C   UNL     1      43.530 133.049  17.429  1.00  0.00     0.069 A 
ATOM     13  C   UNL     1      43.528 134.450  17.333  1.00  0.00     0.016 A 
ENDROOT
BRANCH  12  14
ATOM     14  C   UNL     1      43.676 132.446  18.774  1.00  0.00     0.252 C 
ATOM     15  O   UNL     1      42.774 131.687  19.227  1.00  0.00    -0.287 OA
BRANCH  14  16
ATOM     16  N   UNL     1      44.834 132.729  19.566  1.00  0.00    -0.017 NA
BRANCH  16  17
ATOM     17  N   UNL     1      45.025 132.160  20.641  1.00  0.00     0.009 N 
ATOM     18  N   UNL     1      45.218 131.591  21.714  1.00  0.00    -0.003 NA
ENDBRANCH  16  17
ENDBRANCH  14  16
ENDBRANCH  12  14
BRANCH   5  19
ATOM     19  N   UNL     1      39.626 135.983  17.385  1.00  0.00    -0.373 N 
ATOM     20  H   UNL     1      39.860 136.389  18.320  1.00  0.00     0.161 HD
BRANCH  19  21
ATOM     21  C   UNL     1      38.264 136.191  16.856  1.00  0.00     0.113 C 
ATOM     22  C   UNL     1      38.106 135.746  15.415  1.00  0.00     0.193 C 
ATOM     23  C   UNL     1      37.331 135.019  17.125  1.00  0.00     0.193 C 
ATOM     24  O   UNL     1      37.235 134.695  15.759  1.00  0.00    -0.376 OA
BRANCH  21  25
ATOM     25  C   UNL     1      37.639 137.558  17.198  1.00  0.00     0.247 C 
ATOM     26  F   UNL     1      38.306 138.563  16.522  1.00  0.00    -0.248 F 
ENDBRANCH  21  25
ENDBRANCH  19  21
ENDBRANCH   5  19
BRANCH  11  27
ATOM     27  O   UNL     1      43.879 130.930  16.278  1.00  0.00    -0.423 OA
BRANCH  27  28
ATOM     28  C   UNL     1      45.249 130.717  16.072  1.00  0.00     0.331 C 
ATOM     29  O   UNL     1      45.898 129.933  16.815  1.00  0.00    -0.250 OA
BRANCH  28  30
ATOM     30  C   UNL     1      45.972 131.520  15.030  1.00  0.00     0.118 C 
ATOM     31  C   UNL     1      45.726 131.120  13.580  1.00  0.00     0.040 C 
ATOM     32  C   UNL     1      47.112 130.919  14.202  1.00  0.00     0.022 C 
BRANCH  30  33
ATOM     33  N   UNL     1      46.061 132.962  15.234  1.00  0.00    -0.316 NA
ATOM     34  H   UNL     1      46.627 133.365  14.453  1.00  0.00     0.119 HD
ATOM     35  H   UNL     1      45.095 133.352  15.150  1.00  0.00     0.119 HD
ENDBRANCH  30  33
BRANCH  32  36
ATOM     36  C   UNL     1      47.489 129.441  14.402  1.00  0.00     0.003 C 
ATOM     37  C   UNL     1      48.567 129.024  13.404  1.00  0.00     0.004 C 
ENDBRANCH  32  36
ENDBRANCH  28  30
ENDBRANCH  27  28
ENDBRANCH  11  27
BRANCH   6  38
ATOM     38  N   UNL     1      40.369 133.205  17.374  1.00  0.00    -0.057 NA
BRANCH  38  39
ATOM     39  N   UNL     1      40.213 133.538  18.550  1.00  0.00     0.005 N 
ATOM     40  N   UNL     1      40.052 133.869  19.723  1.00  0.00    -0.003 NA
ENDBRANCH  38  39
ENDBRANCH   6  38
TORSDOF 13
ENDMDL
MODEL 9
REMARK VINA RESULT:      -5.6      1.687      2.022
REMARK SMILES CC[C@H]1C[C@@]1(N)C(=O)Oc1c(C(=O)N=[N+]=[N-])cccc([O-])c(NC2(CF)COC2)c(N=[N+]=[N-])c(Cl)c1Cl
REMARK SMILES IDX 18 1 19 2 20 3 21 4 22 5 30 6 34 7 35 8 36 9 37 10 10 11
REMARK SMILES IDX 11 12 17 13 12 14 13 15 14 16 15 17 16 18 23 19 24 21 27 22
REMARK SMILES IDX 29 23 28 24 25 25 26 26 9 27 7 28 8 29 5 30 4 31 3 32 6 33
REMARK SMILES IDX 2 36 1 37 31 38 32 39 33 40
REMARK H PARENT 23 20 6 34 6 35
ROOT
ATOM      1  C   UNL     1      43.783 135.484  15.775  1.00  0.00     0.000 A 
ATOM      2  C   UNL     1      42.841 136.436  15.379  1.00  0.00    -0.006 A 
ATOM      3  C   UNL     1      41.530 136.550  15.885  1.00  0.00    -0.084 A 
ATOM      4  O   UNL     1      40.890 137.769  15.689  1.00  0.00    -0.871 OA
ATOM      5  C   UNL     1      40.807 135.525  16.555  1.00  0.00     0.038 A 
ATOM      6  C   UNL     1      41.110 134.145  16.430  1.00  0.00     0.080 A 
ATOM      7  C   UNL     1      41.665 133.612  15.244  1.00  0.00     0.075 A 
ATOM      8  Cl  UNL     1      40.969 134.132  13.707  1.00  0.00    -0.082 Cl
ATOM      9  C   UNL     1      42.737 132.684  15.230  1.00  0.00     0.103 A 
ATOM     10  Cl  UNL     1      42.899 131.632  13.823  1.00  0.00    -0.079 Cl
ATOM     11  C   UNL     1      43.724 132.552  16.244  1.00  0.00     0.162 A 
ATOM     12  C   UNL     1      43.972 133.527  17.251  1.00  0.00     0.069 A 
ATOM     13  C   UNL     1      43.775 134.901  17.043  1.00  0.00     0.016 A 
ENDROOT
BRANCH  12  14
ATOM     14  C   UNL     1      44.335 133.076  18.614  1.00  0.00     0.252 C 
ATOM     15  O   UNL     1      44.160 133.843  19.601  1.00  0.00    -0.287 OA
BRANCH  14  16
ATOM     16  N   UNL     1      44.896 131.775  18.814  1.00  0.00    -0.017 NA
BRANCH  16  17
ATOM     17  N   UNL     1      45.356 131.440  19.906  1.00  0.00     0.009 N 
ATOM     18  N   UNL     1      45.814 131.106  20.997  1.00  0.00    -0.003 NA
ENDBRANCH  16  17
ENDBRANCH  14  16
ENDBRANCH  12  14
BRANCH   5  19
ATOM     19  N   UNL     1      39.731 135.943  17.421  1.00  0.00    -0.373 N 
ATOM     20  H   UNL     1      38.890 135.322  17.450  1.00  0.00     0.161 HD
BRANCH  19  21
ATOM     21  C   UNL     1      39.851 137.003  18.441  1.00  0.00     0.113 C 
ATOM     22  C   UNL     1      38.999 138.221  18.142  1.00  0.00     0.193 C 
ATOM     23  C   UNL     1      38.875 136.835  19.597  1.00  0.00     0.193 C 
ATOM     24  O   UNL     1      38.157 137.994  19.248  1.00  0.00    -0.376 OA
BRANCH  21  25
ATOM     25  C   UNL     1      41.292 137.300  18.899  1.00  0.00     0.247 C 
ATOM     26  F   UNL     1      41.373 137.218  20.277  1.00  0.00    -0.248 F 
ENDBRANCH  21  25
ENDBRANCH  19  21
ENDBRANCH   5  19
BRANCH  11  27
ATOM     27  O   UNL     1      44.476 131.367  16.242  1.00  0.00    -0.423 OA
BRANCH  27  28
ATOM     28  C   UNL     1      45.694 131.217  15.563  1.00  0.00     0.331 C 
ATOM     29  O   UNL     1      46.392 132.222  15.263  1.00  0.00    -0.250 OA
BRANCH  28  30
ATOM     30  C   UNL     1      46.111 129.855  15.089  1.00  0.00     0.118 C 
ATOM     31  C   UNL     1      47.587 129.684  14.745  1.00  0.00     0.040 C 
ATOM     32  C   UNL     1      46.531 129.606  13.638  1.00  0.00     0.022 C 
BRANCH  30  33
ATOM     33  N   UNL     1      45.528 128.700  15.763  1.00  0.00    -0.316 NA
ATOM     34  H   UNL     1      45.936 128.646  16.724  1.00  0.00     0.119 HD
ATOM     35  H   UNL     1      44.504 128.882  15.872  1.00  0.00     0.119 HD
ENDBRANCH  30  33
BRANCH  32  36
ATOM     36  C   UNL     1      46.579 130.787  12.654  1.00  0.00     0.003 C 
ATOM     37  C   UNL     1      47.464 130.451  11.456  1.00  0.00     0.004 C 
ENDBRANCH  32  36
ENDBRANCH  28  30
ENDBRANCH  27  28
ENDBRANCH  11  27
BRANCH   6  38
ATOM     38  N   UNL     1      40.830 133.288  17.549  1.00  0.00    -0.057 NA
BRANCH  38  39
ATOM     39  N   UNL     1      40.864 133.687  18.714  1.00  0.00     0.005 N 
ATOM     40  N   UNL     1      40.902 134.083  19.877  1.00  0.00    -0.003 NA
ENDBRANCH  38  39
ENDBRANCH   6  38
TORSDOF 13
ENDMDL


