REMARK SMILES CCc1nnn(CC2(C#N)CCCC2)c1C[N+](C)(C)Cc1cccc2ccccc12
REMARK SMILES IDX 3 1 4 2 5 3 6 4 15 5 2 6 1 7 16 8 17 9 18 10 19 11 20 12
REMARK SMILES IDX 21 13 22 14 30 15 23 16 29 17 25 18 24 19 28 20 26 21 27 22
REMARK SMILES IDX 7 23 8 24 11 25 14 26 12 27 13 28 9 29 10 30
REMARK H PARENT
ROOT
ATOM      1  C   UNL     1      -2.191  -1.186  -0.927  1.00  0.00     0.091 A 
ATOM      2  N   UNL     1      -3.224  -0.796  -1.699  1.00  0.00    -0.135 NA
ATOM      3  N   UNL     1      -2.830   0.281  -2.361  1.00  0.00    -0.067 NA
ATOM      4  N   UNL     1      -1.581   0.593  -2.053  1.00  0.00    -0.242 N 
ATOM      5  C   UNL     1      -1.124  -0.328  -1.171  1.00  0.00     0.116 A 
ENDROOT
BRANCH   1   6
ATOM      6  C   UNL     1      -2.258  -2.354   0.019  1.00  0.00     0.057 C 
ATOM      7  C   UNL     1      -3.549  -2.333   0.832  1.00  0.00     0.011 C 
ENDBRANCH   1   6
BRANCH   5   8
ATOM      8  C   UNL     1       0.280  -0.400  -0.587  1.00  0.00     0.322 C 
BRANCH   8   9
ATOM      9  N   UNL     1       1.238  -1.278  -1.334  1.00  0.00    -0.320 N 
ATOM     10  C   UNL     1       1.377  -0.813  -2.738  1.00  0.00     0.334 C 
ATOM     11  C   UNL     1       0.762  -2.684  -1.365  1.00  0.00     0.334 C 
BRANCH   9  12
ATOM     12  C   UNL     1       2.604  -1.214  -0.711  1.00  0.00     0.301 C 
BRANCH  12  13
ATOM     13  C   UNL     1       2.663  -1.613   0.766  1.00  0.00     0.014 A 
ATOM     14  C   UNL     1       2.822  -2.980   1.063  1.00  0.00     0.010 A 
ATOM     15  C   UNL     1       2.586  -0.679   1.845  1.00  0.00    -0.010 A 
ATOM     16  C   UNL     1       2.844  -3.436   2.378  1.00  0.00     0.001 A 
ATOM     17  C   UNL     1       2.509   0.719   1.648  1.00  0.00     0.009 A 
ATOM     18  C   UNL     1       2.599  -1.166   3.184  1.00  0.00    -0.018 A 
ATOM     19  C   UNL     1       2.720  -2.539   3.433  1.00  0.00     0.009 A 
ATOM     20  C   UNL     1       2.415   1.592   2.734  1.00  0.00     0.001 A 
ATOM     21  C   UNL     1       2.500  -0.274   4.263  1.00  0.00     0.009 A 
ATOM     22  C   UNL     1       2.405   1.098   4.037  1.00  0.00     0.001 A 
ENDBRANCH  12  13
ENDBRANCH   9  12
ENDBRANCH   8   9
ENDBRANCH   5   8
BRANCH   4  23
ATOM     23  C   UNL     1      -0.927   1.818  -2.532  1.00  0.00     0.169 C 
BRANCH  23  24
ATOM     24  C   UNL     1      -1.501   3.086  -1.845  1.00  0.00     0.077 C 
ATOM     25  C   UNL     1      -0.725   4.343  -2.253  1.00  0.00     0.024 C 
ATOM     26  C   UNL     1      -1.351   3.052  -0.320  1.00  0.00     0.024 C 
ATOM     27  C   UNL     1      -0.882   5.327  -1.096  1.00  0.00     0.002 C 
ATOM     28  C   UNL     1      -1.290   4.508   0.128  1.00  0.00     0.002 C 
BRANCH  24  29
ATOM     29  C   UNL     1      -2.927   3.258  -2.207  1.00  0.00     0.071 C 
ATOM     30  N   UNL     1      -4.041   3.394  -2.489  1.00  0.00    -0.198 NA
ENDBRANCH  24  29
ENDBRANCH  23  24
ENDBRANCH   4  23
TORSDOF 8


