MODEL 1
REMARK VINA RESULT:      -6.6      0.000      0.000
REMARK SMILES CC[C@H]1C[C@]1(N)C(=O)Oc1ccccc(O)c(NC2(CF)COC2)c(N=[N+]=[N-])c(Cl)c1Cl
REMARK SMILES IDX 15 1 14 2 13 3 12 4 11 5 10 6 31 7 32 8 29 9 30 10 25 11
REMARK SMILES IDX 17 12 16 13 18 15 19 17 22 18 24 19 23 20 20 21 21 22 26 23
REMARK SMILES IDX 27 24 28 25 9 26 7 27 8 28 5 29 4 30 3 31 6 32 2 35 1 36
REMARK H PARENT 16 14 18 16 6 33 6 34
ROOT
ATOM      1  C   UNL     1      41.440 135.472  15.695  1.00  0.00     0.139 A 
ATOM      2  C   UNL     1      42.445 136.151  14.968  1.00  0.00     0.048 A 
ATOM      3  C   UNL     1      43.831 136.115  15.220  1.00  0.00     0.004 A 
ATOM      4  C   UNL     1      44.474 135.109  15.948  1.00  0.00     0.004 A 
ATOM      5  C   UNL     1      43.985 133.802  15.981  1.00  0.00     0.049 A 
ATOM      6  C   UNL     1      43.922 133.030  17.156  1.00  0.00     0.151 A 
ATOM      7  C   UNL     1      43.879 133.588  18.455  1.00  0.00     0.102 A 
ATOM      8  Cl  UNL     1      44.461 132.552  19.767  1.00  0.00    -0.079 Cl
ATOM      9  C   UNL     1      43.327 134.859  18.790  1.00  0.00     0.075 A 
ATOM     10  Cl  UNL     1      43.601 135.467  20.424  1.00  0.00    -0.082 Cl
ATOM     11  C   UNL     1      42.488 135.618  17.927  1.00  0.00     0.085 A 
ATOM     12  C   UNL     1      41.593 134.999  17.026  1.00  0.00     0.088 A 
ENDROOT
BRANCH   1  13
ATOM     13  O   UNL     1      40.219 135.284  15.040  1.00  0.00    -0.506 OA
ATOM     14  H   UNL     1      40.157 135.067  14.053  1.00  0.00     0.293 HD
ENDBRANCH   1  13
BRANCH  12  15
ATOM     15  N   UNL     1      40.748 133.921  17.480  1.00  0.00    -0.369 N 
ATOM     16  H   UNL     1      40.853 133.006  16.990  1.00  0.00     0.161 HD
BRANCH  15  17
ATOM     17  C   UNL     1      39.560 134.130  18.328  1.00  0.00     0.113 C 
ATOM     18  C   UNL     1      38.359 133.301  17.915  1.00  0.00     0.193 C 
ATOM     19  C   UNL     1      38.685 135.289  17.871  1.00  0.00     0.193 C 
ATOM     20  O   UNL     1      37.609 134.438  17.553  1.00  0.00    -0.376 OA
BRANCH  17  21
ATOM     21  C   UNL     1      39.847 134.150  19.842  1.00  0.00     0.247 C 
ATOM     22  F   UNL     1      40.957 133.376  20.123  1.00  0.00    -0.248 F 
ENDBRANCH  17  21
ENDBRANCH  15  17
ENDBRANCH  12  15
BRANCH  11  23
ATOM     23  N   UNL     1      42.505 137.059  17.927  1.00  0.00    -0.057 NA
BRANCH  23  24
ATOM     24  N   UNL     1      41.755 137.758  18.616  1.00  0.00     0.005 N 
ATOM     25  N   UNL     1      40.997 138.462  19.290  1.00  0.00    -0.003 NA
ENDBRANCH  23  24
ENDBRANCH  11  23
BRANCH   6  26
ATOM     26  O   UNL     1      43.893 131.630  17.061  1.00  0.00    -0.424 OA
BRANCH  26  27
ATOM     27  C   UNL     1      44.993 130.823  16.739  1.00  0.00     0.331 C 
ATOM     28  O   UNL     1      45.939 130.653  17.554  1.00  0.00    -0.250 OA
BRANCH  27  29
ATOM     29  C   UNL     1      45.061 130.179  15.389  1.00  0.00     0.118 C 
ATOM     30  C   UNL     1      44.162 130.771  14.314  1.00  0.00     0.040 C 
ATOM     31  C   UNL     1      45.674 130.987  14.247  1.00  0.00     0.022 C 
BRANCH  29  32
ATOM     32  N   UNL     1      45.196 128.732  15.327  1.00  0.00    -0.316 NA
ATOM     33  H   UNL     1      44.238 128.322  15.403  1.00  0.00     0.119 HD
ATOM     34  H   UNL     1      45.561 128.490  14.378  1.00  0.00     0.119 HD
ENDBRANCH  29  32
BRANCH  31  35
ATOM     35  C   UNL     1      46.395 130.207  13.137  1.00  0.00     0.003 C 
ATOM     36  C   UNL     1      47.582 131.008  12.612  1.00  0.00     0.004 C 
ENDBRANCH  31  35
ENDBRANCH  27  29
ENDBRANCH  26  27
ENDBRANCH   6  26
TORSDOF 11
ENDMDL
MODEL 2
REMARK VINA RESULT:      -6.5      2.182      2.670
REMARK SMILES CC[C@H]1C[C@]1(N)C(=O)Oc1ccccc(O)c(NC2(CF)COC2)c(N=[N+]=[N-])c(Cl)c1Cl
REMARK SMILES IDX 15 1 14 2 13 3 12 4 11 5 10 6 31 7 32 8 29 9 30 10 25 11
REMARK SMILES IDX 17 12 16 13 18 15 19 17 22 18 24 19 23 20 20 21 21 22 26 23
REMARK SMILES IDX 27 24 28 25 9 26 7 27 8 28 5 29 4 30 3 31 6 32 2 35 1 36
REMARK H PARENT 16 14 18 16 6 33 6 34
ROOT
ATOM      1  C   UNL     1      42.759 136.476  16.089  1.00  0.00     0.139 A 
ATOM      2  C   UNL     1      43.763 136.886  16.998  1.00  0.00     0.048 A 
ATOM      3  C   UNL     1      44.217 136.169  18.123  1.00  0.00     0.004 A 
ATOM      4  C   UNL     1      44.056 134.791  18.298  1.00  0.00     0.004 A 
ATOM      5  C   UNL     1      43.997 133.917  17.212  1.00  0.00     0.049 A 
ATOM      6  C   UNL     1      43.075 132.858  17.122  1.00  0.00     0.151 A 
ATOM      7  C   UNL     1      41.845 132.832  17.822  1.00  0.00     0.102 A 
ATOM      8  Cl  UNL     1      41.156 131.230  18.125  1.00  0.00    -0.079 Cl
ATOM      9  C   UNL     1      41.093 133.978  18.210  1.00  0.00     0.075 A 
ATOM     10  Cl  UNL     1      39.719 133.729  19.290  1.00  0.00    -0.082 Cl
ATOM     11  C   UNL     1      41.314 135.289  17.704  1.00  0.00     0.085 A 
ATOM     12  C   UNL     1      41.758 135.510  16.381  1.00  0.00     0.088 A 
ENDROOT
BRANCH   1  13
ATOM     13  O   UNL     1      42.767 137.094  14.835  1.00  0.00    -0.506 OA
ATOM     14  H   UNL     1      41.924 137.440  14.393  1.00  0.00     0.293 HD
ENDBRANCH   1  13
BRANCH  12  15
ATOM     15  N   UNL     1      41.130 134.812  15.286  1.00  0.00    -0.369 N 
ATOM     16  H   UNL     1      41.750 134.226  14.687  1.00  0.00     0.161 HD
BRANCH  15  17
ATOM     17  C   UNL     1      39.780 135.141  14.788  1.00  0.00     0.113 C 
ATOM     18  C   UNL     1      38.789 134.000  14.910  1.00  0.00     0.193 C 
ATOM     19  C   UNL     1      39.606 134.888  13.298  1.00  0.00     0.193 C 
ATOM     20  O   UNL     1      38.662 133.865  13.514  1.00  0.00    -0.376 OA
BRANCH  17  21
ATOM     21  C   UNL     1      39.249 136.516  15.234  1.00  0.00     0.247 C 
ATOM     22  F   UNL     1      38.138 136.356  16.041  1.00  0.00    -0.248 F 
ENDBRANCH  17  21
ENDBRANCH  15  17
ENDBRANCH  12  15
BRANCH  11  23
ATOM     23  N   UNL     1      41.097 136.462  18.513  1.00  0.00    -0.057 NA
BRANCH  23  24
ATOM     24  N   UNL     1      39.990 136.982  18.692  1.00  0.00     0.005 N 
ATOM     25  N   UNL     1      38.892 137.516  18.873  1.00  0.00    -0.003 NA
ENDBRANCH  23  24
ENDBRANCH  11  23
BRANCH   6  26
ATOM     26  O   UNL     1      43.362 131.760  16.295  1.00  0.00    -0.424 OA
BRANCH  26  27
ATOM     27  C   UNL     1      44.488 130.935  16.418  1.00  0.00     0.331 C 
ATOM     28  O   UNL     1      45.111 130.838  17.509  1.00  0.00    -0.250 OA
BRANCH  27  29
ATOM     29  C   UNL     1      44.979 130.181  15.221  1.00  0.00     0.118 C 
ATOM     30  C   UNL     1      44.369 130.570  13.882  1.00  0.00     0.040 C 
ATOM     31  C   UNL     1      45.818 130.942  14.197  1.00  0.00     0.022 C 
BRANCH  29  32
ATOM     32  N   UNL     1      45.240 128.757  15.369  1.00  0.00    -0.316 NA
ATOM     33  H   UNL     1      45.588 128.402  14.449  1.00  0.00     0.119 HD
ATOM     34  H   UNL     1      46.021 128.651  16.056  1.00  0.00     0.119 HD
ENDBRANCH  29  32
BRANCH  31  35
ATOM     35  C   UNL     1      46.879 130.147  13.421  1.00  0.00     0.003 C 
ATOM     36  C   UNL     1      47.893 131.093  12.789  1.00  0.00     0.004 C 
ENDBRANCH  31  35
ENDBRANCH  27  29
ENDBRANCH  26  27
ENDBRANCH   6  26
TORSDOF 11
ENDMDL
MODEL 3
REMARK VINA RESULT:      -6.4      2.214      2.824
REMARK SMILES CC[C@H]1C[C@]1(N)C(=O)Oc1ccccc(O)c(NC2(CF)COC2)c(N=[N+]=[N-])c(Cl)c1Cl
REMARK SMILES IDX 15 1 14 2 13 3 12 4 11 5 10 6 31 7 32 8 29 9 30 10 25 11
REMARK SMILES IDX 17 12 16 13 18 15 19 17 22 18 24 19 23 20 20 21 21 22 26 23
REMARK SMILES IDX 27 24 28 25 9 26 7 27 8 28 5 29 4 30 3 31 6 32 2 35 1 36
REMARK H PARENT 16 14 18 16 6 33 6 34
ROOT
ATOM      1  C   UNL     1      42.736 137.045  16.228  1.00  0.00     0.139 A 
ATOM      2  C   UNL     1      43.605 137.598  17.197  1.00  0.00     0.048 A 
ATOM      3  C   UNL     1      44.042 136.974  18.383  1.00  0.00     0.004 A 
ATOM      4  C   UNL     1      44.026 135.593  18.600  1.00  0.00     0.004 A 
ATOM      5  C   UNL     1      44.161 134.685  17.550  1.00  0.00     0.049 A 
ATOM      6  C   UNL     1      43.378 133.523  17.428  1.00  0.00     0.151 A 
ATOM      7  C   UNL     1      42.105 133.373  18.027  1.00  0.00     0.102 A 
ATOM      8  Cl  UNL     1      41.581 131.710  18.338  1.00  0.00    -0.079 Cl
ATOM      9  C   UNL     1      41.194 134.433  18.305  1.00  0.00     0.075 A 
ATOM     10  Cl  UNL     1      39.772 134.057  19.280  1.00  0.00    -0.082 Cl
ATOM     11  C   UNL     1      41.306 135.745  17.766  1.00  0.00     0.085 A 
ATOM     12  C   UNL     1      41.832 135.976  16.476  1.00  0.00     0.088 A 
ENDROOT
BRANCH   1  13
ATOM     13  O   UNL     1      42.779 137.621  14.954  1.00  0.00    -0.506 OA
ATOM     14  H   UNL     1      42.482 138.572  14.776  1.00  0.00     0.293 HD
ENDBRANCH   1  13
BRANCH  12  15
ATOM     15  N   UNL     1      41.384 135.176  15.363  1.00  0.00    -0.369 N 
ATOM     16  H   UNL     1      42.121 134.686  14.812  1.00  0.00     0.161 HD
BRANCH  15  17
ATOM     17  C   UNL     1      40.031 135.284  14.784  1.00  0.00     0.113 C 
ATOM     18  C   UNL     1      39.971 134.960  13.304  1.00  0.00     0.193 C 
ATOM     19  C   UNL     1      39.690 136.687  14.302  1.00  0.00     0.193 C 
ATOM     20  O   UNL     1      39.619 136.280  12.956  1.00  0.00    -0.376 OA
BRANCH  17  21
ATOM     21  C   UNL     1      38.915 134.650  15.635  1.00  0.00     0.247 C 
ATOM     22  F   UNL     1      38.645 133.371  15.184  1.00  0.00    -0.248 F 
ENDBRANCH  17  21
ENDBRANCH  15  17
ENDBRANCH  12  15
BRANCH  11  23
ATOM     23  N   UNL     1      40.886 136.908  18.507  1.00  0.00    -0.057 NA
BRANCH  23  24
ATOM     24  N   UNL     1      39.874 137.566  18.244  1.00  0.00     0.005 N 
ATOM     25  N   UNL     1      38.872 138.233  17.970  1.00  0.00    -0.003 NA
ENDBRANCH  23  24
ENDBRANCH  11  23
BRANCH   6  26
ATOM     26  O   UNL     1      43.859 132.442  16.672  1.00  0.00    -0.424 OA
BRANCH  26  27
ATOM     27  C   UNL     1      44.820 131.520  17.110  1.00  0.00     0.331 C 
ATOM     28  O   UNL     1      45.003 131.300  18.336  1.00  0.00    -0.250 OA
BRANCH  27  29
ATOM     29  C   UNL     1      45.669 130.810  16.101  1.00  0.00     0.118 C 
ATOM     30  C   UNL     1      44.938 130.207  14.910  1.00  0.00     0.040 C 
ATOM     31  C   UNL     1      45.813 131.446  14.720  1.00  0.00     0.022 C 
BRANCH  29  32
ATOM     32  N   UNL     1      46.785 130.012  16.585  1.00  0.00    -0.316 NA
ATOM     33  H   UNL     1      46.476 129.537  17.463  1.00  0.00     0.119 HD
ATOM     34  H   UNL     1      46.968 129.266  15.878  1.00  0.00     0.119 HD
ENDBRANCH  29  32
BRANCH  31  35
ATOM     35  C   UNL     1      47.129 131.206  13.965  1.00  0.00     0.003 C 
ATOM     36  C   UNL     1      46.847 130.678  12.563  1.00  0.00     0.004 C 
ENDBRANCH  31  35
ENDBRANCH  27  29
ENDBRANCH  26  27
ENDBRANCH   6  26
TORSDOF 11
ENDMDL
MODEL 4
REMARK VINA RESULT:      -6.3      2.284      2.635
REMARK SMILES CC[C@H]1C[C@]1(N)C(=O)Oc1ccccc(O)c(NC2(CF)COC2)c(N=[N+]=[N-])c(Cl)c1Cl
REMARK SMILES IDX 15 1 14 2 13 3 12 4 11 5 10 6 31 7 32 8 29 9 30 10 25 11
REMARK SMILES IDX 17 12 16 13 18 15 19 17 22 18 24 19 23 20 20 21 21 22 26 23
REMARK SMILES IDX 27 24 28 25 9 26 7 27 8 28 5 29 4 30 3 31 6 32 2 35 1 36
REMARK H PARENT 16 14 18 16 6 33 6 34
ROOT
ATOM      1  C   UNL     1      40.877 136.746  14.828  1.00  0.00     0.139 A 
ATOM      2  C   UNL     1      42.104 137.446  14.908  1.00  0.00     0.048 A 
ATOM      3  C   UNL     1      43.200 137.122  15.732  1.00  0.00     0.004 A 
ATOM      4  C   UNL     1      43.422 135.859  16.290  1.00  0.00     0.004 A 
ATOM      5  C   UNL     1      42.984 134.694  15.660  1.00  0.00     0.049 A 
ATOM      6  C   UNL     1      42.371 133.629  16.346  1.00  0.00     0.151 A 
ATOM      7  C   UNL     1      41.708 133.778  17.587  1.00  0.00     0.102 A 
ATOM      8  Cl  UNL     1      41.597 132.323  18.590  1.00  0.00    -0.079 Cl
ATOM      9  C   UNL     1      41.056 134.962  18.037  1.00  0.00     0.075 A 
ATOM     10  Cl  UNL     1      40.511 135.011  19.715  1.00  0.00    -0.082 Cl
ATOM     11  C   UNL     1      40.728 136.063  17.197  1.00  0.00     0.085 A 
ATOM     12  C   UNL     1      40.377 135.884  15.840  1.00  0.00     0.088 A 
ENDROOT
BRANCH   1  13
ATOM     13  O   UNL     1      40.119 136.952  13.671  1.00  0.00    -0.506 OA
ATOM     14  H   UNL     1      39.426 137.686  13.596  1.00  0.00     0.293 HD
ENDBRANCH   1  13
BRANCH  12  15
ATOM     15  N   UNL     1      39.424 134.865  15.473  1.00  0.00    -0.369 N 
ATOM     16  H   UNL     1      39.729 134.176  14.753  1.00  0.00     0.161 HD
BRANCH  15  17
ATOM     17  C   UNL     1      37.987 134.949  15.798  1.00  0.00     0.113 C 
ATOM     18  C   UNL     1      37.076 134.645  14.625  1.00  0.00     0.193 C 
ATOM     19  C   UNL     1      37.413 136.350  15.644  1.00  0.00     0.193 C 
ATOM     20  O   UNL     1      36.572 135.961  14.583  1.00  0.00    -0.376 OA
BRANCH  17  21
ATOM     21  C   UNL     1      37.588 134.276  17.125  1.00  0.00     0.247 C 
ATOM     22  F   UNL     1      36.880 135.164  17.913  1.00  0.00    -0.248 F 
ENDBRANCH  17  21
ENDBRANCH  15  17
ENDBRANCH  12  15
BRANCH  11  23
ATOM     23  N   UNL     1      40.735 137.419  17.685  1.00  0.00    -0.057 NA
BRANCH  23  24
ATOM     24  N   UNL     1      39.717 138.099  17.850  1.00  0.00     0.005 N 
ATOM     25  N   UNL     1      38.701 138.777  18.031  1.00  0.00    -0.003 NA
ENDBRANCH  23  24
ENDBRANCH  11  23
BRANCH   6  26
ATOM     26  O   UNL     1      42.398 132.341  15.788  1.00  0.00    -0.424 OA
BRANCH  26  27
ATOM     27  C   UNL     1      43.165 131.962  14.677  1.00  0.00     0.331 C 
ATOM     28  O   UNL     1      42.657 131.894  13.526  1.00  0.00    -0.250 OA
BRANCH  27  29
ATOM     29  C   UNL     1      44.605 131.600  14.868  1.00  0.00     0.118 C 
ATOM     30  C   UNL     1      44.892 130.156  15.251  1.00  0.00     0.040 C 
ATOM     31  C   UNL     1      45.242 130.657  13.850  1.00  0.00     0.022 C 
BRANCH  29  32
ATOM     32  N   UNL     1      45.476 132.574  15.509  1.00  0.00    -0.316 NA
ATOM     33  H   UNL     1      46.102 132.972  14.772  1.00  0.00     0.119 HD
ATOM     34  H   UNL     1      44.874 133.354  15.856  1.00  0.00     0.119 HD
ENDBRANCH  29  32
BRANCH  31  35
ATOM     35  C   UNL     1      46.744 130.825  13.574  1.00  0.00     0.003 C 
ATOM     36  C   UNL     1      47.053 130.508  12.115  1.00  0.00     0.004 C 
ENDBRANCH  31  35
ENDBRANCH  27  29
ENDBRANCH  26  27
ENDBRANCH   6  26
TORSDOF 11
ENDMDL
MODEL 5
REMARK VINA RESULT:      -6.2      1.822      2.039
REMARK SMILES CC[C@H]1C[C@]1(N)C(=O)Oc1ccccc(O)c(NC2(CF)COC2)c(N=[N+]=[N-])c(Cl)c1Cl
REMARK SMILES IDX 15 1 14 2 13 3 12 4 11 5 10 6 31 7 32 8 29 9 30 10 25 11
REMARK SMILES IDX 17 12 16 13 18 15 19 17 22 18 24 19 23 20 20 21 21 22 26 23
REMARK SMILES IDX 27 24 28 25 9 26 7 27 8 28 5 29 4 30 3 31 6 32 2 35 1 36
REMARK H PARENT 16 14 18 16 6 33 6 34
ROOT
ATOM      1  C   UNL     1      41.585 136.316  15.799  1.00  0.00     0.139 A 
ATOM      2  C   UNL     1      42.783 137.038  16.015  1.00  0.00     0.048 A 
ATOM      3  C   UNL     1      43.813 136.700  16.914  1.00  0.00     0.004 A 
ATOM      4  C   UNL     1      44.019 135.418  17.432  1.00  0.00     0.004 A 
ATOM      5  C   UNL     1      43.666 134.273  16.717  1.00  0.00     0.049 A 
ATOM      6  C   UNL     1      43.024 133.165  17.300  1.00  0.00     0.151 A 
ATOM      7  C   UNL     1      42.255 133.243  18.486  1.00  0.00     0.102 A 
ATOM      8  Cl  UNL     1      42.098 131.741  19.411  1.00  0.00    -0.079 Cl
ATOM      9  C   UNL     1      41.539 134.391  18.930  1.00  0.00     0.075 A 
ATOM     10  Cl  UNL     1      40.853 134.351  20.556  1.00  0.00    -0.082 Cl
ATOM     11  C   UNL     1      41.255 135.521  18.115  1.00  0.00     0.085 A 
ATOM     12  C   UNL     1      41.024 135.398  16.726  1.00  0.00     0.088 A 
ENDROOT
BRANCH   1  13
ATOM     13  O   UNL     1      40.923 136.559  14.592  1.00  0.00    -0.506 OA
ATOM     14  H   UNL     1      40.387 137.401  14.423  1.00  0.00     0.293 HD
ENDBRANCH   1  13
BRANCH  12  15
ATOM     15  N   UNL     1      40.131 134.376  16.235  1.00  0.00    -0.369 N 
ATOM     16  H   UNL     1      40.481 133.787  15.449  1.00  0.00     0.161 HD
BRANCH  15  17
ATOM     17  C   UNL     1      38.689 134.349  16.543  1.00  0.00     0.113 C 
ATOM     18  C   UNL     1      37.801 134.306  15.315  1.00  0.00     0.193 C 
ATOM     19  C   UNL     1      38.078 135.733  16.709  1.00  0.00     0.193 C 
ATOM     20  O   UNL     1      37.262 135.582  15.571  1.00  0.00    -0.376 OA
BRANCH  17  21
ATOM     21  C   UNL     1      38.291 133.375  17.669  1.00  0.00     0.247 C 
ATOM     22  F   UNL     1      37.074 133.749  18.209  1.00  0.00    -0.248 F 
ENDBRANCH  17  21
ENDBRANCH  15  17
ENDBRANCH  12  15
BRANCH  11  23
ATOM     23  N   UNL     1      41.186 136.854  18.661  1.00  0.00    -0.057 NA
BRANCH  23  24
ATOM     24  N   UNL     1      41.838 137.233  19.639  1.00  0.00     0.005 N 
ATOM     25  N   UNL     1      42.491 137.627  20.611  1.00  0.00    -0.003 NA
ENDBRANCH  23  24
ENDBRANCH  11  23
BRANCH   6  26
ATOM     26  O   UNL     1      43.131 131.905  16.691  1.00  0.00    -0.424 OA
BRANCH  26  27
ATOM     27  C   UNL     1      43.615 131.678  15.395  1.00  0.00     0.331 C 
ATOM     28  O   UNL     1      42.900 131.903  14.382  1.00  0.00    -0.250 OA
BRANCH  27  29
ATOM     29  C   UNL     1      44.994 131.125  15.212  1.00  0.00     0.118 C 
ATOM     30  C   UNL     1      45.086 129.663  14.799  1.00  0.00     0.040 C 
ATOM     31  C   UNL     1      45.433 130.763  13.795  1.00  0.00     0.022 C 
BRANCH  29  32
ATOM     32  N   UNL     1      46.030 131.551  16.141  1.00  0.00    -0.316 NA
ATOM     33  H   UNL     1      45.698 132.426  16.605  1.00  0.00     0.119 HD
ATOM     34  H   UNL     1      46.107 130.818  16.883  1.00  0.00     0.119 HD
ENDBRANCH  29  32
BRANCH  31  35
ATOM     35  C   UNL     1      46.927 130.894  13.463  1.00  0.00     0.003 C 
ATOM     36  C   UNL     1      47.183 130.505  12.011  1.00  0.00     0.004 C 
ENDBRANCH  31  35
ENDBRANCH  27  29
ENDBRANCH  26  27
ENDBRANCH   6  26
TORSDOF 11
ENDMDL
MODEL 6
REMARK VINA RESULT:      -6.0      2.105      2.704
REMARK SMILES CC[C@H]1C[C@]1(N)C(=O)Oc1ccccc(O)c(NC2(CF)COC2)c(N=[N+]=[N-])c(Cl)c1Cl
REMARK SMILES IDX 15 1 14 2 13 3 12 4 11 5 10 6 31 7 32 8 29 9 30 10 25 11
REMARK SMILES IDX 17 12 16 13 18 15 19 17 22 18 24 19 23 20 20 21 21 22 26 23
REMARK SMILES IDX 27 24 28 25 9 26 7 27 8 28 5 29 4 30 3 31 6 32 2 35 1 36
REMARK H PARENT 16 14 18 16 6 33 6 34
ROOT
ATOM      1  C   UNL     1      42.416 137.052  16.219  1.00  0.00     0.139 A 
ATOM      2  C   UNL     1      43.215 137.950  16.965  1.00  0.00     0.048 A 
ATOM      3  C   UNL     1      43.788 137.708  18.230  1.00  0.00     0.004 A 
ATOM      4  C   UNL     1      44.007 136.436  18.766  1.00  0.00     0.004 A 
ATOM      5  C   UNL     1      44.254 135.330  17.952  1.00  0.00     0.049 A 
ATOM      6  C   UNL     1      43.668 134.068  18.165  1.00  0.00     0.151 A 
ATOM      7  C   UNL     1      42.458 133.879  18.873  1.00  0.00     0.102 A 
ATOM      8  Cl  UNL     1      42.226 132.283  19.604  1.00  0.00    -0.079 Cl
ATOM      9  C   UNL     1      41.396 134.825  18.960  1.00  0.00     0.075 A 
ATOM     10  Cl  UNL     1      40.089 134.487  20.097  1.00  0.00    -0.082 Cl
ATOM     11  C   UNL     1      41.272 135.966  18.121  1.00  0.00     0.085 A 
ATOM     12  C   UNL     1      41.709 135.953  16.778  1.00  0.00     0.088 A 
ENDROOT
BRANCH   1  13
ATOM     13  O   UNL     1      42.320 137.299  14.846  1.00  0.00    -0.506 OA
ATOM     14  H   UNL     1      41.467 137.625  14.410  1.00  0.00     0.293 HD
ENDBRANCH   1  13
BRANCH  12  15
ATOM     15  N   UNL     1      41.360 134.846  15.920  1.00  0.00    -0.369 N 
ATOM     16  H   UNL     1      42.151 134.319  15.492  1.00  0.00     0.161 HD
BRANCH  15  17
ATOM     17  C   UNL     1      40.005 134.647  15.371  1.00  0.00     0.113 C 
ATOM     18  C   UNL     1      39.992 134.095  13.958  1.00  0.00     0.193 C 
ATOM     19  C   UNL     1      39.437 135.886  14.695  1.00  0.00     0.193 C 
ATOM     20  O   UNL     1      39.428 135.272  13.428  1.00  0.00    -0.376 OA
BRANCH  17  21
ATOM     21  C   UNL     1      39.012 133.978  16.340  1.00  0.00     0.247 C 
ATOM     22  F   UNL     1      37.746 133.962  15.784  1.00  0.00    -0.248 F 
ENDBRANCH  17  21
ENDBRANCH  15  17
ENDBRANCH  12  15
BRANCH  11  23
ATOM     23  N   UNL     1      40.693 137.198  18.596  1.00  0.00    -0.057 NA
BRANCH  23  24
ATOM     24  N   UNL     1      39.541 137.563  18.338  1.00  0.00     0.005 N 
ATOM     25  N   UNL     1      38.385 137.925  18.097  1.00  0.00    -0.003 NA
ENDBRANCH  23  24
ENDBRANCH  11  23
BRANCH   6  26
ATOM     26  O   UNL     1      44.294 132.921  17.652  1.00  0.00    -0.424 OA
BRANCH  26  27
ATOM     27  C   UNL     1      44.259 132.518  16.310  1.00  0.00     0.331 C 
ATOM     28  O   UNL     1      43.494 133.077  15.480  1.00  0.00    -0.250 OA
BRANCH  27  29
ATOM     29  C   UNL     1      45.122 131.379  15.863  1.00  0.00     0.118 C 
ATOM     30  C   UNL     1      44.622 130.583  14.666  1.00  0.00     0.040 C 
ATOM     31  C   UNL     1      45.829 131.509  14.516  1.00  0.00     0.022 C 
BRANCH  29  32
ATOM     32  N   UNL     1      45.779 130.576  16.883  1.00  0.00    -0.316 NA
ATOM     33  H   UNL     1      45.818 131.147  17.758  1.00  0.00     0.119 HD
ATOM     34  H   UNL     1      45.165 129.753  17.079  1.00  0.00     0.119 HD
ENDBRANCH  29  32
BRANCH  31  35
ATOM     35  C   UNL     1      47.181 130.798  14.354  1.00  0.00     0.003 C 
ATOM     36  C   UNL     1      47.752 131.054  12.965  1.00  0.00     0.004 C 
ENDBRANCH  31  35
ENDBRANCH  27  29
ENDBRANCH  26  27
ENDBRANCH   6  26
TORSDOF 11
ENDMDL
MODEL 7
REMARK VINA RESULT:      -5.9      2.311      2.699
REMARK SMILES CC[C@H]1C[C@]1(N)C(=O)Oc1ccccc(O)c(NC2(CF)COC2)c(N=[N+]=[N-])c(Cl)c1Cl
REMARK SMILES IDX 15 1 14 2 13 3 12 4 11 5 10 6 31 7 32 8 29 9 30 10 25 11
REMARK SMILES IDX 17 12 16 13 18 15 19 17 22 18 24 19 23 20 20 21 21 22 26 23
REMARK SMILES IDX 27 24 28 25 9 26 7 27 8 28 5 29 4 30 3 31 6 32 2 35 1 36
REMARK H PARENT 16 14 18 16 6 33 6 34
ROOT
ATOM      1  C   UNL     1      42.116 136.758  15.895  1.00  0.00     0.139 A 
ATOM      2  C   UNL     1      43.120 137.484  16.577  1.00  0.00     0.048 A 
ATOM      3  C   UNL     1      43.838 137.055  17.711  1.00  0.00     0.004 A 
ATOM      4  C   UNL     1      43.976 135.719  18.099  1.00  0.00     0.004 A 
ATOM      5  C   UNL     1      43.962 134.680  17.167  1.00  0.00     0.049 A 
ATOM      6  C   UNL     1      43.264 133.475  17.364  1.00  0.00     0.151 A 
ATOM      7  C   UNL     1      42.156 133.347  18.236  1.00  0.00     0.102 A 
ATOM      8  Cl  UNL     1      41.840 131.721  18.859  1.00  0.00    -0.079 Cl
ATOM      9  C   UNL     1      41.243 134.390  18.567  1.00  0.00     0.075 A 
ATOM     10  Cl  UNL     1      40.085 134.083  19.864  1.00  0.00    -0.082 Cl
ATOM     11  C   UNL     1      41.138 135.617  17.856  1.00  0.00     0.085 A 
ATOM     12  C   UNL     1      41.369 135.692  16.464  1.00  0.00     0.088 A 
ENDROOT
BRANCH   1  13
ATOM     13  O   UNL     1      41.850 137.152  14.579  1.00  0.00    -0.506 OA
ATOM     14  H   UNL     1      42.112 138.061  14.219  1.00  0.00     0.293 HD
ENDBRANCH   1  13
BRANCH  12  15
ATOM     15  N   UNL     1      40.764 134.722  15.583  1.00  0.00    -0.369 N 
ATOM     16  H   UNL     1      41.384 133.962  15.228  1.00  0.00     0.161 HD
BRANCH  15  17
ATOM     17  C   UNL     1      39.465 134.935  14.918  1.00  0.00     0.113 C 
ATOM     18  C   UNL     1      38.660 136.081  15.502  1.00  0.00     0.193 C 
ATOM     19  C   UNL     1      38.340 134.092  15.502  1.00  0.00     0.193 C 
ATOM     20  O   UNL     1      37.646 135.223  15.973  1.00  0.00    -0.376 OA
BRANCH  17  21
ATOM     21  C   UNL     1      39.516 134.892  13.379  1.00  0.00     0.247 C 
ATOM     22  F   UNL     1      38.424 135.557  12.851  1.00  0.00    -0.248 F 
ENDBRANCH  17  21
ENDBRANCH  15  17
ENDBRANCH  12  15
BRANCH  11  23
ATOM     23  N   UNL     1      40.791 136.850  18.516  1.00  0.00    -0.057 NA
BRANCH  23  24
ATOM     24  N   UNL     1      39.630 137.224  18.715  1.00  0.00     0.005 N 
ATOM     25  N   UNL     1      38.475 137.613  18.911  1.00  0.00    -0.003 NA
ENDBRANCH  23  24
ENDBRANCH  11  23
BRANCH   6  26
ATOM     26  O   UNL     1      43.662 132.324  16.666  1.00  0.00    -0.424 OA
BRANCH  26  27
ATOM     27  C   UNL     1      44.814 131.575  16.941  1.00  0.00     0.331 C 
ATOM     28  O   UNL     1      45.347 131.592  18.083  1.00  0.00    -0.250 OA
BRANCH  27  29
ATOM     29  C   UNL     1      45.443 130.767  15.848  1.00  0.00     0.118 C 
ATOM     30  C   UNL     1      44.765 130.831  14.487  1.00  0.00     0.040 C 
ATOM     31  C   UNL     1      46.112 131.522  14.701  1.00  0.00     0.022 C 
BRANCH  29  32
ATOM     32  N   UNL     1      45.983 129.460  16.188  1.00  0.00    -0.316 NA
ATOM     33  H   UNL     1      46.402 129.056  15.320  1.00  0.00     0.119 HD
ATOM     34  H   UNL     1      46.762 129.608  16.868  1.00  0.00     0.119 HD
ENDBRANCH  29  32
BRANCH  31  35
ATOM     35  C   UNL     1      47.308 130.848  14.013  1.00  0.00     0.003 C 
ATOM     36  C   UNL     1      47.032 130.671  12.524  1.00  0.00     0.004 C 
ENDBRANCH  31  35
ENDBRANCH  27  29
ENDBRANCH  26  27
ENDBRANCH   6  26
TORSDOF 11
ENDMDL
MODEL 8
REMARK VINA RESULT:      -5.8      3.052      4.407
REMARK SMILES CC[C@H]1C[C@]1(N)C(=O)Oc1ccccc(O)c(NC2(CF)COC2)c(N=[N+]=[N-])c(Cl)c1Cl
REMARK SMILES IDX 15 1 14 2 13 3 12 4 11 5 10 6 31 7 32 8 29 9 30 10 25 11
REMARK SMILES IDX 17 12 16 13 18 15 19 17 22 18 24 19 23 20 20 21 21 22 26 23
REMARK SMILES IDX 27 24 28 25 9 26 7 27 8 28 5 29 4 30 3 31 6 32 2 35 1 36
REMARK H PARENT 16 14 18 16 6 33 6 34
ROOT
ATOM      1  C   UNL     1      43.484 134.271  20.083  1.00  0.00     0.139 A 
ATOM      2  C   UNL     1      43.083 133.076  20.724  1.00  0.00     0.048 A 
ATOM      3  C   UNL     1      42.378 132.006  20.137  1.00  0.00     0.004 A 
ATOM      4  C   UNL     1      42.316 131.763  18.761  1.00  0.00     0.004 A 
ATOM      5  C   UNL     1      43.355 132.130  17.905  1.00  0.00     0.049 A 
ATOM      6  C   UNL     1      43.146 132.733  16.651  1.00  0.00     0.151 A 
ATOM      7  C   UNL     1      41.976 133.456  16.318  1.00  0.00     0.102 A 
ATOM      8  Cl  UNL     1      41.589 133.558  14.593  1.00  0.00    -0.079 Cl
ATOM      9  C   UNL     1      41.157 134.170  17.239  1.00  0.00     0.075 A 
ATOM     10  Cl  UNL     1      39.612 134.791  16.652  1.00  0.00    -0.082 Cl
ATOM     11  C   UNL     1      41.547 134.500  18.566  1.00  0.00     0.085 A 
ATOM     12  C   UNL     1      42.891 134.784  18.897  1.00  0.00     0.088 A 
ENDROOT
BRANCH   1  13
ATOM     13  O   UNL     1      44.523 134.983  20.690  1.00  0.00    -0.506 OA
ATOM     14  H   UNL     1      44.405 135.926  21.041  1.00  0.00     0.293 HD
ENDBRANCH   1  13
BRANCH  12  15
ATOM     15  N   UNL     1      43.661 135.682  18.071  1.00  0.00    -0.369 N 
ATOM     16  H   UNL     1      44.496 135.279  17.594  1.00  0.00     0.161 HD
BRANCH  15  17
ATOM     17  C   UNL     1      43.530 137.150  18.136  1.00  0.00     0.113 C 
ATOM     18  C   UNL     1      44.792 137.857  18.590  1.00  0.00     0.193 C 
ATOM     19  C   UNL     1      42.990 137.651  19.467  1.00  0.00     0.193 C 
ATOM     20  O   UNL     1      44.194 138.310  19.783  1.00  0.00    -0.376 OA
BRANCH  17  21
ATOM     21  C   UNL     1      42.828 137.786  16.921  1.00  0.00     0.247 C 
ATOM     22  F   UNL     1      43.138 137.082  15.772  1.00  0.00    -0.248 F 
ENDBRANCH  17  21
ENDBRANCH  15  17
ENDBRANCH  12  15
BRANCH  11  23
ATOM     23  N   UNL     1      40.593 134.565  19.645  1.00  0.00    -0.057 NA
BRANCH  23  24
ATOM     24  N   UNL     1      39.944 135.576  19.933  1.00  0.00     0.005 N 
ATOM     25  N   UNL     1      39.284 136.582  20.211  1.00  0.00    -0.003 NA
ENDBRANCH  23  24
ENDBRANCH  11  23
BRANCH   6  26
ATOM     26  O   UNL     1      44.138 132.634  15.663  1.00  0.00    -0.424 OA
BRANCH  26  27
ATOM     27  C   UNL     1      44.489 131.454  14.992  1.00  0.00     0.331 C 
ATOM     28  O   UNL     1      43.610 130.650  14.583  1.00  0.00    -0.250 OA
BRANCH  27  29
ATOM     29  C   UNL     1      45.936 131.128  14.789  1.00  0.00     0.118 C 
ATOM     30  C   UNL     1      46.495 129.989  15.630  1.00  0.00     0.040 C 
ATOM     31  C   UNL     1      46.278 129.794  14.129  1.00  0.00     0.022 C 
BRANCH  29  32
ATOM     32  N   UNL     1      46.863 132.230  14.582  1.00  0.00    -0.316 NA
ATOM     33  H   UNL     1      46.616 132.983  15.262  1.00  0.00     0.119 HD
ATOM     34  H   UNL     1      47.818 131.888  14.832  1.00  0.00     0.119 HD
ENDBRANCH  29  32
BRANCH  31  35
ATOM     35  C   UNL     1      47.562 129.730  13.288  1.00  0.00     0.003 C 
ATOM     36  C   UNL     1      47.348 130.415  11.943  1.00  0.00     0.004 C 
ENDBRANCH  31  35
ENDBRANCH  27  29
ENDBRANCH  26  27
ENDBRANCH   6  26
TORSDOF 11
ENDMDL
MODEL 9
REMARK VINA RESULT:      -5.8      2.987      4.277
REMARK SMILES CC[C@H]1C[C@]1(N)C(=O)Oc1ccccc(O)c(NC2(CF)COC2)c(N=[N+]=[N-])c(Cl)c1Cl
REMARK SMILES IDX 15 1 14 2 13 3 12 4 11 5 10 6 31 7 32 8 29 9 30 10 25 11
REMARK SMILES IDX 17 12 16 13 18 15 19 17 22 18 24 19 23 20 20 21 21 22 26 23
REMARK SMILES IDX 27 24 28 25 9 26 7 27 8 28 5 29 4 30 3 31 6 32 2 35 1 36
REMARK H PARENT 16 14 18 16 6 33 6 34
ROOT
ATOM      1  C   UNL     1      42.735 134.177  19.649  1.00  0.00     0.139 A 
ATOM      2  C   UNL     1      42.370 132.914  20.171  1.00  0.00     0.048 A 
ATOM      3  C   UNL     1      41.716 131.877  19.475  1.00  0.00     0.004 A 
ATOM      4  C   UNL     1      41.685 131.759  18.082  1.00  0.00     0.004 A 
ATOM      5  C   UNL     1      42.723 132.240  17.283  1.00  0.00     0.049 A 
ATOM      6  C   UNL     1      42.511 132.948  16.085  1.00  0.00     0.151 A 
ATOM      7  C   UNL     1      41.319 133.655  15.797  1.00  0.00     0.102 A 
ATOM      8  Cl  UNL     1      40.956 133.899  14.081  1.00  0.00    -0.079 Cl
ATOM      9  C   UNL     1      40.459 134.250  16.763  1.00  0.00     0.075 A 
ATOM     10  Cl  UNL     1      38.901 134.865  16.205  1.00  0.00    -0.082 Cl
ATOM     11  C   UNL     1      40.815 134.472  18.122  1.00  0.00     0.085 A 
ATOM     12  C   UNL     1      42.142 134.773  18.504  1.00  0.00     0.088 A 
ENDROOT
BRANCH   1  13
ATOM     13  O   UNL     1      43.736 134.868  20.338  1.00  0.00    -0.506 OA
ATOM     14  H   UNL     1      44.697 134.895  20.020  1.00  0.00     0.293 HD
ENDBRANCH   1  13
BRANCH  12  15
ATOM     15  N   UNL     1      42.890 135.771  17.777  1.00  0.00    -0.369 N 
ATOM     16  H   UNL     1      43.836 135.493  17.440  1.00  0.00     0.161 HD
BRANCH  15  17
ATOM     17  C   UNL     1      42.540 137.204  17.783  1.00  0.00     0.113 C 
ATOM     18  C   UNL     1      41.873 137.676  16.505  1.00  0.00     0.193 C 
ATOM     19  C   UNL     1      43.670 138.105  17.307  1.00  0.00     0.193 C 
ATOM     20  O   UNL     1      42.954 138.514  16.166  1.00  0.00    -0.376 OA
BRANCH  17  21
ATOM     21  C   UNL     1      41.880 137.699  19.083  1.00  0.00     0.247 C 
ATOM     22  F   UNL     1      42.279 138.995  19.353  1.00  0.00    -0.248 F 
ENDBRANCH  17  21
ENDBRANCH  15  17
ENDBRANCH  12  15
BRANCH  11  23
ATOM     23  N   UNL     1      39.842 134.403  19.183  1.00  0.00    -0.057 NA
BRANCH  23  24
ATOM     24  N   UNL     1      38.692 133.976  19.038  1.00  0.00     0.005 N 
ATOM     25  N   UNL     1      37.537 133.558  18.907  1.00  0.00    -0.003 NA
ENDBRANCH  23  24
ENDBRANCH  11  23
BRANCH   6  26
ATOM     26  O   UNL     1      43.522 132.975  15.112  1.00  0.00    -0.424 OA
BRANCH  26  27
ATOM     27  C   UNL     1      44.811 132.453  15.277  1.00  0.00     0.331 C 
ATOM     28  O   UNL     1      45.757 133.169  15.700  1.00  0.00    -0.250 OA
BRANCH  27  29
ATOM     29  C   UNL     1      45.077 131.025  14.911  1.00  0.00     0.118 C 
ATOM     30  C   UNL     1      44.458 130.536  13.610  1.00  0.00     0.040 C 
ATOM     31  C   UNL     1      45.968 130.756  13.700  1.00  0.00     0.022 C 
BRANCH  29  32
ATOM     32  N   UNL     1      45.088 130.036  15.978  1.00  0.00    -0.316 NA
ATOM     33  H   UNL     1      44.350 129.329  15.762  1.00  0.00     0.119 HD
ATOM     34  H   UNL     1      46.009 129.543  15.940  1.00  0.00     0.119 HD
ENDBRANCH  29  32
BRANCH  31  35
ATOM     35  C   UNL     1      46.814 129.474  13.716  1.00  0.00     0.003 C 
ATOM     36  C   UNL     1      48.284 129.805  13.487  1.00  0.00     0.004 C 
ENDBRANCH  31  35
ENDBRANCH  27  29
ENDBRANCH  26  27
ENDBRANCH   6  26
TORSDOF 11
ENDMDL


