REMARK SMILES C#CCO/C([O-])=C\[C@H]1CC[C@@H]2C(=O)N(O)C(=O)c3ccc(N=[N+]=[N-])c1c32
REMARK SMILES IDX 5 1 6 2 4 3 3 4 2 5 1 6 7 7 8 8 25 9 9 10 21 11 26 12 10 13
REMARK SMILES IDX 20 14 18 15 11 16 19 17 16 18 12 19 14 20 17 21 13 22 22 23
REMARK SMILES IDX 23 24 24 25 15 26
REMARK H PARENT 15 27
ROOT
ATOM      1  C   UNL     1       1.402   1.971   2.077  1.00  0.00     0.049 C 
ATOM      2  O   UNL     1       2.018   2.692   3.096  1.00  0.00    -0.547 OA
ENDROOT
BRANCH   1   3
ATOM      3  O   UNL     1       2.138   1.061   1.314  1.00  0.00    -0.601 OA
BRANCH   3   4
ATOM      4  C   UNL     1       3.512   0.791   1.547  1.00  0.00     0.160 C 
BRANCH   4   5
ATOM      5  C   UNL     1       3.949  -0.257   0.625  1.00  0.00    -0.095 C 
ATOM      6  C   UNL     1       4.299  -1.123  -0.138  1.00  0.00     0.005 C 
ENDBRANCH   4   5
ENDBRANCH   3   4
ENDBRANCH   1   3
BRANCH   1   7
ATOM      7  C   UNL     1       0.098   2.150   1.840  1.00  0.00     0.005 C 
BRANCH   7   8
ATOM      8  C   UNL     1      -0.658   1.406   0.756  1.00  0.00     0.044 C 
ATOM      9  C   UNL     1      -0.501  -0.113   0.904  1.00  0.00    -0.027 A 
ATOM     10  C   UNL     1      -0.269   1.981  -0.627  1.00  0.00     0.014 C 
ATOM     11  C   UNL     1      -0.901  -0.736   2.112  1.00  0.00     0.042 A 
ATOM     12  C   UNL     1      -0.002  -0.912  -0.162  1.00  0.00    -0.018 A 
ATOM     13  C   UNL     1      -0.440   0.966  -1.751  1.00  0.00     0.019 C 
ATOM     14  C   UNL     1      -0.722  -2.118   2.275  1.00  0.00     0.011 A 
ATOM     15  C   UNL     1       0.157  -2.305   0.025  1.00  0.00     0.047 A 
ATOM     16  C   UNL     1       0.441  -0.258  -1.462  1.00  0.00     0.112 C 
ATOM     17  C   UNL     1      -0.190  -2.890   1.249  1.00  0.00     0.015 A 
ATOM     18  C   UNL     1       0.627  -3.152  -1.090  1.00  0.00     0.284 C 
ATOM     19  C   UNL     1       0.452  -1.219  -2.631  1.00  0.00     0.261 C 
ATOM     20  N   UNL     1       0.684  -2.614  -2.412  1.00  0.00    -0.151 N 
ATOM     21  O   UNL     1       0.942  -4.357  -0.892  1.00  0.00    -0.266 OA
ATOM     22  O   UNL     1       0.370  -0.784  -3.812  1.00  0.00    -0.271 OA
BRANCH  11  23
ATOM     23  N   UNL     1      -1.492   0.052   3.159  1.00  0.00    -0.060 NA
BRANCH  23  24
ATOM     24  N   UNL     1      -1.852  -0.433   4.233  1.00  0.00     0.005 N 
ATOM     25  N   UNL     1      -2.213  -0.915   5.306  1.00  0.00    -0.003 NA
ENDBRANCH  23  24
ENDBRANCH  11  23
BRANCH  20  26
ATOM     26  O   UNL     1       0.963  -3.426  -3.462  1.00  0.00    -0.278 OA
ATOM     27  H   UNL     1       0.081  -3.756  -3.772  1.00  0.00     0.247 HD
ENDBRANCH  20  26
ENDBRANCH   7   8
ENDBRANCH   1   7
TORSDOF 8


