REMARK SMILES C#C[C@@](O)(c1cc(N=[N+]=[N-])cc(SC(C)(C)CNC[C@](C)(O)C=C)ccc2cc1CC2)C(C)(C)C
REMARK SMILES IDX 14 1 15 2 16 3 13 4 12 5 5 6 6 7 29 8 7 9 28 10 30 11 11 12
REMARK SMILES IDX 27 13 31 14 26 15 25 16 3 17 2 18 1 19 4 20 32 22 33 23
REMARK SMILES IDX 34 24 35 25 8 26 9 27 10 28 17 29 18 30 19 32 20 33 21 34
REMARK SMILES IDX 22 35 23 37 24 38
REMARK H PARENT 4 21 18 31 22 36
ROOT
ATOM      1  C   UNL     1       2.769  -1.475   2.220  1.00  0.00     0.027 C 
ATOM      2  C   UNL     1       1.575  -2.276   2.773  1.00  0.00     0.024 C 
ATOM      3  C   UNL     1       4.041  -2.283   2.546  1.00  0.00     0.024 C 
ENDROOT
BRANCH   1   4
ATOM      4  S   UNL     1       2.922   0.137   3.130  1.00  0.00    -0.119 SA
BRANCH   4   5
ATOM      5  C   UNL     1       1.810   1.280   2.268  1.00  0.00     0.008 A 
ATOM      6  C   UNL     1      -2.227   0.926   1.395  1.00  0.00    -0.000 A 
ATOM      7  C   UNL     1      -1.642   0.371   2.583  1.00  0.00     0.018 A 
ATOM      8  C   UNL     1      -1.552   1.841   0.558  1.00  0.00    -0.040 A 
ATOM      9  C   UNL     1      -0.385   0.602   3.209  1.00  0.00     0.039 A 
ATOM     10  C   UNL     1      -0.276   1.625   0.114  1.00  0.00     0.007 A 
ATOM     11  C   UNL     1      -1.867   3.314   0.516  1.00  0.00     0.041 C 
ATOM     12  C   UNL     1       0.516   1.575   2.778  1.00  0.00     0.025 A 
ATOM     13  C   UNL     1       0.393   2.824   0.028  1.00  0.00    -0.047 A 
ATOM     14  C   UNL     1      -0.580   3.953  -0.015  1.00  0.00     0.040 C 
ATOM     15  C   UNL     1       1.731   2.983   0.412  1.00  0.00     0.005 A 
ATOM     16  C   UNL     1       2.413   2.127   1.306  1.00  0.00     0.015 A 
BRANCH   6  17
ATOM     17  C   UNL     1      -3.596   0.385   0.907  1.00  0.00     0.155 C 
BRANCH  17  18
ATOM     18  C   UNL     1      -4.519   0.230   2.062  1.00  0.00    -0.066 C 
ATOM     19  C   UNL     1      -5.258   0.093   3.006  1.00  0.00     0.007 C 
ENDBRANCH  17  18
BRANCH  17  20
ATOM     20  O   UNL     1      -4.179   1.310   0.017  1.00  0.00    -0.373 OA
ATOM     21  H   UNL     1      -4.450   2.119   0.527  1.00  0.00     0.213 HD
ENDBRANCH  17  20
BRANCH  17  22
ATOM     22  C   UNL     1      -3.452  -0.996   0.132  1.00  0.00     0.006 C 
ATOM     23  C   UNL     1      -2.563  -0.838  -1.126  1.00  0.00     0.015 C 
ATOM     24  C   UNL     1      -4.850  -1.485  -0.345  1.00  0.00     0.015 C 
ATOM     25  C   UNL     1      -2.839  -2.117   1.010  1.00  0.00     0.015 C 
ENDBRANCH  17  22
ENDBRANCH   6  17
BRANCH   9  26
ATOM     26  N   UNL     1      -0.069  -0.225   4.334  1.00  0.00    -0.061 NA
BRANCH  26  27
ATOM     27  N   UNL     1       0.654   0.165   5.248  1.00  0.00     0.005 N 
ATOM     28  N   UNL     1       1.368   0.567   6.163  1.00  0.00    -0.003 NA
ENDBRANCH  26  27
ENDBRANCH   9  26
ENDBRANCH   4   5
ENDBRANCH   1   4
BRANCH   1  29
ATOM     29  C   UNL     1       2.602  -1.346   0.682  1.00  0.00     0.098 C 
BRANCH  29  30
ATOM     30  N   UNL     1       3.589  -0.472   0.015  1.00  0.00    -0.312 NA
ATOM     31  H   UNL     1       4.468  -0.418   0.577  1.00  0.00     0.122 HD
BRANCH  30  32
ATOM     32  C   UNL     1       3.975  -0.971  -1.320  1.00  0.00     0.120 C 
BRANCH  32  33
ATOM     33  C   UNL     1       2.873  -0.770  -2.400  1.00  0.00     0.092 C 
ATOM     34  C   UNL     1       2.567   0.730  -2.558  1.00  0.00     0.048 C 
BRANCH  33  35
ATOM     35  O   UNL     1       1.698  -1.449  -2.024  1.00  0.00    -0.385 OA
ATOM     36  H   UNL     1       1.020  -1.313  -2.739  1.00  0.00     0.211 HD
ENDBRANCH  33  35
BRANCH  33  37
ATOM     37  C   UNL     1       3.372  -1.323  -3.723  1.00  0.00     0.001 C 
ATOM     38  C   UNL     1       3.527  -2.639  -3.926  1.00  0.00     0.007 C 
ENDBRANCH  33  37
ENDBRANCH  32  33
ENDBRANCH  30  32
ENDBRANCH  29  30
ENDBRANCH   1  29
TORSDOF 14


