MODEL 1
REMARK VINA RESULT:      -7.1      0.000      0.000
REMARK SMILES CC[C@H]1C[C@]1(N)C(=O)Oc1ccccc(O)c([NH2+]C2(CF)COC2)c(N=[N+]=[N-])c(Cl)c1Cl
REMARK SMILES IDX 15 1 14 2 13 3 12 4 11 5 10 6 31 7 32 8 29 9 30 10 25 11
REMARK SMILES IDX 17 12 16 13 18 15 19 18 22 19 24 20 23 21 20 22 21 23 26 24
REMARK SMILES IDX 27 25 28 26 9 27 7 28 8 29 5 30 4 31 3 32 6 33 2 36 1 37
REMARK H PARENT 16 14 18 16 18 17 6 34 6 35
ROOT
ATOM      1  C   UNL     1      40.461 136.712  16.463  1.00  0.00     0.177 A 
ATOM      2  C   UNL     1      41.340 136.940  15.379  1.00  0.00     0.053 A 
ATOM      3  C   UNL     1      42.648 136.464  15.272  1.00  0.00     0.004 A 
ATOM      4  C   UNL     1      43.448 136.188  16.379  1.00  0.00     0.004 A 
ATOM      5  C   UNL     1      44.255 135.050  16.454  1.00  0.00     0.049 A 
ATOM      6  C   UNL     1      43.992 133.828  15.788  1.00  0.00     0.151 A 
ATOM      7  C   UNL     1      42.701 133.420  15.361  1.00  0.00     0.103 A 
ATOM      8  Cl  UNL     1      42.632 132.186  14.103  1.00  0.00    -0.079 Cl
ATOM      9  C   UNL     1      41.476 133.923  15.870  1.00  0.00     0.079 A 
ATOM     10  Cl  UNL     1      40.034 133.837  14.856  1.00  0.00    -0.082 Cl
ATOM     11  C   UNL     1      41.340 134.472  17.169  1.00  0.00     0.122 A 
ATOM     12  C   UNL     1      40.567 135.643  17.411  1.00  0.00     0.183 A 
ENDROOT
BRANCH   1  13
ATOM     13  O   UNL     1      39.397 137.605  16.605  1.00  0.00    -0.503 OA
ATOM     14  H   UNL     1      38.767 137.820  15.841  1.00  0.00     0.293 HD
ENDBRANCH   1  13
BRANCH  12  15
ATOM     15  N   UNL     1      39.886 135.780  18.690  1.00  0.00    -0.299 N 
ATOM     16  H   UNL     1      40.538 135.512  19.464  1.00  0.00     0.353 HD
ATOM     17  H   UNL     1      39.656 136.786  18.867  1.00  0.00     0.353 HD
BRANCH  15  18
ATOM     18  C   UNL     1      38.627 134.991  18.773  1.00  0.00     0.176 C 
ATOM     19  C   UNL     1      37.407 135.665  18.161  1.00  0.00     0.234 C 
ATOM     20  C   UNL     1      38.464 134.047  17.590  1.00  0.00     0.234 C 
ATOM     21  O   UNL     1      37.328 134.728  17.113  1.00  0.00    -0.368 OA
BRANCH  18  22
ATOM     22  C   UNL     1      38.375 134.299  20.134  1.00  0.00     0.288 C 
ATOM     23  F   UNL     1      39.540 134.194  20.876  1.00  0.00    -0.244 F 
ENDBRANCH  18  22
ENDBRANCH  15  18
ENDBRANCH  12  15
BRANCH  11  24
ATOM     24  N   UNL     1      42.012 133.864  18.288  1.00  0.00    -0.053 NA
BRANCH  24  25
ATOM     25  N   UNL     1      42.320 134.496  19.300  1.00  0.00     0.006 N 
ATOM     26  N   UNL     1      42.628 135.123  20.311  1.00  0.00    -0.003 NA
ENDBRANCH  24  25
ENDBRANCH  11  24
BRANCH   6  27
ATOM     27  O   UNL     1      45.039 132.912  15.582  1.00  0.00    -0.424 OA
BRANCH  27  28
ATOM     28  C   UNL     1      45.247 131.729  16.303  1.00  0.00     0.331 C 
ATOM     29  O   UNL     1      44.902 131.629  17.513  1.00  0.00    -0.250 OA
BRANCH  28  30
ATOM     30  C   UNL     1      45.911 130.572  15.621  1.00  0.00     0.118 C 
ATOM     31  C   UNL     1      44.979 129.593  14.918  1.00  0.00     0.040 C 
ATOM     32  C   UNL     1      45.885 130.511  14.094  1.00  0.00     0.022 C 
BRANCH  30  33
ATOM     33  N   UNL     1      47.038 129.938  16.297  1.00  0.00    -0.316 NA
ATOM     34  H   UNL     1      46.901 130.055  17.327  1.00  0.00     0.119 HD
ATOM     35  H   UNL     1      47.902 130.468  16.041  1.00  0.00     0.119 HD
ENDBRANCH  30  33
BRANCH  32  36
ATOM     36  C   UNL     1      47.041 129.792  13.381  1.00  0.00     0.003 C 
ATOM     37  C   UNL     1      47.353 130.477  12.056  1.00  0.00     0.004 C 
ENDBRANCH  32  36
ENDBRANCH  28  30
ENDBRANCH  27  28
ENDBRANCH   6  27
TORSDOF 11
ENDMDL
MODEL 2
REMARK VINA RESULT:      -7.0      1.460      2.007
REMARK SMILES CC[C@H]1C[C@]1(N)C(=O)Oc1ccccc(O)c([NH2+]C2(CF)COC2)c(N=[N+]=[N-])c(Cl)c1Cl
REMARK SMILES IDX 15 1 14 2 13 3 12 4 11 5 10 6 31 7 32 8 29 9 30 10 25 11
REMARK SMILES IDX 17 12 16 13 18 15 19 18 22 19 24 20 23 21 20 22 21 23 26 24
REMARK SMILES IDX 27 25 28 26 9 27 7 28 8 29 5 30 4 31 3 32 6 33 2 36 1 37
REMARK H PARENT 16 14 18 16 18 17 6 34 6 35
ROOT
ATOM      1  C   UNL     1      40.258 136.853  16.103  1.00  0.00     0.177 A 
ATOM      2  C   UNL     1      41.130 137.025  15.003  1.00  0.00     0.053 A 
ATOM      3  C   UNL     1      42.443 136.558  14.917  1.00  0.00     0.004 A 
ATOM      4  C   UNL     1      43.251 136.358  16.034  1.00  0.00     0.004 A 
ATOM      5  C   UNL     1      44.072 135.236  16.172  1.00  0.00     0.049 A 
ATOM      6  C   UNL     1      43.820 133.973  15.582  1.00  0.00     0.151 A 
ATOM      7  C   UNL     1      42.531 133.526  15.188  1.00  0.00     0.103 A 
ATOM      8  Cl  UNL     1      42.470 132.218  14.006  1.00  0.00    -0.079 Cl
ATOM      9  C   UNL     1      41.303 134.045  15.673  1.00  0.00     0.079 A 
ATOM     10  Cl  UNL     1      39.857 133.882  14.673  1.00  0.00    -0.082 Cl
ATOM     11  C   UNL     1      41.167 134.668  16.937  1.00  0.00     0.122 A 
ATOM     12  C   UNL     1      40.382 135.843  17.112  1.00  0.00     0.183 A 
ENDROOT
BRANCH   1  13
ATOM     13  O   UNL     1      39.185 137.740  16.197  1.00  0.00    -0.503 OA
ATOM     14  H   UNL     1      38.250 137.490  15.897  1.00  0.00     0.293 HD
ENDBRANCH   1  13
BRANCH  12  15
ATOM     15  N   UNL     1      39.706 136.049  18.385  1.00  0.00    -0.299 N 
ATOM     16  H   UNL     1      38.776 136.502  18.218  1.00  0.00     0.353 HD
ATOM     17  H   UNL     1      39.481 135.126  18.823  1.00  0.00     0.353 HD
BRANCH  15  18
ATOM     18  C   UNL     1      40.506 136.845  19.355  1.00  0.00     0.176 C 
ATOM     19  C   UNL     1      41.661 137.627  18.743  1.00  0.00     0.234 C 
ATOM     20  C   UNL     1      39.926 138.236  19.569  1.00  0.00     0.234 C 
ATOM     21  O   UNL     1      41.049 138.869  19.004  1.00  0.00    -0.368 OA
BRANCH  18  22
ATOM     22  C   UNL     1      40.840 136.121  20.681  1.00  0.00     0.288 C 
ATOM     23  F   UNL     1      40.812 136.993  21.757  1.00  0.00    -0.244 F 
ENDBRANCH  18  22
ENDBRANCH  15  18
ENDBRANCH  12  15
BRANCH  11  24
ATOM     24  N   UNL     1      41.851 134.136  18.086  1.00  0.00    -0.053 NA
BRANCH  24  25
ATOM     25  N   UNL     1      41.843 132.936  18.366  1.00  0.00     0.006 N 
ATOM     26  N   UNL     1      41.831 131.739  18.647  1.00  0.00    -0.003 NA
ENDBRANCH  24  25
ENDBRANCH  11  24
BRANCH   6  27
ATOM     27  O   UNL     1      44.876 133.059  15.425  1.00  0.00    -0.424 OA
BRANCH  27  28
ATOM     28  C   UNL     1      45.167 131.987  16.281  1.00  0.00     0.331 C 
ATOM     29  O   UNL     1      44.915 132.048  17.515  1.00  0.00    -0.250 OA
BRANCH  28  30
ATOM     30  C   UNL     1      45.808 130.759  15.711  1.00  0.00     0.118 C 
ATOM     31  C   UNL     1      44.853 129.694  15.188  1.00  0.00     0.040 C 
ATOM     32  C   UNL     1      45.700 130.508  14.208  1.00  0.00     0.022 C 
BRANCH  30  33
ATOM     33  N   UNL     1      46.979 130.222  16.397  1.00  0.00    -0.316 NA
ATOM     34  H   UNL     1      46.692 129.339  16.878  1.00  0.00     0.119 HD
ATOM     35  H   UNL     1      47.251 130.902  17.144  1.00  0.00     0.119 HD
ENDBRANCH  30  33
BRANCH  32  36
ATOM     36  C   UNL     1      46.826 129.714  13.526  1.00  0.00     0.003 C 
ATOM     37  C   UNL     1      47.392 130.501  12.351  1.00  0.00     0.004 C 
ENDBRANCH  32  36
ENDBRANCH  28  30
ENDBRANCH  27  28
ENDBRANCH   6  27
TORSDOF 11
ENDMDL
MODEL 3
REMARK VINA RESULT:      -6.5      2.933      3.892
REMARK SMILES CC[C@H]1C[C@]1(N)C(=O)Oc1ccccc(O)c([NH2+]C2(CF)COC2)c(N=[N+]=[N-])c(Cl)c1Cl
REMARK SMILES IDX 15 1 14 2 13 3 12 4 11 5 10 6 31 7 32 8 29 9 30 10 25 11
REMARK SMILES IDX 17 12 16 13 18 15 19 18 22 19 24 20 23 21 20 22 21 23 26 24
REMARK SMILES IDX 27 25 28 26 9 27 7 28 8 29 5 30 4 31 3 32 6 33 2 36 1 37
REMARK H PARENT 16 14 18 16 18 17 6 34 6 35
ROOT
ATOM      1  C   UNL     1      43.072 133.470  21.058  1.00  0.00     0.177 A 
ATOM      2  C   UNL     1      44.251 132.961  20.466  1.00  0.00     0.053 A 
ATOM      3  C   UNL     1      44.341 132.348  19.216  1.00  0.00     0.004 A 
ATOM      4  C   UNL     1      43.278 131.666  18.627  1.00  0.00     0.004 A 
ATOM      5  C   UNL     1      42.967 131.795  17.271  1.00  0.00     0.049 A 
ATOM      6  C   UNL     1      43.245 132.938  16.483  1.00  0.00     0.151 A 
ATOM      7  C   UNL     1      43.424 134.242  17.015  1.00  0.00     0.103 A 
ATOM      8  Cl  UNL     1      44.283 135.402  16.001  1.00  0.00    -0.079 Cl
ATOM      9  C   UNL     1      42.964 134.676  18.284  1.00  0.00     0.079 A 
ATOM     10  Cl  UNL     1      43.782 136.032  19.067  1.00  0.00    -0.082 Cl
ATOM     11  C   UNL     1      41.860 134.095  18.953  1.00  0.00     0.122 A 
ATOM     12  C   UNL     1      41.880 133.840  20.353  1.00  0.00     0.183 A 
ENDROOT
BRANCH   1  13
ATOM     13  O   UNL     1      43.085 133.630  22.445  1.00  0.00    -0.503 OA
ATOM     14  H   UNL     1      42.346 134.117  22.939  1.00  0.00     0.293 HD
ENDBRANCH   1  13
BRANCH  12  15
ATOM     15  N   UNL     1      40.632 133.922  21.097  1.00  0.00    -0.299 N 
ATOM     16  H   UNL     1      39.849 133.550  20.510  1.00  0.00     0.353 HD
ATOM     17  H   UNL     1      40.669 133.289  21.930  1.00  0.00     0.353 HD
BRANCH  15  18
ATOM     18  C   UNL     1      40.318 135.298  21.570  1.00  0.00     0.176 C 
ATOM     19  C   UNL     1      40.986 136.415  20.780  1.00  0.00     0.234 C 
ATOM     20  C   UNL     1      39.056 135.852  20.924  1.00  0.00     0.234 C 
ATOM     21  O   UNL     1      39.762 136.865  20.248  1.00  0.00    -0.368 OA
BRANCH  18  22
ATOM     22  C   UNL     1      40.339 135.485  23.106  1.00  0.00     0.288 C 
ATOM     23  F   UNL     1      39.367 134.716  23.726  1.00  0.00    -0.244 F 
ENDBRANCH  18  22
ENDBRANCH  15  18
ENDBRANCH  12  15
BRANCH  11  24
ATOM     24  N   UNL     1      40.683 133.717  18.215  1.00  0.00    -0.053 NA
BRANCH  24  25
ATOM     25  N   UNL     1      39.956 134.541  17.658  1.00  0.00     0.006 N 
ATOM     26  N   UNL     1      39.229 135.362  17.099  1.00  0.00    -0.003 NA
ENDBRANCH  24  25
ENDBRANCH  11  24
BRANCH   6  27
ATOM     27  O   UNL     1      43.285 132.821  15.082  1.00  0.00    -0.424 OA
BRANCH  27  28
ATOM     28  C   UNL     1      43.769 131.718  14.365  1.00  0.00     0.331 C 
ATOM     29  O   UNL     1      42.999 131.000  13.670  1.00  0.00    -0.250 OA
BRANCH  28  30
ATOM     30  C   UNL     1      45.226 131.382  14.449  1.00  0.00     0.118 C 
ATOM     31  C   UNL     1      45.555 129.919  14.718  1.00  0.00     0.040 C 
ATOM     32  C   UNL     1      45.845 130.527  13.344  1.00  0.00     0.022 C 
BRANCH  30  33
ATOM     33  N   UNL     1      46.104 132.325  15.137  1.00  0.00    -0.316 NA
ATOM     34  H   UNL     1      45.626 132.623  16.019  1.00  0.00     0.119 HD
ATOM     35  H   UNL     1      46.192 133.175  14.535  1.00  0.00     0.119 HD
ENDBRANCH  30  33
BRANCH  32  36
ATOM     36  C   UNL     1      47.338 130.719  13.034  1.00  0.00     0.003 C 
ATOM     37  C   UNL     1      48.091 129.409  13.228  1.00  0.00     0.004 C 
ENDBRANCH  32  36
ENDBRANCH  28  30
ENDBRANCH  27  28
ENDBRANCH   6  27
TORSDOF 11
ENDMDL
MODEL 4
REMARK VINA RESULT:      -6.3      2.772      3.640
REMARK SMILES CC[C@H]1C[C@]1(N)C(=O)Oc1ccccc(O)c([NH2+]C2(CF)COC2)c(N=[N+]=[N-])c(Cl)c1Cl
REMARK SMILES IDX 15 1 14 2 13 3 12 4 11 5 10 6 31 7 32 8 29 9 30 10 25 11
REMARK SMILES IDX 17 12 16 13 18 15 19 18 22 19 24 20 23 21 20 22 21 23 26 24
REMARK SMILES IDX 27 25 28 26 9 27 7 28 8 29 5 30 4 31 3 32 6 33 2 36 1 37
REMARK H PARENT 16 14 18 16 18 17 6 34 6 35
ROOT
ATOM      1  C   UNL     1      39.121 134.347  18.482  1.00  0.00     0.177 A 
ATOM      2  C   UNL     1      40.078 134.072  19.486  1.00  0.00     0.053 A 
ATOM      3  C   UNL     1      41.227 133.295  19.332  1.00  0.00     0.004 A 
ATOM      4  C   UNL     1      41.326 132.263  18.400  1.00  0.00     0.004 A 
ATOM      5  C   UNL     1      42.470 132.064  17.624  1.00  0.00     0.049 A 
ATOM      6  C   UNL     1      43.378 133.083  17.247  1.00  0.00     0.151 A 
ATOM      7  C   UNL     1      43.041 134.461  17.182  1.00  0.00     0.103 A 
ATOM      8  Cl  UNL     1      44.378 135.611  17.239  1.00  0.00    -0.079 Cl
ATOM      9  C   UNL     1      41.724 134.974  17.069  1.00  0.00     0.079 A 
ATOM     10  Cl  UNL     1      41.398 136.613  17.639  1.00  0.00    -0.082 Cl
ATOM     11  C   UNL     1      40.651 134.247  16.496  1.00  0.00     0.122 A 
ATOM     12  C   UNL     1      39.348 134.258  17.070  1.00  0.00     0.183 A 
ENDROOT
BRANCH   1  13
ATOM     13  O   UNL     1      37.855 134.746  18.914  1.00  0.00    -0.503 OA
ATOM     14  H   UNL     1      37.017 134.557  18.377  1.00  0.00     0.293 HD
ENDBRANCH   1  13
BRANCH  12  15
ATOM     15  N   UNL     1      38.196 134.136  16.189  1.00  0.00    -0.299 N 
ATOM     16  H   UNL     1      38.443 133.532  15.369  1.00  0.00     0.353 HD
ATOM     17  H   UNL     1      37.424 133.624  16.678  1.00  0.00     0.353 HD
BRANCH  15  18
ATOM     18  C   UNL     1      37.666 135.447  15.727  1.00  0.00     0.176 C 
ATOM     19  C   UNL     1      37.679 136.550  16.779  1.00  0.00     0.234 C 
ATOM     20  C   UNL     1      38.747 136.307  15.087  1.00  0.00     0.234 C 
ATOM     21  O   UNL     1      38.670 137.283  16.099  1.00  0.00    -0.368 OA
BRANCH  18  22
ATOM     22  C   UNL     1      36.375 135.373  14.878  1.00  0.00     0.288 C 
ATOM     23  F   UNL     1      36.626 135.653  13.544  1.00  0.00    -0.244 F 
ENDBRANCH  18  22
ENDBRANCH  15  18
ENDBRANCH  12  15
BRANCH  11  24
ATOM     24  N   UNL     1      40.864 133.447  15.319  1.00  0.00    -0.053 NA
BRANCH  24  25
ATOM     25  N   UNL     1      40.970 133.939  14.194  1.00  0.00     0.006 N 
ATOM     26  N   UNL     1      41.074 134.426  13.069  1.00  0.00    -0.003 NA
ENDBRANCH  24  25
ENDBRANCH  11  24
BRANCH   6  27
ATOM     27  O   UNL     1      44.680 132.736  16.844  1.00  0.00    -0.424 OA
BRANCH  27  28
ATOM     28  C   UNL     1      45.278 131.478  16.996  1.00  0.00     0.331 C 
ATOM     29  O   UNL     1      45.401 130.945  18.133  1.00  0.00    -0.250 OA
BRANCH  28  30
ATOM     30  C   UNL     1      45.796 130.771  15.782  1.00  0.00     0.118 C 
ATOM     31  C   UNL     1      45.040 131.036  14.487  1.00  0.00     0.040 C 
ATOM     32  C   UNL     1      46.451 131.599  14.677  1.00  0.00     0.022 C 
BRANCH  30  33
ATOM     33  N   UNL     1      46.243 129.389  15.938  1.00  0.00    -0.316 NA
ATOM     34  H   UNL     1      46.185 129.146  16.953  1.00  0.00     0.119 HD
ATOM     35  H   UNL     1      47.253 129.349  15.670  1.00  0.00     0.119 HD
ENDBRANCH  30  33
BRANCH  32  36
ATOM     36  C   UNL     1      47.528 130.925  13.812  1.00  0.00     0.003 C 
ATOM     37  C   UNL     1      46.996 130.671  12.407  1.00  0.00     0.004 C 
ENDBRANCH  32  36
ENDBRANCH  28  30
ENDBRANCH  27  28
ENDBRANCH   6  27
TORSDOF 11
ENDMDL
MODEL 5
REMARK VINA RESULT:      -6.2      4.159      6.988
REMARK SMILES CC[C@H]1C[C@]1(N)C(=O)Oc1ccccc(O)c([NH2+]C2(CF)COC2)c(N=[N+]=[N-])c(Cl)c1Cl
REMARK SMILES IDX 15 1 14 2 13 3 12 4 11 5 10 6 31 7 32 8 29 9 30 10 25 11
REMARK SMILES IDX 17 12 16 13 18 15 19 18 22 19 24 20 23 21 20 22 21 23 26 24
REMARK SMILES IDX 27 25 28 26 9 27 7 28 8 29 5 30 4 31 3 32 6 33 2 36 1 37
REMARK H PARENT 16 14 18 16 18 17 6 34 6 35
ROOT
ATOM      1  C   UNL     1      42.109 132.853  15.278  1.00  0.00     0.177 A 
ATOM      2  C   UNL     1      41.284 133.974  15.528  1.00  0.00     0.053 A 
ATOM      3  C   UNL     1      40.812 134.381  16.777  1.00  0.00     0.004 A 
ATOM      4  C   UNL     1      40.609 133.498  17.836  1.00  0.00     0.004 A 
ATOM      5  C   UNL     1      40.979 133.806  19.147  1.00  0.00     0.049 A 
ATOM      6  C   UNL     1      42.028 134.687  19.505  1.00  0.00     0.151 A 
ATOM      7  C   UNL     1      43.124 134.998  18.659  1.00  0.00     0.103 A 
ATOM      8  Cl  UNL     1      44.011 136.480  19.018  1.00  0.00    -0.079 Cl
ATOM      9  C   UNL     1      43.558 134.211  17.561  1.00  0.00     0.079 A 
ATOM     10  Cl  UNL     1      44.453 134.992  16.256  1.00  0.00    -0.082 Cl
ATOM     11  C   UNL     1      43.332 132.816  17.467  1.00  0.00     0.122 A 
ATOM     12  C   UNL     1      42.942 132.201  16.243  1.00  0.00     0.183 A 
ENDROOT
BRANCH   1  13
ATOM     13  O   UNL     1      42.109 132.354  13.974  1.00  0.00    -0.503 OA
ATOM     14  H   UNL     1      42.453 132.895  13.189  1.00  0.00     0.293 HD
ENDBRANCH   1  13
BRANCH  12  15
ATOM     15  N   UNL     1      43.377 130.838  15.977  1.00  0.00    -0.299 N 
ATOM     16  H   UNL     1      43.400 130.295  16.872  1.00  0.00     0.353 HD
ATOM     17  H   UNL     1      42.670 130.347  15.381  1.00  0.00     0.353 HD
BRANCH  15  18
ATOM     18  C   UNL     1      44.696 130.764  15.291  1.00  0.00     0.176 C 
ATOM     19  C   UNL     1      45.721 131.788  15.763  1.00  0.00     0.234 C 
ATOM     20  C   UNL     1      45.641 129.785  15.972  1.00  0.00     0.234 C 
ATOM     21  O   UNL     1      46.540 130.802  16.347  1.00  0.00    -0.368 OA
BRANCH  18  22
ATOM     22  C   UNL     1      44.629 130.569  13.758  1.00  0.00     0.288 C 
ATOM     23  F   UNL     1      45.778 129.967  13.271  1.00  0.00    -0.244 F 
ENDBRANCH  18  22
ENDBRANCH  15  18
ENDBRANCH  12  15
BRANCH  11  24
ATOM     24  N   UNL     1      43.468 131.979  18.630  1.00  0.00    -0.053 NA
BRANCH  24  25
ATOM     25  N   UNL     1      44.563 131.697  19.120  1.00  0.00     0.006 N 
ATOM     26  N   UNL     1      45.654 131.413  19.611  1.00  0.00    -0.003 NA
ENDBRANCH  24  25
ENDBRANCH  11  24
BRANCH   6  27
ATOM     27  O   UNL     1      42.050 135.250  20.794  1.00  0.00    -0.424 OA
BRANCH  27  28
ATOM     28  C   UNL     1      41.919 134.547  21.999  1.00  0.00     0.331 C 
ATOM     29  O   UNL     1      40.846 134.579  22.662  1.00  0.00    -0.250 OA
BRANCH  28  30
ATOM     30  C   UNL     1      43.087 133.761  22.510  1.00  0.00     0.118 C 
ATOM     31  C   UNL     1      43.078 133.456  24.003  1.00  0.00     0.040 C 
ATOM     32  C   UNL     1      42.852 132.330  22.991  1.00  0.00     0.022 C 
BRANCH  30  33
ATOM     33  N   UNL     1      44.408 134.079  21.976  1.00  0.00    -0.316 NA
ATOM     34  H   UNL     1      45.091 134.043  22.767  1.00  0.00     0.119 HD
ATOM     35  H   UNL     1      44.385 135.068  21.636  1.00  0.00     0.119 HD
ENDBRANCH  30  33
BRANCH  32  36
ATOM     36  C   UNL     1      44.014 131.331  22.878  1.00  0.00     0.003 C 
ATOM     37  C   UNL     1      43.479 129.917  22.684  1.00  0.00     0.004 C 
ENDBRANCH  32  36
ENDBRANCH  28  30
ENDBRANCH  27  28
ENDBRANCH   6  27
TORSDOF 11
ENDMDL
MODEL 6
REMARK VINA RESULT:      -6.2      2.661      3.668
REMARK SMILES CC[C@H]1C[C@]1(N)C(=O)Oc1ccccc(O)c([NH2+]C2(CF)COC2)c(N=[N+]=[N-])c(Cl)c1Cl
REMARK SMILES IDX 15 1 14 2 13 3 12 4 11 5 10 6 31 7 32 8 29 9 30 10 25 11
REMARK SMILES IDX 17 12 16 13 18 15 19 18 22 19 24 20 23 21 20 22 21 23 26 24
REMARK SMILES IDX 27 25 28 26 9 27 7 28 8 29 5 30 4 31 3 32 6 33 2 36 1 37
REMARK H PARENT 16 14 18 16 18 17 6 34 6 35
ROOT
ATOM      1  C   UNL     1      39.130 134.810  17.453  1.00  0.00     0.177 A 
ATOM      2  C   UNL     1      39.567 133.864  18.408  1.00  0.00     0.053 A 
ATOM      3  C   UNL     1      40.639 132.982  18.256  1.00  0.00     0.004 A 
ATOM      4  C   UNL     1      41.070 132.518  17.015  1.00  0.00     0.004 A 
ATOM      5  C   UNL     1      42.423 132.418  16.683  1.00  0.00     0.049 A 
ATOM      6  C   UNL     1      43.451 133.222  17.231  1.00  0.00     0.151 A 
ATOM      7  C   UNL     1      43.236 134.505  17.799  1.00  0.00     0.103 A 
ATOM      8  Cl  UNL     1      44.478 135.108  18.897  1.00  0.00    -0.079 Cl
ATOM      9  C   UNL     1      42.110 135.331  17.547  1.00  0.00     0.079 A 
ATOM     10  Cl  UNL     1      41.652 136.536  18.754  1.00  0.00    -0.082 Cl
ATOM     11  C   UNL     1      41.342 135.259  16.360  1.00  0.00     0.122 A 
ATOM     12  C   UNL     1      39.920 135.336  16.380  1.00  0.00     0.183 A 
ENDROOT
BRANCH   1  13
ATOM     13  O   UNL     1      37.819 135.272  17.583  1.00  0.00    -0.503 OA
ATOM     14  H   UNL     1      37.133 135.164  16.845  1.00  0.00     0.293 HD
ENDBRANCH   1  13
BRANCH  12  15
ATOM     15  N   UNL     1      39.236 135.940  15.246  1.00  0.00    -0.299 N 
ATOM     16  H   UNL     1      39.642 135.570  14.355  1.00  0.00     0.353 HD
ATOM     17  H   UNL     1      38.234 135.640  15.232  1.00  0.00     0.353 HD
BRANCH  15  18
ATOM     18  C   UNL     1      39.278 137.427  15.258  1.00  0.00     0.176 C 
ATOM     19  C   UNL     1      39.950 138.059  14.046  1.00  0.00     0.234 C 
ATOM     20  C   UNL     1      38.026 138.040  14.646  1.00  0.00     0.234 C 
ATOM     21  O   UNL     1      38.741 138.602  13.571  1.00  0.00    -0.368 OA
BRANCH  18  22
ATOM     22  C   UNL     1      39.656 138.063  16.617  1.00  0.00     0.288 C 
ATOM     23  F   UNL     1      38.627 138.844  17.118  1.00  0.00    -0.244 F 
ENDBRANCH  18  22
ENDBRANCH  15  18
ENDBRANCH  12  15
BRANCH  11  24
ATOM     24  N   UNL     1      41.990 135.077  15.087  1.00  0.00    -0.053 NA
BRANCH  24  25
ATOM     25  N   UNL     1      43.056 135.625  14.801  1.00  0.00     0.006 N 
ATOM     26  N   UNL     1      44.119 136.174  14.519  1.00  0.00    -0.003 NA
ENDBRANCH  24  25
ENDBRANCH  11  24
BRANCH   6  27
ATOM     27  O   UNL     1      44.785 132.782  17.164  1.00  0.00    -0.424 OA
BRANCH  27  28
ATOM     28  C   UNL     1      45.232 131.477  17.413  1.00  0.00     0.331 C 
ATOM     29  O   UNL     1      45.092 130.943  18.547  1.00  0.00    -0.250 OA
BRANCH  28  30
ATOM     30  C   UNL     1      45.905 130.719  16.311  1.00  0.00     0.118 C 
ATOM     31  C   UNL     1      44.985 130.161  15.232  1.00  0.00     0.040 C 
ATOM     32  C   UNL     1      45.921 131.328  14.908  1.00  0.00     0.022 C 
BRANCH  30  33
ATOM     33  N   UNL     1      47.009 129.834  16.668  1.00  0.00    -0.316 NA
ATOM     34  H   UNL     1      47.895 130.387  16.612  1.00  0.00     0.119 HD
ATOM     35  H   UNL     1      47.067 129.087  15.939  1.00  0.00     0.119 HD
ENDBRANCH  30  33
BRANCH  32  36
ATOM     36  C   UNL     1      47.091 130.968  13.979  1.00  0.00     0.003 C 
ATOM     37  C   UNL     1      46.574 130.621  12.588  1.00  0.00     0.004 C 
ENDBRANCH  32  36
ENDBRANCH  28  30
ENDBRANCH  27  28
ENDBRANCH   6  27
TORSDOF 11
ENDMDL
MODEL 7
REMARK VINA RESULT:      -6.1      2.745      3.277
REMARK SMILES CC[C@H]1C[C@]1(N)C(=O)Oc1ccccc(O)c([NH2+]C2(CF)COC2)c(N=[N+]=[N-])c(Cl)c1Cl
REMARK SMILES IDX 15 1 14 2 13 3 12 4 11 5 10 6 31 7 32 8 29 9 30 10 25 11
REMARK SMILES IDX 17 12 16 13 18 15 19 18 22 19 24 20 23 21 20 22 21 23 26 24
REMARK SMILES IDX 27 25 28 26 9 27 7 28 8 29 5 30 4 31 3 32 6 33 2 36 1 37
REMARK H PARENT 16 14 18 16 18 17 6 34 6 35
ROOT
ATOM      1  C   UNL     1      42.327 137.018  19.869  1.00  0.00     0.177 A 
ATOM      2  C   UNL     1      43.614 136.982  19.284  1.00  0.00     0.053 A 
ATOM      3  C   UNL     1      44.245 135.852  18.762  1.00  0.00     0.004 A 
ATOM      4  C   UNL     1      43.978 134.559  19.209  1.00  0.00     0.004 A 
ATOM      5  C   UNL     1      43.838 133.479  18.334  1.00  0.00     0.049 A 
ATOM      6  C   UNL     1      43.395 133.579  16.993  1.00  0.00     0.151 A 
ATOM      7  C   UNL     1      42.604 134.648  16.497  1.00  0.00     0.103 A 
ATOM      8  Cl  UNL     1      42.611 134.899  14.751  1.00  0.00    -0.079 Cl
ATOM      9  C   UNL     1      41.813 135.515  17.293  1.00  0.00     0.079 A 
ATOM     10  Cl  UNL     1      41.429 137.124  16.673  1.00  0.00    -0.082 Cl
ATOM     11  C   UNL     1      41.288 135.150  18.556  1.00  0.00     0.122 A 
ATOM     12  C   UNL     1      41.289 136.052  19.658  1.00  0.00     0.183 A 
ENDROOT
BRANCH   1  13
ATOM     13  O   UNL     1      42.052 138.094  20.715  1.00  0.00    -0.503 OA
ATOM     14  H   UNL     1      42.352 138.110  21.683  1.00  0.00     0.293 HD
ENDBRANCH   1  13
BRANCH  12  15
ATOM     15  N   UNL     1      40.212 135.967  20.633  1.00  0.00    -0.299 N 
ATOM     16  H   UNL     1      39.824 136.923  20.810  1.00  0.00     0.353 HD
ATOM     17  H   UNL     1      39.412 135.421  20.236  1.00  0.00     0.353 HD
BRANCH  15  18
ATOM     18  C   UNL     1      40.625 135.328  21.912  1.00  0.00     0.176 C 
ATOM     19  C   UNL     1      40.510 136.221  23.140  1.00  0.00     0.234 C 
ATOM     20  C   UNL     1      39.475 134.586  22.578  1.00  0.00     0.234 C 
ATOM     21  O   UNL     1      39.460 135.456  23.685  1.00  0.00    -0.368 OA
BRANCH  18  22
ATOM     22  C   UNL     1      41.921 134.487  21.837  1.00  0.00     0.288 C 
ATOM     23  F   UNL     1      41.786 133.284  22.511  1.00  0.00    -0.244 F 
ENDBRANCH  18  22
ENDBRANCH  15  18
ENDBRANCH  12  15
BRANCH  11  24
ATOM     24  N   UNL     1      40.757 133.829  18.767  1.00  0.00    -0.053 NA
BRANCH  24  25
ATOM     25  N   UNL     1      39.820 133.378  18.105  1.00  0.00     0.006 N 
ATOM     26  N   UNL     1      38.885 132.930  17.443  1.00  0.00    -0.003 NA
ENDBRANCH  24  25
ENDBRANCH  11  24
BRANCH   6  27
ATOM     27  O   UNL     1      43.683 132.540  16.090  1.00  0.00    -0.424 OA
BRANCH  27  28
ATOM     28  C   UNL     1      44.939 132.261  15.533  1.00  0.00     0.331 C 
ATOM     29  O   UNL     1      45.816 133.160  15.414  1.00  0.00    -0.250 OA
BRANCH  28  30
ATOM     30  C   UNL     1      45.226 130.872  15.053  1.00  0.00     0.118 C 
ATOM     31  C   UNL     1      44.557 130.470  13.745  1.00  0.00     0.040 C 
ATOM     32  C   UNL     1      46.070 130.694  13.791  1.00  0.00     0.022 C 
BRANCH  30  33
ATOM     33  N   UNL     1      45.276 129.805  16.048  1.00  0.00    -0.316 NA
ATOM     34  H   UNL     1      44.315 129.402  16.134  1.00  0.00     0.119 HD
ATOM     35  H   UNL     1      45.511 130.239  16.970  1.00  0.00     0.119 HD
ENDBRANCH  30  33
BRANCH  32  36
ATOM     36  C   UNL     1      46.909 129.413  13.659  1.00  0.00     0.003 C 
ATOM     37  C   UNL     1      48.390 129.758  13.557  1.00  0.00     0.004 C 
ENDBRANCH  32  36
ENDBRANCH  28  30
ENDBRANCH  27  28
ENDBRANCH   6  27
TORSDOF 11
ENDMDL
MODEL 8
REMARK VINA RESULT:      -6.1      4.234      7.042
REMARK SMILES CC[C@H]1C[C@]1(N)C(=O)Oc1ccccc(O)c([NH2+]C2(CF)COC2)c(N=[N+]=[N-])c(Cl)c1Cl
REMARK SMILES IDX 15 1 14 2 13 3 12 4 11 5 10 6 31 7 32 8 29 9 30 10 25 11
REMARK SMILES IDX 17 12 16 13 18 15 19 18 22 19 24 20 23 21 20 22 21 23 26 24
REMARK SMILES IDX 27 25 28 26 9 27 7 28 8 29 5 30 4 31 3 32 6 33 2 36 1 37
REMARK H PARENT 16 14 18 16 18 17 6 34 6 35
ROOT
ATOM      1  C   UNL     1      42.201 132.863  15.194  1.00  0.00     0.177 A 
ATOM      2  C   UNL     1      41.382 133.976  15.494  1.00  0.00     0.053 A 
ATOM      3  C   UNL     1      40.895 134.318  16.757  1.00  0.00     0.004 A 
ATOM      4  C   UNL     1      40.670 133.380  17.763  1.00  0.00     0.004 A 
ATOM      5  C   UNL     1      41.023 133.612  19.094  1.00  0.00     0.049 A 
ATOM      6  C   UNL     1      42.074 134.462  19.515  1.00  0.00     0.151 A 
ATOM      7  C   UNL     1      43.185 134.810  18.702  1.00  0.00     0.103 A 
ATOM      8  Cl  UNL     1      44.078 136.263  19.155  1.00  0.00    -0.079 Cl
ATOM      9  C   UNL     1      43.628 134.081  17.569  1.00  0.00     0.079 A 
ATOM     10  Cl  UNL     1      44.548 134.925  16.321  1.00  0.00    -0.082 Cl
ATOM     11  C   UNL     1      43.393 132.695  17.394  1.00  0.00     0.122 A 
ATOM     12  C   UNL     1      43.015 132.152  16.134  1.00  0.00     0.183 A 
ENDROOT
BRANCH   1  13
ATOM     13  O   UNL     1      42.216 132.437  13.865  1.00  0.00    -0.503 OA
ATOM     14  H   UNL     1      42.163 133.086  13.089  1.00  0.00     0.293 HD
ENDBRANCH   1  13
BRANCH  12  15
ATOM     15  N   UNL     1      43.443 130.802  15.798  1.00  0.00    -0.299 N 
ATOM     16  H   UNL     1      43.399 130.197  16.652  1.00  0.00     0.353 HD
ATOM     17  H   UNL     1      42.767 130.369  15.126  1.00  0.00     0.353 HD
BRANCH  15  18
ATOM     18  C   UNL     1      44.802 130.748  15.194  1.00  0.00     0.176 C 
ATOM     19  C   UNL     1      45.794 131.757  15.757  1.00  0.00     0.234 C 
ATOM     20  C   UNL     1      45.705 129.749  15.903  1.00  0.00     0.234 C 
ATOM     21  O   UNL     1      46.577 130.754  16.362  1.00  0.00    -0.368 OA
BRANCH  18  22
ATOM     22  C   UNL     1      44.830 130.598  13.654  1.00  0.00     0.288 C 
ATOM     23  F   UNL     1      45.973 129.941  13.228  1.00  0.00    -0.244 F 
ENDBRANCH  18  22
ENDBRANCH  15  18
ENDBRANCH  12  15
BRANCH  11  24
ATOM     24  N   UNL     1      43.505 131.794  18.512  1.00  0.00    -0.053 NA
BRANCH  24  25
ATOM     25  N   UNL     1      44.563 131.618  19.118  1.00  0.00     0.006 N 
ATOM     26  N   UNL     1      45.618 131.445  19.725  1.00  0.00    -0.003 NA
ENDBRANCH  24  25
ENDBRANCH  11  24
BRANCH   6  27
ATOM     27  O   UNL     1      42.083 134.954  20.832  1.00  0.00    -0.424 OA
BRANCH  27  28
ATOM     28  C   UNL     1      42.483 134.241  21.971  1.00  0.00     0.331 C 
ATOM     29  O   UNL     1      41.835 133.238  22.377  1.00  0.00    -0.250 OA
BRANCH  28  30
ATOM     30  C   UNL     1      43.693 134.700  22.724  1.00  0.00     0.118 C 
ATOM     31  C   UNL     1      43.979 133.967  24.029  1.00  0.00     0.040 C 
ATOM     32  C   UNL     1      44.895 133.760  22.820  1.00  0.00     0.022 C 
BRANCH  30  33
ATOM     33  N   UNL     1      43.959 136.134  22.777  1.00  0.00    -0.316 NA
ATOM     34  H   UNL     1      43.830 136.448  23.767  1.00  0.00     0.119 HD
ATOM     35  H   UNL     1      43.228 136.615  22.205  1.00  0.00     0.119 HD
ENDBRANCH  30  33
BRANCH  32  36
ATOM     36  C   UNL     1      46.291 134.387  22.963  1.00  0.00     0.003 C 
ATOM     37  C   UNL     1      47.031 134.341  21.632  1.00  0.00     0.004 C 
ENDBRANCH  32  36
ENDBRANCH  28  30
ENDBRANCH  27  28
ENDBRANCH   6  27
TORSDOF 11
ENDMDL
MODEL 9
REMARK VINA RESULT:      -6.0      2.720      3.565
REMARK SMILES CC[C@H]1C[C@]1(N)C(=O)Oc1ccccc(O)c([NH2+]C2(CF)COC2)c(N=[N+]=[N-])c(Cl)c1Cl
REMARK SMILES IDX 15 1 14 2 13 3 12 4 11 5 10 6 31 7 32 8 29 9 30 10 25 11
REMARK SMILES IDX 17 12 16 13 18 15 19 18 22 19 24 20 23 21 20 22 21 23 26 24
REMARK SMILES IDX 27 25 28 26 9 27 7 28 8 29 5 30 4 31 3 32 6 33 2 36 1 37
REMARK H PARENT 16 14 18 16 18 17 6 34 6 35
ROOT
ATOM      1  C   UNL     1      39.229 134.802  18.855  1.00  0.00     0.177 A 
ATOM      2  C   UNL     1      40.212 134.792  19.872  1.00  0.00     0.053 A 
ATOM      3  C   UNL     1      41.352 133.987  19.901  1.00  0.00     0.004 A 
ATOM      4  C   UNL     1      41.419 132.744  19.274  1.00  0.00     0.004 A 
ATOM      5  C   UNL     1      42.541 132.333  18.550  1.00  0.00     0.049 A 
ATOM      6  C   UNL     1      43.444 133.204  17.894  1.00  0.00     0.151 A 
ATOM      7  C   UNL     1      43.112 134.519  17.474  1.00  0.00     0.103 A 
ATOM      8  Cl  UNL     1      44.456 135.626  17.190  1.00  0.00    -0.079 Cl
ATOM      9  C   UNL     1      41.795 135.000  17.262  1.00  0.00     0.079 A 
ATOM     10  Cl  UNL     1      41.493 136.736  17.384  1.00  0.00    -0.082 Cl
ATOM     11  C   UNL     1      40.703 134.161  16.930  1.00  0.00     0.122 A 
ATOM     12  C   UNL     1      39.416 134.339  17.512  1.00  0.00     0.183 A 
ENDROOT
BRANCH   1  13
ATOM     13  O   UNL     1      37.977 135.317  19.198  1.00  0.00    -0.503 OA
ATOM     14  H   UNL     1      37.857 135.989  19.946  1.00  0.00     0.293 HD
ENDBRANCH   1  13
BRANCH  12  15
ATOM     15  N   UNL     1      38.240 134.002  16.724  1.00  0.00    -0.299 N 
ATOM     16  H   UNL     1      38.421 133.126  16.180  1.00  0.00     0.353 HD
ATOM     17  H   UNL     1      37.440 133.766  17.358  1.00  0.00     0.353 HD
BRANCH  15  18
ATOM     18  C   UNL     1      37.807 135.098  15.815  1.00  0.00     0.176 C 
ATOM     19  C   UNL     1      38.940 135.924  15.222  1.00  0.00     0.234 C 
ATOM     20  C   UNL     1      37.656 134.622  14.377  1.00  0.00     0.234 C 
ATOM     21  O   UNL     1      38.708 135.438  13.921  1.00  0.00    -0.368 OA
BRANCH  18  22
ATOM     22  C   UNL     1      36.591 135.919  16.308  1.00  0.00     0.288 C 
ATOM     23  F   UNL     1      36.376 137.034  15.515  1.00  0.00    -0.244 F 
ENDBRANCH  18  22
ENDBRANCH  15  18
ENDBRANCH  12  15
BRANCH  11  24
ATOM     24  N   UNL     1      40.880 133.075  16.002  1.00  0.00    -0.053 NA
BRANCH  24  25
ATOM     25  N   UNL     1      41.403 133.226  14.896  1.00  0.00     0.006 N 
ATOM     26  N   UNL     1      41.923 133.374  13.791  1.00  0.00    -0.003 NA
ENDBRANCH  24  25
ENDBRANCH  11  24
BRANCH   6  27
ATOM     27  O   UNL     1      44.732 132.747  17.564  1.00  0.00    -0.424 OA
BRANCH  27  28
ATOM     28  C   UNL     1      45.066 131.439  17.184  1.00  0.00     0.331 C 
ATOM     29  O   UNL     1      45.331 130.555  18.044  1.00  0.00    -0.250 OA
BRANCH  28  30
ATOM     30  C   UNL     1      45.128 131.102  15.726  1.00  0.00     0.118 C 
ATOM     31  C   UNL     1      45.371 132.274  14.784  1.00  0.00     0.040 C 
ATOM     32  C   UNL     1      46.468 131.229  15.003  1.00  0.00     0.022 C 
BRANCH  30  33
ATOM     33  N   UNL     1      44.181 130.115  15.215  1.00  0.00    -0.316 NA
ATOM     34  H   UNL     1      44.630 129.173  15.289  1.00  0.00     0.119 HD
ATOM     35  H   UNL     1      44.039 130.308  14.197  1.00  0.00     0.119 HD
ENDBRANCH  30  33
BRANCH  32  36
ATOM     36  C   UNL     1      46.725 130.314  13.795  1.00  0.00     0.003 C 
ATOM     37  C   UNL     1      47.990 129.493  14.013  1.00  0.00     0.004 C 
ENDBRANCH  32  36
ENDBRANCH  28  30
ENDBRANCH  27  28
ENDBRANCH   6  27
TORSDOF 11
ENDMDL


