MODEL 1
REMARK VINA RESULT:      -6.8      0.000      0.000
REMARK SMILES Cc1nnn([C@@H]2O[C@@]2(O)Nc2cccc(C#N)c2C)c1-c1cc2ccccc2c2c1C[N+](C)(C)C2
REMARK SMILES IDX 6 1 7 2 8 3 5 4 2 5 3 6 20 7 4 8 1 9 21 10 22 11 30 12 23 13
REMARK SMILES IDX 29 14 31 15 24 16 28 17 35 18 32 19 25 20 27 21 26 22 33 23
REMARK SMILES IDX 34 24 9 25 10 27 11 29 12 30 18 31 13 32 15 33 14 34 19 35
REMARK SMILES IDX 16 36 17 37
REMARK H PARENT 9 26 10 28
ROOT
ATOM      1  C   UNL     1      40.814 133.536  15.231  1.00  0.00     0.327 C 
ATOM      2  O   UNL     1      39.879 133.342  14.192  1.00  0.00    -0.295 OA
ATOM      3  C   UNL     1      40.460 134.620  14.284  1.00  0.00     0.298 C 
ENDROOT
BRANCH   1   4
ATOM      4  N   UNL     1      42.062 132.835  14.947  1.00  0.00    -0.208 N 
ATOM      5  C   UNL     1      44.123 132.117  14.953  1.00  0.00     0.088 A 
ATOM      6  N   UNL     1      43.465 131.494  13.955  1.00  0.00    -0.135 NA
ATOM      7  C   UNL     1      43.238 132.961  15.588  1.00  0.00     0.095 A 
ATOM      8  N   UNL     1      42.217 131.943  13.978  1.00  0.00    -0.064 NA
ATOM      9  C   UNL     1      45.574 131.931  15.258  1.00  0.00     0.071 C 
BRANCH   7  10
ATOM     10  C   UNL     1      43.526 133.880  16.702  1.00  0.00     0.012 A 
ATOM     11  C   UNL     1      43.586 135.265  16.471  1.00  0.00     0.019 A 
ATOM     12  C   UNL     1      43.763 133.407  18.000  1.00  0.00     0.025 A 
ATOM     13  C   UNL     1      43.877 136.153  17.526  1.00  0.00    -0.017 A 
ATOM     14  C   UNL     1      44.043 134.259  19.030  1.00  0.00     0.024 A 
ATOM     15  C   UNL     1      43.888 132.000  18.455  1.00  0.00     0.301 C 
ATOM     16  C   UNL     1      43.934 137.536  17.300  1.00  0.00     0.009 A 
ATOM     17  C   UNL     1      44.119 135.646  18.831  1.00  0.00    -0.009 A 
ATOM     18  C   UNL     1      44.288 133.491  20.278  1.00  0.00     0.301 C 
ATOM     19  N   UNL     1      43.984 132.066  19.944  1.00  0.00    -0.321 N 
ATOM     20  C   UNL     1      44.238 138.408  18.349  1.00  0.00     0.001 A 
ATOM     21  C   UNL     1      44.430 136.534  19.875  1.00  0.00     0.009 A 
ATOM     22  C   UNL     1      44.487 137.908  19.631  1.00  0.00     0.001 A 
ATOM     23  C   UNL     1      42.692 131.664  20.550  1.00  0.00     0.334 C 
ATOM     24  C   UNL     1      45.050 131.169  20.443  1.00  0.00     0.334 C 
ENDBRANCH   7  10
ENDBRANCH   1   4
BRANCH   3  25
ATOM     25  O   UNL     1      41.242 134.890  13.157  1.00  0.00    -0.345 OA
ATOM     26  H   UNL     1      41.238 134.051  12.629  1.00  0.00     0.216 HD
ENDBRANCH   3  25
BRANCH   3  27
ATOM     27  N   UNL     1      39.468 135.616  14.674  1.00  0.00    -0.330 N 
ATOM     28  H   UNL     1      38.470 135.314  14.744  1.00  0.00     0.166 HD
BRANCH  27  29
ATOM     29  C   UNL     1      39.841 136.947  15.066  1.00  0.00     0.042 A 
ATOM     30  C   UNL     1      39.925 137.958  14.096  1.00  0.00     0.026 A 
ATOM     31  C   UNL     1      40.094 137.257  16.425  1.00  0.00    -0.010 A 
ATOM     32  C   UNL     1      40.227 139.268  14.464  1.00  0.00     0.004 A 
ATOM     33  C   UNL     1      40.392 138.595  16.785  1.00  0.00     0.057 A 
ATOM     34  C   UNL     1      40.463 139.585  15.798  1.00  0.00     0.020 A 
ATOM     35  C   UNL     1      40.015 136.169  17.475  1.00  0.00     0.048 C 
BRANCH  33  36
ATOM     36  C   UNL     1      40.618 138.984  18.157  1.00  0.00     0.099 C 
ATOM     37  N   UNL     1      40.798 139.296  19.257  1.00  0.00    -0.192 NA
ENDBRANCH  33  36
ENDBRANCH  27  29
ENDBRANCH   3  27
TORSDOF 6
ENDMDL
MODEL 2
REMARK VINA RESULT:      -6.6      2.970      6.797
REMARK SMILES Cc1nnn([C@@H]2O[C@@]2(O)Nc2cccc(C#N)c2C)c1-c1cc2ccccc2c2c1C[N+](C)(C)C2
REMARK SMILES IDX 6 1 7 2 8 3 5 4 2 5 3 6 20 7 4 8 1 9 21 10 22 11 30 12 23 13
REMARK SMILES IDX 29 14 31 15 24 16 28 17 35 18 32 19 25 20 27 21 26 22 33 23
REMARK SMILES IDX 34 24 9 25 10 27 11 29 12 30 18 31 13 32 15 33 14 34 19 35
REMARK SMILES IDX 16 36 17 37
REMARK H PARENT 9 26 10 28
ROOT
ATOM      1  C   UNL     1      42.817 132.215  20.740  1.00  0.00     0.327 C 
ATOM      2  O   UNL     1      43.808 131.376  21.292  1.00  0.00    -0.295 OA
ATOM      3  C   UNL     1      44.142 132.039  20.098  1.00  0.00     0.298 C 
ENDROOT
BRANCH   1   4
ATOM      4  N   UNL     1      42.660 133.429  21.535  1.00  0.00    -0.208 N 
ATOM      5  C   UNL     1      42.278 135.468  22.213  1.00  0.00     0.088 A 
ATOM      6  N   UNL     1      42.695 134.744  23.272  1.00  0.00    -0.135 NA
ATOM      7  C   UNL     1      42.248 134.638  21.113  1.00  0.00     0.095 A 
ATOM      8  N   UNL     1      42.912 133.511  22.833  1.00  0.00    -0.064 NA
ATOM      9  C   UNL     1      41.959 136.926  22.254  1.00  0.00     0.071 C 
BRANCH   7  10
ATOM     10  C   UNL     1      41.906 135.004  19.729  1.00  0.00     0.012 A 
ATOM     11  C   UNL     1      42.927 135.222  18.787  1.00  0.00     0.019 A 
ATOM     12  C   UNL     1      40.574 135.164  19.320  1.00  0.00     0.025 A 
ATOM     13  C   UNL     1      42.612 135.589  17.464  1.00  0.00    -0.017 A 
ATOM     14  C   UNL     1      40.258 135.517  18.040  1.00  0.00     0.024 A 
ATOM     15  C   UNL     1      39.348 135.124  20.155  1.00  0.00     0.301 C 
ATOM     16  C   UNL     1      43.628 135.802  16.522  1.00  0.00     0.009 A 
ATOM     17  C   UNL     1      41.254 135.750  17.079  1.00  0.00    -0.009 A 
ATOM     18  C   UNL     1      38.786 135.653  17.895  1.00  0.00     0.301 C 
ATOM     19  N   UNL     1      38.205 135.199  19.196  1.00  0.00    -0.321 N 
ATOM     20  C   UNL     1      43.307 136.182  15.215  1.00  0.00     0.001 A 
ATOM     21  C   UNL     1      40.946 136.137  15.763  1.00  0.00     0.009 A 
ATOM     22  C   UNL     1      41.971 136.350  14.838  1.00  0.00     0.001 A 
ATOM     23  C   UNL     1      37.590 133.860  19.041  1.00  0.00     0.334 C 
ATOM     24  C   UNL     1      37.179 136.151  19.674  1.00  0.00     0.334 C 
ENDBRANCH   7  10
ENDBRANCH   1   4
BRANCH   3  25
ATOM     25  O   UNL     1      45.183 132.946  20.311  1.00  0.00    -0.345 OA
ATOM     26  H   UNL     1      45.840 132.463  20.874  1.00  0.00     0.216 HD
ENDBRANCH   3  25
BRANCH   3  27
ATOM     27  N   UNL     1      44.284 131.092  18.998  1.00  0.00    -0.330 N 
ATOM     28  H   UNL     1      44.230 130.071  19.218  1.00  0.00     0.166 HD
BRANCH  27  29
ATOM     29  C   UNL     1      44.381 131.522  17.630  1.00  0.00     0.042 A 
ATOM     30  C   UNL     1      45.631 131.536  16.994  1.00  0.00     0.026 A 
ATOM     31  C   UNL     1      43.223 131.905  16.909  1.00  0.00    -0.010 A 
ATOM     32  C   UNL     1      45.738 131.894  15.652  1.00  0.00     0.004 A 
ATOM     33  C   UNL     1      43.346 132.258  15.542  1.00  0.00     0.057 A 
ATOM     34  C   UNL     1      44.605 132.257  14.930  1.00  0.00     0.020 A 
ATOM     35  C   UNL     1      41.872 131.901  17.592  1.00  0.00     0.048 C 
BRANCH  33  36
ATOM     36  C   UNL     1      42.200 132.616  14.740  1.00  0.00     0.099 C 
ATOM     37  N   UNL     1      41.282 132.902  14.095  1.00  0.00    -0.192 NA
ENDBRANCH  33  36
ENDBRANCH  27  29
ENDBRANCH   3  27
TORSDOF 6
ENDMDL
MODEL 3
REMARK VINA RESULT:      -6.4      2.113      6.076
REMARK SMILES Cc1nnn([C@@H]2O[C@@]2(O)Nc2cccc(C#N)c2C)c1-c1cc2ccccc2c2c1C[N+](C)(C)C2
REMARK SMILES IDX 6 1 7 2 8 3 5 4 2 5 3 6 20 7 4 8 1 9 21 10 22 11 30 12 23 13
REMARK SMILES IDX 29 14 31 15 24 16 28 17 35 18 32 19 25 20 27 21 26 22 33 23
REMARK SMILES IDX 34 24 9 25 10 27 11 29 12 30 18 31 13 32 15 33 14 34 19 35
REMARK SMILES IDX 16 36 17 37
REMARK H PARENT 9 26 10 28
ROOT
ATOM      1  C   UNL     1      42.393 133.274  16.290  1.00  0.00     0.327 C 
ATOM      2  O   UNL     1      43.493 133.667  15.498  1.00  0.00    -0.295 OA
ATOM      3  C   UNL     1      42.548 132.824  14.886  1.00  0.00     0.298 C 
ENDROOT
BRANCH   1   4
ATOM      4  N   UNL     1      41.474 134.389  16.497  1.00  0.00    -0.208 N 
ATOM      5  C   UNL     1      40.490 136.204  17.203  1.00  0.00     0.088 A 
ATOM      6  N   UNL     1      39.704 135.638  16.265  1.00  0.00    -0.135 NA
ATOM      7  C   UNL     1      41.614 135.421  17.347  1.00  0.00     0.095 A 
ATOM      8  N   UNL     1      40.328 134.543  15.850  1.00  0.00    -0.064 NA
ATOM      9  C   UNL     1      40.145 137.442  17.963  1.00  0.00     0.071 C 
BRANCH   7  10
ATOM     10  C   UNL     1      42.724 135.621  18.295  1.00  0.00     0.012 A 
ATOM     11  C   UNL     1      43.700 136.599  18.036  1.00  0.00     0.019 A 
ATOM     12  C   UNL     1      42.848 134.842  19.454  1.00  0.00     0.025 A 
ATOM     13  C   UNL     1      44.775 136.789  18.928  1.00  0.00    -0.017 A 
ATOM     14  C   UNL     1      43.884 135.019  20.325  1.00  0.00     0.024 A 
ATOM     15  C   UNL     1      42.031 133.673  19.865  1.00  0.00     0.301 C 
ATOM     16  C   UNL     1      45.748 137.766  18.674  1.00  0.00     0.009 A 
ATOM     17  C   UNL     1      44.880 135.981  20.091  1.00  0.00    -0.009 A 
ATOM     18  C   UNL     1      43.791 134.039  21.438  1.00  0.00     0.301 C 
ATOM     19  N   UNL     1      42.492 133.324  21.242  1.00  0.00    -0.321 N 
ATOM     20  C   UNL     1      46.819 137.937  19.556  1.00  0.00     0.001 A 
ATOM     21  C   UNL     1      45.966 136.159  20.966  1.00  0.00     0.009 A 
ATOM     22  C   UNL     1      46.928 137.134  20.696  1.00  0.00     0.001 A 
ATOM     23  C   UNL     1      41.498 133.789  22.238  1.00  0.00     0.334 C 
ATOM     24  C   UNL     1      42.671 131.862  21.382  1.00  0.00     0.334 C 
ENDBRANCH   7  10
ENDBRANCH   1   4
BRANCH   3  25
ATOM     25  O   UNL     1      41.907 133.483  13.834  1.00  0.00    -0.345 OA
ATOM     26  H   UNL     1      42.325 134.381  13.793  1.00  0.00     0.216 HD
ENDBRANCH   3  25
BRANCH   3  27
ATOM     27  N   UNL     1      43.120 131.511  14.614  1.00  0.00    -0.330 N 
ATOM     28  H   UNL     1      42.655 130.911  13.895  1.00  0.00     0.166 HD
BRANCH  27  29
ATOM     29  C   UNL     1      44.351 131.078  15.216  1.00  0.00     0.042 A 
ATOM     30  C   UNL     1      44.467 131.049  16.614  1.00  0.00     0.026 A 
ATOM     31  C   UNL     1      45.439 130.653  14.414  1.00  0.00    -0.010 A 
ATOM     32  C   UNL     1      45.630 130.577  17.218  1.00  0.00     0.004 A 
ATOM     33  C   UNL     1      46.613 130.167  15.043  1.00  0.00     0.057 A 
ATOM     34  C   UNL     1      46.699 130.142  16.439  1.00  0.00     0.020 A 
ATOM     35  C   UNL     1      45.325 130.691  12.905  1.00  0.00     0.048 C 
BRANCH  33  36
ATOM     36  C   UNL     1      47.739 129.679  14.283  1.00  0.00     0.099 C 
ATOM     37  N   UNL     1      48.642 129.289  13.672  1.00  0.00    -0.192 NA
ENDBRANCH  33  36
ENDBRANCH  27  29
ENDBRANCH   3  27
TORSDOF 6
ENDMDL
MODEL 4
REMARK VINA RESULT:      -6.3      3.741      7.096
REMARK SMILES Cc1nnn([C@@H]2O[C@@]2(O)Nc2cccc(C#N)c2C)c1-c1cc2ccccc2c2c1C[N+](C)(C)C2
REMARK SMILES IDX 6 1 7 2 8 3 5 4 2 5 3 6 20 7 4 8 1 9 21 10 22 11 30 12 23 13
REMARK SMILES IDX 29 14 31 15 24 16 28 17 35 18 32 19 25 20 27 21 26 22 33 23
REMARK SMILES IDX 34 24 9 25 10 27 11 29 12 30 18 31 13 32 15 33 14 34 19 35
REMARK SMILES IDX 16 36 17 37
REMARK H PARENT 9 26 10 28
ROOT
ATOM      1  C   UNL     1      44.779 136.580  18.438  1.00  0.00     0.327 C 
ATOM      2  O   UNL     1      44.979 135.881  19.648  1.00  0.00    -0.295 OA
ATOM      3  C   UNL     1      44.737 137.262  19.754  1.00  0.00     0.298 C 
ENDROOT
BRANCH   1   4
ATOM      4  N   UNL     1      43.481 136.255  17.857  1.00  0.00    -0.208 N 
ATOM      5  C   UNL     1      41.784 135.250  16.921  1.00  0.00     0.088 A 
ATOM      6  N   UNL     1      41.446 136.539  17.130  1.00  0.00    -0.135 NA
ATOM      7  C   UNL     1      43.068 135.064  17.386  1.00  0.00     0.095 A 
ATOM      8  N   UNL     1      42.491 137.122  17.704  1.00  0.00    -0.064 NA
ATOM      9  C   UNL     1      40.907 134.240  16.257  1.00  0.00     0.071 C 
BRANCH   7  10
ATOM     10  C   UNL     1      43.869 133.831  17.320  1.00  0.00     0.012 A 
ATOM     11  C   UNL     1      44.541 133.492  16.133  1.00  0.00     0.019 A 
ATOM     12  C   UNL     1      43.969 132.962  18.416  1.00  0.00     0.025 A 
ATOM     13  C   UNL     1      45.298 132.306  16.053  1.00  0.00    -0.017 A 
ATOM     14  C   UNL     1      44.702 131.811  18.350  1.00  0.00     0.024 A 
ATOM     15  C   UNL     1      43.249 133.034  19.712  1.00  0.00     0.301 C 
ATOM     16  C   UNL     1      45.972 131.968  14.870  1.00  0.00     0.009 A 
ATOM     17  C   UNL     1      45.376 131.441  17.176  1.00  0.00    -0.009 A 
ATOM     18  C   UNL     1      44.602 131.067  19.632  1.00  0.00     0.301 C 
ATOM     19  N   UNL     1      43.842 131.957  20.561  1.00  0.00    -0.321 N 
ATOM     20  C   UNL     1      46.707 130.782  14.795  1.00  0.00     0.001 A 
ATOM     21  C   UNL     1      46.115 130.248  17.085  1.00  0.00     0.009 A 
ATOM     22  C   UNL     1      46.777 129.925  15.898  1.00  0.00     0.001 A 
ATOM     23  C   UNL     1      44.759 132.554  21.561  1.00  0.00     0.334 C 
ATOM     24  C   UNL     1      42.784 131.201  21.266  1.00  0.00     0.334 C 
ENDBRANCH   7  10
ENDBRANCH   1   4
BRANCH   3  25
ATOM     25  O   UNL     1      43.529 137.502  20.414  1.00  0.00    -0.345 OA
ATOM     26  H   UNL     1      43.222 138.386  20.085  1.00  0.00     0.216 HD
ENDBRANCH   3  25
BRANCH   3  27
ATOM     27  N   UNL     1      45.922 137.963  20.236  1.00  0.00    -0.330 N 
ATOM     28  H   UNL     1      46.016 138.980  20.014  1.00  0.00     0.166 HD
BRANCH  27  29
ATOM     29  C   UNL     1      46.888 137.327  21.088  1.00  0.00     0.042 A 
ATOM     30  C   UNL     1      46.504 136.230  21.875  1.00  0.00     0.026 A 
ATOM     31  C   UNL     1      48.231 137.777  21.121  1.00  0.00    -0.010 A 
ATOM     32  C   UNL     1      47.439 135.563  22.664  1.00  0.00     0.004 A 
ATOM     33  C   UNL     1      49.173 137.083  21.921  1.00  0.00     0.057 A 
ATOM     34  C   UNL     1      48.764 135.987  22.691  1.00  0.00     0.020 A 
ATOM     35  C   UNL     1      48.650 138.965  20.283  1.00  0.00     0.048 C 
BRANCH  33  36
ATOM     36  C   UNL     1      50.565 137.464  21.966  1.00  0.00     0.099 C 
ATOM     37  N   UNL     1      51.681 137.768  22.001  1.00  0.00    -0.192 NA
ENDBRANCH  33  36
ENDBRANCH  27  29
ENDBRANCH   3  27
TORSDOF 6
ENDMDL
MODEL 5
REMARK VINA RESULT:      -6.3      1.855      5.753
REMARK SMILES Cc1nnn([C@@H]2O[C@@]2(O)Nc2cccc(C#N)c2C)c1-c1cc2ccccc2c2c1C[N+](C)(C)C2
REMARK SMILES IDX 6 1 7 2 8 3 5 4 2 5 3 6 20 7 4 8 1 9 21 10 22 11 30 12 23 13
REMARK SMILES IDX 29 14 31 15 24 16 28 17 35 18 32 19 25 20 27 21 26 22 33 23
REMARK SMILES IDX 34 24 9 25 10 27 11 29 12 30 18 31 13 32 15 33 14 34 19 35
REMARK SMILES IDX 16 36 17 37
REMARK H PARENT 9 26 10 28
ROOT
ATOM      1  C   UNL     1      41.498 135.150  14.198  1.00  0.00     0.327 C 
ATOM      2  O   UNL     1      41.033 134.388  13.105  1.00  0.00    -0.295 OA
ATOM      3  C   UNL     1      40.900 133.805  14.378  1.00  0.00     0.298 C 
ENDROOT
BRANCH   1   4
ATOM      4  N   UNL     1      40.609 136.275  14.465  1.00  0.00    -0.208 N 
ATOM      5  C   UNL     1      39.505 137.913  15.393  1.00  0.00     0.088 A 
ATOM      6  N   UNL     1      39.088 137.797  14.116  1.00  0.00    -0.135 NA
ATOM      7  C   UNL     1      40.472 136.957  15.617  1.00  0.00     0.095 A 
ATOM      8  N   UNL     1      39.779 136.801  13.576  1.00  0.00    -0.064 NA
ATOM      9  C   UNL     1      38.956 138.892  16.379  1.00  0.00     0.071 C 
BRANCH   7  10
ATOM     10  C   UNL     1      41.172 136.676  16.881  1.00  0.00     0.012 A 
ATOM     11  C   UNL     1      42.548 136.942  16.996  1.00  0.00     0.019 A 
ATOM     12  C   UNL     1      40.503 136.126  17.983  1.00  0.00     0.025 A 
ATOM     13  C   UNL     1      43.232 136.662  18.196  1.00  0.00    -0.017 A 
ATOM     14  C   UNL     1      41.155 135.853  19.152  1.00  0.00     0.024 A 
ATOM     15  C   UNL     1      39.103 135.639  18.057  1.00  0.00     0.301 C 
ATOM     16  C   UNL     1      44.603 136.929  18.314  1.00  0.00     0.009 A 
ATOM     17  C   UNL     1      42.530 136.099  19.295  1.00  0.00    -0.009 A 
ATOM     18  C   UNL     1      40.220 135.244  20.131  1.00  0.00     0.301 C 
ATOM     19  N   UNL     1      38.869 135.303  19.493  1.00  0.00    -0.321 N 
ATOM     20  C   UNL     1      45.277 136.634  19.503  1.00  0.00     0.001 A 
ATOM     21  C   UNL     1      43.222 135.801  20.482  1.00  0.00     0.009 A 
ATOM     22  C   UNL     1      44.589 136.070  20.581  1.00  0.00     0.001 A 
ATOM     23  C   UNL     1      38.049 136.361  20.130  1.00  0.00     0.334 C 
ATOM     24  C   UNL     1      38.169 134.006  19.623  1.00  0.00     0.334 C 
ENDBRANCH   7  10
ENDBRANCH   1   4
BRANCH   3  25
ATOM     25  O   UNL     1      39.552 133.644  14.709  1.00  0.00    -0.345 OA
ATOM     26  H   UNL     1      39.050 134.126  14.003  1.00  0.00     0.216 HD
ENDBRANCH   3  25
BRANCH   3  27
ATOM     27  N   UNL     1      41.773 132.645  14.514  1.00  0.00    -0.330 N 
ATOM     28  H   UNL     1      41.791 131.949  13.735  1.00  0.00     0.166 HD
BRANCH  27  29
ATOM     29  C   UNL     1      42.677 132.499  15.622  1.00  0.00     0.042 A 
ATOM     30  C   UNL     1      42.374 133.108  16.849  1.00  0.00     0.026 A 
ATOM     31  C   UNL     1      43.855 131.722  15.496  1.00  0.00    -0.010 A 
ATOM     32  C   UNL     1      43.207 132.930  17.952  1.00  0.00     0.004 A 
ATOM     33  C   UNL     1      44.688 131.543  16.629  1.00  0.00     0.057 A 
ATOM     34  C   UNL     1      44.359 132.156  17.843  1.00  0.00     0.020 A 
ATOM     35  C   UNL     1      44.193 131.071  14.172  1.00  0.00     0.048 C 
BRANCH  33  36
ATOM     36  C   UNL     1      45.880 130.729  16.578  1.00  0.00     0.099 C 
ATOM     37  N   UNL     1      46.835 130.076  16.540  1.00  0.00    -0.192 NA
ENDBRANCH  33  36
ENDBRANCH  27  29
ENDBRANCH   3  27
TORSDOF 6
ENDMDL
MODEL 6
REMARK VINA RESULT:      -6.2      2.378      6.298
REMARK SMILES Cc1nnn([C@@H]2O[C@@]2(O)Nc2cccc(C#N)c2C)c1-c1cc2ccccc2c2c1C[N+](C)(C)C2
REMARK SMILES IDX 6 1 7 2 8 3 5 4 2 5 3 6 20 7 4 8 1 9 21 10 22 11 30 12 23 13
REMARK SMILES IDX 29 14 31 15 24 16 28 17 35 18 32 19 25 20 27 21 26 22 33 23
REMARK SMILES IDX 34 24 9 25 10 27 11 29 12 30 18 31 13 32 15 33 14 34 19 35
REMARK SMILES IDX 16 36 17 37
REMARK H PARENT 9 26 10 28
ROOT
ATOM      1  C   UNL     1      43.225 134.844  15.688  1.00  0.00     0.327 C 
ATOM      2  O   UNL     1      42.516 134.443  14.535  1.00  0.00    -0.295 OA
ATOM      3  C   UNL     1      42.101 133.878  15.754  1.00  0.00     0.298 C 
ENDROOT
BRANCH   1   4
ATOM      4  N   UNL     1      42.896 136.218  16.052  1.00  0.00    -0.208 N 
ATOM      5  C   UNL     1      42.424 138.056  17.130  1.00  0.00     0.088 A 
ATOM      6  N   UNL     1      42.385 138.322  15.808  1.00  0.00    -0.135 NA
ATOM      7  C   UNL     1      42.754 136.727  17.288  1.00  0.00     0.095 A 
ATOM      8  N   UNL     1      42.682 137.192  15.179  1.00  0.00    -0.064 NA
ATOM      9  C   UNL     1      42.113 139.046  18.204  1.00  0.00     0.071 C 
BRANCH   7  10
ATOM     10  C   UNL     1      42.860 135.981  18.553  1.00  0.00     0.012 A 
ATOM     11  C   UNL     1      44.123 135.597  19.038  1.00  0.00     0.019 A 
ATOM     12  C   UNL     1      41.723 135.618  19.288  1.00  0.00     0.025 A 
ATOM     13  C   UNL     1      44.236 134.868  20.239  1.00  0.00    -0.017 A 
ATOM     14  C   UNL     1      41.821 134.914  20.454  1.00  0.00     0.024 A 
ATOM     15  C   UNL     1      40.296 135.787  18.914  1.00  0.00     0.301 C 
ATOM     16  C   UNL     1      45.494 134.488  20.727  1.00  0.00     0.009 A 
ATOM     17  C   UNL     1      43.066 134.509  20.960  1.00  0.00    -0.009 A 
ATOM     18  C   UNL     1      40.468 134.635  21.000  1.00  0.00     0.301 C 
ATOM     19  N   UNL     1      39.514 135.374  20.117  1.00  0.00    -0.321 N 
ATOM     20  C   UNL     1      45.596 133.751  21.911  1.00  0.00     0.001 A 
ATOM     21  C   UNL     1      43.183 133.763  22.146  1.00  0.00     0.009 A 
ATOM     22  C   UNL     1      44.444 133.389  22.616  1.00  0.00     0.001 A 
ATOM     23  C   UNL     1      38.996 136.574  20.817  1.00  0.00     0.334 C 
ATOM     24  C   UNL     1      38.376 134.510  19.733  1.00  0.00     0.334 C 
ENDBRANCH   7  10
ENDBRANCH   1   4
BRANCH   3  25
ATOM     25  O   UNL     1      40.804 134.289  16.073  1.00  0.00    -0.345 OA
ATOM     26  H   UNL     1      40.685 134.061  17.030  1.00  0.00     0.216 HD
ENDBRANCH   3  25
BRANCH   3  27
ATOM     27  N   UNL     1      42.387 132.449  15.789  1.00  0.00    -0.330 N 
ATOM     28  H   UNL     1      41.785 131.813  15.218  1.00  0.00     0.166 HD
BRANCH  27  29
ATOM     29  C   UNL     1      43.526 131.917  16.486  1.00  0.00     0.042 A 
ATOM     30  C   UNL     1      43.556 131.947  17.889  1.00  0.00     0.026 A 
ATOM     31  C   UNL     1      44.604 131.336  15.774  1.00  0.00    -0.010 A 
ATOM     32  C   UNL     1      44.624 131.384  18.585  1.00  0.00     0.004 A 
ATOM     33  C   UNL     1      45.678 130.760  16.496  1.00  0.00     0.057 A 
ATOM     34  C   UNL     1      45.680 130.798  17.895  1.00  0.00     0.020 A 
ATOM     35  C   UNL     1      44.582 131.309  14.261  1.00  0.00     0.048 C 
BRANCH  33  36
ATOM     36  C   UNL     1      46.786 130.115  15.831  1.00  0.00     0.099 C 
ATOM     37  N   UNL     1      47.675 129.599  15.299  1.00  0.00    -0.192 NA
ENDBRANCH  33  36
ENDBRANCH  27  29
ENDBRANCH   3  27
TORSDOF 6
ENDMDL
MODEL 7
REMARK VINA RESULT:      -6.2      2.849      6.971
REMARK SMILES Cc1nnn([C@@H]2O[C@@]2(O)Nc2cccc(C#N)c2C)c1-c1cc2ccccc2c2c1C[N+](C)(C)C2
REMARK SMILES IDX 6 1 7 2 8 3 5 4 2 5 3 6 20 7 4 8 1 9 21 10 22 11 30 12 23 13
REMARK SMILES IDX 29 14 31 15 24 16 28 17 35 18 32 19 25 20 27 21 26 22 33 23
REMARK SMILES IDX 34 24 9 25 10 27 11 29 12 30 18 31 13 32 15 33 14 34 19 35
REMARK SMILES IDX 16 36 17 37
REMARK H PARENT 9 26 10 28
ROOT
ATOM      1  C   UNL     1      44.107 134.393  16.630  1.00  0.00     0.327 C 
ATOM      2  O   UNL     1      43.833 134.484  15.249  1.00  0.00    -0.295 OA
ATOM      3  C   UNL     1      42.990 133.647  16.001  1.00  0.00     0.298 C 
ENDROOT
BRANCH   1   4
ATOM      4  N   UNL     1      43.732 135.624  17.318  1.00  0.00    -0.208 N 
ATOM      5  C   UNL     1      43.277 137.146  18.815  1.00  0.00     0.088 A 
ATOM      6  N   UNL     1      43.046 137.674  17.596  1.00  0.00    -0.135 NA
ATOM      7  C   UNL     1      43.718 135.852  18.644  1.00  0.00     0.095 A 
ATOM      8  N   UNL     1      43.337 136.732  16.708  1.00  0.00    -0.064 NA
ATOM      9  C   UNL     1      43.040 137.858  20.107  1.00  0.00     0.071 C 
BRANCH   7  10
ATOM     10  C   UNL     1      44.042 134.874  19.696  1.00  0.00     0.012 A 
ATOM     11  C   UNL     1      43.284 133.696  19.817  1.00  0.00     0.019 A 
ATOM     12  C   UNL     1      45.086 135.095  20.606  1.00  0.00     0.025 A 
ATOM     13  C   UNL     1      43.575 132.761  20.830  1.00  0.00    -0.017 A 
ATOM     14  C   UNL     1      45.377 134.194  21.590  1.00  0.00     0.024 A 
ATOM     15  C   UNL     1      45.924 136.309  20.762  1.00  0.00     0.301 C 
ATOM     16  C   UNL     1      42.823 131.583  20.951  1.00  0.00     0.009 A 
ATOM     17  C   UNL     1      44.634 133.013  21.742  1.00  0.00    -0.009 A 
ATOM     18  C   UNL     1      46.496 134.695  22.428  1.00  0.00     0.301 C 
ATOM     19  N   UNL     1      46.971 135.948  21.764  1.00  0.00    -0.321 N 
ATOM     20  C   UNL     1      43.109 130.668  21.969  1.00  0.00     0.001 A 
ATOM     21  C   UNL     1      44.906 132.087  22.765  1.00  0.00     0.009 A 
ATOM     22  C   UNL     1      44.145 130.921  22.873  1.00  0.00     0.001 A 
ATOM     23  C   UNL     1      48.262 135.705  21.078  1.00  0.00     0.334 C 
ATOM     24  C   UNL     1      47.148 137.033  22.755  1.00  0.00     0.334 C 
ENDBRANCH   7  10
ENDBRANCH   1   4
BRANCH   3  25
ATOM     25  O   UNL     1      41.684 134.143  16.011  1.00  0.00    -0.345 OA
ATOM     26  H   UNL     1      41.613 134.678  16.843  1.00  0.00     0.216 HD
ENDBRANCH   3  25
BRANCH   3  27
ATOM     27  N   UNL     1      43.181 132.249  15.633  1.00  0.00    -0.330 N 
ATOM     28  H   UNL     1      42.476 131.806  15.000  1.00  0.00     0.166 HD
BRANCH  27  29
ATOM     29  C   UNL     1      44.353 131.513  16.020  1.00  0.00     0.042 A 
ATOM     30  C   UNL     1      44.650 131.348  17.381  1.00  0.00     0.026 A 
ATOM     31  C   UNL     1      45.196 130.930  15.042  1.00  0.00    -0.010 A 
ATOM     32  C   UNL     1      45.749 130.589  17.778  1.00  0.00     0.004 A 
ATOM     33  C   UNL     1      46.306 130.153  15.461  1.00  0.00     0.057 A 
ATOM     34  C   UNL     1      46.575 129.998  16.826  1.00  0.00     0.020 A 
ATOM     35  C   UNL     1      44.887 131.113  13.572  1.00  0.00     0.048 C 
BRANCH  33  36
ATOM     36  C   UNL     1      47.178 129.497  14.517  1.00  0.00     0.099 C 
ATOM     37  N   UNL     1      47.878 128.969  13.760  1.00  0.00    -0.192 NA
ENDBRANCH  33  36
ENDBRANCH  27  29
ENDBRANCH   3  27
TORSDOF 6
ENDMDL
MODEL 8
REMARK VINA RESULT:      -6.1      2.899      6.181
REMARK SMILES Cc1nnn([C@@H]2O[C@@]2(O)Nc2cccc(C#N)c2C)c1-c1cc2ccccc2c2c1C[N+](C)(C)C2
REMARK SMILES IDX 6 1 7 2 8 3 5 4 2 5 3 6 20 7 4 8 1 9 21 10 22 11 30 12 23 13
REMARK SMILES IDX 29 14 31 15 24 16 28 17 35 18 32 19 25 20 27 21 26 22 33 23
REMARK SMILES IDX 34 24 9 25 10 27 11 29 12 30 18 31 13 32 15 33 14 34 19 35
REMARK SMILES IDX 16 36 17 37
REMARK H PARENT 9 26 10 28
ROOT
ATOM      1  C   UNL     1      42.818 133.014  16.880  1.00  0.00     0.327 C 
ATOM      2  O   UNL     1      43.170 133.944  15.879  1.00  0.00    -0.295 OA
ATOM      3  C   UNL     1      42.513 132.777  15.449  1.00  0.00     0.298 C 
ENDROOT
BRANCH   1   4
ATOM      4  N   UNL     1      41.708 133.510  17.687  1.00  0.00    -0.208 N 
ATOM      5  C   UNL     1      40.468 134.549  19.152  1.00  0.00     0.088 A 
ATOM      6  N   UNL     1      39.673 133.730  18.434  1.00  0.00    -0.135 NA
ATOM      7  C   UNL     1      41.755 134.418  18.678  1.00  0.00     0.095 A 
ATOM      8  N   UNL     1      40.450 133.118  17.549  1.00  0.00    -0.064 NA
ATOM      9  C   UNL     1      40.004 135.401  20.288  1.00  0.00     0.071 C 
BRANCH   7  10
ATOM     10  C   UNL     1      42.966 135.080  19.193  1.00  0.00     0.012 A 
ATOM     11  C   UNL     1      43.452 136.240  18.566  1.00  0.00     0.019 A 
ATOM     12  C   UNL     1      43.669 134.568  20.292  1.00  0.00     0.025 A 
ATOM     13  C   UNL     1      44.619 136.873  19.040  1.00  0.00    -0.017 A 
ATOM     14  C   UNL     1      44.800 135.175  20.761  1.00  0.00     0.024 A 
ATOM     15  C   UNL     1      43.433 133.298  21.023  1.00  0.00     0.301 C 
ATOM     16  C   UNL     1      45.104 138.033  18.419  1.00  0.00     0.009 A 
ATOM     17  C   UNL     1      45.315 136.330  20.152  1.00  0.00    -0.009 A 
ATOM     18  C   UNL     1      45.358 134.405  21.902  1.00  0.00     0.301 C 
ATOM     19  N   UNL     1      44.364 133.326  22.190  1.00  0.00    -0.321 N 
ATOM     20  C   UNL     1      46.271 138.645  18.886  1.00  0.00     0.001 A 
ATOM     21  C   UNL     1      46.491 136.952  20.608  1.00  0.00     0.009 A 
ATOM     22  C   UNL     1      46.962 138.104  19.975  1.00  0.00     0.001 A 
ATOM     23  C   UNL     1      43.611 133.642  23.427  1.00  0.00     0.334 C 
ATOM     24  C   UNL     1      45.039 132.020  22.355  1.00  0.00     0.334 C 
ENDBRANCH   7  10
ENDBRANCH   1   4
BRANCH   3  25
ATOM     25  O   UNL     1      41.262 133.086  14.908  1.00  0.00    -0.345 OA
ATOM     26  H   UNL     1      40.904 133.816  15.476  1.00  0.00     0.216 HD
ENDBRANCH   3  25
BRANCH   3  27
ATOM     27  N   UNL     1      43.406 131.940  14.656  1.00  0.00    -0.330 N 
ATOM     28  H   UNL     1      43.234 131.875  13.627  1.00  0.00     0.166 HD
BRANCH  27  29
ATOM     29  C   UNL     1      44.562 131.306  15.227  1.00  0.00     0.042 A 
ATOM     30  C   UNL     1      44.683 131.210  16.621  1.00  0.00     0.026 A 
ATOM     31  C   UNL     1      45.567 130.752  14.396  1.00  0.00    -0.010 A 
ATOM     32  C   UNL     1      45.767 130.547  17.194  1.00  0.00     0.004 A 
ATOM     33  C   UNL     1      46.660 130.074  14.992  1.00  0.00     0.057 A 
ATOM     34  C   UNL     1      46.752 129.986  16.386  1.00  0.00     0.020 A 
ATOM     35  C   UNL     1      45.449 130.861  12.891  1.00  0.00     0.048 C 
BRANCH  33  36
ATOM     36  C   UNL     1      47.695 129.450  14.202  1.00  0.00     0.099 C 
ATOM     37  N   UNL     1      48.523 128.950  13.567  1.00  0.00    -0.192 NA
ENDBRANCH  33  36
ENDBRANCH  27  29
ENDBRANCH   3  27
TORSDOF 6
ENDMDL
MODEL 9
REMARK VINA RESULT:      -6.0      2.371      4.434
REMARK SMILES Cc1nnn([C@@H]2O[C@@]2(O)Nc2cccc(C#N)c2C)c1-c1cc2ccccc2c2c1C[N+](C)(C)C2
REMARK SMILES IDX 6 1 7 2 8 3 5 4 2 5 3 6 20 7 4 8 1 9 21 10 22 11 30 12 23 13
REMARK SMILES IDX 29 14 31 15 24 16 28 17 35 18 32 19 25 20 27 21 26 22 33 23
REMARK SMILES IDX 34 24 9 25 10 27 11 29 12 30 18 31 13 32 15 33 14 34 19 35
REMARK SMILES IDX 16 36 17 37
REMARK H PARENT 9 26 10 28
ROOT
ATOM      1  C   UNL     1      43.608 132.351  15.851  1.00  0.00     0.327 C 
ATOM      2  O   UNL     1      44.678 132.824  15.063  1.00  0.00    -0.295 OA
ATOM      3  C   UNL     1      43.790 133.794  15.562  1.00  0.00     0.298 C 
ENDROOT
BRANCH   1   4
ATOM      4  N   UNL     1      44.078 131.906  17.159  1.00  0.00    -0.208 N 
ATOM      5  C   UNL     1      44.341 131.565  19.298  1.00  0.00     0.088 A 
ATOM      6  N   UNL     1      45.328 130.918  18.645  1.00  0.00    -0.135 NA
ATOM      7  C   UNL     1      43.544 132.185  18.361  1.00  0.00     0.095 A 
ATOM      8  N   UNL     1      45.140 131.137  17.350  1.00  0.00    -0.064 NA
ATOM      9  C   UNL     1      44.197 131.613  20.784  1.00  0.00     0.071 C 
BRANCH   7  10
ATOM     10  C   UNL     1      42.377 133.048  18.614  1.00  0.00     0.012 A 
ATOM     11  C   UNL     1      41.108 132.667  18.146  1.00  0.00     0.019 A 
ATOM     12  C   UNL     1      42.500 134.264  19.301  1.00  0.00     0.025 A 
ATOM     13  C   UNL     1      39.987 133.493  18.368  1.00  0.00    -0.017 A 
ATOM     14  C   UNL     1      41.421 135.070  19.524  1.00  0.00     0.024 A 
ATOM     15  C   UNL     1      43.741 134.935  19.764  1.00  0.00     0.301 C 
ATOM     16  C   UNL     1      38.719 133.113  17.905  1.00  0.00     0.009 A 
ATOM     17  C   UNL     1      40.142 134.723  19.062  1.00  0.00    -0.009 A 
ATOM     18  C   UNL     1      41.841 136.304  20.235  1.00  0.00     0.301 C 
ATOM     19  N   UNL     1      43.287 136.111  20.564  1.00  0.00    -0.321 N 
ATOM     20  C   UNL     1      37.616 133.946  18.117  1.00  0.00     0.001 A 
ATOM     21  C   UNL     1      39.025 135.553  19.262  1.00  0.00     0.009 A 
ATOM     22  C   UNL     1      37.769 135.162  18.791  1.00  0.00     0.001 A 
ATOM     23  C   UNL     1      43.448 135.828  22.010  1.00  0.00     0.334 C 
ATOM     24  C   UNL     1      44.071 137.317  20.218  1.00  0.00     0.334 C 
ENDBRANCH   7  10
ENDBRANCH   1   4
BRANCH   3  25
ATOM     25  O   UNL     1      44.440 134.642  16.463  1.00  0.00    -0.345 OA
ATOM     26  H   UNL     1      43.892 135.468  16.486  1.00  0.00     0.216 HD
ENDBRANCH   3  25
BRANCH   3  27
ATOM     27  N   UNL     1      43.031 134.409  14.480  1.00  0.00    -0.330 N 
ATOM     28  H   UNL     1      43.515 134.569  13.568  1.00  0.00     0.166 HD
BRANCH  27  29
ATOM     29  C   UNL     1      41.626 134.692  14.601  1.00  0.00     0.042 A 
ATOM     30  C   UNL     1      40.689 133.758  14.134  1.00  0.00     0.026 A 
ATOM     31  C   UNL     1      41.179 135.889  15.212  1.00  0.00    -0.010 A 
ATOM     32  C   UNL     1      39.323 133.986  14.294  1.00  0.00     0.004 A 
ATOM     33  C   UNL     1      39.788 136.103  15.376  1.00  0.00     0.057 A 
ATOM     34  C   UNL     1      38.874 135.152  14.908  1.00  0.00     0.020 A 
ATOM     35  C   UNL     1      42.185 136.905  15.709  1.00  0.00     0.048 C 
BRANCH  33  36
ATOM     36  C   UNL     1      39.269 137.281  16.029  1.00  0.00     0.099 C 
ATOM     37  N   UNL     1      38.854 138.226  16.554  1.00  0.00    -0.192 NA
ENDBRANCH  33  36
ENDBRANCH  27  29
ENDBRANCH   3  27
TORSDOF 6
ENDMDL


