MODEL 1
REMARK VINA RESULT:      -6.9      0.000      0.000
REMARK SMILES Cc1cc(-n2cc(C[C@@H](C)[N-]C(=O)[C@H](C)C#N)nn2)nc2ccc3ccccc3c12
REMARK SMILES IDX 9 1 10 2 8 3 7 4 5 5 6 6 19 7 18 8 4 9 2 10 3 11 30 12 29 13
REMARK SMILES IDX 21 14 20 15 28 16 24 17 22 18 27 19 23 20 25 21 26 22 1 23
REMARK SMILES IDX 11 24 12 25 13 26 14 27 15 28 16 29 17 30
REMARK H PARENT
ROOT
ATOM      1  C   UNL     1      38.155 134.821  19.313  1.00  0.00    -0.104 C 
ATOM      2  C   UNL     1      36.819 134.425  19.953  1.00  0.00    -0.013 C 
ENDROOT
BRANCH   1   3
ATOM      3  C   UNL     1      39.305 134.825  20.338  1.00  0.00     0.044 C 
BRANCH   3   4
ATOM      4  C   UNL     1      40.641 134.546  19.717  1.00  0.00     0.082 A 
ATOM      5  N   UNL     1      42.237 133.712  18.497  1.00  0.00    -0.202 N 
ATOM      6  C   UNL     1      40.908 133.661  18.696  1.00  0.00     0.142 A 
ATOM      7  N   UNL     1      42.755 134.577  19.358  1.00  0.00    -0.061 NA
ATOM      8  N   UNL     1      41.803 135.100  20.118  1.00  0.00    -0.135 NA
BRANCH   5   9
ATOM      9  C   UNL     1      42.990 132.957  17.534  1.00  0.00     0.156 A 
ATOM     10  C   UNL     1      43.382 132.225  15.250  1.00  0.00    -0.037 A 
ATOM     11  C   UNL     1      42.653 132.984  16.180  1.00  0.00     0.053 A 
ATOM     12  C   UNL     1      44.561 131.535  15.679  1.00  0.00     0.011 A 
ATOM     13  C   UNL     1      45.517 130.899  14.816  1.00  0.00    -0.009 A 
ATOM     14  C   UNL     1      44.773 131.446  17.084  1.00  0.00     0.074 A 
ATOM     15  N   UNL     1      44.008 132.162  17.947  1.00  0.00    -0.229 NA
ATOM     16  C   UNL     1      45.639 131.191  13.437  1.00  0.00     0.009 A 
ATOM     17  C   UNL     1      46.472 130.004  15.381  1.00  0.00    -0.018 A 
ATOM     18  C   UNL     1      45.755 130.606  17.608  1.00  0.00     0.030 A 
ATOM     19  C   UNL     1      46.551 130.505  12.631  1.00  0.00     0.001 A 
ATOM     20  C   UNL     1      46.560 129.850  16.767  1.00  0.00     0.011 A 
ATOM     21  C   UNL     1      47.374 129.312  14.556  1.00  0.00     0.009 A 
ATOM     22  C   UNL     1      47.397 129.548  13.184  1.00  0.00     0.001 A 
ATOM     23  C   UNL     1      42.764 132.083  13.880  1.00  0.00     0.045 C 
ENDBRANCH   5   9
ENDBRANCH   3   4
ENDBRANCH   1   3
BRANCH   1  24
ATOM     24  N   UNL     1      38.046 136.136  18.682  1.00  0.00    -0.649 NA
BRANCH  24  25
ATOM     25  C   UNL     1      37.518 136.346  17.369  1.00  0.00     0.068 C 
ATOM     26  O   UNL     1      36.376 136.861  17.218  1.00  0.00    -0.319 OA
BRANCH  25  27
ATOM     27  C   UNL     1      38.317 135.913  16.174  1.00  0.00     0.137 C 
ATOM     28  C   UNL     1      38.178 134.408  15.930  1.00  0.00     0.031 C 
BRANCH  27  29
ATOM     29  C   UNL     1      39.730 136.276  16.366  1.00  0.00     0.071 C 
ATOM     30  N   UNL     1      40.841 136.562  16.524  1.00  0.00    -0.198 NA
ENDBRANCH  27  29
ENDBRANCH  25  27
ENDBRANCH  24  25
ENDBRANCH   1  24
TORSDOF 7
ENDMDL
MODEL 2
REMARK VINA RESULT:      -6.5      4.527      6.348
REMARK SMILES Cc1cc(-n2cc(C[C@@H](C)[N-]C(=O)[C@H](C)C#N)nn2)nc2ccc3ccccc3c12
REMARK SMILES IDX 9 1 10 2 8 3 7 4 5 5 6 6 19 7 18 8 4 9 2 10 3 11 30 12 29 13
REMARK SMILES IDX 21 14 20 15 28 16 24 17 22 18 27 19 23 20 25 21 26 22 1 23
REMARK SMILES IDX 11 24 12 25 13 26 14 27 15 28 16 29 17 30
REMARK H PARENT
ROOT
ATOM      1  C   UNL     1      37.497 135.890  11.660  1.00  0.00    -0.104 C 
ATOM      2  C   UNL     1      37.071 137.364  11.635  1.00  0.00    -0.013 C 
ENDROOT
BRANCH   1   3
ATOM      3  C   UNL     1      38.999 135.730  11.963  1.00  0.00     0.044 C 
BRANCH   3   4
ATOM      4  C   UNL     1      39.261 134.951  13.217  1.00  0.00     0.082 A 
ATOM      5  N   UNL     1      40.227 134.047  14.944  1.00  0.00    -0.202 N 
ATOM      6  C   UNL     1      40.443 134.895  13.922  1.00  0.00     0.142 A 
ATOM      7  N   UNL     1      38.981 133.603  14.861  1.00  0.00    -0.061 NA
ATOM      8  N   UNL     1      38.368 134.136  13.814  1.00  0.00    -0.135 NA
BRANCH   5   9
ATOM      9  C   UNL     1      41.172 133.663  15.954  1.00  0.00     0.156 A 
ATOM     10  C   UNL     1      42.078 133.868  18.201  1.00  0.00    -0.037 A 
ATOM     11  C   UNL     1      41.135 134.235  17.227  1.00  0.00     0.053 A 
ATOM     12  C   UNL     1      42.991 132.801  17.925  1.00  0.00     0.011 A 
ATOM     13  C   UNL     1      43.861 132.178  18.882  1.00  0.00    -0.009 A 
ATOM     14  C   UNL     1      43.059 132.352  16.575  1.00  0.00     0.074 A 
ATOM     15  N   UNL     1      42.152 132.775  15.658  1.00  0.00    -0.229 NA
ATOM     16  C   UNL     1      43.669 132.259  20.281  1.00  0.00     0.009 A 
ATOM     17  C   UNL     1      44.918 131.341  18.416  1.00  0.00    -0.018 A 
ATOM     18  C   UNL     1      44.070 131.486  16.159  1.00  0.00     0.030 A 
ATOM     19  C   UNL     1      44.575 131.678  21.171  1.00  0.00     0.001 A 
ATOM     20  C   UNL     1      45.023 131.029  17.058  1.00  0.00     0.011 A 
ATOM     21  C   UNL     1      45.830 130.776  19.323  1.00  0.00     0.009 A 
ATOM     22  C   UNL     1      45.668 130.962  20.693  1.00  0.00     0.001 A 
ATOM     23  C   UNL     1      42.144 134.749  19.425  1.00  0.00     0.045 C 
ENDBRANCH   5   9
ENDBRANCH   3   4
ENDBRANCH   1   3
BRANCH   1  24
ATOM     24  N   UNL     1      37.174 135.247  10.387  1.00  0.00    -0.649 NA
BRANCH  24  25
ATOM     25  C   UNL     1      37.885 135.491   9.170  1.00  0.00     0.068 C 
ATOM     26  O   UNL     1      37.838 134.654   8.227  1.00  0.00    -0.319 OA
BRANCH  25  27
ATOM     27  C   UNL     1      38.720 136.732   9.038  1.00  0.00     0.137 C 
ATOM     28  C   UNL     1      38.108 137.708   8.030  1.00  0.00     0.031 C 
BRANCH  27  29
ATOM     29  C   UNL     1      40.088 136.367   8.638  1.00  0.00     0.071 C 
ATOM     30  N   UNL     1      41.165 136.083   8.318  1.00  0.00    -0.198 NA
ENDBRANCH  27  29
ENDBRANCH  25  27
ENDBRANCH  24  25
ENDBRANCH   1  24
TORSDOF 7
ENDMDL
MODEL 3
REMARK VINA RESULT:      -6.4      1.455      1.763
REMARK SMILES Cc1cc(-n2cc(C[C@@H](C)[N-]C(=O)[C@H](C)C#N)nn2)nc2ccc3ccccc3c12
REMARK SMILES IDX 9 1 10 2 8 3 7 4 5 5 6 6 19 7 18 8 4 9 2 10 3 11 30 12 29 13
REMARK SMILES IDX 21 14 20 15 28 16 24 17 22 18 27 19 23 20 25 21 26 22 1 23
REMARK SMILES IDX 11 24 12 25 13 26 14 27 15 28 16 29 17 30
REMARK H PARENT
ROOT
ATOM      1  C   UNL     1      38.852 136.018  19.057  1.00  0.00    -0.104 C 
ATOM      2  C   UNL     1      39.765 136.830  19.984  1.00  0.00    -0.013 C 
ENDROOT
BRANCH   1   3
ATOM      3  C   UNL     1      38.930 134.508  19.351  1.00  0.00     0.044 C 
BRANCH   3   4
ATOM      4  C   UNL     1      40.290 133.933  19.089  1.00  0.00     0.082 A 
ATOM      5  N   UNL     1      42.004 132.984  18.143  1.00  0.00    -0.202 N 
ATOM      6  C   UNL     1      40.755 133.420  17.898  1.00  0.00     0.142 A 
ATOM      7  N   UNL     1      42.283 133.211  19.418  1.00  0.00    -0.061 NA
ATOM      8  N   UNL     1      41.253 133.787  20.022  1.00  0.00    -0.135 NA
BRANCH   5   9
ATOM      9  C   UNL     1      42.894 132.362  17.203  1.00  0.00     0.156 A 
ATOM     10  C   UNL     1      43.477 131.734  14.928  1.00  0.00    -0.037 A 
ATOM     11  C   UNL     1      42.610 132.363  15.837  1.00  0.00     0.053 A 
ATOM     12  C   UNL     1      44.725 131.213  15.397  1.00  0.00     0.011 A 
ATOM     13  C   UNL     1      45.795 130.736  14.567  1.00  0.00    -0.009 A 
ATOM     14  C   UNL     1      44.893 131.131  16.809  1.00  0.00     0.074 A 
ATOM     15  N   UNL     1      43.999 131.715  17.648  1.00  0.00    -0.229 NA
ATOM     16  C   UNL     1      45.928 131.066  13.198  1.00  0.00     0.009 A 
ATOM     17  C   UNL     1      46.848 129.979  15.161  1.00  0.00    -0.018 A 
ATOM     18  C   UNL     1      45.965 130.432  17.363  1.00  0.00     0.030 A 
ATOM     19  C   UNL     1      46.960 130.533  12.422  1.00  0.00     0.001 A 
ATOM     20  C   UNL     1      46.903 129.815  16.547  1.00  0.00     0.011 A 
ATOM     21  C   UNL     1      47.871 129.438  14.365  1.00  0.00     0.009 A 
ATOM     22  C   UNL     1      47.913 129.699  12.998  1.00  0.00     0.001 A 
ATOM     23  C   UNL     1      42.939 131.527  13.533  1.00  0.00     0.045 C 
ENDBRANCH   5   9
ENDBRANCH   3   4
ENDBRANCH   1   3
BRANCH   1  24
ATOM     24  N   UNL     1      39.193 136.272  17.658  1.00  0.00    -0.649 NA
BRANCH  24  25
ATOM     25  C   UNL     1      38.903 137.497  16.978  1.00  0.00     0.068 C 
ATOM     26  O   UNL     1      38.541 138.515  17.629  1.00  0.00    -0.319 OA
BRANCH  25  27
ATOM     27  C   UNL     1      38.993 137.548  15.480  1.00  0.00     0.137 C 
ATOM     28  C   UNL     1      39.010 138.994  14.975  1.00  0.00     0.031 C 
BRANCH  27  29
ATOM     29  C   UNL     1      37.864 136.809  14.892  1.00  0.00     0.071 C 
ATOM     30  N   UNL     1      36.972 136.231  14.433  1.00  0.00    -0.198 NA
ENDBRANCH  27  29
ENDBRANCH  25  27
ENDBRANCH  24  25
ENDBRANCH   1  24
TORSDOF 7
ENDMDL
MODEL 4
REMARK VINA RESULT:      -6.4      2.551      3.585
REMARK SMILES Cc1cc(-n2cc(C[C@@H](C)[N-]C(=O)[C@H](C)C#N)nn2)nc2ccc3ccccc3c12
REMARK SMILES IDX 9 1 10 2 8 3 7 4 5 5 6 6 19 7 18 8 4 9 2 10 3 11 30 12 29 13
REMARK SMILES IDX 21 14 20 15 28 16 24 17 22 18 27 19 23 20 25 21 26 22 1 23
REMARK SMILES IDX 11 24 12 25 13 26 14 27 15 28 16 29 17 30
REMARK H PARENT
ROOT
ATOM      1  C   UNL     1      40.521 136.888  19.384  1.00  0.00    -0.104 C 
ATOM      2  C   UNL     1      39.843 137.061  18.019  1.00  0.00    -0.013 C 
ENDROOT
BRANCH   1   3
ATOM      3  C   UNL     1      40.326 135.468  19.946  1.00  0.00     0.044 C 
BRANCH   3   4
ATOM      4  C   UNL     1      40.628 134.396  18.941  1.00  0.00     0.082 A 
ATOM      5  N   UNL     1      41.648 133.088  17.534  1.00  0.00    -0.202 N 
ATOM      6  C   UNL     1      41.863 134.075  18.423  1.00  0.00     0.142 A 
ATOM      7  N   UNL     1      40.348 132.828  17.506  1.00  0.00    -0.061 NA
ATOM      8  N   UNL     1      39.700 133.614  18.353  1.00  0.00    -0.135 NA
BRANCH   5   9
ATOM      9  C   UNL     1      42.638 132.426  16.731  1.00  0.00     0.156 A 
ATOM     10  C   UNL     1      43.446 131.645  14.576  1.00  0.00    -0.037 A 
ATOM     11  C   UNL     1      42.482 132.313  15.349  1.00  0.00     0.053 A 
ATOM     12  C   UNL     1      44.659 131.204  15.196  1.00  0.00     0.011 A 
ATOM     13  C   UNL     1      45.814 130.701  14.507  1.00  0.00    -0.009 A 
ATOM     14  C   UNL     1      44.696 131.236  16.620  1.00  0.00     0.074 A 
ATOM     15  N   UNL     1      43.713 131.852  17.325  1.00  0.00    -0.229 NA
ATOM     16  C   UNL     1      46.065 130.928  13.134  1.00  0.00     0.009 A 
ATOM     17  C   UNL     1      46.825 130.026  15.253  1.00  0.00    -0.018 A 
ATOM     18  C   UNL     1      45.729 130.618  17.323  1.00  0.00     0.030 A 
ATOM     19  C   UNL     1      47.178 130.372  12.501  1.00  0.00     0.001 A 
ATOM     20  C   UNL     1      46.755 129.972  16.648  1.00  0.00     0.011 A 
ATOM     21  C   UNL     1      47.932 129.460  14.599  1.00  0.00     0.009 A 
ATOM     22  C   UNL     1      48.095 129.617  13.225  1.00  0.00     0.001 A 
ATOM     23  C   UNL     1      43.046 131.314  13.159  1.00  0.00     0.045 C 
ENDBRANCH   5   9
ENDBRANCH   3   4
ENDBRANCH   1   3
BRANCH   1  24
ATOM     24  N   UNL     1      40.009 137.875  20.334  1.00  0.00    -0.649 NA
BRANCH  24  25
ATOM     25  C   UNL     1      40.839 138.624  21.227  1.00  0.00     0.068 C 
ATOM     26  O   UNL     1      41.709 139.417  20.773  1.00  0.00    -0.319 OA
BRANCH  25  27
ATOM     27  C   UNL     1      40.692 138.429  22.709  1.00  0.00     0.137 C 
ATOM     28  C   UNL     1      41.159 137.034  23.133  1.00  0.00     0.031 C 
BRANCH  27  29
ATOM     29  C   UNL     1      39.290 138.646  23.099  1.00  0.00     0.071 C 
ATOM     30  N   UNL     1      38.188 138.823  23.407  1.00  0.00    -0.198 NA
ENDBRANCH  27  29
ENDBRANCH  25  27
ENDBRANCH  24  25
ENDBRANCH   1  24
TORSDOF 7
ENDMDL
MODEL 5
REMARK VINA RESULT:      -6.1      2.583      3.591
REMARK SMILES Cc1cc(-n2cc(C[C@@H](C)[N-]C(=O)[C@H](C)C#N)nn2)nc2ccc3ccccc3c12
REMARK SMILES IDX 9 1 10 2 8 3 7 4 5 5 6 6 19 7 18 8 4 9 2 10 3 11 30 12 29 13
REMARK SMILES IDX 21 14 20 15 28 16 24 17 22 18 27 19 23 20 25 21 26 22 1 23
REMARK SMILES IDX 11 24 12 25 13 26 14 27 15 28 16 29 17 30
REMARK H PARENT
ROOT
ATOM      1  C   UNL     1      40.517 137.146  18.541  1.00  0.00    -0.104 C 
ATOM      2  C   UNL     1      39.663 138.389  18.822  1.00  0.00    -0.013 C 
ENDROOT
BRANCH   1   3
ATOM      3  C   UNL     1      39.781 135.846  18.914  1.00  0.00     0.044 C 
BRANCH   3   4
ATOM      4  C   UNL     1      40.599 134.617  18.649  1.00  0.00     0.082 A 
ATOM      5  N   UNL     1      41.923 133.153  17.735  1.00  0.00    -0.202 N 
ATOM      6  C   UNL     1      41.439 134.399  17.580  1.00  0.00     0.142 A 
ATOM      7  N   UNL     1      41.398 132.636  18.836  1.00  0.00    -0.061 NA
ATOM      8  N   UNL     1      40.582 133.506  19.414  1.00  0.00    -0.135 NA
BRANCH   5   9
ATOM      9  C   UNL     1      42.840 132.475  16.863  1.00  0.00     0.156 A 
ATOM     10  C   UNL     1      43.466 131.664  14.658  1.00  0.00    -0.037 A 
ATOM     11  C   UNL     1      42.572 132.348  15.499  1.00  0.00     0.053 A 
ATOM     12  C   UNL     1      44.722 131.220  15.183  1.00  0.00     0.011 A 
ATOM     13  C   UNL     1      45.813 130.701  14.408  1.00  0.00    -0.009 A 
ATOM     14  C   UNL     1      44.875 131.268  16.598  1.00  0.00     0.074 A 
ATOM     15  N   UNL     1      43.956 131.899  17.373  1.00  0.00    -0.229 NA
ATOM     16  C   UNL     1      45.954 130.911  13.017  1.00  0.00     0.009 A 
ATOM     17  C   UNL     1      46.878 130.027  15.077  1.00  0.00    -0.018 A 
ATOM     18  C   UNL     1      45.957 130.649  17.222  1.00  0.00     0.030 A 
ATOM     19  C   UNL     1      47.008 130.340  12.301  1.00  0.00     0.001 A 
ATOM     20  C   UNL     1      46.920 129.987  16.473  1.00  0.00     0.011 A 
ATOM     21  C   UNL     1      47.924 129.445  14.342  1.00  0.00     0.009 A 
ATOM     22  C   UNL     1      47.975 129.585  12.958  1.00  0.00     0.001 A 
ATOM     23  C   UNL     1      42.950 131.321  13.282  1.00  0.00     0.045 C 
ENDBRANCH   5   9
ENDBRANCH   3   4
ENDBRANCH   1   3
BRANCH   1  24
ATOM     24  N   UNL     1      41.785 137.227  19.266  1.00  0.00    -0.649 NA
BRANCH  24  25
ATOM     25  C   UNL     1      41.889 137.192  20.693  1.00  0.00     0.068 C 
ATOM     26  O   UNL     1      41.976 136.089  21.298  1.00  0.00    -0.319 OA
BRANCH  25  27
ATOM     27  C   UNL     1      41.852 138.479  21.466  1.00  0.00     0.137 C 
ATOM     28  C   UNL     1      42.691 139.562  20.782  1.00  0.00     0.031 C 
BRANCH  27  29
ATOM     29  C   UNL     1      42.331 138.245  22.837  1.00  0.00     0.071 C 
ATOM     30  N   UNL     1      42.706 138.066  23.919  1.00  0.00    -0.198 NA
ENDBRANCH  27  29
ENDBRANCH  25  27
ENDBRANCH  24  25
ENDBRANCH   1  24
TORSDOF 7
ENDMDL
MODEL 6
REMARK VINA RESULT:      -6.0      2.805      4.209
REMARK SMILES Cc1cc(-n2cc(C[C@@H](C)[N-]C(=O)[C@H](C)C#N)nn2)nc2ccc3ccccc3c12
REMARK SMILES IDX 9 1 10 2 8 3 7 4 5 5 6 6 19 7 18 8 4 9 2 10 3 11 30 12 29 13
REMARK SMILES IDX 21 14 20 15 28 16 24 17 22 18 27 19 23 20 25 21 26 22 1 23
REMARK SMILES IDX 11 24 12 25 13 26 14 27 15 28 16 29 17 30
REMARK H PARENT
ROOT
ATOM      1  C   UNL     1      40.790 135.476  22.412  1.00  0.00    -0.104 C 
ATOM      2  C   UNL     1      40.527 136.226  23.724  1.00  0.00    -0.013 C 
ENDROOT
BRANCH   1   3
ATOM      3  C   UNL     1      39.870 135.962  21.277  1.00  0.00     0.044 C 
BRANCH   3   4
ATOM      4  C   UNL     1      40.208 135.350  19.950  1.00  0.00     0.082 A 
ATOM      5  N   UNL     1      41.201 134.257  18.353  1.00  0.00    -0.202 N 
ATOM      6  C   UNL     1      41.274 134.524  19.669  1.00  0.00     0.142 A 
ATOM      7  N   UNL     1      40.150 134.894  17.855  1.00  0.00    -0.061 NA
ATOM      8  N   UNL     1      39.527 135.572  18.808  1.00  0.00    -0.135 NA
BRANCH   5   9
ATOM      9  C   UNL     1      42.103 133.438  17.593  1.00  0.00     0.156 A 
ATOM     10  C   UNL     1      42.821 132.465  15.484  1.00  0.00    -0.037 A 
ATOM     11  C   UNL     1      41.946 133.285  16.215  1.00  0.00     0.053 A 
ATOM     12  C   UNL     1      43.960 131.897  16.140  1.00  0.00     0.011 A 
ATOM     13  C   UNL     1      45.046 131.218  15.489  1.00  0.00    -0.009 A 
ATOM     14  C   UNL     1      43.989 131.986  17.561  1.00  0.00     0.074 A 
ATOM     15  N   UNL     1      43.089 132.755  18.225  1.00  0.00    -0.229 NA
ATOM     16  C   UNL     1      45.336 131.351  14.111  1.00  0.00     0.009 A 
ATOM     17  C   UNL     1      45.954 130.451  16.277  1.00  0.00    -0.018 A 
ATOM     18  C   UNL     1      44.927 131.270  18.304  1.00  0.00     0.030 A 
ATOM     19  C   UNL     1      46.373 130.628  13.518  1.00  0.00     0.001 A 
ATOM     20  C   UNL     1      45.865 130.466  17.671  1.00  0.00     0.011 A 
ATOM     21  C   UNL     1      46.983 129.718  15.664  1.00  0.00     0.009 A 
ATOM     22  C   UNL     1      47.177 129.792  14.287  1.00  0.00     0.001 A 
ATOM     23  C   UNL     1      42.394 132.127  14.076  1.00  0.00     0.045 C 
ENDBRANCH   5   9
ENDBRANCH   3   4
ENDBRANCH   1   3
BRANCH   1  24
ATOM     24  N   UNL     1      40.622 134.036  22.608  1.00  0.00    -0.649 NA
BRANCH  24  25
ATOM     25  C   UNL     1      41.632 133.185  23.156  1.00  0.00     0.068 C 
ATOM     26  O   UNL     1      41.731 133.036  24.405  1.00  0.00    -0.319 OA
BRANCH  25  27
ATOM     27  C   UNL     1      42.601 132.501  22.234  1.00  0.00     0.137 C 
ATOM     28  C   UNL     1      42.764 131.022  22.599  1.00  0.00     0.031 C 
BRANCH  27  29
ATOM     29  C   UNL     1      43.900 133.190  22.282  1.00  0.00     0.071 C 
ATOM     30  N   UNL     1      44.922 133.733  22.314  1.00  0.00    -0.198 NA
ENDBRANCH  27  29
ENDBRANCH  25  27
ENDBRANCH  24  25
ENDBRANCH   1  24
TORSDOF 7
ENDMDL
MODEL 7
REMARK VINA RESULT:      -6.0      2.061      2.818
REMARK SMILES Cc1cc(-n2cc(C[C@@H](C)[N-]C(=O)[C@H](C)C#N)nn2)nc2ccc3ccccc3c12
REMARK SMILES IDX 9 1 10 2 8 3 7 4 5 5 6 6 19 7 18 8 4 9 2 10 3 11 30 12 29 13
REMARK SMILES IDX 21 14 20 15 28 16 24 17 22 18 27 19 23 20 25 21 26 22 1 23
REMARK SMILES IDX 11 24 12 25 13 26 14 27 15 28 16 29 17 30
REMARK H PARENT
ROOT
ATOM      1  C   UNL     1      40.509 138.480  16.880  1.00  0.00    -0.104 C 
ATOM      2  C   UNL     1      41.788 139.305  17.071  1.00  0.00    -0.013 C 
ENDROOT
BRANCH   1   3
ATOM      3  C   UNL     1      40.264 137.518  18.057  1.00  0.00     0.044 C 
BRANCH   3   4
ATOM      4  C   UNL     1      40.578 136.091  17.719  1.00  0.00     0.082 A 
ATOM      5  N   UNL     1      41.548 134.292  16.975  1.00  0.00    -0.202 N 
ATOM      6  C   UNL     1      41.723 135.618  17.118  1.00  0.00     0.142 A 
ATOM      7  N   UNL     1      40.355 133.974  17.456  1.00  0.00    -0.061 NA
ATOM      8  N   UNL     1      39.738 135.054  17.915  1.00  0.00    -0.135 NA
BRANCH   5   9
ATOM      9  C   UNL     1      42.475 133.363  16.391  1.00  0.00     0.156 A 
ATOM     10  C   UNL     1      43.245 132.035  14.506  1.00  0.00    -0.037 A 
ATOM     11  C   UNL     1      42.345 132.960  15.061  1.00  0.00     0.053 A 
ATOM     12  C   UNL     1      44.378 131.614  15.272  1.00  0.00     0.011 A 
ATOM     13  C   UNL     1      45.484 130.846  14.773  1.00  0.00    -0.009 A 
ATOM     14  C   UNL     1      44.380 131.960  16.654  1.00  0.00     0.074 A 
ATOM     15  N   UNL     1      43.457 132.822  17.153  1.00  0.00    -0.229 NA
ATOM     16  C   UNL     1      45.799 130.731  13.399  1.00  0.00     0.009 A 
ATOM     17  C   UNL     1      46.388 130.249  15.702  1.00  0.00    -0.018 A 
ATOM     18  C   UNL     1      45.312 131.405  17.530  1.00  0.00     0.030 A 
ATOM     19  C   UNL     1      46.855 129.929  12.963  1.00  0.00     0.001 A 
ATOM     20  C   UNL     1      46.272 130.516  17.069  1.00  0.00     0.011 A 
ATOM     21  C   UNL     1      47.437 129.433  15.248  1.00  0.00     0.009 A 
ATOM     22  C   UNL     1      47.656 129.259  13.884  1.00  0.00     0.001 A 
ATOM     23  C   UNL     1      42.848 131.440  13.177  1.00  0.00     0.045 C 
ENDBRANCH   5   9
ENDBRANCH   3   4
ENDBRANCH   1   3
BRANCH   1  24
ATOM     24  N   UNL     1      40.571 137.729  15.627  1.00  0.00    -0.649 NA
BRANCH  24  25
ATOM     25  C   UNL     1      39.437 137.483  14.790  1.00  0.00     0.068 C 
ATOM     26  O   UNL     1      38.761 138.446  14.336  1.00  0.00    -0.319 OA
BRANCH  25  27
ATOM     27  C   UNL     1      39.035 136.068  14.489  1.00  0.00     0.137 C 
ATOM     28  C   UNL     1      40.002 135.415  13.498  1.00  0.00     0.031 C 
BRANCH  27  29
ATOM     29  C   UNL     1      37.662 136.047  13.960  1.00  0.00     0.071 C 
ATOM     30  N   UNL     1      36.583 136.027  13.539  1.00  0.00    -0.198 NA
ENDBRANCH  27  29
ENDBRANCH  25  27
ENDBRANCH  24  25
ENDBRANCH   1  24
TORSDOF 7
ENDMDL
MODEL 8
REMARK VINA RESULT:      -6.0      3.085      4.357
REMARK SMILES Cc1cc(-n2cc(C[C@@H](C)[N-]C(=O)[C@H](C)C#N)nn2)nc2ccc3ccccc3c12
REMARK SMILES IDX 9 1 10 2 8 3 7 4 5 5 6 6 19 7 18 8 4 9 2 10 3 11 30 12 29 13
REMARK SMILES IDX 21 14 20 15 28 16 24 17 22 18 27 19 23 20 25 21 26 22 1 23
REMARK SMILES IDX 11 24 12 25 13 26 14 27 15 28 16 29 17 30
REMARK H PARENT
ROOT
ATOM      1  C   UNL     1      41.878 136.336  21.442  1.00  0.00    -0.104 C 
ATOM      2  C   UNL     1      41.271 137.100  22.626  1.00  0.00    -0.013 C 
ENDROOT
BRANCH   1   3
ATOM      3  C   UNL     1      40.930 135.242  20.918  1.00  0.00     0.044 C 
BRANCH   3   4
ATOM      4  C   UNL     1      41.661 134.067  20.337  1.00  0.00     0.082 A 
ATOM      5  N   UNL     1      42.740 132.745  18.989  1.00  0.00    -0.202 N 
ATOM      6  C   UNL     1      42.242 133.990  19.091  1.00  0.00     0.142 A 
ATOM      7  N   UNL     1      42.469 132.093  20.111  1.00  0.00    -0.061 NA
ATOM      8  N   UNL     1      41.807 132.876  20.952  1.00  0.00    -0.135 NA
BRANCH   5   9
ATOM      9  C   UNL     1      43.436 132.189  17.862  1.00  0.00     0.156 A 
ATOM     10  C   UNL     1      43.620 131.781  15.473  1.00  0.00    -0.037 A 
ATOM     11  C   UNL     1      42.943 132.346  16.566  1.00  0.00     0.053 A 
ATOM     12  C   UNL     1      44.895 131.162  15.682  1.00  0.00     0.011 A 
ATOM     13  C   UNL     1      45.794 130.732  14.648  1.00  0.00    -0.009 A 
ATOM     14  C   UNL     1      45.275 130.926  17.034  1.00  0.00     0.074 A 
ATOM     15  N   UNL     1      44.558 131.454  18.058  1.00  0.00    -0.229 NA
ATOM     16  C   UNL     1      45.730 131.198  13.314  1.00  0.00     0.009 A 
ATOM     17  C   UNL     1      46.880 129.874  14.988  1.00  0.00    -0.018 A 
ATOM     18  C   UNL     1      46.379 130.129  17.338  1.00  0.00     0.030 A 
ATOM     19  C   UNL     1      46.596 130.708  12.335  1.00  0.00     0.001 A 
ATOM     20  C   UNL     1      47.141 129.563  16.326  1.00  0.00     0.011 A 
ATOM     21  C   UNL     1      47.735 129.378  13.990  1.00  0.00     0.009 A 
ATOM     22  C   UNL     1      47.578 129.779  12.666  1.00  0.00     0.001 A 
ATOM     23  C   UNL     1      42.861 131.744  14.169  1.00  0.00     0.045 C 
ENDBRANCH   5   9
ENDBRANCH   3   4
ENDBRANCH   1   3
BRANCH   1  24
ATOM     24  N   UNL     1      43.160 135.744  21.824  1.00  0.00    -0.649 NA
BRANCH  24  25
ATOM     25  C   UNL     1      44.402 136.059  21.186  1.00  0.00     0.068 C 
ATOM     26  O   UNL     1      44.615 137.222  20.746  1.00  0.00    -0.319 OA
BRANCH  25  27
ATOM     27  C   UNL     1      45.434 134.983  21.011  1.00  0.00     0.137 C 
ATOM     28  C   UNL     1      45.067 133.727  21.805  1.00  0.00     0.031 C 
BRANCH  27  29
ATOM     29  C   UNL     1      46.752 135.490  21.426  1.00  0.00     0.071 C 
ATOM     30  N   UNL     1      47.786 135.892  21.759  1.00  0.00    -0.198 NA
ENDBRANCH  27  29
ENDBRANCH  25  27
ENDBRANCH  24  25
ENDBRANCH   1  24
TORSDOF 7
ENDMDL
MODEL 9
REMARK VINA RESULT:      -5.9      3.266      4.818
REMARK SMILES Cc1cc(-n2cc(C[C@@H](C)[N-]C(=O)[C@H](C)C#N)nn2)nc2ccc3ccccc3c12
REMARK SMILES IDX 9 1 10 2 8 3 7 4 5 5 6 6 19 7 18 8 4 9 2 10 3 11 30 12 29 13
REMARK SMILES IDX 21 14 20 15 28 16 24 17 22 18 27 19 23 20 25 21 26 22 1 23
REMARK SMILES IDX 11 24 12 25 13 26 14 27 15 28 16 29 17 30
REMARK H PARENT
ROOT
ATOM      1  C   UNL     1      42.506 136.130  22.449  1.00  0.00    -0.104 C 
ATOM      2  C   UNL     1      42.433 137.310  23.426  1.00  0.00    -0.013 C 
ENDROOT
BRANCH   1   3
ATOM      3  C   UNL     1      41.236 136.019  21.585  1.00  0.00     0.044 C 
BRANCH   3   4
ATOM      4  C   UNL     1      41.308 134.904  20.584  1.00  0.00     0.082 A 
ATOM      5  N   UNL     1      41.978 133.550  19.019  1.00  0.00    -0.202 N 
ATOM      6  C   UNL     1      42.379 134.586  19.779  1.00  0.00     0.142 A 
ATOM      7  N   UNL     1      40.725 133.259  19.338  1.00  0.00    -0.061 NA
ATOM      8  N   UNL     1      40.288 134.072  20.289  1.00  0.00    -0.135 NA
BRANCH   5   9
ATOM      9  C   UNL     1      42.752 132.872  18.018  1.00  0.00     0.156 A 
ATOM     10  C   UNL     1      43.188 132.306  15.694  1.00  0.00    -0.037 A 
ATOM     11  C   UNL     1      42.437 132.991  16.664  1.00  0.00     0.053 A 
ATOM     12  C   UNL     1      44.365 131.596  16.093  1.00  0.00     0.011 A 
ATOM     13  C   UNL     1      45.340 131.030  15.203  1.00  0.00    -0.009 A 
ATOM     14  C   UNL     1      44.555 131.409  17.492  1.00  0.00     0.074 A 
ATOM     15  N   UNL     1      43.770 132.057  18.390  1.00  0.00    -0.229 NA
ATOM     16  C   UNL     1      45.482 131.419  13.851  1.00  0.00     0.009 A 
ATOM     17  C   UNL     1      46.294 130.104  15.720  1.00  0.00    -0.018 A 
ATOM     18  C   UNL     1      45.536 130.541  17.971  1.00  0.00     0.030 A 
ATOM     19  C   UNL     1      46.412 130.799  13.014  1.00  0.00     0.001 A 
ATOM     20  C   UNL     1      46.361 129.853  17.093  1.00  0.00     0.011 A 
ATOM     21  C   UNL     1      47.214 129.479  14.863  1.00  0.00     0.009 A 
ATOM     22  C   UNL     1      47.258 129.812  13.511  1.00  0.00     0.001 A 
ATOM     23  C   UNL     1      42.592 132.256  14.308  1.00  0.00     0.045 C 
ENDBRANCH   5   9
ENDBRANCH   3   4
ENDBRANCH   1   3
BRANCH   1  24
ATOM     24  N   UNL     1      42.725 134.881  23.177  1.00  0.00    -0.649 NA
BRANCH  24  25
ATOM     25  C   UNL     1      43.677 133.888  22.784  1.00  0.00     0.068 C 
ATOM     26  O   UNL     1      43.343 132.672  22.730  1.00  0.00    -0.319 OA
BRANCH  25  27
ATOM     27  C   UNL     1      45.088 134.299  22.475  1.00  0.00     0.137 C 
ATOM     28  C   UNL     1      45.665 133.477  21.320  1.00  0.00     0.031 C 
BRANCH  27  29
ATOM     29  C   UNL     1      45.920 134.151  23.680  1.00  0.00     0.071 C 
ATOM     30  N   UNL     1      46.580 134.036  24.625  1.00  0.00    -0.198 NA
ENDBRANCH  27  29
ENDBRANCH  25  27
ENDBRANCH  24  25
ENDBRANCH   1  24
TORSDOF 7
ENDMDL


