MODEL 1
REMARK VINA RESULT:      -7.4      0.000      0.000
REMARK SMILES C#CCO[C@@]1(O)O[C@@H]1[C@H]1CC[C@@H]2C(=O)N(O)C(=O)c3ccc(N=[N+]=[N-])c1c32
REMARK SMILES IDX 5 1 7 2 8 3 4 4 3 5 2 6 1 7 6 8 9 10 26 11 10 12 22 13 27 14
REMARK SMILES IDX 11 15 21 16 19 17 12 18 20 19 17 20 13 21 15 22 18 23 14 24
REMARK SMILES IDX 23 25 24 26 25 27 16 28
REMARK H PARENT 6 9 16 29
ROOT
ATOM      1  C   UNL     1      45.514 130.985  15.062  1.00  0.00     0.310 C 
ATOM      2  O   UNL     1      46.527 130.757  16.009  1.00  0.00    -0.313 OA
ATOM      3  C   UNL     1      45.589 131.764  16.329  1.00  0.00     0.222 C 
ENDROOT
BRANCH   1   4
ATOM      4  O   UNL     1      46.052 131.533  13.878  1.00  0.00    -0.312 OA
BRANCH   4   5
ATOM      5  C   UNL     1      46.212 130.513  12.915  1.00  0.00     0.255 C 
BRANCH   5   6
ATOM      6  C   UNL     1      47.508 129.840  13.079  1.00  0.00    -0.078 C 
ATOM      7  C   UNL     1      48.567 129.280  13.212  1.00  0.00     0.006 C 
ENDBRANCH   5   6
ENDBRANCH   4   5
ENDBRANCH   1   4
BRANCH   1   8
ATOM      8  O   UNL     1      44.678 129.865  14.946  1.00  0.00    -0.341 OA
ATOM      9  H   UNL     1      44.096 129.881  15.748  1.00  0.00     0.216 HD
ENDBRANCH   1   8
BRANCH   3  10
ATOM     10  C   UNL     1      44.711 131.352  17.535  1.00  0.00     0.058 C 
ATOM     11  C   UNL     1      43.795 132.520  17.920  1.00  0.00    -0.028 A 
ATOM     12  C   UNL     1      45.636 130.849  18.674  1.00  0.00     0.012 C 
ATOM     13  C   UNL     1      42.812 132.964  16.999  1.00  0.00     0.041 A 
ATOM     14  C   UNL     1      43.869 133.135  19.202  1.00  0.00    -0.019 A 
ATOM     15  C   UNL     1      45.080 131.134  20.063  1.00  0.00     0.019 C 
ATOM     16  C   UNL     1      42.008 134.070  17.314  1.00  0.00     0.011 A 
ATOM     17  C   UNL     1      43.030 134.233  19.503  1.00  0.00     0.047 A 
ATOM     18  C   UNL     1      44.888 132.648  20.221  1.00  0.00     0.112 C 
ATOM     19  C   UNL     1      42.125 134.703  18.544  1.00  0.00     0.015 A 
ATOM     20  C   UNL     1      43.057 134.840  20.849  1.00  0.00     0.284 C 
ATOM     21  C   UNL     1      44.525 133.010  21.645  1.00  0.00     0.261 C 
ATOM     22  N   UNL     1      43.734 134.172  21.914  1.00  0.00    -0.151 N 
ATOM     23  O   UNL     1      42.452 135.924  21.077  1.00  0.00    -0.266 OA
ATOM     24  O   UNL     1      45.010 132.358  22.608  1.00  0.00    -0.271 OA
BRANCH  13  25
ATOM     25  N   UNL     1      42.628 132.262  15.760  1.00  0.00    -0.060 NA
BRANCH  25  26
ATOM     26  N   UNL     1      41.910 132.688  14.854  1.00  0.00     0.005 N 
ATOM     27  N   UNL     1      41.191 133.115  13.951  1.00  0.00    -0.003 NA
ENDBRANCH  25  26
ENDBRANCH  13  25
BRANCH  22  28
ATOM     28  O   UNL     1      43.630 134.641  23.182  1.00  0.00    -0.278 OA
ATOM     29  H   UNL     1      44.419 135.229  23.304  1.00  0.00     0.247 HD
ENDBRANCH  22  28
ENDBRANCH   3  10
TORSDOF 8
ENDMDL
MODEL 2
REMARK VINA RESULT:      -7.2      1.619      1.959
REMARK SMILES C#CCO[C@@]1(O)O[C@@H]1[C@H]1CC[C@@H]2C(=O)N(O)C(=O)c3ccc(N=[N+]=[N-])c1c32
REMARK SMILES IDX 5 1 7 2 8 3 4 4 3 5 2 6 1 7 6 8 9 10 26 11 10 12 22 13 27 14
REMARK SMILES IDX 11 15 21 16 19 17 12 18 20 19 17 20 13 21 15 22 18 23 14 24
REMARK SMILES IDX 23 25 24 26 25 27 16 28
REMARK H PARENT 6 9 16 29
ROOT
ATOM      1  C   UNL     1      45.672 130.389  16.215  1.00  0.00     0.310 C 
ATOM      2  O   UNL     1      45.900 130.098  17.571  1.00  0.00    -0.313 OA
ATOM      3  C   UNL     1      45.647 131.452  17.257  1.00  0.00     0.222 C 
ENDROOT
BRANCH   1   4
ATOM      4  O   UNL     1      46.846 130.188  15.457  1.00  0.00    -0.312 OA
BRANCH   4   5
ATOM      5  C   UNL     1      46.554 129.376  14.339  1.00  0.00     0.255 C 
BRANCH   5   6
ATOM      6  C   UNL     1      46.881 130.073  13.089  1.00  0.00    -0.078 C 
ATOM      7  C   UNL     1      47.158 130.646  12.064  1.00  0.00     0.006 C 
ENDBRANCH   5   6
ENDBRANCH   4   5
ENDBRANCH   1   4
BRANCH   1   8
ATOM      8  O   UNL     1      44.490 129.783  15.767  1.00  0.00    -0.341 OA
ATOM      9  H   UNL     1      44.427 129.999  14.802  1.00  0.00     0.216 HD
ENDBRANCH   1   8
BRANCH   3  10
ATOM     10  C   UNL     1      44.293 131.921  17.841  1.00  0.00     0.058 C 
ATOM     11  C   UNL     1      44.114 133.420  17.571  1.00  0.00    -0.028 A 
ATOM     12  C   UNL     1      44.232 131.518  19.338  1.00  0.00     0.012 C 
ATOM     13  C   UNL     1      44.013 133.876  16.233  1.00  0.00     0.041 A 
ATOM     14  C   UNL     1      43.991 134.360  18.634  1.00  0.00    -0.019 A 
ATOM     15  C   UNL     1      43.424 132.494  20.185  1.00  0.00     0.019 C 
ATOM     16  C   UNL     1      43.909 135.251  15.969  1.00  0.00     0.011 A 
ATOM     17  C   UNL     1      43.864 135.738  18.340  1.00  0.00     0.047 A 
ATOM     18  C   UNL     1      44.056 133.887  20.078  1.00  0.00     0.112 C 
ATOM     19  C   UNL     1      43.849 136.169  17.008  1.00  0.00     0.015 A 
ATOM     20  C   UNL     1      43.676 136.714  19.431  1.00  0.00     0.284 C 
ATOM     21  C   UNL     1      43.416 134.856  21.050  1.00  0.00     0.261 C 
ATOM     22  N   UNL     1      43.372 136.255  20.749  1.00  0.00    -0.151 N 
ATOM     23  O   UNL     1      43.741 137.953  19.203  1.00  0.00    -0.266 OA
ATOM     24  O   UNL     1      43.022 134.455  22.178  1.00  0.00    -0.271 OA
BRANCH  13  25
ATOM     25  N   UNL     1      43.990 132.927  15.155  1.00  0.00    -0.060 NA
BRANCH  25  26
ATOM     26  N   UNL     1      42.954 132.609  14.570  1.00  0.00     0.005 N 
ATOM     27  N   UNL     1      41.920 132.293  13.982  1.00  0.00    -0.003 NA
ENDBRANCH  25  26
ENDBRANCH  13  25
BRANCH  22  28
ATOM     28  O   UNL     1      43.045 137.145  21.718  1.00  0.00    -0.278 OA
ATOM     29  H   UNL     1      43.167 138.036  21.301  1.00  0.00     0.247 HD
ENDBRANCH  22  28
ENDBRANCH   3  10
TORSDOF 8
ENDMDL
MODEL 3
REMARK VINA RESULT:      -7.1      1.394      1.472
REMARK SMILES C#CCO[C@@]1(O)O[C@@H]1[C@H]1CC[C@@H]2C(=O)N(O)C(=O)c3ccc(N=[N+]=[N-])c1c32
REMARK SMILES IDX 5 1 7 2 8 3 4 4 3 5 2 6 1 7 6 8 9 10 26 11 10 12 22 13 27 14
REMARK SMILES IDX 11 15 21 16 19 17 12 18 20 19 17 20 13 21 15 22 18 23 14 24
REMARK SMILES IDX 23 25 24 26 25 27 16 28
REMARK H PARENT 6 9 16 29
ROOT
ATOM      1  C   UNL     1      45.413 131.519  14.802  1.00  0.00     0.310 C 
ATOM      2  O   UNL     1      46.006 130.998  15.965  1.00  0.00    -0.313 OA
ATOM      3  C   UNL     1      45.512 132.319  16.055  1.00  0.00     0.222 C 
ENDROOT
BRANCH   1   4
ATOM      4  O   UNL     1      46.377 131.697  13.787  1.00  0.00    -0.312 OA
BRANCH   4   5
ATOM      5  C   UNL     1      46.386 130.568  12.940  1.00  0.00     0.255 C 
BRANCH   5   6
ATOM      6  C   UNL     1      47.609 129.777  13.138  1.00  0.00    -0.078 C 
ATOM      7  C   UNL     1      48.617 129.136  13.301  1.00  0.00     0.006 C 
ENDBRANCH   5   6
ENDBRANCH   4   5
ENDBRANCH   1   4
BRANCH   1   8
ATOM      8  O   UNL     1      44.243 130.815  14.481  1.00  0.00    -0.341 OA
ATOM      9  H   UNL     1      43.547 131.157  15.097  1.00  0.00     0.216 HD
ENDBRANCH   1   8
BRANCH   3  10
ATOM     10  C   UNL     1      44.297 132.402  17.009  1.00  0.00     0.058 C 
ATOM     11  C   UNL     1      43.928 133.873  17.237  1.00  0.00    -0.028 A 
ATOM     12  C   UNL     1      44.624 131.606  18.300  1.00  0.00     0.012 C 
ATOM     13  C   UNL     1      43.476 134.652  16.143  1.00  0.00     0.041 A 
ATOM     14  C   UNL     1      43.976 134.461  18.533  1.00  0.00    -0.019 A 
ATOM     15  C   UNL     1      43.955 132.182  19.541  1.00  0.00     0.019 C 
ATOM     16  C   UNL     1      43.193 136.015  16.325  1.00  0.00     0.011 A 
ATOM     17  C   UNL     1      43.663 135.832  18.693  1.00  0.00     0.047 A 
ATOM     18  C   UNL     1      44.420 133.632  19.729  1.00  0.00     0.112 C 
ATOM     19  C   UNL     1      43.298 136.598  17.580  1.00  0.00     0.015 A 
ATOM     20  C   UNL     1      43.651 136.437  20.039  1.00  0.00     0.284 C 
ATOM     21  C   UNL     1      43.944 134.195  21.051  1.00  0.00     0.261 C 
ATOM     22  N   UNL     1      43.707 135.599  21.194  1.00  0.00    -0.151 N 
ATOM     23  O   UNL     1      43.552 137.687  20.181  1.00  0.00    -0.266 OA
ATOM     24  O   UNL     1      43.862 133.449  22.064  1.00  0.00    -0.271 OA
BRANCH  13  25
ATOM     25  N   UNL     1      43.285 134.036  14.860  1.00  0.00    -0.060 NA
BRANCH  25  26
ATOM     26  N   UNL     1      42.212 133.538  14.514  1.00  0.00     0.005 N 
ATOM     27  N   UNL     1      41.143 133.039  14.166  1.00  0.00    -0.003 NA
ENDBRANCH  25  26
ENDBRANCH  13  25
BRANCH  22  28
ATOM     28  O   UNL     1      43.540 136.135  22.429  1.00  0.00    -0.278 OA
ATOM     29  H   UNL     1      42.893 135.536  22.883  1.00  0.00     0.247 HD
ENDBRANCH  22  28
ENDBRANCH   3  10
TORSDOF 8
ENDMDL
MODEL 4
REMARK VINA RESULT:      -7.0      1.179      1.196
REMARK SMILES C#CCO[C@@]1(O)O[C@@H]1[C@H]1CC[C@@H]2C(=O)N(O)C(=O)c3ccc(N=[N+]=[N-])c1c32
REMARK SMILES IDX 5 1 7 2 8 3 4 4 3 5 2 6 1 7 6 8 9 10 26 11 10 12 22 13 27 14
REMARK SMILES IDX 11 15 21 16 19 17 12 18 20 19 17 20 13 21 15 22 18 23 14 24
REMARK SMILES IDX 23 25 24 26 25 27 16 28
REMARK H PARENT 6 9 16 29
ROOT
ATOM      1  C   UNL     1      45.968 129.972  15.821  1.00  0.00     0.310 C 
ATOM      2  O   UNL     1      46.742 130.045  16.992  1.00  0.00    -0.313 OA
ATOM      3  C   UNL     1      45.920 131.161  16.716  1.00  0.00     0.222 C 
ENDROOT
BRANCH   1   4
ATOM      4  O   UNL     1      46.792 129.999  14.675  1.00  0.00    -0.312 OA
BRANCH   4   5
ATOM      5  C   UNL     1      46.008 130.286  13.535  1.00  0.00     0.255 C 
BRANCH   5   6
ATOM      6  C   UNL     1      46.859 130.472  12.352  1.00  0.00    -0.078 C 
ATOM      7  C   UNL     1      47.564 130.622  11.385  1.00  0.00     0.006 C 
ENDBRANCH   5   6
ENDBRANCH   4   5
ENDBRANCH   1   4
BRANCH   1   8
ATOM      8  O   UNL     1      45.012 128.951  15.919  1.00  0.00    -0.341 OA
ATOM      9  H   UNL     1      44.531 129.114  16.770  1.00  0.00     0.216 HD
ENDBRANCH   1   8
BRANCH   3  10
ATOM     10  C   UNL     1      44.783 131.292  17.756  1.00  0.00     0.058 C 
ATOM     11  C   UNL     1      44.256 132.733  17.755  1.00  0.00    -0.028 A 
ATOM     12  C   UNL     1      45.305 130.792  19.128  1.00  0.00     0.012 C 
ATOM     13  C   UNL     1      43.628 133.241  16.591  1.00  0.00     0.041 A 
ATOM     14  C   UNL     1      44.332 133.555  18.915  1.00  0.00    -0.019 A 
ATOM     15  C   UNL     1      44.669 131.517  20.309  1.00  0.00     0.019 C 
ATOM     16  C   UNL     1      43.195 134.575  16.555  1.00  0.00     0.011 A 
ATOM     17  C   UNL     1      43.867 134.890  18.860  1.00  0.00     0.047 A 
ATOM     18  C   UNL     1      44.966 133.017  20.189  1.00  0.00     0.112 C 
ATOM     19  C   UNL     1      43.326 135.392  17.671  1.00  0.00     0.015 A 
ATOM     20  C   UNL     1      43.887 135.733  20.072  1.00  0.00     0.284 C 
ATOM     21  C   UNL     1      44.530 133.764  21.432  1.00  0.00     0.261 C 
ATOM     22  N   UNL     1      44.135 135.137  21.346  1.00  0.00    -0.151 N 
ATOM     23  O   UNL     1      43.647 136.970  19.999  1.00  0.00    -0.266 OA
ATOM     24  O   UNL     1      44.619 133.217  22.564  1.00  0.00    -0.271 OA
BRANCH  13  25
ATOM     25  N   UNL     1      43.414 132.379  15.462  1.00  0.00    -0.060 NA
BRANCH  25  26
ATOM     26  N   UNL     1      42.448 132.499  14.706  1.00  0.00     0.005 N 
ATOM     27  N   UNL     1      41.483 132.619  13.953  1.00  0.00    -0.003 NA
ENDBRANCH  25  26
ENDBRANCH  13  25
BRANCH  22  28
ATOM     28  O   UNL     1      44.000 135.873  22.476  1.00  0.00    -0.278 OA
ATOM     29  H   UNL     1      43.026 136.034  22.564  1.00  0.00     0.247 HD
ENDBRANCH  22  28
ENDBRANCH   3  10
TORSDOF 8
ENDMDL
MODEL 5
REMARK VINA RESULT:      -6.7      2.358      3.044
REMARK SMILES C#CCO[C@@]1(O)O[C@@H]1[C@H]1CC[C@@H]2C(=O)N(O)C(=O)c3ccc(N=[N+]=[N-])c1c32
REMARK SMILES IDX 5 1 7 2 8 3 4 4 3 5 2 6 1 7 6 8 9 10 26 11 10 12 22 13 27 14
REMARK SMILES IDX 11 15 21 16 19 17 12 18 20 19 17 20 13 21 15 22 18 23 14 24
REMARK SMILES IDX 23 25 24 26 25 27 16 28
REMARK H PARENT 6 9 16 29
ROOT
ATOM      1  C   UNL     1      44.842 131.875  15.246  1.00  0.00     0.310 C 
ATOM      2  O   UNL     1      45.506 131.750  16.479  1.00  0.00    -0.313 OA
ATOM      3  C   UNL     1      45.054 133.046  16.141  1.00  0.00     0.222 C 
ENDROOT
BRANCH   1   4
ATOM      4  O   UNL     1      45.732 131.650  14.175  1.00  0.00    -0.312 OA
BRANCH   4   5
ATOM      5  C   UNL     1      45.709 130.284  13.818  1.00  0.00     0.255 C 
BRANCH   5   6
ATOM      6  C   UNL     1      47.061 129.804  13.503  1.00  0.00    -0.078 C 
ATOM      7  C   UNL     1      48.171 129.404  13.251  1.00  0.00     0.006 C 
ENDBRANCH   5   6
ENDBRANCH   4   5
ENDBRANCH   1   4
BRANCH   1   8
ATOM      8  O   UNL     1      43.634 131.163  15.257  1.00  0.00    -0.341 OA
ATOM      9  H   UNL     1      43.012 131.699  15.812  1.00  0.00     0.216 HD
ENDBRANCH   1   8
BRANCH   3  10
ATOM     10  C   UNL     1      43.917 133.508  17.083  1.00  0.00     0.058 C 
ATOM     11  C   UNL     1      43.513 134.944  16.727  1.00  0.00    -0.028 A 
ATOM     12  C   UNL     1      44.374 133.306  18.551  1.00  0.00     0.012 C 
ATOM     13  C   UNL     1      42.948 135.211  15.455  1.00  0.00     0.041 A 
ATOM     14  C   UNL     1      43.641 136.009  17.665  1.00  0.00    -0.019 A 
ATOM     15  C   UNL     1      43.784 134.336  19.506  1.00  0.00     0.019 C 
ATOM     16  C   UNL     1      42.630 136.530  15.094  1.00  0.00     0.011 A 
ATOM     17  C   UNL     1      43.292 137.325  17.283  1.00  0.00     0.047 A 
ATOM     18  C   UNL     1      44.208 135.737  19.050  1.00  0.00     0.112 C 
ATOM     19  C   UNL     1      42.813 137.573  15.992  1.00  0.00     0.015 A 
ATOM     20  C   UNL     1      43.365 138.426  18.265  1.00  0.00     0.284 C 
ATOM     21  C   UNL     1      43.818 136.788  20.068  1.00  0.00     0.261 C 
ATOM     22  N   UNL     1      43.542 138.129  19.650  1.00  0.00    -0.151 N 
ATOM     23  O   UNL     1      43.231 139.625  17.896  1.00  0.00    -0.266 OA
ATOM     24  O   UNL     1      43.844 136.518  21.299  1.00  0.00    -0.271 OA
BRANCH  13  25
ATOM     25  N   UNL     1      42.678 134.127  14.553  1.00  0.00    -0.060 NA
BRANCH  25  26
ATOM     26  N   UNL     1      41.536 133.742  14.297  1.00  0.00     0.005 N 
ATOM     27  N   UNL     1      40.396 133.359  14.038  1.00  0.00    -0.003 NA
ENDBRANCH  25  26
ENDBRANCH  13  25
BRANCH  22  28
ATOM     28  O   UNL     1      43.453 139.119  20.572  1.00  0.00    -0.278 OA
ATOM     29  H   UNL     1      44.000 139.861  20.207  1.00  0.00     0.247 HD
ENDBRANCH  22  28
ENDBRANCH   3  10
TORSDOF 8
ENDMDL
MODEL 6
REMARK VINA RESULT:      -6.6      3.351      5.281
REMARK SMILES C#CCO[C@@]1(O)O[C@@H]1[C@H]1CC[C@@H]2C(=O)N(O)C(=O)c3ccc(N=[N+]=[N-])c1c32
REMARK SMILES IDX 5 1 7 2 8 3 4 4 3 5 2 6 1 7 6 8 9 10 26 11 10 12 22 13 27 14
REMARK SMILES IDX 11 15 21 16 19 17 12 18 20 19 17 20 13 21 15 22 18 23 14 24
REMARK SMILES IDX 23 25 24 26 25 27 16 28
REMARK H PARENT 6 9 16 29
ROOT
ATOM      1  C   UNL     1      44.902 131.451  15.320  1.00  0.00     0.310 C 
ATOM      2  O   UNL     1      44.115 131.388  14.157  1.00  0.00    -0.313 OA
ATOM      3  C   UNL     1      43.430 131.674  15.359  1.00  0.00     0.222 C 
ENDROOT
BRANCH   1   4
ATOM      4  O   UNL     1      45.419 130.179  15.642  1.00  0.00    -0.312 OA
BRANCH   4   5
ATOM      5  C   UNL     1      46.829 130.238  15.685  1.00  0.00     0.255 C 
BRANCH   5   6
ATOM      6  C   UNL     1      47.409 129.791  14.412  1.00  0.00    -0.078 C 
ATOM      7  C   UNL     1      47.893 129.423  13.370  1.00  0.00     0.006 C 
ENDBRANCH   5   6
ENDBRANCH   4   5
ENDBRANCH   1   4
BRANCH   1   8
ATOM      8  O   UNL     1      45.798 132.528  15.257  1.00  0.00    -0.341 OA
ATOM      9  H   UNL     1      46.023 132.745  16.198  1.00  0.00     0.216 HD
ENDBRANCH   1   8
BRANCH   3  10
ATOM     10  C   UNL     1      42.873 133.118  15.358  1.00  0.00     0.058 C 
ATOM     11  C   UNL     1      42.021 133.335  16.616  1.00  0.00    -0.028 A 
ATOM     12  C   UNL     1      42.130 133.363  14.020  1.00  0.00     0.012 C 
ATOM     13  C   UNL     1      42.638 133.275  17.890  1.00  0.00     0.041 A 
ATOM     14  C   UNL     1      40.635 133.651  16.532  1.00  0.00    -0.019 A 
ATOM     15  C   UNL     1      40.959 134.329  14.155  1.00  0.00     0.019 C 
ATOM     16  C   UNL     1      41.860 133.412  19.051  1.00  0.00     0.011 A 
ATOM     17  C   UNL     1      39.879 133.807  17.717  1.00  0.00     0.047 A 
ATOM     18  C   UNL     1      39.962 133.761  15.172  1.00  0.00     0.112 C 
ATOM     19  C   UNL     1      40.497 133.661  18.964  1.00  0.00     0.015 A 
ATOM     20  C   UNL     1      38.456 134.194  17.642  1.00  0.00     0.284 C 
ATOM     21  C   UNL     1      38.686 134.577  15.205  1.00  0.00     0.261 C 
ATOM     22  N   UNL     1      37.909 134.651  16.405  1.00  0.00    -0.151 N 
ATOM     23  O   UNL     1      37.726 134.161  18.671  1.00  0.00    -0.266 OA
ATOM     24  O   UNL     1      38.242 135.101  14.148  1.00  0.00    -0.271 OA
BRANCH  13  25
ATOM     25  N   UNL     1      44.060 133.101  17.987  1.00  0.00    -0.060 NA
BRANCH  25  26
ATOM     26  N   UNL     1      44.578 132.216  18.671  1.00  0.00     0.005 N 
ATOM     27  N   UNL     1      45.095 131.332  19.352  1.00  0.00    -0.003 NA
ENDBRANCH  25  26
ENDBRANCH  13  25
BRANCH  22  28
ATOM     28  O   UNL     1      36.651 135.154  16.365  1.00  0.00    -0.278 OA
ATOM     29  H   UNL     1      36.753 136.120  16.561  1.00  0.00     0.247 HD
ENDBRANCH  22  28
ENDBRANCH   3  10
TORSDOF 8
ENDMDL
MODEL 7
REMARK VINA RESULT:      -6.3      3.273      4.849
REMARK SMILES C#CCO[C@@]1(O)O[C@@H]1[C@H]1CC[C@@H]2C(=O)N(O)C(=O)c3ccc(N=[N+]=[N-])c1c32
REMARK SMILES IDX 5 1 7 2 8 3 4 4 3 5 2 6 1 7 6 8 9 10 26 11 10 12 22 13 27 14
REMARK SMILES IDX 11 15 21 16 19 17 12 18 20 19 17 20 13 21 15 22 18 23 14 24
REMARK SMILES IDX 23 25 24 26 25 27 16 28
REMARK H PARENT 6 9 16 29
ROOT
ATOM      1  C   UNL     1      44.524 131.589  15.801  1.00  0.00     0.310 C 
ATOM      2  O   UNL     1      44.915 132.712  15.052  1.00  0.00    -0.313 OA
ATOM      3  C   UNL     1      43.603 132.737  15.577  1.00  0.00     0.222 C 
ENDROOT
BRANCH   1   4
ATOM      4  O   UNL     1      44.425 130.448  14.975  1.00  0.00    -0.312 OA
BRANCH   4   5
ATOM      5  C   UNL     1      45.694 129.841  14.852  1.00  0.00     0.255 C 
BRANCH   5   6
ATOM      6  C   UNL     1      46.327 130.211  13.579  1.00  0.00    -0.078 C 
ATOM      7  C   UNL     1      46.852 130.522  12.538  1.00  0.00     0.006 C 
ENDBRANCH   5   6
ENDBRANCH   4   5
ENDBRANCH   1   4
BRANCH   1   8
ATOM      8  O   UNL     1      45.282 131.485  16.975  1.00  0.00    -0.341 OA
ATOM      9  H   UNL     1      45.069 132.295  17.505  1.00  0.00     0.216 HD
ENDBRANCH   1   8
BRANCH   3  10
ATOM     10  C   UNL     1      43.454 133.825  16.667  1.00  0.00     0.058 C 
ATOM     11  C   UNL     1      41.968 134.156  16.856  1.00  0.00    -0.028 A 
ATOM     12  C   UNL     1      44.347 135.034  16.288  1.00  0.00     0.012 C 
ATOM     13  C   UNL     1      41.090 133.155  17.340  1.00  0.00     0.041 A 
ATOM     14  C   UNL     1      41.460 135.464  16.609  1.00  0.00    -0.019 A 
ATOM     15  C   UNL     1      43.777 136.367  16.757  1.00  0.00     0.019 C 
ATOM     16  C   UNL     1      39.718 133.427  17.459  1.00  0.00     0.011 A 
ATOM     17  C   UNL     1      40.076 135.717  16.760  1.00  0.00     0.047 A 
ATOM     18  C   UNL     1      42.392 136.564  16.128  1.00  0.00     0.112 C 
ATOM     19  C   UNL     1      39.218 134.687  17.161  1.00  0.00     0.015 A 
ATOM     20  C   UNL     1      39.547 137.082  16.565  1.00  0.00     0.284 C 
ATOM     21  C   UNL     1      41.859 137.955  16.399  1.00  0.00     0.261 C 
ATOM     22  N   UNL     1      40.448 138.185  16.473  1.00  0.00    -0.151 N 
ATOM     23  O   UNL     1      38.303 137.288  16.519  1.00  0.00    -0.266 OA
ATOM     24  O   UNL     1      42.648 138.938  16.448  1.00  0.00    -0.271 OA
BRANCH  13  25
ATOM     25  N   UNL     1      41.613 131.876  17.730  1.00  0.00    -0.060 NA
BRANCH  25  26
ATOM     26  N   UNL     1      42.106 131.668  18.840  1.00  0.00     0.005 N 
ATOM     27  N   UNL     1      42.600 131.461  19.947  1.00  0.00    -0.003 NA
ENDBRANCH  25  26
ENDBRANCH  13  25
BRANCH  22  28
ATOM     28  O   UNL     1      39.968 139.453  16.451  1.00  0.00    -0.278 OA
ATOM     29  H   UNL     1      40.658 139.981  15.974  1.00  0.00     0.247 HD
ENDBRANCH  22  28
ENDBRANCH   3  10
TORSDOF 8
ENDMDL
MODEL 8
REMARK VINA RESULT:      -6.3      2.884      4.978
REMARK SMILES C#CCO[C@@]1(O)O[C@@H]1[C@H]1CC[C@@H]2C(=O)N(O)C(=O)c3ccc(N=[N+]=[N-])c1c32
REMARK SMILES IDX 5 1 7 2 8 3 4 4 3 5 2 6 1 7 6 8 9 10 26 11 10 12 22 13 27 14
REMARK SMILES IDX 11 15 21 16 19 17 12 18 20 19 17 20 13 21 15 22 18 23 14 24
REMARK SMILES IDX 23 25 24 26 25 27 16 28
REMARK H PARENT 6 9 16 29
ROOT
ATOM      1  C   UNL     1      41.862 133.921  15.039  1.00  0.00     0.310 C 
ATOM      2  O   UNL     1      41.300 134.282  16.276  1.00  0.00    -0.313 OA
ATOM      3  C   UNL     1      42.339 133.325  16.317  1.00  0.00     0.222 C 
ENDROOT
BRANCH   1   4
ATOM      4  O   UNL     1      40.925 133.217  14.252  1.00  0.00    -0.312 OA
BRANCH   4   5
ATOM      5  C   UNL     1      39.641 133.777  14.432  1.00  0.00     0.255 C 
BRANCH   5   6
ATOM      6  C   UNL     1      39.367 134.794  13.408  1.00  0.00    -0.078 C 
ATOM      7  C   UNL     1      39.150 135.631  12.567  1.00  0.00     0.006 C 
ENDBRANCH   5   6
ENDBRANCH   4   5
ENDBRANCH   1   4
BRANCH   1   8
ATOM      8  O   UNL     1      42.522 135.011  14.455  1.00  0.00    -0.341 OA
ATOM      9  H   UNL     1      42.019 135.217  13.626  1.00  0.00     0.216 HD
ENDBRANCH   1   8
BRANCH   3  10
ATOM     10  C   UNL     1      43.602 133.895  17.005  1.00  0.00     0.058 C 
ATOM     11  C   UNL     1      44.346 132.763  17.724  1.00  0.00    -0.028 A 
ATOM     12  C   UNL     1      43.181 135.078  17.916  1.00  0.00     0.012 C 
ATOM     13  C   UNL     1      44.898 131.702  16.962  1.00  0.00     0.041 A 
ATOM     14  C   UNL     1      44.543 132.778  19.134  1.00  0.00    -0.019 A 
ATOM     15  C   UNL     1      44.063 135.224  19.149  1.00  0.00     0.019 C 
ATOM     16  C   UNL     1      45.528 130.629  17.612  1.00  0.00     0.011 A 
ATOM     17  C   UNL     1      45.202 131.695  19.761  1.00  0.00     0.047 A 
ATOM     18  C   UNL     1      43.994 133.927  19.966  1.00  0.00     0.112 C 
ATOM     19  C   UNL     1      45.665 130.621  18.993  1.00  0.00     0.015 A 
ATOM     20  C   UNL     1      45.465 131.729  21.214  1.00  0.00     0.284 C 
ATOM     21  C   UNL     1      44.693 134.081  21.300  1.00  0.00     0.261 C 
ATOM     22  N   UNL     1      45.285 132.946  21.939  1.00  0.00    -0.151 N 
ATOM     23  O   UNL     1      45.886 130.702  21.814  1.00  0.00    -0.266 OA
ATOM     24  O   UNL     1      44.658 135.184  21.910  1.00  0.00    -0.271 OA
BRANCH  13  25
ATOM     25  N   UNL     1      44.833 131.745  15.528  1.00  0.00    -0.060 NA
BRANCH  25  26
ATOM     26  N   UNL     1      45.833 131.665  14.814  1.00  0.00     0.005 N 
ATOM     27  N   UNL     1      46.831 131.584  14.099  1.00  0.00    -0.003 NA
ENDBRANCH  25  26
ENDBRANCH  13  25
BRANCH  22  28
ATOM     28  O   UNL     1      45.673 133.025  23.236  1.00  0.00    -0.278 OA
ATOM     29  H   UNL     1      44.841 132.903  23.761  1.00  0.00     0.247 HD
ENDBRANCH  22  28
ENDBRANCH   3  10
TORSDOF 8
ENDMDL
MODEL 9
REMARK VINA RESULT:      -6.2      3.100      5.211
REMARK SMILES C#CCO[C@@]1(O)O[C@@H]1[C@H]1CC[C@@H]2C(=O)N(O)C(=O)c3ccc(N=[N+]=[N-])c1c32
REMARK SMILES IDX 5 1 7 2 8 3 4 4 3 5 2 6 1 7 6 8 9 10 26 11 10 12 22 13 27 14
REMARK SMILES IDX 11 15 21 16 19 17 12 18 20 19 17 20 13 21 15 22 18 23 14 24
REMARK SMILES IDX 23 25 24 26 25 27 16 28
REMARK H PARENT 6 9 16 29
ROOT
ATOM      1  C   UNL     1      41.387 133.666  15.154  1.00  0.00     0.310 C 
ATOM      2  O   UNL     1      41.998 132.461  15.543  1.00  0.00    -0.313 OA
ATOM      3  C   UNL     1      42.812 133.373  14.834  1.00  0.00     0.222 C 
ENDROOT
BRANCH   1   4
ATOM      4  O   UNL     1      40.395 133.430  14.178  1.00  0.00    -0.312 OA
BRANCH   4   5
ATOM      5  C   UNL     1      39.156 133.935  14.631  1.00  0.00     0.255 C 
BRANCH   5   6
ATOM      6  C   UNL     1      38.216 134.091  13.512  1.00  0.00    -0.078 C 
ATOM      7  C   UNL     1      37.450 134.224  12.591  1.00  0.00     0.006 C 
ENDBRANCH   5   6
ENDBRANCH   4   5
ENDBRANCH   1   4
BRANCH   1   8
ATOM      8  O   UNL     1      41.037 134.432  16.275  1.00  0.00    -0.341 OA
ATOM      9  H   UNL     1      41.290 133.886  17.062  1.00  0.00     0.216 HD
ENDBRANCH   1   8
BRANCH   3  10
ATOM     10  C   UNL     1      43.932 133.945  15.735  1.00  0.00     0.058 C 
ATOM     11  C   UNL     1      44.462 132.835  16.653  1.00  0.00    -0.028 A 
ATOM     12  C   UNL     1      43.387 135.194  16.474  1.00  0.00     0.012 C 
ATOM     13  C   UNL     1      45.110 131.712  16.081  1.00  0.00     0.041 A 
ATOM     14  C   UNL     1      44.368 132.933  18.071  1.00  0.00    -0.019 A 
ATOM     15  C   UNL     1      44.004 135.389  17.853  1.00  0.00     0.019 C 
ATOM     16  C   UNL     1      45.546 130.662  16.904  1.00  0.00     0.011 A 
ATOM     17  C   UNL     1      44.836 131.870  18.879  1.00  0.00     0.047 A 
ATOM     18  C   UNL     1      43.712 134.149  18.708  1.00  0.00     0.112 C 
ATOM     19  C   UNL     1      45.398 130.736  18.282  1.00  0.00     0.015 A 
ATOM     20  C   UNL     1      44.798 131.986  20.350  1.00  0.00     0.284 C 
ATOM     21  C   UNL     1      44.130 134.363  20.147  1.00  0.00     0.261 C 
ATOM     22  N   UNL     1      44.528 133.251  20.955  1.00  0.00    -0.151 N 
ATOM     23  O   UNL     1      45.042 130.985  21.080  1.00  0.00    -0.266 OA
ATOM     24  O   UNL     1      44.020 135.502  20.675  1.00  0.00    -0.271 OA
BRANCH  13  25
ATOM     25  N   UNL     1      45.341 131.667  14.664  1.00  0.00    -0.060 NA
BRANCH  25  26
ATOM     26  N   UNL     1      46.458 131.483  14.177  1.00  0.00     0.005 N 
ATOM     27  N   UNL     1      47.572 131.299  13.689  1.00  0.00    -0.003 NA
ENDBRANCH  25  26
ENDBRANCH  13  25
BRANCH  22  28
ATOM     28  O   UNL     1      44.646 133.398  22.298  1.00  0.00    -0.278 OA
ATOM     29  H   UNL     1      44.874 132.495  22.637  1.00  0.00     0.247 HD
ENDBRANCH  22  28
ENDBRANCH   3  10
TORSDOF 8
ENDMDL


