REMARK SMILES [N-]=[N+]=Nc1cc(Cl)cc2c(CNO)c(OCCc3cn(C[C@H]([NH3+])C(=O)[O-])nn3)ccc12
REMARK SMILES IDX 16 1 15 2 14 3 10 4 9 5 29 6 8 7 31 8 30 9 6 10 4 11 5 12
REMARK SMILES IDX 7 13 11 14 12 15 13 17 3 19 2 20 1 21 17 22 18 23 28 24
REMARK SMILES IDX 19 25 27 26 20 27 21 28 22 29 24 30 25 31 26 32 23 33
REMARK H PARENT 12 16 13 18 23 34 23 35 23 36
ROOT
ATOM      1  C   UNL     1       2.838  -1.381  -1.147  1.00  0.00     0.236 C 
ENDROOT
BRANCH   1   2
ATOM      2  O   UNL     1       1.926  -0.304  -0.940  1.00  0.00    -0.493 OA
BRANCH   2   3
ATOM      3  C   UNL     1       1.138  -0.122   0.209  1.00  0.00     0.124 A 
ATOM      4  C   UNL     1       0.252   0.979   0.270  1.00  0.00     0.018 A 
ATOM      5  C   UNL     1      -0.525   1.192   1.446  1.00  0.00    -0.008 A 
ATOM      6  C   UNL     1       1.217  -1.012   1.291  1.00  0.00     0.047 A 
ATOM      7  C   UNL     1      -1.387   2.303   1.575  1.00  0.00     0.029 A 
ATOM      8  C   UNL     1      -0.433   0.272   2.528  1.00  0.00    -0.008 A 
ATOM      9  C   UNL     1       0.440  -0.823   2.428  1.00  0.00     0.013 A 
ATOM     10  C   UNL     1      -2.147   2.489   2.729  1.00  0.00     0.042 A 
ATOM     11  C   UNL     1      -1.210   0.466   3.696  1.00  0.00     0.047 A 
ATOM     12  C   UNL     1      -2.064   1.579   3.780  1.00  0.00     0.031 A 
ATOM     13  Cl  UNL     1      -3.212   3.878   2.861  1.00  0.00    -0.084 Cl
BRANCH   4  14
ATOM     14  C   UNL     1       0.179   1.931  -0.911  1.00  0.00     0.151 C 
BRANCH  14  15
ATOM     15  N   UNL     1       0.876   3.177  -0.593  1.00  0.00    -0.201 NA
ATOM     16  H   UNL     1       1.905   2.985  -0.509  1.00  0.00     0.155 HD
BRANCH  15  17
ATOM     17  O   UNL     1       0.665   4.064  -1.605  1.00  0.00    -0.316 OA
ATOM     18  H   UNL     1       1.271   3.809  -2.352  1.00  0.00     0.238 HD
ENDBRANCH  15  17
ENDBRANCH  14  15
ENDBRANCH   4  14
BRANCH  11  19
ATOM     19  N   UNL     1      -1.118  -0.471   4.783  1.00  0.00    -0.060 NA
BRANCH  19  20
ATOM     20  N   UNL     1      -1.771  -0.349   5.821  1.00  0.00     0.005 N 
ATOM     21  N   UNL     1      -2.422  -0.229   6.858  1.00  0.00    -0.003 NA
ENDBRANCH  19  20
ENDBRANCH  11  19
ENDBRANCH   2   3
ENDBRANCH   1   2
BRANCH   1  22
ATOM     22  C   UNL     1       3.455  -1.277  -2.540  1.00  0.00     0.101 C 
BRANCH  22  23
ATOM     23  C   UNL     1       2.406  -1.425  -3.598  1.00  0.00     0.086 A 
ATOM     24  N   UNL     1       1.969  -2.605  -4.082  1.00  0.00    -0.135 NA
ATOM     25  C   UNL     1       1.634  -0.419  -4.136  1.00  0.00     0.135 A 
ATOM     26  N   UNL     1       0.968  -2.331  -4.906  1.00  0.00    -0.067 NA
ATOM     27  N   UNL     1       0.753  -1.025  -4.949  1.00  0.00    -0.246 N 
BRANCH  27  28
ATOM     28  C   UNL     1      -0.316  -0.385  -5.713  1.00  0.00     0.217 C 
BRANCH  28  29
ATOM     29  C   UNL     1      -1.654  -0.378  -4.943  1.00  0.00     0.249 C 
BRANCH  29  30
ATOM     30  C   UNL     1      -2.174  -1.778  -4.740  1.00  0.00     0.101 C 
ATOM     31  O   UNL     1      -1.858  -2.443  -3.718  1.00  0.00    -0.544 OA
ATOM     32  O   UNL     1      -2.971  -2.364  -5.715  1.00  0.00    -0.544 OA
ENDBRANCH  29  30
BRANCH  29  33
ATOM     33  N   UNL     1      -1.545   0.343  -3.668  1.00  0.00    -0.349 N 
ATOM     34  H   UNL     1      -2.491   0.420  -3.226  1.00  0.00     0.345 HD
ATOM     35  H   UNL     1      -1.184   1.310  -3.836  1.00  0.00     0.345 HD
ATOM     36  H   UNL     1      -0.905  -0.153  -3.007  1.00  0.00     0.345 HD
ENDBRANCH  29  33
ENDBRANCH  28  29
ENDBRANCH  27  28
ENDBRANCH  22  23
ENDBRANCH   1  22
TORSDOF 13


