MODEL 1
REMARK VINA RESULT:      -7.8      0.000      0.000
REMARK SMILES C/C(=C/n1nnc(C)c1-c1c2ccccc2cc2c(N=[N+]=[N-])cccc12)C(=O)N(C=N)C(O)=C1CC1
REMARK SMILES IDX 2 1 1 2 27 3 28 4 29 5 30 6 31 7 32 9 33 10 34 12 35 13
REMARK SMILES IDX 36 14 3 15 4 16 5 17 9 18 6 19 7 20 8 21 10 22 11 23 26 24
REMARK SMILES IDX 12 25 16 26 25 27 18 28 13 29 15 30 17 31 24 32 19 33 14 34
REMARK SMILES IDX 23 35 20 36 21 37 22 38
REMARK H PARENT 31 8 33 11
ROOT
ATOM      1  C   UNL     1      43.540 132.781  15.045  1.00  0.00     0.033 C 
ATOM      2  C   UNL     1      43.005 131.579  14.319  1.00  0.00     0.052 C 
ENDROOT
BRANCH   1   3
ATOM      3  C   UNL     1      44.899 132.684  15.634  1.00  0.00     0.263 C 
ATOM      4  O   UNL     1      45.632 133.710  15.613  1.00  0.00    -0.268 OA
BRANCH   3   5
ATOM      5  N   UNL     1      45.371 131.480  16.282  1.00  0.00    -0.238 N 
BRANCH   5   6
ATOM      6  C   UNL     1      44.747 131.017  17.498  1.00  0.00     0.201 C 
BRANCH   6   7
ATOM      7  N   UNL     1      44.314 131.852  18.387  1.00  0.00    -0.291 NA
ATOM      8  H   UNL     1      43.529 132.504  18.168  1.00  0.00     0.189 HD
ENDBRANCH   6   7
ENDBRANCH   5   6
BRANCH   5   9
ATOM      9  C   UNL     1      46.395 130.679  15.657  1.00  0.00     0.198 C 
BRANCH   9  10
ATOM     10  O   UNL     1      47.146 129.791  16.427  1.00  0.00    -0.494 OA
ATOM     11  H   UNL     1      46.865 128.825  16.551  1.00  0.00     0.295 HD
ENDBRANCH   9  10
BRANCH   9  12
ATOM     12  C   UNL     1      46.630 130.765  14.347  1.00  0.00    -0.009 C 
ATOM     13  C   UNL     1      46.239 130.555  12.886  1.00  0.00     0.041 C 
ATOM     14  C   UNL     1      47.510 131.143  13.158  1.00  0.00     0.041 C 
ENDBRANCH   9  12
ENDBRANCH   5   9
ENDBRANCH   3   5
ENDBRANCH   1   3
BRANCH   1  15
ATOM     15  C   UNL     1      42.743 133.862  15.170  1.00  0.00     0.124 C 
BRANCH  15  16
ATOM     16  N   UNL     1      41.642 133.965  16.091  1.00  0.00    -0.219 N 
ATOM     17  N   UNL     1      40.636 133.111  16.202  1.00  0.00    -0.062 NA
ATOM     18  C   UNL     1      41.402 134.991  16.929  1.00  0.00     0.098 A 
ATOM     19  N   UNL     1      39.763 133.525  17.111  1.00  0.00    -0.135 NA
ATOM     20  C   UNL     1      40.218 134.706  17.577  1.00  0.00     0.088 A 
ATOM     21  C   UNL     1      39.572 135.491  18.670  1.00  0.00     0.071 C 
BRANCH  18  22
ATOM     22  C   UNL     1      42.250 136.201  17.091  1.00  0.00     0.018 A 
ATOM     23  C   UNL     1      42.064 137.318  16.236  1.00  0.00    -0.008 A 
ATOM     24  C   UNL     1      43.258 136.240  18.090  1.00  0.00    -0.008 A 
ATOM     25  C   UNL     1      41.103 137.312  15.198  1.00  0.00     0.009 A 
ATOM     26  C   UNL     1      42.869 138.470  16.405  1.00  0.00    -0.017 A 
ATOM     27  C   UNL     1      43.477 135.146  18.952  1.00  0.00     0.009 A 
ATOM     28  C   UNL     1      44.066 137.400  18.241  1.00  0.00    -0.008 A 
ATOM     29  C   UNL     1      40.938 138.427  14.374  1.00  0.00     0.001 A 
ATOM     30  C   UNL     1      42.689 139.585  15.568  1.00  0.00     0.009 A 
ATOM     31  C   UNL     1      43.853 138.502  17.399  1.00  0.00     0.018 A 
ATOM     32  C   UNL     1      44.471 135.188  19.925  1.00  0.00     0.001 A 
ATOM     33  C   UNL     1      45.074 137.438  19.236  1.00  0.00     0.045 A 
ATOM     34  C   UNL     1      41.725 139.561  14.560  1.00  0.00     0.001 A 
ATOM     35  C   UNL     1      45.265 136.321  20.069  1.00  0.00     0.011 A 
BRANCH  33  36
ATOM     36  N   UNL     1      45.892 138.610  19.387  1.00  0.00    -0.060 NA
BRANCH  36  37
ATOM     37  N   UNL     1      47.032 138.689  18.926  1.00  0.00     0.005 N 
ATOM     38  N   UNL     1      48.169 138.766  18.464  1.00  0.00    -0.003 NA
ENDBRANCH  36  37
ENDBRANCH  33  36
ENDBRANCH  18  22
ENDBRANCH  15  16
ENDBRANCH   1  15
TORSDOF 12
ENDMDL
MODEL 2
REMARK VINA RESULT:      -7.8      2.232      4.335
REMARK SMILES C/C(=C/n1nnc(C)c1-c1c2ccccc2cc2c(N=[N+]=[N-])cccc12)C(=O)N(C=N)C(O)=C1CC1
REMARK SMILES IDX 2 1 1 2 27 3 28 4 29 5 30 6 31 7 32 9 33 10 34 12 35 13
REMARK SMILES IDX 36 14 3 15 4 16 5 17 9 18 6 19 7 20 8 21 10 22 11 23 26 24
REMARK SMILES IDX 12 25 16 26 25 27 18 28 13 29 15 30 17 31 24 32 19 33 14 34
REMARK SMILES IDX 23 35 20 36 21 37 22 38
REMARK H PARENT 31 8 33 11
ROOT
ATOM      1  C   UNL     1      44.172 132.507  16.098  1.00  0.00     0.033 C 
ATOM      2  C   UNL     1      43.770 133.741  15.338  1.00  0.00     0.052 C 
ENDROOT
BRANCH   1   3
ATOM      3  C   UNL     1      45.434 131.834  15.703  1.00  0.00     0.263 C 
ATOM      4  O   UNL     1      46.289 132.501  15.058  1.00  0.00    -0.268 OA
BRANCH   3   5
ATOM      5  N   UNL     1      45.733 130.474  16.092  1.00  0.00    -0.238 N 
BRANCH   5   6
ATOM      6  C   UNL     1      45.688 130.089  17.483  1.00  0.00     0.201 C 
BRANCH   6   7
ATOM      7  N   UNL     1      46.391 130.713  18.372  1.00  0.00    -0.291 NA
ATOM      8  H   UNL     1      47.431 130.628  18.385  1.00  0.00     0.189 HD
ENDBRANCH   6   7
ENDBRANCH   5   6
BRANCH   5   9
ATOM      9  C   UNL     1      45.972 129.470  15.083  1.00  0.00     0.198 C 
BRANCH   9  10
ATOM     10  O   UNL     1      45.318 128.241  15.162  1.00  0.00    -0.494 OA
ATOM     11  H   UNL     1      45.160 127.668  14.340  1.00  0.00     0.295 HD
ENDBRANCH   9  10
BRANCH   9  12
ATOM     12  C   UNL     1      46.801 129.703  14.066  1.00  0.00    -0.009 C 
ATOM     13  C   UNL     1      48.147 129.560  13.358  1.00  0.00     0.041 C 
ATOM     14  C   UNL     1      47.133 130.331  12.715  1.00  0.00     0.041 C 
ENDBRANCH   9  12
ENDBRANCH   5   9
ENDBRANCH   3   5
ENDBRANCH   1   3
BRANCH   1  15
ATOM     15  C   UNL     1      43.344 132.046  17.057  1.00  0.00     0.124 C 
BRANCH  15  16
ATOM     16  N   UNL     1      42.144 132.713  17.492  1.00  0.00    -0.219 N 
ATOM     17  N   UNL     1      40.985 132.728  16.852  1.00  0.00    -0.062 NA
ATOM     18  C   UNL     1      42.025 133.505  18.575  1.00  0.00     0.098 A 
ATOM     19  N   UNL     1      40.099 133.475  17.499  1.00  0.00    -0.135 NA
ATOM     20  C   UNL     1      40.730 133.979  18.579  1.00  0.00     0.088 A 
ATOM     21  C   UNL     1      40.077 134.823  19.623  1.00  0.00     0.071 C 
BRANCH  18  22
ATOM     22  C   UNL     1      43.102 133.816  19.549  1.00  0.00     0.018 A 
ATOM     23  C   UNL     1      43.361 132.933  20.629  1.00  0.00    -0.008 A 
ATOM     24  C   UNL     1      43.867 135.005  19.414  1.00  0.00    -0.008 A 
ATOM     25  C   UNL     1      42.598 131.759  20.832  1.00  0.00     0.009 A 
ATOM     26  C   UNL     1      44.397 133.234  21.546  1.00  0.00    -0.017 A 
ATOM     27  C   UNL     1      43.633 135.911  18.359  1.00  0.00     0.009 A 
ATOM     28  C   UNL     1      44.898 135.298  20.349  1.00  0.00    -0.008 A 
ATOM     29  C   UNL     1      42.877 130.905  21.901  1.00  0.00     0.001 A 
ATOM     30  C   UNL     1      44.666 132.362  22.615  1.00  0.00     0.009 A 
ATOM     31  C   UNL     1      45.152 134.402  21.399  1.00  0.00     0.018 A 
ATOM     32  C   UNL     1      44.383 137.077  18.236  1.00  0.00     0.001 A 
ATOM     33  C   UNL     1      45.659 136.486  20.216  1.00  0.00     0.045 A 
ATOM     34  C   UNL     1      43.909 131.203  22.788  1.00  0.00     0.001 A 
ATOM     35  C   UNL     1      45.387 137.366  19.154  1.00  0.00     0.011 A 
BRANCH  33  36
ATOM     36  N   UNL     1      46.700 136.783  21.163  1.00  0.00    -0.060 NA
BRANCH  36  37
ATOM     37  N   UNL     1      47.872 136.960  20.828  1.00  0.00     0.005 N 
ATOM     38  N   UNL     1      49.042 137.135  20.493  1.00  0.00    -0.003 NA
ENDBRANCH  36  37
ENDBRANCH  33  36
ENDBRANCH  18  22
ENDBRANCH  15  16
ENDBRANCH   1  15
TORSDOF 12
ENDMDL
MODEL 3
REMARK VINA RESULT:      -7.7      2.837      5.369
REMARK SMILES C/C(=C/n1nnc(C)c1-c1c2ccccc2cc2c(N=[N+]=[N-])cccc12)C(=O)N(C=N)C(O)=C1CC1
REMARK SMILES IDX 2 1 1 2 27 3 28 4 29 5 30 6 31 7 32 9 33 10 34 12 35 13
REMARK SMILES IDX 36 14 3 15 4 16 5 17 9 18 6 19 7 20 8 21 10 22 11 23 26 24
REMARK SMILES IDX 12 25 16 26 25 27 18 28 13 29 15 30 17 31 24 32 19 33 14 34
REMARK SMILES IDX 23 35 20 36 21 37 22 38
REMARK H PARENT 31 8 33 11
ROOT
ATOM      1  C   UNL     1      43.815 132.038  14.652  1.00  0.00     0.033 C 
ATOM      2  C   UNL     1      43.412 130.869  13.796  1.00  0.00     0.052 C 
ENDROOT
BRANCH   1   3
ATOM      3  C   UNL     1      45.203 132.064  15.176  1.00  0.00     0.263 C 
ATOM      4  O   UNL     1      45.710 133.182  15.466  1.00  0.00    -0.268 OA
BRANCH   3   5
ATOM      5  N   UNL     1      45.954 130.852  15.422  1.00  0.00    -0.238 N 
BRANCH   5   6
ATOM      6  C   UNL     1      47.090 130.522  14.596  1.00  0.00     0.201 C 
BRANCH   6   7
ATOM      7  N   UNL     1      47.293 129.309  14.193  1.00  0.00    -0.291 NA
ATOM      8  H   UNL     1      48.231 129.015  13.841  1.00  0.00     0.189 HD
ENDBRANCH   6   7
ENDBRANCH   5   6
BRANCH   5   9
ATOM      9  C   UNL     1      45.637 130.026  16.562  1.00  0.00     0.198 C 
BRANCH   9  10
ATOM     10  O   UNL     1      45.516 128.646  16.404  1.00  0.00    -0.494 OA
ATOM     11  H   UNL     1      45.406 128.222  15.489  1.00  0.00     0.295 HD
ENDBRANCH   9  10
BRANCH   9  12
ATOM     12  C   UNL     1      45.469 130.560  17.772  1.00  0.00    -0.009 C 
ATOM     13  C   UNL     1      45.866 130.749  19.234  1.00  0.00     0.041 C 
ATOM     14  C   UNL     1      44.719 131.450  18.759  1.00  0.00     0.041 C 
ENDBRANCH   9  12
ENDBRANCH   5   9
ENDBRANCH   3   5
ENDBRANCH   1   3
BRANCH   1  15
ATOM     15  C   UNL     1      42.885 132.970  14.942  1.00  0.00     0.124 C 
BRANCH  15  16
ATOM     16  N   UNL     1      42.013 132.929  16.086  1.00  0.00    -0.219 N 
ATOM     17  N   UNL     1      41.910 131.933  16.952  1.00  0.00    -0.062 NA
ATOM     18  C   UNL     1      41.093 133.855  16.416  1.00  0.00     0.098 A 
ATOM     19  N   UNL     1      40.978 132.191  17.860  1.00  0.00    -0.135 NA
ATOM     20  C   UNL     1      40.445 133.388  17.541  1.00  0.00     0.088 A 
ATOM     21  C   UNL     1      39.404 134.094  18.344  1.00  0.00     0.071 C 
BRANCH  18  22
ATOM     22  C   UNL     1      40.824 135.117  15.680  1.00  0.00     0.018 A 
ATOM     23  C   UNL     1      41.552 136.293  15.997  1.00  0.00    -0.008 A 
ATOM     24  C   UNL     1      39.830 135.157  14.666  1.00  0.00    -0.008 A 
ATOM     25  C   UNL     1      42.521 136.317  17.027  1.00  0.00     0.009 A 
ATOM     26  C   UNL     1      41.296 137.489  15.282  1.00  0.00    -0.017 A 
ATOM     27  C   UNL     1      39.081 134.011  14.330  1.00  0.00     0.009 A 
ATOM     28  C   UNL     1      39.578 136.367  13.964  1.00  0.00    -0.008 A 
ATOM     29  C   UNL     1      43.226 137.487  17.315  1.00  0.00     0.001 A 
ATOM     30  C   UNL     1      42.016 138.658  15.583  1.00  0.00     0.009 A 
ATOM     31  C   UNL     1      40.322 137.515  14.279  1.00  0.00     0.018 A 
ATOM     32  C   UNL     1      38.104 134.058  13.340  1.00  0.00     0.001 A 
ATOM     33  C   UNL     1      38.583 136.408  12.955  1.00  0.00     0.045 A 
ATOM     34  C   UNL     1      42.977 138.653  16.595  1.00  0.00     0.001 A 
ATOM     35  C   UNL     1      37.854 135.244  12.657  1.00  0.00     0.011 A 
BRANCH  33  36
ATOM     36  N   UNL     1      38.327 137.633  12.247  1.00  0.00    -0.060 NA
BRANCH  36  37
ATOM     37  N   UNL     1      38.280 137.692  11.017  1.00  0.00     0.005 N 
ATOM     38  N   UNL     1      38.232 137.751   9.790  1.00  0.00    -0.003 NA
ENDBRANCH  36  37
ENDBRANCH  33  36
ENDBRANCH  18  22
ENDBRANCH  15  16
ENDBRANCH   1  15
TORSDOF 12
ENDMDL
MODEL 4
REMARK VINA RESULT:      -7.5      1.837      3.904
REMARK SMILES C/C(=C/n1nnc(C)c1-c1c2ccccc2cc2c(N=[N+]=[N-])cccc12)C(=O)N(C=N)C(O)=C1CC1
REMARK SMILES IDX 2 1 1 2 27 3 28 4 29 5 30 6 31 7 32 9 33 10 34 12 35 13
REMARK SMILES IDX 36 14 3 15 4 16 5 17 9 18 6 19 7 20 8 21 10 22 11 23 26 24
REMARK SMILES IDX 12 25 16 26 25 27 18 28 13 29 15 30 17 31 24 32 19 33 14 34
REMARK SMILES IDX 23 35 20 36 21 37 22 38
REMARK H PARENT 31 8 33 11
ROOT
ATOM      1  C   UNL     1      42.915 132.574  15.422  1.00  0.00     0.033 C 
ATOM      2  C   UNL     1      42.246 132.237  14.118  1.00  0.00     0.052 C 
ENDROOT
BRANCH   1   3
ATOM      3  C   UNL     1      43.779 131.540  16.043  1.00  0.00     0.263 C 
ATOM      4  O   UNL     1      43.566 131.230  17.247  1.00  0.00    -0.268 OA
BRANCH   3   5
ATOM      5  N   UNL     1      44.800 130.842  15.294  1.00  0.00    -0.238 N 
BRANCH   5   6
ATOM      6  C   UNL     1      44.639 129.443  14.977  1.00  0.00     0.201 C 
BRANCH   6   7
ATOM      7  N   UNL     1      45.420 128.547  15.490  1.00  0.00    -0.291 NA
ATOM      8  H   UNL     1      45.974 127.909  14.877  1.00  0.00     0.189 HD
ENDBRANCH   6   7
ENDBRANCH   5   6
BRANCH   5   9
ATOM      9  C   UNL     1      45.931 131.566  14.767  1.00  0.00     0.198 C 
BRANCH   9  10
ATOM     10  O   UNL     1      46.283 132.798  15.319  1.00  0.00    -0.494 OA
ATOM     11  H   UNL     1      47.190 132.951  15.744  1.00  0.00     0.295 HD
ENDBRANCH   9  10
BRANCH   9  12
ATOM     12  C   UNL     1      46.657 131.071  13.764  1.00  0.00    -0.009 C 
ATOM     13  C   UNL     1      46.824 130.592  12.324  1.00  0.00     0.041 C 
ATOM     14  C   UNL     1      47.963 130.538  13.181  1.00  0.00     0.041 C 
ENDBRANCH   9  12
ENDBRANCH   5   9
ENDBRANCH   3   5
ENDBRANCH   1   3
BRANCH   1  15
ATOM     15  C   UNL     1      42.654 133.771  15.985  1.00  0.00     0.124 C 
BRANCH  15  16
ATOM     16  N   UNL     1      41.508 134.057  16.808  1.00  0.00    -0.219 N 
ATOM     17  N   UNL     1      40.244 134.058  16.412  1.00  0.00    -0.062 NA
ATOM     18  C   UNL     1      41.535 134.460  18.093  1.00  0.00     0.098 A 
ATOM     19  N   UNL     1      39.439 134.412  17.406  1.00  0.00    -0.135 NA
ATOM     20  C   UNL     1      40.226 134.676  18.469  1.00  0.00     0.088 A 
ATOM     21  C   UNL     1      39.721 135.045  19.824  1.00  0.00     0.071 C 
BRANCH  18  22
ATOM     22  C   UNL     1      42.754 134.652  18.920  1.00  0.00     0.018 A 
ATOM     23  C   UNL     1      43.185 133.626  19.799  1.00  0.00    -0.008 A 
ATOM     24  C   UNL     1      43.484 135.869  18.847  1.00  0.00    -0.008 A 
ATOM     25  C   UNL     1      42.469 132.414  19.941  1.00  0.00     0.009 A 
ATOM     26  C   UNL     1      44.355 133.815  20.575  1.00  0.00    -0.017 A 
ATOM     27  C   UNL     1      43.080 136.914  17.991  1.00  0.00     0.009 A 
ATOM     28  C   UNL     1      44.650 136.048  19.640  1.00  0.00    -0.008 A 
ATOM     29  C   UNL     1      42.920 131.418  20.810  1.00  0.00     0.001 A 
ATOM     30  C   UNL     1      44.795 132.802  21.445  1.00  0.00     0.009 A 
ATOM     31  C   UNL     1      45.072 135.012  20.488  1.00  0.00     0.018 A 
ATOM     32  C   UNL     1      43.796 138.105  17.928  1.00  0.00     0.001 A 
ATOM     33  C   UNL     1      45.376 137.262  19.569  1.00  0.00     0.045 A 
ATOM     34  C   UNL     1      44.080 131.609  21.558  1.00  0.00     0.001 A 
ATOM     35  C   UNL     1      44.934 138.282  18.708  1.00  0.00     0.011 A 
BRANCH  33  36
ATOM     36  N   UNL     1      46.555 137.444  20.373  1.00  0.00    -0.060 NA
BRANCH  36  37
ATOM     37  N   UNL     1      47.648 137.745  19.890  1.00  0.00     0.005 N 
ATOM     38  N   UNL     1      48.740 138.044  19.411  1.00  0.00    -0.003 NA
ENDBRANCH  36  37
ENDBRANCH  33  36
ENDBRANCH  18  22
ENDBRANCH  15  16
ENDBRANCH   1  15
TORSDOF 12
ENDMDL
MODEL 5
REMARK VINA RESULT:      -7.4      2.559      2.980
REMARK SMILES C/C(=C/n1nnc(C)c1-c1c2ccccc2cc2c(N=[N+]=[N-])cccc12)C(=O)N(C=N)C(O)=C1CC1
REMARK SMILES IDX 2 1 1 2 27 3 28 4 29 5 30 6 31 7 32 9 33 10 34 12 35 13
REMARK SMILES IDX 36 14 3 15 4 16 5 17 9 18 6 19 7 20 8 21 10 22 11 23 26 24
REMARK SMILES IDX 12 25 16 26 25 27 18 28 13 29 15 30 17 31 24 32 19 33 14 34
REMARK SMILES IDX 23 35 20 36 21 37 22 38
REMARK H PARENT 31 8 33 11
ROOT
ATOM      1  C   UNL     1      43.702 133.453  15.787  1.00  0.00     0.033 C 
ATOM      2  C   UNL     1      44.429 134.420  16.680  1.00  0.00     0.052 C 
ENDROOT
BRANCH   1   3
ATOM      3  C   UNL     1      43.940 132.004  15.999  1.00  0.00     0.263 C 
ATOM      4  O   UNL     1      43.046 131.332  16.581  1.00  0.00    -0.268 OA
BRANCH   3   5
ATOM      5  N   UNL     1      45.125 131.340  15.502  1.00  0.00    -0.238 N 
BRANCH   5   6
ATOM      6  C   UNL     1      46.219 131.042  16.395  1.00  0.00     0.201 C 
BRANCH   6   7
ATOM      7  N   UNL     1      46.444 129.833  16.797  1.00  0.00    -0.291 NA
ATOM      8  H   UNL     1      46.439 129.037  16.122  1.00  0.00     0.189 HD
ENDBRANCH   6   7
ENDBRANCH   5   6
BRANCH   5   9
ATOM      9  C   UNL     1      45.173 130.875  14.137  1.00  0.00     0.198 C 
BRANCH   9  10
ATOM     10  O   UNL     1      43.987 130.683  13.428  1.00  0.00    -0.494 OA
ATOM     11  H   UNL     1      43.090 130.968  13.805  1.00  0.00     0.295 HD
ENDBRANCH   9  10
BRANCH   9  12
ATOM     12  C   UNL     1      46.338 130.636  13.534  1.00  0.00    -0.009 C 
ATOM     13  C   UNL     1      47.443 129.699  13.050  1.00  0.00     0.041 C 
ATOM     14  C   UNL     1      47.597 131.096  12.804  1.00  0.00     0.041 C 
ENDBRANCH   9  12
ENDBRANCH   5   9
ENDBRANCH   3   5
ENDBRANCH   1   3
BRANCH   1  15
ATOM     15  C   UNL     1      42.916 133.950  14.811  1.00  0.00     0.124 C 
BRANCH  15  16
ATOM     16  N   UNL     1      41.478 133.873  14.797  1.00  0.00    -0.219 N 
ATOM     17  N   UNL     1      40.746 133.120  13.991  1.00  0.00    -0.062 NA
ATOM     18  C   UNL     1      40.637 134.620  15.537  1.00  0.00     0.098 A 
ATOM     19  N   UNL     1      39.452 133.321  14.204  1.00  0.00    -0.135 NA
ATOM     20  C   UNL     1      39.358 134.263  15.165  1.00  0.00     0.088 A 
ATOM     21  C   UNL     1      38.075 134.741  15.759  1.00  0.00     0.071 C 
BRANCH  18  22
ATOM     22  C   UNL     1      41.032 135.644  16.538  1.00  0.00     0.018 A 
ATOM     23  C   UNL     1      41.326 136.968  16.122  1.00  0.00    -0.008 A 
ATOM     24  C   UNL     1      41.131 135.300  17.913  1.00  0.00    -0.008 A 
ATOM     25  C   UNL     1      41.285 137.349  14.760  1.00  0.00     0.009 A 
ATOM     26  C   UNL     1      41.691 137.940  17.085  1.00  0.00    -0.017 A 
ATOM     27  C   UNL     1      40.855 133.993  18.362  1.00  0.00     0.009 A 
ATOM     28  C   UNL     1      41.508 136.284  18.867  1.00  0.00    -0.008 A 
ATOM     29  C   UNL     1      41.575 138.661  14.379  1.00  0.00     0.001 A 
ATOM     30  C   UNL     1      41.978 139.256  16.685  1.00  0.00     0.009 A 
ATOM     31  C   UNL     1      41.776 137.594  18.438  1.00  0.00     0.018 A 
ATOM     32  C   UNL     1      40.959 133.661  19.710  1.00  0.00     0.001 A 
ATOM     33  C   UNL     1      41.610 135.941  20.238  1.00  0.00     0.045 A 
ATOM     34  C   UNL     1      41.917 139.612  15.337  1.00  0.00     0.001 A 
ATOM     35  C   UNL     1      41.333 134.623  20.642  1.00  0.00     0.011 A 
BRANCH  33  36
ATOM     36  N   UNL     1      41.994 136.936  21.202  1.00  0.00    -0.060 NA
BRANCH  36  37
ATOM     37  N   UNL     1      42.217 136.665  22.383  1.00  0.00     0.005 N 
ATOM     38  N   UNL     1      42.438 136.393  23.562  1.00  0.00    -0.003 NA
ENDBRANCH  36  37
ENDBRANCH  33  36
ENDBRANCH  18  22
ENDBRANCH  15  16
ENDBRANCH   1  15
TORSDOF 12
ENDMDL
MODEL 6
REMARK VINA RESULT:      -7.4      2.459      4.735
REMARK SMILES C/C(=C/n1nnc(C)c1-c1c2ccccc2cc2c(N=[N+]=[N-])cccc12)C(=O)N(C=N)C(O)=C1CC1
REMARK SMILES IDX 2 1 1 2 27 3 28 4 29 5 30 6 31 7 32 9 33 10 34 12 35 13
REMARK SMILES IDX 36 14 3 15 4 16 5 17 9 18 6 19 7 20 8 21 10 22 11 23 26 24
REMARK SMILES IDX 12 25 16 26 25 27 18 28 13 29 15 30 17 31 24 32 19 33 14 34
REMARK SMILES IDX 23 35 20 36 21 37 22 38
REMARK H PARENT 31 8 33 11
ROOT
ATOM      1  C   UNL     1      44.702 131.958  16.923  1.00  0.00     0.033 C 
ATOM      2  C   UNL     1      44.677 133.311  16.269  1.00  0.00     0.052 C 
ENDROOT
BRANCH   1   3
ATOM      3  C   UNL     1      45.579 130.919  16.328  1.00  0.00     0.263 C 
ATOM      4  O   UNL     1      46.734 130.767  16.811  1.00  0.00    -0.268 OA
BRANCH   3   5
ATOM      5  N   UNL     1      45.125 130.045  15.269  1.00  0.00    -0.238 N 
BRANCH   5   6
ATOM      6  C   UNL     1      44.549 128.760  15.585  1.00  0.00     0.201 C 
BRANCH   6   7
ATOM      7  N   UNL     1      45.267 127.684  15.574  1.00  0.00    -0.291 NA
ATOM      8  H   UNL     1      45.512 127.197  16.464  1.00  0.00     0.189 HD
ENDBRANCH   6   7
ENDBRANCH   5   6
BRANCH   5   9
ATOM      9  C   UNL     1      45.147 130.499  13.900  1.00  0.00     0.198 C 
BRANCH   9  10
ATOM     10  O   UNL     1      43.947 130.762  13.239  1.00  0.00    -0.494 OA
ATOM     11  H   UNL     1      43.747 131.673  12.842  1.00  0.00     0.295 HD
ENDBRANCH   9  10
BRANCH   9  12
ATOM     12  C   UNL     1      46.299 130.682  13.255  1.00  0.00    -0.009 C 
ATOM     13  C   UNL     1      47.229 130.476  12.061  1.00  0.00     0.041 C 
ATOM     14  C   UNL     1      47.710 131.255  13.155  1.00  0.00     0.041 C 
ENDBRANCH   9  12
ENDBRANCH   5   9
ENDBRANCH   3   5
ENDBRANCH   1   3
BRANCH   1  15
ATOM     15  C   UNL     1      43.891 131.742  17.978  1.00  0.00     0.124 C 
BRANCH  15  16
ATOM     16  N   UNL     1      42.670 132.460  18.234  1.00  0.00    -0.219 N 
ATOM     17  N   UNL     1      41.537 132.334  17.561  1.00  0.00    -0.062 NA
ATOM     18  C   UNL     1      42.503 133.443  19.139  1.00  0.00     0.098 A 
ATOM     19  N   UNL     1      40.621 133.177  18.020  1.00  0.00    -0.135 NA
ATOM     20  C   UNL     1      41.205 133.888  19.005  1.00  0.00     0.088 A 
ATOM     21  C   UNL     1      40.505 134.907  19.843  1.00  0.00     0.071 C 
BRANCH  18  22
ATOM     22  C   UNL     1      43.539 133.952  20.074  1.00  0.00     0.018 A 
ATOM     23  C   UNL     1      43.810 133.258  21.280  1.00  0.00    -0.008 A 
ATOM     24  C   UNL     1      44.252 135.144  19.772  1.00  0.00    -0.008 A 
ATOM     25  C   UNL     1      43.098 132.092  21.648  1.00  0.00     0.009 A 
ATOM     26  C   UNL     1      44.808 133.745  22.160  1.00  0.00    -0.017 A 
ATOM     27  C   UNL     1      44.003 135.865  18.587  1.00  0.00     0.009 A 
ATOM     28  C   UNL     1      45.243 135.626  20.669  1.00  0.00    -0.008 A 
ATOM     29  C   UNL     1      43.389 131.425  22.839  1.00  0.00     0.001 A 
ATOM     30  C   UNL     1      45.090 133.061  23.355  1.00  0.00     0.009 A 
ATOM     31  C   UNL     1      45.511 134.913  21.849  1.00  0.00     0.018 A 
ATOM     32  C   UNL     1      44.701 137.034  18.300  1.00  0.00     0.001 A 
ATOM     33  C   UNL     1      45.952 136.816  20.370  1.00  0.00     0.045 A 
ATOM     34  C   UNL     1      44.383 131.905  23.689  1.00  0.00     0.001 A 
ATOM     35  C   UNL     1      45.667 137.509  19.181  1.00  0.00     0.011 A 
BRANCH  33  36
ATOM     36  N   UNL     1      46.953 137.305  21.279  1.00  0.00    -0.060 NA
BRANCH  36  37
ATOM     37  N   UNL     1      48.142 136.998  21.185  1.00  0.00     0.005 N 
ATOM     38  N   UNL     1      49.329 136.690  21.090  1.00  0.00    -0.003 NA
ENDBRANCH  36  37
ENDBRANCH  33  36
ENDBRANCH  18  22
ENDBRANCH  15  16
ENDBRANCH   1  15
TORSDOF 12
ENDMDL
MODEL 7
REMARK VINA RESULT:      -7.4      2.422      4.592
REMARK SMILES C/C(=C/n1nnc(C)c1-c1c2ccccc2cc2c(N=[N+]=[N-])cccc12)C(=O)N(C=N)C(O)=C1CC1
REMARK SMILES IDX 2 1 1 2 27 3 28 4 29 5 30 6 31 7 32 9 33 10 34 12 35 13
REMARK SMILES IDX 36 14 3 15 4 16 5 17 9 18 6 19 7 20 8 21 10 22 11 23 26 24
REMARK SMILES IDX 12 25 16 26 25 27 18 28 13 29 15 30 17 31 24 32 19 33 14 34
REMARK SMILES IDX 23 35 20 36 21 37 22 38
REMARK H PARENT 31 8 33 11
ROOT
ATOM      1  C   UNL     1      44.592 132.022  16.148  1.00  0.00     0.033 C 
ATOM      2  C   UNL     1      45.249 133.341  15.851  1.00  0.00     0.052 C 
ENDROOT
BRANCH   1   3
ATOM      3  C   UNL     1      44.595 130.993  15.079  1.00  0.00     0.263 C 
ATOM      4  O   UNL     1      43.844 131.168  14.081  1.00  0.00    -0.268 OA
BRANCH   3   5
ATOM      5  N   UNL     1      45.473 129.844  15.121  1.00  0.00    -0.238 N 
BRANCH   5   6
ATOM      6  C   UNL     1      44.937 128.530  15.385  1.00  0.00     0.201 C 
BRANCH   6   7
ATOM      7  N   UNL     1      45.127 127.947  16.524  1.00  0.00    -0.291 NA
ATOM      8  H   UNL     1      44.494 128.137  17.332  1.00  0.00     0.189 HD
ENDBRANCH   6   7
ENDBRANCH   5   6
BRANCH   5   9
ATOM      9  C   UNL     1      46.870 129.992  14.791  1.00  0.00     0.198 C 
BRANCH   9  10
ATOM     10  O   UNL     1      47.843 129.625  15.721  1.00  0.00    -0.494 OA
ATOM     11  H   UNL     1      48.141 128.662  15.828  1.00  0.00     0.295 HD
ENDBRANCH   9  10
BRANCH   9  12
ATOM     12  C   UNL     1      47.249 130.464  13.604  1.00  0.00    -0.009 C 
ATOM     13  C   UNL     1      47.166 130.515  12.079  1.00  0.00     0.041 C 
ATOM     14  C   UNL     1      48.112 131.366  12.726  1.00  0.00     0.041 C 
ENDBRANCH   9  12
ENDBRANCH   5   9
ENDBRANCH   3   5
ENDBRANCH   1   3
BRANCH   1  15
ATOM     15  C   UNL     1      43.990 131.861  17.344  1.00  0.00     0.124 C 
BRANCH  15  16
ATOM     16  N   UNL     1      42.682 132.362  17.676  1.00  0.00    -0.219 N 
ATOM     17  N   UNL     1      41.581 132.206  16.956  1.00  0.00    -0.062 NA
ATOM     18  C   UNL     1      42.376 133.148  18.726  1.00  0.00     0.098 A 
ATOM     19  N   UNL     1      40.557 132.833  17.519  1.00  0.00    -0.135 NA
ATOM     20  C   UNL     1      41.032 133.438  18.626  1.00  0.00     0.088 A 
ATOM     21  C   UNL     1      40.196 134.201  19.599  1.00  0.00     0.071 C 
BRANCH  18  22
ATOM     22  C   UNL     1      43.327 133.622  19.765  1.00  0.00     0.018 A 
ATOM     23  C   UNL     1      43.529 132.860  20.944  1.00  0.00    -0.008 A 
ATOM     24  C   UNL     1      44.026 134.846  19.590  1.00  0.00    -0.008 A 
ATOM     25  C   UNL     1      42.824 131.657  21.185  1.00  0.00     0.009 A 
ATOM     26  C   UNL     1      44.445 133.315  21.923  1.00  0.00    -0.017 A 
ATOM     27  C   UNL     1      43.844 135.634  18.435  1.00  0.00     0.009 A 
ATOM     28  C   UNL     1      44.935 135.295  20.586  1.00  0.00    -0.008 A 
ATOM     29  C   UNL     1      43.046 130.924  22.353  1.00  0.00     0.001 A 
ATOM     30  C   UNL     1      44.658 132.564  23.092  1.00  0.00     0.009 A 
ATOM     31  C   UNL     1      45.136 134.516  21.737  1.00  0.00     0.018 A 
ATOM     32  C   UNL     1      44.528 136.836  18.272  1.00  0.00     0.001 A 
ATOM     33  C   UNL     1      45.631 136.517  20.414  1.00  0.00     0.045 A 
ATOM     34  C   UNL     1      43.961 131.373  23.302  1.00  0.00     0.001 A 
ATOM     35  C   UNL     1      45.413 137.277  19.250  1.00  0.00     0.011 A 
BRANCH  33  36
ATOM     36  N   UNL     1      46.548 136.972  21.423  1.00  0.00    -0.060 NA
BRANCH  36  37
ATOM     37  N   UNL     1      47.714 137.281  21.170  1.00  0.00     0.005 N 
ATOM     38  N   UNL     1      48.877 137.591  20.919  1.00  0.00    -0.003 NA
ENDBRANCH  36  37
ENDBRANCH  33  36
ENDBRANCH  18  22
ENDBRANCH  15  16
ENDBRANCH   1  15
TORSDOF 12
ENDMDL
MODEL 8
REMARK VINA RESULT:      -7.4      2.273      4.118
REMARK SMILES C/C(=C/n1nnc(C)c1-c1c2ccccc2cc2c(N=[N+]=[N-])cccc12)C(=O)N(C=N)C(O)=C1CC1
REMARK SMILES IDX 2 1 1 2 27 3 28 4 29 5 30 6 31 7 32 9 33 10 34 12 35 13
REMARK SMILES IDX 36 14 3 15 4 16 5 17 9 18 6 19 7 20 8 21 10 22 11 23 26 24
REMARK SMILES IDX 12 25 16 26 25 27 18 28 13 29 15 30 17 31 24 32 19 33 14 34
REMARK SMILES IDX 23 35 20 36 21 37 22 38
REMARK H PARENT 31 8 33 11
ROOT
ATOM      1  C   UNL     1      43.437 132.638  15.988  1.00  0.00     0.033 C 
ATOM      2  C   UNL     1      42.638 131.814  16.959  1.00  0.00     0.052 C 
ENDROOT
BRANCH   1   3
ATOM      3  C   UNL     1      44.913 132.487  16.004  1.00  0.00     0.263 C 
ATOM      4  O   UNL     1      45.613 133.427  15.539  1.00  0.00    -0.268 OA
BRANCH   3   5
ATOM      5  N   UNL     1      45.561 131.336  16.592  1.00  0.00    -0.238 N 
BRANCH   5   6
ATOM      6  C   UNL     1      45.211 130.908  17.926  1.00  0.00     0.201 C 
BRANCH   6   7
ATOM      7  N   UNL     1      46.124 130.593  18.787  1.00  0.00    -0.291 NA
ATOM      8  H   UNL     1      46.992 131.165  18.878  1.00  0.00     0.189 HD
ENDBRANCH   6   7
ENDBRANCH   5   6
BRANCH   5   9
ATOM      9  C   UNL     1      46.479 130.545  15.808  1.00  0.00     0.198 C 
BRANCH   9  10
ATOM     10  O   UNL     1      47.335 129.646  16.443  1.00  0.00    -0.494 OA
ATOM     11  H   UNL     1      48.342 129.713  16.351  1.00  0.00     0.295 HD
ENDBRANCH   9  10
BRANCH   9  12
ATOM     12  C   UNL     1      46.516 130.653  14.480  1.00  0.00    -0.009 C 
ATOM     13  C   UNL     1      45.909 130.469  13.090  1.00  0.00     0.041 C 
ATOM     14  C   UNL     1      47.210 131.049  13.179  1.00  0.00     0.041 C 
ENDBRANCH   9  12
ENDBRANCH   5   9
ENDBRANCH   3   5
ENDBRANCH   1   3
BRANCH   1  15
ATOM     15  C   UNL     1      42.780 133.507  15.193  1.00  0.00     0.124 C 
BRANCH  15  16
ATOM     16  N   UNL     1      42.833 134.940  15.325  1.00  0.00    -0.219 N 
ATOM     17  N   UNL     1      43.414 135.779  14.481  1.00  0.00    -0.062 NA
ATOM     18  C   UNL     1      42.381 135.657  16.371  1.00  0.00     0.098 A 
ATOM     19  N   UNL     1      43.326 137.027  14.923  1.00  0.00    -0.135 NA
ATOM     20  C   UNL     1      42.688 136.976  16.109  1.00  0.00     0.088 A 
ATOM     21  C   UNL     1      42.316 138.171  16.923  1.00  0.00     0.071 C 
BRANCH  18  22
ATOM     22  C   UNL     1      41.707 135.110  17.577  1.00  0.00     0.018 A 
ATOM     23  C   UNL     1      40.314 134.844  17.553  1.00  0.00    -0.008 A 
ATOM     24  C   UNL     1      42.451 134.865  18.762  1.00  0.00    -0.008 A 
ATOM     25  C   UNL     1      39.522 135.112  16.412  1.00  0.00     0.009 A 
ATOM     26  C   UNL     1      39.684 134.312  18.704  1.00  0.00    -0.017 A 
ATOM     27  C   UNL     1      43.835 135.125  18.825  1.00  0.00     0.009 A 
ATOM     28  C   UNL     1      41.802 134.340  19.913  1.00  0.00    -0.008 A 
ATOM     29  C   UNL     1      38.153 134.836  16.415  1.00  0.00     0.001 A 
ATOM     30  C   UNL     1      38.305 134.038  18.690  1.00  0.00     0.009 A 
ATOM     31  C   UNL     1      40.426 134.065  19.863  1.00  0.00     0.018 A 
ATOM     32  C   UNL     1      44.556 134.888  19.992  1.00  0.00     0.001 A 
ATOM     33  C   UNL     1      42.542 134.098  21.097  1.00  0.00     0.045 A 
ATOM     34  C   UNL     1      37.547 134.298  17.548  1.00  0.00     0.001 A 
ATOM     35  C   UNL     1      43.920 134.380  21.119  1.00  0.00     0.011 A 
BRANCH  33  36
ATOM     36  N   UNL     1      41.885 133.570  22.261  1.00  0.00    -0.060 NA
BRANCH  36  37
ATOM     37  N   UNL     1      42.234 132.519  22.801  1.00  0.00     0.005 N 
ATOM     38  N   UNL     1      42.581 131.471  23.342  1.00  0.00    -0.003 NA
ENDBRANCH  36  37
ENDBRANCH  33  36
ENDBRANCH  18  22
ENDBRANCH  15  16
ENDBRANCH   1  15
TORSDOF 12
ENDMDL
MODEL 9
REMARK VINA RESULT:      -7.1      2.644      4.459
REMARK SMILES C/C(=C/n1nnc(C)c1-c1c2ccccc2cc2c(N=[N+]=[N-])cccc12)C(=O)N(C=N)C(O)=C1CC1
REMARK SMILES IDX 2 1 1 2 27 3 28 4 29 5 30 6 31 7 32 9 33 10 34 12 35 13
REMARK SMILES IDX 36 14 3 15 4 16 5 17 9 18 6 19 7 20 8 21 10 22 11 23 26 24
REMARK SMILES IDX 12 25 16 26 25 27 18 28 13 29 15 30 17 31 24 32 19 33 14 34
REMARK SMILES IDX 23 35 20 36 21 37 22 38
REMARK H PARENT 31 8 33 11
ROOT
ATOM      1  C   UNL     1      43.120 132.566  14.935  1.00  0.00     0.033 C 
ATOM      2  C   UNL     1      41.860 133.081  14.296  1.00  0.00     0.052 C 
ENDROOT
BRANCH   1   3
ATOM      3  C   UNL     1      43.729 131.337  14.369  1.00  0.00     0.263 C 
ATOM      4  O   UNL     1      43.154 130.781  13.395  1.00  0.00    -0.268 OA
BRANCH   3   5
ATOM      5  N   UNL     1      44.984 130.807  14.857  1.00  0.00    -0.238 N 
BRANCH   5   6
ATOM      6  C   UNL     1      44.995 129.675  15.752  1.00  0.00     0.201 C 
BRANCH   6   7
ATOM      7  N   UNL     1      45.558 129.747  16.914  1.00  0.00    -0.291 NA
ATOM      8  H   UNL     1      44.986 129.884  17.776  1.00  0.00     0.189 HD
ENDBRANCH   6   7
ENDBRANCH   5   6
BRANCH   5   9
ATOM      9  C   UNL     1      46.232 131.338  14.365  1.00  0.00     0.198 C 
BRANCH   9  10
ATOM     10  O   UNL     1      46.724 132.538  14.878  1.00  0.00    -0.494 OA
ATOM     11  H   UNL     1      47.518 132.562  15.508  1.00  0.00     0.295 HD
ENDBRANCH   9  10
BRANCH   9  12
ATOM     12  C   UNL     1      46.932 130.694  13.431  1.00  0.00    -0.009 C 
ATOM     13  C   UNL     1      47.898 129.601  12.978  1.00  0.00     0.041 C 
ATOM     14  C   UNL     1      47.388 130.493  11.988  1.00  0.00     0.041 C 
ENDBRANCH   9  12
ENDBRANCH   5   9
ENDBRANCH   3   5
ENDBRANCH   1   3
BRANCH   1  15
ATOM     15  C   UNL     1      43.600 133.212  16.017  1.00  0.00     0.124 C 
BRANCH  15  16
ATOM     16  N   UNL     1      43.166 132.979  17.370  1.00  0.00    -0.219 N 
ATOM     17  N   UNL     1      43.410 131.896  18.091  1.00  0.00    -0.062 NA
ATOM     18  C   UNL     1      42.364 133.782  18.095  1.00  0.00     0.098 A 
ATOM     19  N   UNL     1      42.825 131.979  19.279  1.00  0.00    -0.135 NA
ATOM     20  C   UNL     1      42.157 133.150  19.303  1.00  0.00     0.088 A 
ATOM     21  C   UNL     1      41.411 133.676  20.484  1.00  0.00     0.071 C 
BRANCH  18  22
ATOM     22  C   UNL     1      41.801 135.083  17.649  1.00  0.00     0.018 A 
ATOM     23  C   UNL     1      42.564 136.271  17.782  1.00  0.00    -0.008 A 
ATOM     24  C   UNL     1      40.491 135.146  17.102  1.00  0.00    -0.008 A 
ATOM     25  C   UNL     1      43.855 136.268  18.361  1.00  0.00     0.009 A 
ATOM     26  C   UNL     1      42.022 137.504  17.344  1.00  0.00    -0.017 A 
ATOM     27  C   UNL     1      39.700 133.987  16.963  1.00  0.00     0.009 A 
ATOM     28  C   UNL     1      39.957 136.392  16.677  1.00  0.00    -0.008 A 
ATOM     29  C   UNL     1      44.587 137.452  18.475  1.00  0.00     0.001 A 
ATOM     30  C   UNL     1      42.773 138.686  17.466  1.00  0.00     0.009 A 
ATOM     31  C   UNL     1      40.736 137.554  16.798  1.00  0.00     0.018 A 
ATOM     32  C   UNL     1      38.415 134.056  16.431  1.00  0.00     0.001 A 
ATOM     33  C   UNL     1      38.650 136.456  16.134  1.00  0.00     0.045 A 
ATOM     34  C   UNL     1      44.050 138.656  18.027  1.00  0.00     0.001 A 
ATOM     35  C   UNL     1      37.891 135.277  16.020  1.00  0.00     0.011 A 
BRANCH  33  36
ATOM     36  N   UNL     1      38.109 137.717  15.705  1.00  0.00    -0.060 NA
BRANCH  36  37
ATOM     37  N   UNL     1      38.440 138.257  14.649  1.00  0.00     0.005 N 
ATOM     38  N   UNL     1      38.772 138.795  13.594  1.00  0.00    -0.003 NA
ENDBRANCH  36  37
ENDBRANCH  33  36
ENDBRANCH  18  22
ENDBRANCH  15  16
ENDBRANCH   1  15
TORSDOF 12
ENDMDL


