MODEL 1
REMARK VINA RESULT:      -6.4      0.000      0.000
REMARK SMILES [H]/N=C1\C=C(n2cc(CCCCN(C)[C@@H](C)C#N)[nH+]n2)c2cccc3c(O)[n-]c1c23
REMARK SMILES IDX 10 1 9 2 8 3 6 4 20 5 7 6 19 7 5 9 3 10 4 11 29 12 28 13
REMARK SMILES IDX 30 14 21 15 26 16 25 17 22 18 24 19 23 20 2 21 1 22 27 23
REMARK SMILES IDX 11 25 12 26 13 27 14 28 15 29 16 30 17 31 18 32
REMARK H PARENT 19 8 27 24
ROOT
ATOM      1  C   UNL     1      38.222 133.529  17.454  1.00  0.00     0.010 C 
ENDROOT
BRANCH   1   2
ATOM      2  C   UNL     1      38.954 134.511  18.372  1.00  0.00     0.086 C 
BRANCH   2   3
ATOM      3  C   UNL     1      40.431 134.280  18.310  1.00  0.00     0.165 A 
ATOM      4  N   UNL     1      42.388 133.351  18.045  1.00  0.00    -0.101 N 
ATOM      5  N   UNL     1      42.538 134.473  18.735  1.00  0.00     0.093 NA
ATOM      6  C   UNL     1      41.077 133.184  17.780  1.00  0.00     0.281 A 
ATOM      7  N   UNL     1      41.360 135.054  18.901  1.00  0.00    -0.147 N 
ATOM      8  H   UNL     1      41.201 135.940  19.431  1.00  0.00     0.342 HD
BRANCH   4   9
ATOM      9  C   UNL     1      43.453 132.430  17.759  1.00  0.00     0.165 C 
ATOM     10  C   UNL     1      45.358 131.020  18.537  1.00  0.00     0.044 C 
ATOM     11  C   UNL     1      44.278 132.030  18.767  1.00  0.00     0.081 C 
ATOM     12  C   UNL     1      45.483 130.487  17.178  1.00  0.00    -0.100 A 
ATOM     13  N   UNL     1      46.384 129.612  16.674  1.00  0.00    -0.625 NA
ATOM     14  C   UNL     1      44.653 130.937  16.214  1.00  0.00    -0.018 A 
ATOM     15  C   UNL     1      43.657 131.882  16.374  1.00  0.00     0.031 A 
ATOM     16  C   UNL     1      46.073 129.542  15.347  1.00  0.00     0.021 A 
ATOM     17  C   UNL     1      45.001 130.369  15.040  1.00  0.00     0.001 A 
ATOM     18  C   UNL     1      42.979 132.279  15.197  1.00  0.00     0.013 A 
ATOM     19  C   UNL     1      44.340 130.712  13.860  1.00  0.00     0.010 A 
ATOM     20  C   UNL     1      43.315 131.685  13.949  1.00  0.00     0.002 A 
BRANCH  10  21
ATOM     21  N   UNL     1      46.148 130.631  19.486  1.00  0.00    -0.302 NA
ATOM     22  H   UNL     1      46.692 129.743  19.416  1.00  0.00     0.188 HD
ENDBRANCH  10  21
BRANCH  16  23
ATOM     23  O   UNL     1      46.770 128.748  14.443  1.00  0.00    -0.530 OA
ATOM     24  H   UNL     1      47.172 129.142  13.600  1.00  0.00     0.290 HD
ENDBRANCH  16  23
ENDBRANCH   4   9
ENDBRANCH   2   3
ENDBRANCH   1   2
BRANCH   1  25
ATOM     25  C   UNL     1      38.195 134.041  16.007  1.00  0.00     0.016 C 
BRANCH  25  26
ATOM     26  C   UNL     1      37.634 135.466  15.920  1.00  0.00     0.085 C 
BRANCH  26  27
ATOM     27  N   UNL     1      38.582 136.359  15.208  1.00  0.00    -0.291 NA
ATOM     28  C   UNL     1      37.868 137.430  14.490  1.00  0.00     0.106 C 
BRANCH  27  29
ATOM     29  C   UNL     1      39.531 135.653  14.308  1.00  0.00     0.157 C 
ATOM     30  C   UNL     1      39.244 135.990  12.842  1.00  0.00     0.041 C 
BRANCH  29  31
ATOM     31  C   UNL     1      40.945 135.930  14.640  1.00  0.00     0.081 C 
ATOM     32  N   UNL     1      42.052 136.148  14.901  1.00  0.00    -0.197 NA
ENDBRANCH  29  31
ENDBRANCH  27  29
ENDBRANCH  26  27
ENDBRANCH  25  26
ENDBRANCH   1  25
TORSDOF 10
ENDMDL
MODEL 2
REMARK VINA RESULT:      -5.9      1.078      1.172
REMARK SMILES [H]/N=C1\C=C(n2cc(CCCCN(C)[C@@H](C)C#N)[nH+]n2)c2cccc3c(O)[n-]c1c23
REMARK SMILES IDX 10 1 9 2 8 3 6 4 20 5 7 6 19 7 5 9 3 10 4 11 29 12 28 13
REMARK SMILES IDX 30 14 21 15 26 16 25 17 22 18 24 19 23 20 2 21 1 22 27 23
REMARK SMILES IDX 11 25 12 26 13 27 14 28 15 29 16 30 17 31 18 32
REMARK H PARENT 19 8 27 24
ROOT
ATOM      1  C   UNL     1      37.901 133.770  18.397  1.00  0.00     0.010 C 
ENDROOT
BRANCH   1   2
ATOM      2  C   UNL     1      39.179 134.224  19.107  1.00  0.00     0.086 C 
BRANCH   2   3
ATOM      3  C   UNL     1      40.379 133.918  18.266  1.00  0.00     0.165 A 
ATOM      4  N   UNL     1      42.240 133.053  17.524  1.00  0.00    -0.101 N 
ATOM      5  N   UNL     1      42.000 134.178  16.867  1.00  0.00     0.093 NA
ATOM      6  C   UNL     1      41.257 132.867  18.427  1.00  0.00     0.281 A 
ATOM      7  N   UNL     1      40.871 134.716  17.300  1.00  0.00    -0.147 N 
ATOM      8  H   UNL     1      40.469 135.618  16.960  1.00  0.00     0.342 HD
BRANCH   4   9
ATOM      9  C   UNL     1      43.426 132.259  17.361  1.00  0.00     0.165 C 
ATOM     10  C   UNL     1      45.410 131.110  18.346  1.00  0.00     0.044 C 
ATOM     11  C   UNL     1      44.203 131.988  18.448  1.00  0.00     0.081 C 
ATOM     12  C   UNL     1      45.713 130.559  17.023  1.00  0.00    -0.100 A 
ATOM     13  N   UNL     1      46.751 129.785  16.627  1.00  0.00    -0.625 NA
ATOM     14  C   UNL     1      44.923 130.879  15.977  1.00  0.00    -0.018 A 
ATOM     15  C   UNL     1      43.813 131.702  16.019  1.00  0.00     0.031 A 
ATOM     16  C   UNL     1      46.566 129.642  15.283  1.00  0.00     0.021 A 
ATOM     17  C   UNL     1      45.436 130.326  14.858  1.00  0.00     0.001 A 
ATOM     18  C   UNL     1      43.197 131.983  14.776  1.00  0.00     0.013 A 
ATOM     19  C   UNL     1      44.844 130.555  13.616  1.00  0.00     0.010 A 
ATOM     20  C   UNL     1      43.707 131.400  13.583  1.00  0.00     0.002 A 
BRANCH  10  21
ATOM     21  N   UNL     1      46.154 130.844  19.371  1.00  0.00    -0.302 NA
ATOM     22  H   UNL     1      45.775 130.864  20.343  1.00  0.00     0.188 HD
ENDBRANCH  10  21
BRANCH  16  23
ATOM     23  O   UNL     1      47.428 128.914  14.470  1.00  0.00    -0.530 OA
ATOM     24  H   UNL     1      47.078 128.370  13.690  1.00  0.00     0.290 HD
ENDBRANCH  16  23
ENDBRANCH   4   9
ENDBRANCH   2   3
ENDBRANCH   1   2
BRANCH   1  25
ATOM     25  C   UNL     1      37.833 134.333  16.970  1.00  0.00     0.016 C 
BRANCH  25  26
ATOM     26  C   UNL     1      37.254 135.752  16.947  1.00  0.00     0.085 C 
BRANCH  26  27
ATOM     27  N   UNL     1      37.396 136.354  15.598  1.00  0.00    -0.291 NA
ATOM     28  C   UNL     1      36.384 135.821  14.668  1.00  0.00     0.106 C 
BRANCH  27  29
ATOM     29  C   UNL     1      38.761 136.249  15.020  1.00  0.00     0.157 C 
ATOM     30  C   UNL     1      38.736 135.461  13.707  1.00  0.00     0.041 C 
BRANCH  29  31
ATOM     31  C   UNL     1      39.402 137.567  14.827  1.00  0.00     0.081 C 
ATOM     32  N   UNL     1      39.903 138.600  14.676  1.00  0.00    -0.197 NA
ENDBRANCH  29  31
ENDBRANCH  27  29
ENDBRANCH  26  27
ENDBRANCH  25  26
ENDBRANCH   1  25
TORSDOF 10
ENDMDL
MODEL 3
REMARK VINA RESULT:      -5.7      4.885      7.552
REMARK SMILES [H]/N=C1\C=C(n2cc(CCCCN(C)[C@@H](C)C#N)[nH+]n2)c2cccc3c(O)[n-]c1c23
REMARK SMILES IDX 10 1 9 2 8 3 6 4 20 5 7 6 19 7 5 9 3 10 4 11 29 12 28 13
REMARK SMILES IDX 30 14 21 15 26 16 25 17 22 18 24 19 23 20 2 21 1 22 27 23
REMARK SMILES IDX 11 25 12 26 13 27 14 28 15 29 16 30 17 31 18 32
REMARK H PARENT 19 8 27 24
ROOT
ATOM      1  C   UNL     1      42.777 132.097  16.787  1.00  0.00     0.010 C 
ENDROOT
BRANCH   1   2
ATOM      2  C   UNL     1      41.885 133.327  16.972  1.00  0.00     0.086 C 
BRANCH   2   3
ATOM      3  C   UNL     1      42.515 134.290  17.928  1.00  0.00     0.165 A 
ATOM      4  N   UNL     1      43.886 135.231  19.342  1.00  0.00    -0.101 N 
ATOM      5  N   UNL     1      42.715 135.849  19.406  1.00  0.00     0.093 NA
ATOM      6  C   UNL     1      43.793 134.231  18.442  1.00  0.00     0.281 A 
ATOM      7  N   UNL     1      41.871 135.295  18.550  1.00  0.00    -0.147 N 
ATOM      8  H   UNL     1      40.875 135.583  18.422  1.00  0.00     0.342 HD
BRANCH   4   9
ATOM      9  C   UNL     1      45.002 135.524  20.196  1.00  0.00     0.165 C 
ATOM     10  C   UNL     1      46.487 134.900  22.102  1.00  0.00     0.044 C 
ATOM     11  C   UNL     1      45.295 134.679  21.225  1.00  0.00     0.081 C 
ATOM     12  C   UNL     1      47.320 136.067  21.799  1.00  0.00    -0.100 A 
ATOM     13  N   UNL     1      48.415 136.536  22.442  1.00  0.00    -0.625 NA
ATOM     14  C   UNL     1      46.969 136.882  20.782  1.00  0.00    -0.018 A 
ATOM     15  C   UNL     1      45.868 136.730  19.961  1.00  0.00     0.031 A 
ATOM     16  C   UNL     1      48.726 137.684  21.773  1.00  0.00     0.021 A 
ATOM     17  C   UNL     1      47.830 137.921  20.740  1.00  0.00     0.001 A 
ATOM     18  C   UNL     1      45.639 137.768  19.026  1.00  0.00     0.013 A 
ATOM     19  C   UNL     1      47.656 138.952  19.817  1.00  0.00     0.010 A 
ATOM     20  C   UNL     1      46.539 138.866  18.950  1.00  0.00     0.002 A 
BRANCH  10  21
ATOM     21  N   UNL     1      46.776 134.105  23.082  1.00  0.00    -0.302 NA
ATOM     22  H   UNL     1      47.111 134.469  24.001  1.00  0.00     0.188 HD
ENDBRANCH  10  21
BRANCH  16  23
ATOM     23  O   UNL     1      49.800 138.499  22.119  1.00  0.00    -0.530 OA
ATOM     24  H   UNL     1      50.022 138.688  23.089  1.00  0.00     0.290 HD
ENDBRANCH  16  23
ENDBRANCH   4   9
ENDBRANCH   2   3
ENDBRANCH   1   2
BRANCH   1  25
ATOM     25  C   UNL     1      43.668 132.243  15.545  1.00  0.00     0.016 C 
BRANCH  25  26
ATOM     26  C   UNL     1      44.332 130.914  15.165  1.00  0.00     0.085 C 
BRANCH  26  27
ATOM     27  N   UNL     1      45.591 131.153  14.418  1.00  0.00    -0.291 NA
ATOM     28  C   UNL     1      45.511 130.608  13.050  1.00  0.00     0.106 C 
BRANCH  27  29
ATOM     29  C   UNL     1      46.817 130.678  15.112  1.00  0.00     0.157 C 
ATOM     30  C   UNL     1      46.461 129.996  16.437  1.00  0.00     0.041 C 
BRANCH  29  31
ATOM     31  C   UNL     1      47.639 129.784  14.269  1.00  0.00     0.081 C 
ATOM     32  N   UNL     1      48.284 129.085  13.609  1.00  0.00    -0.197 NA
ENDBRANCH  29  31
ENDBRANCH  27  29
ENDBRANCH  26  27
ENDBRANCH  25  26
ENDBRANCH   1  25
TORSDOF 10
ENDMDL
MODEL 4
REMARK VINA RESULT:      -5.7      3.172      7.556
REMARK SMILES [H]/N=C1\C=C(n2cc(CCCCN(C)[C@@H](C)C#N)[nH+]n2)c2cccc3c(O)[n-]c1c23
REMARK SMILES IDX 10 1 9 2 8 3 6 4 20 5 7 6 19 7 5 9 3 10 4 11 29 12 28 13
REMARK SMILES IDX 30 14 21 15 26 16 25 17 22 18 24 19 23 20 2 21 1 22 27 23
REMARK SMILES IDX 11 25 12 26 13 27 14 28 15 29 16 30 17 31 18 32
REMARK H PARENT 19 8 27 24
ROOT
ATOM      1  C   UNL     1      46.091 130.130  17.259  1.00  0.00     0.010 C 
ENDROOT
BRANCH   1   2
ATOM      2  C   UNL     1      45.613 130.880  18.504  1.00  0.00     0.086 C 
BRANCH   2   3
ATOM      3  C   UNL     1      44.397 131.693  18.188  1.00  0.00     0.165 A 
ATOM      4  N   UNL     1      43.020 133.119  17.274  1.00  0.00    -0.101 N 
ATOM      5  N   UNL     1      42.533 132.749  18.450  1.00  0.00     0.093 NA
ATOM      6  C   UNL     1      44.200 132.495  17.084  1.00  0.00     0.281 A 
ATOM      7  N   UNL     1      43.353 131.879  19.018  1.00  0.00    -0.147 N 
ATOM      8  H   UNL     1      43.211 131.451  19.960  1.00  0.00     0.342 HD
BRANCH   4   9
ATOM      9  C   UNL     1      42.423 134.116  16.430  1.00  0.00     0.165 C 
ATOM     10  C   UNL     1      40.910 134.727  14.543  1.00  0.00     0.044 C 
ATOM     11  C   UNL     1      41.611 133.727  15.408  1.00  0.00     0.081 C 
ATOM     12  C   UNL     1      41.142 136.140  14.850  1.00  0.00    -0.100 A 
ATOM     13  N   UNL     1      40.687 137.247  14.217  1.00  0.00    -0.625 NA
ATOM     14  C   UNL     1      41.975 136.468  15.860  1.00  0.00    -0.018 A 
ATOM     15  C   UNL     1      42.660 135.582  16.670  1.00  0.00     0.031 A 
ATOM     16  C   UNL     1      41.281 138.279  14.884  1.00  0.00     0.021 A 
ATOM     17  C   UNL     1      42.095 137.812  15.906  1.00  0.00     0.001 A 
ATOM     18  C   UNL     1      43.562 136.153  17.598  1.00  0.00     0.013 A 
ATOM     19  C   UNL     1      42.954 138.417  16.824  1.00  0.00     0.010 A 
ATOM     20  C   UNL     1      43.696 137.567  17.679  1.00  0.00     0.002 A 
BRANCH  10  21
ATOM     21  N   UNL     1      40.135 134.370  13.570  1.00  0.00    -0.302 NA
ATOM     22  H   UNL     1      39.977 133.365  13.335  1.00  0.00     0.188 HD
ENDBRANCH  10  21
BRANCH  16  23
ATOM     23  O   UNL     1      41.088 139.615  14.547  1.00  0.00    -0.530 OA
ATOM     24  H   UNL     1      40.157 139.994  14.423  1.00  0.00     0.290 HD
ENDBRANCH  16  23
ENDBRANCH   4   9
ENDBRANCH   2   3
ENDBRANCH   1   2
BRANCH   1  25
ATOM     25  C   UNL     1      44.931 129.388  16.581  1.00  0.00     0.016 C 
BRANCH  25  26
ATOM     26  C   UNL     1      45.174 129.208  15.078  1.00  0.00     0.085 C 
BRANCH  26  27
ATOM     27  N   UNL     1      45.173 130.521  14.387  1.00  0.00    -0.291 NA
ATOM     28  C   UNL     1      43.997 130.661  13.509  1.00  0.00     0.106 C 
BRANCH  27  29
ATOM     29  C   UNL     1      46.428 130.827  13.651  1.00  0.00     0.157 C 
ATOM     30  C   UNL     1      47.134 132.041  14.263  1.00  0.00     0.041 C 
BRANCH  29  31
ATOM     31  C   UNL     1      47.346 129.670  13.582  1.00  0.00     0.081 C 
ATOM     32  N   UNL     1      48.064 128.763  13.527  1.00  0.00    -0.197 NA
ENDBRANCH  29  31
ENDBRANCH  27  29
ENDBRANCH  26  27
ENDBRANCH  25  26
ENDBRANCH   1  25
TORSDOF 10
ENDMDL
MODEL 5
REMARK VINA RESULT:      -5.6      2.050      2.967
REMARK SMILES [H]/N=C1\C=C(n2cc(CCCCN(C)[C@@H](C)C#N)[nH+]n2)c2cccc3c(O)[n-]c1c23
REMARK SMILES IDX 10 1 9 2 8 3 6 4 20 5 7 6 19 7 5 9 3 10 4 11 29 12 28 13
REMARK SMILES IDX 30 14 21 15 26 16 25 17 22 18 24 19 23 20 2 21 1 22 27 23
REMARK SMILES IDX 11 25 12 26 13 27 14 28 15 29 16 30 17 31 18 32
REMARK H PARENT 19 8 27 24
ROOT
ATOM      1  C   UNL     1      37.838 134.364  18.280  1.00  0.00     0.010 C 
ENDROOT
BRANCH   1   2
ATOM      2  C   UNL     1      38.933 134.394  17.211  1.00  0.00     0.086 C 
BRANCH   2   3
ATOM      3  C   UNL     1      40.215 133.855  17.763  1.00  0.00     0.165 A 
ATOM      4  N   UNL     1      42.146 132.855  17.958  1.00  0.00    -0.101 N 
ATOM      5  N   UNL     1      41.656 133.078  19.169  1.00  0.00     0.093 NA
ATOM      6  C   UNL     1      41.260 133.307  17.048  1.00  0.00     0.281 A 
ATOM      7  N   UNL     1      40.486 133.690  19.071  1.00  0.00    -0.147 N 
ATOM      8  H   UNL     1      39.883 133.958  19.880  1.00  0.00     0.342 HD
BRANCH   4   9
ATOM      9  C   UNL     1      43.360 132.134  17.697  1.00  0.00     0.165 C 
ATOM     10  C   UNL     1      45.447 131.045  18.525  1.00  0.00     0.044 C 
ATOM     11  C   UNL     1      44.204 131.852  18.730  1.00  0.00     0.081 C 
ATOM     12  C   UNL     1      45.709 130.574  17.162  1.00  0.00    -0.100 A 
ATOM     13  N   UNL     1      46.763 129.876  16.678  1.00  0.00    -0.625 NA
ATOM     14  C   UNL     1      44.851 130.902  16.174  1.00  0.00    -0.018 A 
ATOM     15  C   UNL     1      43.704 131.662  16.311  1.00  0.00     0.031 A 
ATOM     16  C   UNL     1      46.516 129.788  15.339  1.00  0.00     0.021 A 
ATOM     17  C   UNL     1      45.332 130.430  15.004  1.00  0.00     0.001 A 
ATOM     18  C   UNL     1      43.012 131.969  15.116  1.00  0.00     0.013 A 
ATOM     19  C   UNL     1      44.666 130.687  13.806  1.00  0.00     0.010 A 
ATOM     20  C   UNL     1      43.488 131.471  13.872  1.00  0.00     0.002 A 
BRANCH  10  21
ATOM     21  N   UNL     1      46.256 130.770  19.497  1.00  0.00    -0.302 NA
ATOM     22  H   UNL     1      47.030 130.079  19.387  1.00  0.00     0.188 HD
ENDBRANCH  10  21
BRANCH  16  23
ATOM     23  O   UNL     1      47.370 129.146  14.448  1.00  0.00    -0.530 OA
ATOM     24  H   UNL     1      47.295 128.150  14.276  1.00  0.00     0.290 HD
ENDBRANCH  16  23
ENDBRANCH   4   9
ENDBRANCH   2   3
ENDBRANCH   1   2
BRANCH   1  25
ATOM     25  C   UNL     1      36.857 135.531  18.098  1.00  0.00     0.016 C 
BRANCH  25  26
ATOM     26  C   UNL     1      37.217 136.720  18.996  1.00  0.00     0.085 C 
BRANCH  26  27
ATOM     27  N   UNL     1      38.419 136.415  19.811  1.00  0.00    -0.291 NA
ATOM     28  C   UNL     1      38.046 136.011  21.179  1.00  0.00     0.106 C 
BRANCH  27  29
ATOM     29  C   UNL     1      39.436 137.499  19.833  1.00  0.00     0.157 C 
ATOM     30  C   UNL     1      39.316 138.332  21.113  1.00  0.00     0.041 C 
BRANCH  29  31
ATOM     31  C   UNL     1      40.815 136.990  19.669  1.00  0.00     0.081 C 
ATOM     32  N   UNL     1      41.894 136.592  19.541  1.00  0.00    -0.197 NA
ENDBRANCH  29  31
ENDBRANCH  27  29
ENDBRANCH  26  27
ENDBRANCH  25  26
ENDBRANCH   1  25
TORSDOF 10
ENDMDL
MODEL 6
REMARK VINA RESULT:      -5.4      3.491      8.051
REMARK SMILES [H]/N=C1\C=C(n2cc(CCCCN(C)[C@@H](C)C#N)[nH+]n2)c2cccc3c(O)[n-]c1c23
REMARK SMILES IDX 10 1 9 2 8 3 6 4 20 5 7 6 19 7 5 9 3 10 4 11 29 12 28 13
REMARK SMILES IDX 30 14 21 15 26 16 25 17 22 18 24 19 23 20 2 21 1 22 27 23
REMARK SMILES IDX 11 25 12 26 13 27 14 28 15 29 16 30 17 31 18 32
REMARK H PARENT 19 8 27 24
ROOT
ATOM      1  C   UNL     1      44.950 130.697  16.593  1.00  0.00     0.010 C 
ENDROOT
BRANCH   1   2
ATOM      2  C   UNL     1      45.028 131.958  15.731  1.00  0.00     0.086 C 
BRANCH   2   3
ATOM      3  C   UNL     1      43.686 132.614  15.642  1.00  0.00     0.165 A 
ATOM      4  N   UNL     1      42.092 134.066  15.306  1.00  0.00    -0.101 N 
ATOM      5  N   UNL     1      41.620 133.080  16.055  1.00  0.00     0.093 NA
ATOM      6  C   UNL     1      43.392 133.822  15.045  1.00  0.00     0.281 A 
ATOM      7  N   UNL     1      42.573 132.185  16.265  1.00  0.00    -0.147 N 
ATOM      8  H   UNL     1      42.465 131.322  16.843  1.00  0.00     0.342 HD
BRANCH   4   9
ATOM      9  C   UNL     1      41.347 135.244  14.959  1.00  0.00     0.165 C 
ATOM     10  C   UNL     1      41.157 137.730  14.862  1.00  0.00     0.044 C 
ATOM     11  C   UNL     1      41.859 136.471  15.262  1.00  0.00     0.081 C 
ATOM     12  C   UNL     1      39.897 137.578  14.131  1.00  0.00    -0.100 A 
ATOM     13  N   UNL     1      39.034 138.524  13.691  1.00  0.00    -0.625 NA
ATOM     14  C   UNL     1      39.426 136.339  13.878  1.00  0.00    -0.018 A 
ATOM     15  C   UNL     1      40.026 135.150  14.247  1.00  0.00     0.031 A 
ATOM     16  C   UNL     1      38.003 137.810  13.154  1.00  0.00     0.021 A 
ATOM     17  C   UNL     1      38.225 136.445  13.270  1.00  0.00     0.001 A 
ATOM     18  C   UNL     1      39.297 133.970  13.968  1.00  0.00     0.013 A 
ATOM     19  C   UNL     1      37.486 135.305  12.954  1.00  0.00     0.010 A 
ATOM     20  C   UNL     1      38.037 134.052  13.314  1.00  0.00     0.002 A 
BRANCH  10  21
ATOM     21  N   UNL     1      41.633 138.901  15.142  1.00  0.00    -0.302 NA
ATOM     22  H   UNL     1      42.659 139.066  15.242  1.00  0.00     0.188 HD
ENDBRANCH  10  21
BRANCH  16  23
ATOM     23  O   UNL     1      36.880 138.404  12.587  1.00  0.00    -0.530 OA
ATOM     24  H   UNL     1      36.175 138.848  13.163  1.00  0.00     0.290 HD
ENDBRANCH  16  23
ENDBRANCH   4   9
ENDBRANCH   2   3
ENDBRANCH   1   2
BRANCH   1  25
ATOM     25  C   UNL     1      45.625 130.916  17.954  1.00  0.00     0.016 C 
BRANCH  25  26
ATOM     26  C   UNL     1      44.612 131.324  19.031  1.00  0.00     0.085 C 
BRANCH  26  27
ATOM     27  N   UNL     1      45.217 132.289  19.980  1.00  0.00    -0.291 NA
ATOM     28  C   UNL     1      45.587 131.631  21.247  1.00  0.00     0.106 C 
BRANCH  27  29
ATOM     29  C   UNL     1      44.395 133.503  20.229  1.00  0.00     0.157 C 
ATOM     30  C   UNL     1      44.012 134.179  18.909  1.00  0.00     0.041 C 
BRANCH  29  31
ATOM     31  C   UNL     1      43.192 133.220  21.040  1.00  0.00     0.081 C 
ATOM     32  N   UNL     1      42.250 133.000  21.676  1.00  0.00    -0.197 NA
ENDBRANCH  29  31
ENDBRANCH  27  29
ENDBRANCH  26  27
ENDBRANCH  25  26
ENDBRANCH   1  25
TORSDOF 10
ENDMDL
MODEL 7
REMARK VINA RESULT:      -5.3      3.369      7.630
REMARK SMILES [H]/N=C1\C=C(n2cc(CCCCN(C)[C@@H](C)C#N)[nH+]n2)c2cccc3c(O)[n-]c1c23
REMARK SMILES IDX 10 1 9 2 8 3 6 4 20 5 7 6 19 7 5 9 3 10 4 11 29 12 28 13
REMARK SMILES IDX 30 14 21 15 26 16 25 17 22 18 24 19 23 20 2 21 1 22 27 23
REMARK SMILES IDX 11 25 12 26 13 27 14 28 15 29 16 30 17 31 18 32
REMARK H PARENT 19 8 27 24
ROOT
ATOM      1  C   UNL     1      45.741 130.908  17.728  1.00  0.00     0.010 C 
ENDROOT
BRANCH   1   2
ATOM      2  C   UNL     1      44.463 130.728  16.906  1.00  0.00     0.086 C 
BRANCH   2   3
ATOM      3  C   UNL     1      44.012 132.041  16.347  1.00  0.00     0.165 A 
ATOM      4  N   UNL     1      42.803 133.625  15.457  1.00  0.00    -0.101 N 
ATOM      5  N   UNL     1      44.080 133.970  15.384  1.00  0.00     0.093 NA
ATOM      6  C   UNL     1      42.721 132.409  16.034  1.00  0.00     0.281 A 
ATOM      7  N   UNL     1      44.830 133.023  15.924  1.00  0.00    -0.147 N 
ATOM      8  H   UNL     1      45.873 133.042  15.973  1.00  0.00     0.342 HD
BRANCH   4   9
ATOM      9  C   UNL     1      41.726 134.386  14.889  1.00  0.00     0.165 C 
ATOM     10  C   UNL     1      39.462 134.481  13.843  1.00  0.00     0.044 C 
ATOM     11  C   UNL     1      40.641 133.735  14.383  1.00  0.00     0.081 C 
ATOM     12  C   UNL     1      39.534 135.944  13.887  1.00  0.00    -0.100 A 
ATOM     13  N   UNL     1      38.652 136.865  13.433  1.00  0.00    -0.625 NA
ATOM     14  C   UNL     1      40.642 136.537  14.378  1.00  0.00    -0.018 A 
ATOM     15  C   UNL     1      41.762 135.890  14.866  1.00  0.00     0.031 A 
ATOM     16  C   UNL     1      39.269 138.059  13.666  1.00  0.00     0.021 A 
ATOM     17  C   UNL     1      40.516 137.874  14.247  1.00  0.00     0.001 A 
ATOM     18  C   UNL     1      42.850 136.716  15.232  1.00  0.00     0.013 A 
ATOM     19  C   UNL     1      41.555 138.726  14.621  1.00  0.00     0.010 A 
ATOM     20  C   UNL     1      42.738 138.130  15.119  1.00  0.00     0.002 A 
BRANCH  10  21
ATOM     21  N   UNL     1      38.426 133.874  13.361  1.00  0.00    -0.302 NA
ATOM     22  H   UNL     1      38.245 132.864  13.552  1.00  0.00     0.188 HD
ENDBRANCH  10  21
BRANCH  16  23
ATOM     23  O   UNL     1      38.702 139.286  13.336  1.00  0.00    -0.530 OA
ATOM     24  H   UNL     1      39.203 139.959  12.768  1.00  0.00     0.290 HD
ENDBRANCH  16  23
ENDBRANCH   4   9
ENDBRANCH   2   3
ENDBRANCH   1   2
BRANCH   1  25
ATOM     25  C   UNL     1      45.428 130.964  19.230  1.00  0.00     0.016 C 
BRANCH  25  26
ATOM     26  C   UNL     1      44.173 131.797  19.518  1.00  0.00     0.085 C 
BRANCH  26  27
ATOM     27  N   UNL     1      44.541 133.123  20.070  1.00  0.00    -0.291 NA
ATOM     28  C   UNL     1      44.155 133.236  21.488  1.00  0.00     0.106 C 
BRANCH  27  29
ATOM     29  C   UNL     1      44.032 134.278  19.284  1.00  0.00     0.157 C 
ATOM     30  C   UNL     1      42.502 134.249  19.204  1.00  0.00     0.041 C 
BRANCH  29  31
ATOM     31  C   UNL     1      44.503 135.577  19.808  1.00  0.00     0.081 C 
ATOM     32  N   UNL     1      44.873 136.595  20.218  1.00  0.00    -0.197 NA
ENDBRANCH  29  31
ENDBRANCH  27  29
ENDBRANCH  26  27
ENDBRANCH  25  26
ENDBRANCH   1  25
TORSDOF 10
ENDMDL
MODEL 8
REMARK VINA RESULT:      -5.3      1.891      2.500
REMARK SMILES [H]/N=C1\C=C(n2cc(CCCCN(C)[C@@H](C)C#N)[nH+]n2)c2cccc3c(O)[n-]c1c23
REMARK SMILES IDX 10 1 9 2 8 3 6 4 20 5 7 6 19 7 5 9 3 10 4 11 29 12 28 13
REMARK SMILES IDX 30 14 21 15 26 16 25 17 22 18 24 19 23 20 2 21 1 22 27 23
REMARK SMILES IDX 11 25 12 26 13 27 14 28 15 29 16 30 17 31 18 32
REMARK H PARENT 19 8 27 24
ROOT
ATOM      1  C   UNL     1      38.649 136.458  16.941  1.00  0.00     0.010 C 
ENDROOT
BRANCH   1   2
ATOM      2  C   UNL     1      38.516 135.729  18.279  1.00  0.00     0.086 C 
BRANCH   2   3
ATOM      3  C   UNL     1      39.307 134.458  18.263  1.00  0.00     0.165 A 
ATOM      4  N   UNL     1      40.953 133.025  18.291  1.00  0.00    -0.101 N 
ATOM      5  N   UNL     1      39.863 132.416  17.847  1.00  0.00     0.093 NA
ATOM      6  C   UNL     1      40.650 134.315  18.541  1.00  0.00     0.281 A 
ATOM      7  N   UNL     1      38.851 133.269  17.828  1.00  0.00    -0.147 N 
ATOM      8  H   UNL     1      37.886 133.044  17.498  1.00  0.00     0.342 HD
BRANCH   4   9
ATOM      9  C   UNL     1      42.250 132.413  18.359  1.00  0.00     0.165 C 
ATOM     10  C   UNL     1      44.113 131.439  19.703  1.00  0.00     0.044 C 
ATOM     11  C   UNL     1      42.796 132.138  19.577  1.00  0.00     0.081 C 
ATOM     12  C   UNL     1      44.783 131.068  18.455  1.00  0.00    -0.100 A 
ATOM     13  N   UNL     1      45.988 130.480  18.263  1.00  0.00    -0.625 NA
ATOM     14  C   UNL     1      44.208 131.387  17.276  1.00  0.00    -0.018 A 
ATOM     15  C   UNL     1      43.006 132.049  17.111  1.00  0.00     0.031 A 
ATOM     16  C   UNL     1      46.131 130.450  16.907  1.00  0.00     0.021 A 
ATOM     17  C   UNL     1      45.035 131.020  16.274  1.00  0.00     0.001 A 
ATOM     18  C   UNL     1      42.649 132.371  15.780  1.00  0.00     0.013 A 
ATOM     19  C   UNL     1      44.708 131.294  14.946  1.00  0.00     0.010 A 
ATOM     20  C   UNL     1      43.494 131.983  14.704  1.00  0.00     0.002 A 
BRANCH  10  21
ATOM     21  N   UNL     1      44.641 131.170  20.854  1.00  0.00    -0.302 NA
ATOM     22  H   UNL     1      45.217 131.872  21.370  1.00  0.00     0.188 HD
ENDBRANCH  10  21
BRANCH  16  23
ATOM     23  O   UNL     1      47.252 129.926  16.271  1.00  0.00    -0.530 OA
ATOM     24  H   UNL     1      47.958 129.417  16.790  1.00  0.00     0.290 HD
ENDBRANCH  16  23
ENDBRANCH   4   9
ENDBRANCH   2   3
ENDBRANCH   1   2
BRANCH   1  25
ATOM     25  C   UNL     1      40.116 136.528  16.493  1.00  0.00     0.016 C 
BRANCH  25  26
ATOM     26  C   UNL     1      40.276 137.337  15.201  1.00  0.00     0.085 C 
BRANCH  26  27
ATOM     27  N   UNL     1      41.192 138.485  15.412  1.00  0.00    -0.291 NA
ATOM     28  C   UNL     1      41.216 139.371  14.234  1.00  0.00     0.106 C 
BRANCH  27  29
ATOM     29  C   UNL     1      42.569 138.103  15.822  1.00  0.00     0.157 C 
ATOM     30  C   UNL     1      42.678 138.019  17.348  1.00  0.00     0.041 C 
BRANCH  29  31
ATOM     31  C   UNL     1      43.023 136.843  15.196  1.00  0.00     0.081 C 
ATOM     32  N   UNL     1      43.377 135.856  14.706  1.00  0.00    -0.197 NA
ENDBRANCH  29  31
ENDBRANCH  27  29
ENDBRANCH  26  27
ENDBRANCH  25  26
ENDBRANCH   1  25
TORSDOF 10
ENDMDL
MODEL 9
REMARK VINA RESULT:      -5.3      3.657      6.098
REMARK SMILES [H]/N=C1\C=C(n2cc(CCCCN(C)[C@@H](C)C#N)[nH+]n2)c2cccc3c(O)[n-]c1c23
REMARK SMILES IDX 10 1 9 2 8 3 6 4 20 5 7 6 19 7 5 9 3 10 4 11 29 12 28 13
REMARK SMILES IDX 30 14 21 15 26 16 25 17 22 18 24 19 23 20 2 21 1 22 27 23
REMARK SMILES IDX 11 25 12 26 13 27 14 28 15 29 16 30 17 31 18 32
REMARK H PARENT 19 8 27 24
ROOT
ATOM      1  C   UNL     1      42.523 137.277  21.290  1.00  0.00     0.010 C 
ENDROOT
BRANCH   1   2
ATOM      2  C   UNL     1      41.395 136.648  20.469  1.00  0.00     0.086 C 
BRANCH   2   3
ATOM      3  C   UNL     1      41.829 135.330  19.910  1.00  0.00     0.165 A 
ATOM      4  N   UNL     1      42.433 133.741  18.540  1.00  0.00    -0.101 N 
ATOM      5  N   UNL     1      42.092 133.198  19.700  1.00  0.00     0.093 NA
ATOM      6  C   UNL     1      42.260 135.075  18.625  1.00  0.00     0.281 A 
ATOM      7  N   UNL     1      41.727 134.148  20.547  1.00  0.00    -0.147 N 
ATOM      8  H   UNL     1      41.392 133.983  21.522  1.00  0.00     0.342 HD
BRANCH   4   9
ATOM      9  C   UNL     1      42.798 132.989  17.372  1.00  0.00     0.165 C 
ATOM     10  C   UNL     1      42.476 132.458  14.956  1.00  0.00     0.044 C 
ATOM     11  C   UNL     1      42.094 133.165  16.218  1.00  0.00     0.081 C 
ATOM     12  C   UNL     1      43.640 131.571  15.023  1.00  0.00    -0.100 A 
ATOM     13  N   UNL     1      44.179 130.779  14.067  1.00  0.00    -0.625 NA
ATOM     14  C   UNL     1      44.285 131.418  16.199  1.00  0.00    -0.018 A 
ATOM     15  C   UNL     1      43.957 132.031  17.393  1.00  0.00     0.031 A 
ATOM     16  C   UNL     1      45.190 130.125  14.708  1.00  0.00     0.021 A 
ATOM     17  C   UNL     1      45.266 130.503  16.041  1.00  0.00     0.001 A 
ATOM     18  C   UNL     1      44.711 131.638  18.525  1.00  0.00     0.013 A 
ATOM     19  C   UNL     1      46.050 130.108  17.125  1.00  0.00     0.010 A 
ATOM     20  C   UNL     1      45.760 130.689  18.384  1.00  0.00     0.002 A 
BRANCH  10  21
ATOM     21  N   UNL     1      41.817 132.617  13.853  1.00  0.00    -0.302 NA
ATOM     22  H   UNL     1      41.102 133.371  13.746  1.00  0.00     0.188 HD
ENDBRANCH  10  21
BRANCH  16  23
ATOM     23  O   UNL     1      46.010 129.191  14.082  1.00  0.00    -0.530 OA
ATOM     24  H   UNL     1      46.932 129.444  13.747  1.00  0.00     0.290 HD
ENDBRANCH  16  23
ENDBRANCH   4   9
ENDBRANCH   2   3
ENDBRANCH   1   2
BRANCH   1  25
ATOM     25  C   UNL     1      43.830 137.326  20.486  1.00  0.00     0.016 C 
BRANCH  25  26
ATOM     26  C   UNL     1      45.027 136.857  21.323  1.00  0.00     0.085 C 
BRANCH  26  27
ATOM     27  N   UNL     1      46.149 137.823  21.217  1.00  0.00    -0.291 NA
ATOM     28  C   UNL     1      46.387 138.213  19.816  1.00  0.00     0.106 C 
BRANCH  27  29
ATOM     29  C   UNL     1      47.408 137.374  21.868  1.00  0.00     0.157 C 
ATOM     30  C   UNL     1      47.459 137.833  23.328  1.00  0.00     0.041 C 
BRANCH  29  31
ATOM     31  C   UNL     1      47.609 135.912  21.773  1.00  0.00     0.081 C 
ATOM     32  N   UNL     1      47.768 134.768  21.699  1.00  0.00    -0.197 NA
ENDBRANCH  29  31
ENDBRANCH  27  29
ENDBRANCH  26  27
ENDBRANCH  25  26
ENDBRANCH   1  25
TORSDOF 10
ENDMDL


