REMARK SMILES [N-]=[N+]=Nc1ccc2c3c(cc(/C(O)=N\[NH+]=[N-])c(OC(=O)[C@]4(N)C[C@H](CO)C4)c13)C=C2
REMARK SMILES IDX 18 1 17 2 11 3 10 4 9 5 28 6 8 7 29 8 4 9 7 10 30 11 5 12
REMARK SMILES IDX 6 13 12 14 13 15 14 17 15 18 16 20 3 21 2 22 1 23 19 24
REMARK SMILES IDX 20 25 21 26 27 27 23 28 24 29 22 30 25 33 26 34
REMARK H PARENT 13 16 15 19 22 31 22 32 26 35
ROOT
ATOM      1  O   UNL     1       0.180   0.138   0.309  1.00  0.00    -0.424 OA
ENDROOT
BRANCH   1   2
ATOM      2  C   UNL     1      -0.978  -0.089   1.061  1.00  0.00     0.150 A 
ATOM      3  C   UNL     1      -1.555   0.957   1.853  1.00  0.00     0.062 A 
ATOM      4  C   UNL     1      -2.734   0.718   2.605  1.00  0.00     0.024 A 
ATOM      5  C   UNL     1      -3.310  -0.547   2.542  1.00  0.00    -0.016 A 
ATOM      6  C   UNL     1      -1.583  -1.373   1.049  1.00  0.00     0.036 A 
ATOM      7  C   UNL     1      -2.739  -1.526   1.798  1.00  0.00     0.000 A 
ATOM      8  C   UNL     1      -4.492  -1.130   3.185  1.00  0.00     0.009 C 
ATOM      9  C   UNL     1      -1.126  -2.514   0.334  1.00  0.00     0.049 A 
ATOM     10  C   UNL     1      -3.446  -2.679   1.901  1.00  0.00    -0.017 A 
ATOM     11  C   UNL     1      -4.575  -2.413   2.797  1.00  0.00     0.009 C 
ATOM     12  C   UNL     1      -1.864  -3.735   0.432  1.00  0.00     0.011 A 
ATOM     13  C   UNL     1      -3.032  -3.821   1.222  1.00  0.00     0.009 A 
BRANCH   3  14
ATOM     14  C   UNL     1      -0.863   2.255   1.999  1.00  0.00     0.172 C 
BRANCH  14  15
ATOM     15  O   UNL     1       0.453   2.253   2.453  1.00  0.00    -0.506 OA
ATOM     16  H   UNL     1       0.968   3.117   2.574  1.00  0.00     0.293 HD
ENDBRANCH  14  15
BRANCH  14  17
ATOM     17  N   UNL     1      -1.438   3.392   1.729  1.00  0.00    -0.151 NA
BRANCH  17  18
ATOM     18  N   UNL     1      -2.732   3.520   1.197  1.00  0.00    -0.169 N 
ATOM     19  H   UNL     1      -3.259   2.693   0.838  1.00  0.00     0.475 HD
ATOM     20  N   UNL     1      -3.236   4.675   1.051  1.00  0.00    -0.151 NA
ENDBRANCH  17  18
ENDBRANCH  14  17
ENDBRANCH   3  14
BRANCH   9  21
ATOM     21  N   UNL     1       0.060  -2.433  -0.470  1.00  0.00    -0.060 NA
BRANCH  21  22
ATOM     22  N   UNL     1       0.493  -3.393  -1.110  1.00  0.00     0.005 N 
ATOM     23  N   UNL     1       0.927  -4.349  -1.749  1.00  0.00    -0.003 NA
ENDBRANCH  21  22
ENDBRANCH   9  21
ENDBRANCH   1   2
BRANCH   1  24
ATOM     24  C   UNL     1       0.257   1.081  -0.725  1.00  0.00     0.331 C 
ATOM     25  O   UNL     1      -0.768   1.733  -1.066  1.00  0.00    -0.250 OA
BRANCH  24  26
ATOM     26  C   UNL     1       1.576   1.347  -1.422  1.00  0.00     0.116 C 
ATOM     27  C   UNL     1       2.685   0.322  -1.146  1.00  0.00     0.040 C 
ATOM     28  C   UNL     1       2.408   2.431  -0.732  1.00  0.00     0.040 C 
ATOM     29  C   UNL     1       3.505   1.405  -0.442  1.00  0.00     0.019 C 
BRANCH  26  30
ATOM     30  N   UNL     1       1.425   1.598  -2.859  1.00  0.00    -0.316 NA
ATOM     31  H   UNL     1       0.914   0.792  -3.286  1.00  0.00     0.119 HD
ATOM     32  H   UNL     1       0.834   2.451  -2.995  1.00  0.00     0.119 HD
ENDBRANCH  26  30
BRANCH  29  33
ATOM     33  C   UNL     1       3.718   1.150   1.059  1.00  0.00     0.159 C 
BRANCH  33  34
ATOM     34  O   UNL     1       4.703   0.172   1.250  1.00  0.00    -0.396 OA
ATOM     35  H   UNL     1       4.261  -0.708   1.120  1.00  0.00     0.210 HD
ENDBRANCH  33  34
ENDBRANCH  29  33
ENDBRANCH  24  26
ENDBRANCH   1  24
TORSDOF 12


