MODEL 1
REMARK VINA RESULT:      -6.9      0.000      0.000
REMARK SMILES Cc1ccc2ccccc2c1C[N+](C)(C)CCc1cn(/C(=N/O)c2ccccc2N=[N+]=[N-])n[nH+]1
REMARK SMILES IDX 20 1 33 2 34 3 18 5 19 6 21 7 22 8 23 9 24 11 25 12 29 13
REMARK SMILES IDX 26 14 28 15 27 16 30 17 31 18 32 19 17 20 16 21 13 22 14 23
REMARK SMILES IDX 15 24 12 25 11 26 2 27 10 28 3 29 9 30 5 31 4 32 8 33 6 34
REMARK SMILES IDX 7 35 1 36
REMARK H PARENT 34 4 23 10
ROOT
ATOM      1  N   UNL     1      44.157 132.113  15.264  1.00  0.00    -0.080 N 
ATOM      2  N   UNL     1      45.062 133.043  15.533  1.00  0.00     0.095 NA
ATOM      3  N   UNL     1      44.664 133.768  16.567  1.00  0.00    -0.147 N 
ATOM      4  H   UNL     1      45.201 134.562  16.980  1.00  0.00     0.342 HD
ATOM      5  C   UNL     1      43.464 133.298  16.963  1.00  0.00     0.171 A 
ATOM      6  C   UNL     1      43.138 132.238  16.141  1.00  0.00     0.283 A 
ENDROOT
BRANCH   1   7
ATOM      7  C   UNL     1      44.277 131.139  14.217  1.00  0.00     0.289 C 
BRANCH   7   8
ATOM      8  N   UNL     1      43.217 130.768  13.563  1.00  0.00    -0.041 NA
BRANCH   8   9
ATOM      9  O   UNL     1      42.233 131.661  13.196  1.00  0.00    -0.407 OA
ATOM     10  H   UNL     1      42.474 132.485  12.659  1.00  0.00     0.330 HD
ENDBRANCH   8   9
ENDBRANCH   7   8
BRANCH   7  11
ATOM     11  C   UNL     1      45.604 130.553  13.905  1.00  0.00     0.057 A 
ATOM     12  C   UNL     1      46.251 130.909  12.711  1.00  0.00     0.015 A 
ATOM     13  C   UNL     1      46.202 129.617  14.776  1.00  0.00     0.051 A 
ATOM     14  C   UNL     1      47.484 130.342  12.383  1.00  0.00     0.001 A 
ATOM     15  C   UNL     1      47.451 129.059  14.435  1.00  0.00     0.011 A 
ATOM     16  C   UNL     1      48.082 129.420  13.241  1.00  0.00     0.001 A 
BRANCH  13  17
ATOM     17  N   UNL     1      45.544 129.269  16.004  1.00  0.00    -0.060 NA
BRANCH  17  18
ATOM     18  N   UNL     1      45.703 129.907  17.046  1.00  0.00     0.005 N 
ATOM     19  N   UNL     1      45.862 130.546  18.086  1.00  0.00    -0.003 NA
ENDBRANCH  17  18
ENDBRANCH  13  17
ENDBRANCH   7  11
ENDBRANCH   1   7
BRANCH   5  20
ATOM     20  C   UNL     1      42.674 133.812  18.127  1.00  0.00     0.147 C 
BRANCH  20  21
ATOM     21  C   UNL     1      41.786 135.005  17.691  1.00  0.00     0.272 C 
BRANCH  21  22
ATOM     22  N   UNL     1      40.317 134.720  17.571  1.00  0.00    -0.324 N 
ATOM     23  C   UNL     1      40.110 133.340  18.080  1.00  0.00     0.334 C 
ATOM     24  C   UNL     1      39.916 134.727  16.140  1.00  0.00     0.334 C 
BRANCH  22  25
ATOM     25  C   UNL     1      39.523 135.693  18.398  1.00  0.00     0.301 C 
BRANCH  25  26
ATOM     26  C   UNL     1      38.609 135.064  19.474  1.00  0.00     0.017 A 
ATOM     27  C   UNL     1      37.270 134.680  19.152  1.00  0.00    -0.042 A 
ATOM     28  C   UNL     1      39.069 134.848  20.816  1.00  0.00    -0.009 A 
ATOM     29  C   UNL     1      36.383 134.313  20.175  1.00  0.00     0.004 A 
ATOM     30  C   UNL     1      40.430 134.973  21.196  1.00  0.00     0.009 A 
ATOM     31  C   UNL     1      38.139 134.465  21.824  1.00  0.00    -0.018 A 
ATOM     32  C   UNL     1      36.803 134.236  21.494  1.00  0.00     0.009 A 
ATOM     33  C   UNL     1      40.828 134.798  22.524  1.00  0.00     0.001 A 
ATOM     34  C   UNL     1      38.557 134.295  23.156  1.00  0.00     0.009 A 
ATOM     35  C   UNL     1      39.894 134.471  23.501  1.00  0.00     0.001 A 
ATOM     36  C   UNL     1      36.746 134.615  17.733  1.00  0.00     0.045 C 
ENDBRANCH  25  26
ENDBRANCH  22  25
ENDBRANCH  21  22
ENDBRANCH  20  21
ENDBRANCH   5  20
TORSDOF 11
ENDMDL
MODEL 2
REMARK VINA RESULT:      -6.8      2.915      4.788
REMARK SMILES Cc1ccc2ccccc2c1C[N+](C)(C)CCc1cn(/C(=N/O)c2ccccc2N=[N+]=[N-])n[nH+]1
REMARK SMILES IDX 20 1 33 2 34 3 18 5 19 6 21 7 22 8 23 9 24 11 25 12 29 13
REMARK SMILES IDX 26 14 28 15 27 16 30 17 31 18 32 19 17 20 16 21 13 22 14 23
REMARK SMILES IDX 15 24 12 25 11 26 2 27 10 28 3 29 9 30 5 31 4 32 8 33 6 34
REMARK SMILES IDX 7 35 1 36
REMARK H PARENT 34 4 23 10
ROOT
ATOM      1  N   UNL     1      44.082 132.703  15.600  1.00  0.00    -0.080 N 
ATOM      2  N   UNL     1      42.997 132.207  15.022  1.00  0.00     0.095 NA
ATOM      3  N   UNL     1      42.198 133.195  14.652  1.00  0.00    -0.147 N 
ATOM      4  H   UNL     1      41.280 133.069  14.171  1.00  0.00     0.342 HD
ATOM      5  C   UNL     1      42.780 134.355  15.014  1.00  0.00     0.171 A 
ATOM      6  C   UNL     1      43.985 134.049  15.613  1.00  0.00     0.283 A 
ENDROOT
BRANCH   1   7
ATOM      7  C   UNL     1      45.170 131.913  16.103  1.00  0.00     0.289 C 
BRANCH   7   8
ATOM      8  N   UNL     1      45.408 131.892  17.381  1.00  0.00    -0.041 NA
BRANCH   8   9
ATOM      9  O   UNL     1      44.656 132.619  18.278  1.00  0.00    -0.407 OA
ATOM     10  H   UNL     1      43.667 132.428  18.378  1.00  0.00     0.330 HD
ENDBRANCH   8   9
ENDBRANCH   7   8
BRANCH   7  11
ATOM     11  C   UNL     1      46.020 131.145  15.161  1.00  0.00     0.057 A 
ATOM     12  C   UNL     1      46.811 131.834  14.229  1.00  0.00     0.015 A 
ATOM     13  C   UNL     1      46.011 129.733  15.166  1.00  0.00     0.051 A 
ATOM     14  C   UNL     1      47.592 131.129  13.309  1.00  0.00     0.001 A 
ATOM     15  C   UNL     1      46.810 129.036  14.238  1.00  0.00     0.011 A 
ATOM     16  C   UNL     1      47.591 129.735  13.314  1.00  0.00     0.001 A 
BRANCH  13  17
ATOM     17  N   UNL     1      45.212 129.033  16.133  1.00  0.00    -0.060 NA
BRANCH  17  18
ATOM     18  N   UNL     1      44.945 127.835  16.029  1.00  0.00     0.005 N 
ATOM     19  N   UNL     1      44.678 126.638  15.924  1.00  0.00    -0.003 NA
ENDBRANCH  17  18
ENDBRANCH  13  17
ENDBRANCH   7  11
ENDBRANCH   1   7
BRANCH   5  20
ATOM     20  C   UNL     1      42.226 135.722  14.750  1.00  0.00     0.147 C 
BRANCH  20  21
ATOM     21  C   UNL     1      41.646 136.329  16.052  1.00  0.00     0.272 C 
BRANCH  21  22
ATOM     22  N   UNL     1      41.447 137.817  16.050  1.00  0.00    -0.324 N 
ATOM     23  C   UNL     1      42.206 138.344  14.887  1.00  0.00     0.334 C 
ATOM     24  C   UNL     1      42.047 138.409  17.273  1.00  0.00     0.334 C 
BRANCH  22  25
ATOM     25  C   UNL     1      39.989 138.154  15.901  1.00  0.00     0.301 C 
BRANCH  25  26
ATOM     26  C   UNL     1      39.018 136.954  15.958  1.00  0.00     0.017 A 
ATOM     27  C   UNL     1      38.494 136.504  17.211  1.00  0.00    -0.042 A 
ATOM     28  C   UNL     1      38.614 136.258  14.769  1.00  0.00    -0.009 A 
ATOM     29  C   UNL     1      37.791 135.292  17.280  1.00  0.00     0.004 A 
ATOM     30  C   UNL     1      38.877 136.743  13.463  1.00  0.00     0.009 A 
ATOM     31  C   UNL     1      37.890 135.037  14.882  1.00  0.00    -0.018 A 
ATOM     32  C   UNL     1      37.519 134.555  16.138  1.00  0.00     0.009 A 
ATOM     33  C   UNL     1      38.507 136.011  12.332  1.00  0.00     0.001 A 
ATOM     34  C   UNL     1      37.527 134.312  13.733  1.00  0.00     0.009 A 
ATOM     35  C   UNL     1      37.843 134.796  12.467  1.00  0.00     0.001 A 
ATOM     36  C   UNL     1      38.632 137.293  18.495  1.00  0.00     0.045 C 
ENDBRANCH  25  26
ENDBRANCH  22  25
ENDBRANCH  21  22
ENDBRANCH  20  21
ENDBRANCH   5  20
TORSDOF 11
ENDMDL
MODEL 3
REMARK VINA RESULT:      -6.6      2.578      4.039
REMARK SMILES Cc1ccc2ccccc2c1C[N+](C)(C)CCc1cn(/C(=N/O)c2ccccc2N=[N+]=[N-])n[nH+]1
REMARK SMILES IDX 20 1 33 2 34 3 18 5 19 6 21 7 22 8 23 9 24 11 25 12 29 13
REMARK SMILES IDX 26 14 28 15 27 16 30 17 31 18 32 19 17 20 16 21 13 22 14 23
REMARK SMILES IDX 15 24 12 25 11 26 2 27 10 28 3 29 9 30 5 31 4 32 8 33 6 34
REMARK SMILES IDX 7 35 1 36
REMARK H PARENT 34 4 23 10
ROOT
ATOM      1  N   UNL     1      44.544 132.476  16.631  1.00  0.00    -0.080 N 
ATOM      2  N   UNL     1      43.363 132.400  17.230  1.00  0.00     0.095 NA
ATOM      3  N   UNL     1      42.826 133.607  17.309  1.00  0.00    -0.147 N 
ATOM      4  H   UNL     1      41.895 133.818  17.733  1.00  0.00     0.342 HD
ATOM      5  C   UNL     1      43.690 134.482  16.756  1.00  0.00     0.171 A 
ATOM      6  C   UNL     1      44.784 133.766  16.316  1.00  0.00     0.283 A 
ENDROOT
BRANCH   1   7
ATOM      7  C   UNL     1      45.393 131.350  16.362  1.00  0.00     0.289 C 
BRANCH   7   8
ATOM      8  N   UNL     1      45.738 130.561  17.336  1.00  0.00    -0.041 NA
BRANCH   8   9
ATOM      9  O   UNL     1      46.550 129.465  17.139  1.00  0.00    -0.407 OA
ATOM     10  H   UNL     1      47.530 129.512  17.387  1.00  0.00     0.330 HD
ENDBRANCH   8   9
ENDBRANCH   7   8
BRANCH   7  11
ATOM     11  C   UNL     1      45.880 131.109  14.982  1.00  0.00     0.057 A 
ATOM     12  C   UNL     1      47.246 131.264  14.697  1.00  0.00     0.015 A 
ATOM     13  C   UNL     1      44.982 130.764  13.949  1.00  0.00     0.051 A 
ATOM     14  C   UNL     1      47.720 131.076  13.396  1.00  0.00     0.001 A 
ATOM     15  C   UNL     1      45.476 130.570  12.643  1.00  0.00     0.011 A 
ATOM     16  C   UNL     1      46.838 130.730  12.373  1.00  0.00     0.001 A 
BRANCH  13  17
ATOM     17  N   UNL     1      43.589 130.590  14.249  1.00  0.00    -0.060 NA
BRANCH  17  18
ATOM     18  N   UNL     1      42.761 131.491  14.102  1.00  0.00     0.005 N 
ATOM     19  N   UNL     1      41.935 132.392  13.955  1.00  0.00    -0.003 NA
ENDBRANCH  17  18
ENDBRANCH  13  17
ENDBRANCH   7  11
ENDBRANCH   1   7
BRANCH   5  20
ATOM     20  C   UNL     1      43.456 135.954  16.606  1.00  0.00     0.147 C 
BRANCH  20  21
ATOM     21  C   UNL     1      42.821 136.532  17.896  1.00  0.00     0.272 C 
BRANCH  21  22
ATOM     22  N   UNL     1      43.697 137.443  18.706  1.00  0.00    -0.324 N 
ATOM     23  C   UNL     1      43.212 138.825  18.462  1.00  0.00     0.334 C 
ATOM     24  C   UNL     1      45.096 137.373  18.211  1.00  0.00     0.334 C 
BRANCH  22  25
ATOM     25  C   UNL     1      43.586 137.115  20.170  1.00  0.00     0.301 C 
BRANCH  25  26
ATOM     26  C   UNL     1      42.710 135.890  20.515  1.00  0.00     0.017 A 
ATOM     27  C   UNL     1      41.307 136.045  20.747  1.00  0.00    -0.042 A 
ATOM     28  C   UNL     1      43.269 134.571  20.614  1.00  0.00    -0.009 A 
ATOM     29  C   UNL     1      40.563 134.976  21.267  1.00  0.00     0.004 A 
ATOM     30  C   UNL     1      44.584 134.256  20.187  1.00  0.00     0.009 A 
ATOM     31  C   UNL     1      42.476 133.511  21.136  1.00  0.00    -0.018 A 
ATOM     32  C   UNL     1      41.145 133.737  21.486  1.00  0.00     0.009 A 
ATOM     33  C   UNL     1      45.105 132.969  20.344  1.00  0.00     0.001 A 
ATOM     34  C   UNL     1      43.017 132.221  21.288  1.00  0.00     0.009 A 
ATOM     35  C   UNL     1      44.328 131.958  20.901  1.00  0.00     0.001 A 
ATOM     36  C   UNL     1      40.552 137.317  20.429  1.00  0.00     0.045 C 
ENDBRANCH  25  26
ENDBRANCH  22  25
ENDBRANCH  21  22
ENDBRANCH  20  21
ENDBRANCH   5  20
TORSDOF 11
ENDMDL
MODEL 4
REMARK VINA RESULT:      -6.6      2.857      5.403
REMARK SMILES Cc1ccc2ccccc2c1C[N+](C)(C)CCc1cn(/C(=N/O)c2ccccc2N=[N+]=[N-])n[nH+]1
REMARK SMILES IDX 20 1 33 2 34 3 18 5 19 6 21 7 22 8 23 9 24 11 25 12 29 13
REMARK SMILES IDX 26 14 28 15 27 16 30 17 31 18 32 19 17 20 16 21 13 22 14 23
REMARK SMILES IDX 15 24 12 25 11 26 2 27 10 28 3 29 9 30 5 31 4 32 8 33 6 34
REMARK SMILES IDX 7 35 1 36
REMARK H PARENT 34 4 23 10
ROOT
ATOM      1  N   UNL     1      45.015 132.180  17.434  1.00  0.00    -0.080 N 
ATOM      2  N   UNL     1      45.699 131.044  17.455  1.00  0.00     0.095 NA
ATOM      3  N   UNL     1      45.646 130.514  18.666  1.00  0.00    -0.147 N 
ATOM      4  H   UNL     1      46.101 129.616  18.943  1.00  0.00     0.342 HD
ATOM      5  C   UNL     1      44.918 131.338  19.446  1.00  0.00     0.171 A 
ATOM      6  C   UNL     1      44.507 132.398  18.665  1.00  0.00     0.283 A 
ENDROOT
BRANCH   1   7
ATOM      7  C   UNL     1      44.847 133.007  16.273  1.00  0.00     0.289 C 
BRANCH   7   8
ATOM      8  N   UNL     1      45.418 132.666  15.156  1.00  0.00    -0.041 NA
BRANCH   8   9
ATOM      9  O   UNL     1      45.044 131.540  14.455  1.00  0.00    -0.407 OA
ATOM     10  H   UNL     1      45.254 130.622  14.827  1.00  0.00     0.330 HD
ENDBRANCH   8   9
ENDBRANCH   7   8
BRANCH   7  11
ATOM     11  C   UNL     1      44.039 134.248  16.364  1.00  0.00     0.057 A 
ATOM     12  C   UNL     1      44.450 135.276  17.227  1.00  0.00     0.015 A 
ATOM     13  C   UNL     1      42.846 134.389  15.623  1.00  0.00     0.051 A 
ATOM     14  C   UNL     1      43.685 136.438  17.353  1.00  0.00     0.001 A 
ATOM     15  C   UNL     1      42.088 135.570  15.755  1.00  0.00     0.011 A 
ATOM     16  C   UNL     1      42.508 136.584  16.620  1.00  0.00     0.001 A 
BRANCH  13  17
ATOM     17  N   UNL     1      42.438 133.341  14.729  1.00  0.00    -0.060 NA
BRANCH  17  18
ATOM     18  N   UNL     1      41.271 133.203  14.358  1.00  0.00     0.005 N 
ATOM     19  N   UNL     1      40.105 133.064  13.988  1.00  0.00    -0.003 NA
ENDBRANCH  17  18
ENDBRANCH  13  17
ENDBRANCH   7  11
ENDBRANCH   1   7
BRANCH   5  20
ATOM     20  C   UNL     1      44.581 131.094  20.886  1.00  0.00     0.147 C 
BRANCH  20  21
ATOM     21  C   UNL     1      43.201 131.710  21.227  1.00  0.00     0.272 C 
BRANCH  21  22
ATOM     22  N   UNL     1      43.230 133.048  21.908  1.00  0.00    -0.324 N 
ATOM     23  C   UNL     1      44.326 132.991  22.907  1.00  0.00     0.334 C 
ATOM     24  C   UNL     1      41.964 133.264  22.653  1.00  0.00     0.334 C 
BRANCH  22  25
ATOM     25  C   UNL     1      43.506 134.140  20.910  1.00  0.00     0.301 C 
BRANCH  25  26
ATOM     26  C   UNL     1      42.302 135.038  20.553  1.00  0.00     0.017 A 
ATOM     27  C   UNL     1      42.163 136.333  21.146  1.00  0.00    -0.042 A 
ATOM     28  C   UNL     1      41.293 134.609  19.626  1.00  0.00    -0.009 A 
ATOM     29  C   UNL     1      40.967 137.050  20.986  1.00  0.00     0.004 A 
ATOM     30  C   UNL     1      41.435 133.459  18.808  1.00  0.00     0.009 A 
ATOM     31  C   UNL     1      40.100 135.372  19.484  1.00  0.00    -0.018 A 
ATOM     32  C   UNL     1      39.941 136.563  20.192  1.00  0.00     0.009 A 
ATOM     33  C   UNL     1      40.410 133.051  17.951  1.00  0.00     0.001 A 
ATOM     34  C   UNL     1      39.077 134.945  18.619  1.00  0.00     0.009 A 
ATOM     35  C   UNL     1      39.231 133.785  17.865  1.00  0.00     0.001 A 
ATOM     36  C   UNL     1      43.268 137.005  21.931  1.00  0.00     0.045 C 
ENDBRANCH  25  26
ENDBRANCH  22  25
ENDBRANCH  21  22
ENDBRANCH  20  21
ENDBRANCH   5  20
TORSDOF 11
ENDMDL
MODEL 5
REMARK VINA RESULT:      -6.5      4.703      8.691
REMARK SMILES Cc1ccc2ccccc2c1C[N+](C)(C)CCc1cn(/C(=N/O)c2ccccc2N=[N+]=[N-])n[nH+]1
REMARK SMILES IDX 20 1 33 2 34 3 18 5 19 6 21 7 22 8 23 9 24 11 25 12 29 13
REMARK SMILES IDX 26 14 28 15 27 16 30 17 31 18 32 19 17 20 16 21 13 22 14 23
REMARK SMILES IDX 15 24 12 25 11 26 2 27 10 28 3 29 9 30 5 31 4 32 8 33 6 34
REMARK SMILES IDX 7 35 1 36
REMARK H PARENT 34 4 23 10
ROOT
ATOM      1  N   UNL     1      44.321 134.818  21.117  1.00  0.00    -0.080 N 
ATOM      2  N   UNL     1      43.026 134.938  21.373  1.00  0.00     0.095 NA
ATOM      3  N   UNL     1      42.390 135.329  20.280  1.00  0.00    -0.147 N 
ATOM      4  H   UNL     1      41.361 135.492  20.216  1.00  0.00     0.342 HD
ATOM      5  C   UNL     1      43.305 135.475  19.300  1.00  0.00     0.171 A 
ATOM      6  C   UNL     1      44.536 135.144  19.825  1.00  0.00     0.283 A 
ENDROOT
BRANCH   1   7
ATOM      7  C   UNL     1      45.304 134.393  22.074  1.00  0.00     0.289 C 
BRANCH   7   8
ATOM      8  N   UNL     1      45.179 133.232  22.645  1.00  0.00    -0.041 NA
BRANCH   8   9
ATOM      9  O   UNL     1      44.167 132.357  22.314  1.00  0.00    -0.407 OA
ATOM     10  H   UNL     1      43.210 132.683  22.278  1.00  0.00     0.330 HD
ENDBRANCH   8   9
ENDBRANCH   7   8
BRANCH   7  11
ATOM     11  C   UNL     1      46.437 135.287  22.412  1.00  0.00     0.057 A 
ATOM     12  C   UNL     1      47.727 134.965  21.961  1.00  0.00     0.015 A 
ATOM     13  C   UNL     1      46.240 136.433  23.213  1.00  0.00     0.051 A 
ATOM     14  C   UNL     1      48.814 135.775  22.298  1.00  0.00     0.001 A 
ATOM     15  C   UNL     1      47.344 137.245  23.538  1.00  0.00     0.011 A 
ATOM     16  C   UNL     1      48.623 136.911  23.084  1.00  0.00     0.001 A 
BRANCH  13  17
ATOM     17  N   UNL     1      44.916 136.766  23.659  1.00  0.00    -0.060 NA
BRANCH  17  18
ATOM     18  N   UNL     1      44.636 137.865  24.142  1.00  0.00     0.005 N 
ATOM     19  N   UNL     1      44.356 138.962  24.625  1.00  0.00    -0.003 NA
ENDBRANCH  17  18
ENDBRANCH  13  17
ENDBRANCH   7  11
ENDBRANCH   1   7
BRANCH   5  20
ATOM     20  C   UNL     1      43.003 135.869  17.886  1.00  0.00     0.147 C 
BRANCH  20  21
ATOM     21  C   UNL     1      42.055 134.835  17.229  1.00  0.00     0.272 C 
BRANCH  21  22
ATOM     22  N   UNL     1      42.618 134.079  16.060  1.00  0.00    -0.324 N 
ATOM     23  C   UNL     1      44.076 134.359  16.037  1.00  0.00     0.334 C 
ATOM     24  C   UNL     1      42.048 134.605  14.794  1.00  0.00     0.334 C 
BRANCH  22  25
ATOM     25  C   UNL     1      42.386 132.602  16.228  1.00  0.00     0.301 C 
BRANCH  25  26
ATOM     26  C   UNL     1      43.615 131.779  16.674  1.00  0.00     0.017 A 
ATOM     27  C   UNL     1      43.882 131.572  18.064  1.00  0.00    -0.042 A 
ATOM     28  C   UNL     1      44.520 131.203  15.720  1.00  0.00    -0.009 A 
ATOM     29  C   UNL     1      45.105 131.014  18.466  1.00  0.00     0.004 A 
ATOM     30  C   UNL     1      44.243 131.144  14.331  1.00  0.00     0.009 A 
ATOM     31  C   UNL     1      45.746 130.636  16.170  1.00  0.00    -0.018 A 
ATOM     32  C   UNL     1      46.035 130.580  17.533  1.00  0.00     0.009 A 
ATOM     33  C   UNL     1      45.171 130.615  13.431  1.00  0.00     0.001 A 
ATOM     34  C   UNL     1      46.671 130.110  15.249  1.00  0.00     0.009 A 
ATOM     35  C   UNL     1      46.385 130.110  13.887  1.00  0.00     0.001 A 
ATOM     36  C   UNL     1      42.886 131.899  19.155  1.00  0.00     0.045 C 
ENDBRANCH  25  26
ENDBRANCH  22  25
ENDBRANCH  21  22
ENDBRANCH  20  21
ENDBRANCH   5  20
TORSDOF 11
ENDMDL
MODEL 6
REMARK VINA RESULT:      -6.3      3.965      7.883
REMARK SMILES Cc1ccc2ccccc2c1C[N+](C)(C)CCc1cn(/C(=N/O)c2ccccc2N=[N+]=[N-])n[nH+]1
REMARK SMILES IDX 20 1 33 2 34 3 18 5 19 6 21 7 22 8 23 9 24 11 25 12 29 13
REMARK SMILES IDX 26 14 28 15 27 16 30 17 31 18 32 19 17 20 16 21 13 22 14 23
REMARK SMILES IDX 15 24 12 25 11 26 2 27 10 28 3 29 9 30 5 31 4 32 8 33 6 34
REMARK SMILES IDX 7 35 1 36
REMARK H PARENT 34 4 23 10
ROOT
ATOM      1  N   UNL     1      42.250 135.817  19.751  1.00  0.00    -0.080 N 
ATOM      2  N   UNL     1      40.965 136.024  19.501  1.00  0.00     0.095 NA
ATOM      3  N   UNL     1      40.778 136.145  18.196  1.00  0.00    -0.147 N 
ATOM      4  H   UNL     1      39.854 136.309  17.740  1.00  0.00     0.342 HD
ATOM      5  C   UNL     1      41.978 136.023  17.594  1.00  0.00     0.171 A 
ATOM      6  C   UNL     1      42.919 135.806  18.579  1.00  0.00     0.283 A 
ENDROOT
BRANCH   1   7
ATOM      7  C   UNL     1      42.803 135.621  21.062  1.00  0.00     0.289 C 
BRANCH   7   8
ATOM      8  N   UNL     1      42.232 136.180  22.087  1.00  0.00    -0.041 NA
BRANCH   8   9
ATOM      9  O   UNL     1      41.520 137.356  21.978  1.00  0.00    -0.407 OA
ATOM     10  H   UNL     1      40.991 137.700  22.769  1.00  0.00     0.330 HD
ENDBRANCH   8   9
ENDBRANCH   7   8
BRANCH   7  11
ATOM     11  C   UNL     1      44.026 134.800  21.229  1.00  0.00     0.057 A 
ATOM     12  C   UNL     1      43.908 133.409  21.372  1.00  0.00     0.015 A 
ATOM     13  C   UNL     1      45.300 135.406  21.285  1.00  0.00     0.051 A 
ATOM     14  C   UNL     1      45.046 132.622  21.566  1.00  0.00     0.001 A 
ATOM     15  C   UNL     1      46.439 134.598  21.474  1.00  0.00     0.011 A 
ATOM     16  C   UNL     1      46.307 133.215  21.617  1.00  0.00     0.001 A 
BRANCH  13  17
ATOM     17  N   UNL     1      45.417 136.828  21.123  1.00  0.00    -0.060 NA
BRANCH  17  18
ATOM     18  N   UNL     1      45.919 137.342  20.122  1.00  0.00     0.005 N 
ATOM     19  N   UNL     1      46.421 137.855  19.122  1.00  0.00    -0.003 NA
ENDBRANCH  17  18
ENDBRANCH  13  17
ENDBRANCH   7  11
ENDBRANCH   1   7
BRANCH   5  20
ATOM     20  C   UNL     1      42.213 136.060  16.115  1.00  0.00     0.147 C 
BRANCH  20  21
ATOM     21  C   UNL     1      42.623 134.658  15.599  1.00  0.00     0.272 C 
BRANCH  21  22
ATOM     22  N   UNL     1      41.581 133.918  14.812  1.00  0.00    -0.324 N 
ATOM     23  C   UNL     1      41.771 134.304  13.391  1.00  0.00     0.334 C 
ATOM     24  C   UNL     1      40.225 134.371  15.214  1.00  0.00     0.334 C 
BRANCH  22  25
ATOM     25  C   UNL     1      41.762 132.432  14.964  1.00  0.00     0.301 C 
BRANCH  25  26
ATOM     26  C   UNL     1      42.940 131.992  15.862  1.00  0.00     0.017 A 
ATOM     27  C   UNL     1      42.845 132.096  17.285  1.00  0.00    -0.042 A 
ATOM     28  C   UNL     1      44.156 131.471  15.303  1.00  0.00    -0.009 A 
ATOM     29  C   UNL     1      43.985 131.900  18.078  1.00  0.00     0.004 A 
ATOM     30  C   UNL     1      44.285 131.109  13.938  1.00  0.00     0.009 A 
ATOM     31  C   UNL     1      45.287 131.275  16.144  1.00  0.00    -0.018 A 
ATOM     32  C   UNL     1      45.195 131.525  17.513  1.00  0.00     0.009 A 
ATOM     33  C   UNL     1      45.501 130.648  13.425  1.00  0.00     0.001 A 
ATOM     34  C   UNL     1      46.504 130.813  15.611  1.00  0.00     0.009 A 
ATOM     35  C   UNL     1      46.608 130.510  14.256  1.00  0.00     0.001 A 
ATOM     36  C   UNL     1      41.546 132.382  18.008  1.00  0.00     0.045 C 
ENDBRANCH  25  26
ENDBRANCH  22  25
ENDBRANCH  21  22
ENDBRANCH  20  21
ENDBRANCH   5  20
TORSDOF 11
ENDMDL
MODEL 7
REMARK VINA RESULT:      -6.3      3.261      7.643
REMARK SMILES Cc1ccc2ccccc2c1C[N+](C)(C)CCc1cn(/C(=N/O)c2ccccc2N=[N+]=[N-])n[nH+]1
REMARK SMILES IDX 20 1 33 2 34 3 18 5 19 6 21 7 22 8 23 9 24 11 25 12 29 13
REMARK SMILES IDX 26 14 28 15 27 16 30 17 31 18 32 19 17 20 16 21 13 22 14 23
REMARK SMILES IDX 15 24 12 25 11 26 2 27 10 28 3 29 9 30 5 31 4 32 8 33 6 34
REMARK SMILES IDX 7 35 1 36
REMARK H PARENT 34 4 23 10
ROOT
ATOM      1  N   UNL     1      40.357 134.665  15.942  1.00  0.00    -0.080 N 
ATOM      2  N   UNL     1      39.752 135.440  16.831  1.00  0.00     0.095 NA
ATOM      3  N   UNL     1      39.694 134.818  17.998  1.00  0.00    -0.147 N 
ATOM      4  H   UNL     1      39.269 135.216  18.864  1.00  0.00     0.342 HD
ATOM      5  C   UNL     1      40.266 133.606  17.850  1.00  0.00     0.171 A 
ATOM      6  C   UNL     1      40.697 133.505  16.543  1.00  0.00     0.283 A 
ENDROOT
BRANCH   1   7
ATOM      7  C   UNL     1      40.610 135.034  14.578  1.00  0.00     0.289 C 
BRANCH   7   8
ATOM      8  N   UNL     1      41.323 134.251  13.825  1.00  0.00    -0.041 NA
BRANCH   8   9
ATOM      9  O   UNL     1      41.089 132.895  13.749  1.00  0.00    -0.407 OA
ATOM     10  H   UNL     1      41.473 132.359  12.981  1.00  0.00     0.330 HD
ENDBRANCH   8   9
ENDBRANCH   7   8
BRANCH   7  11
ATOM     11  C   UNL     1      40.071 136.311  14.049  1.00  0.00     0.057 A 
ATOM     12  C   UNL     1      38.911 136.295  13.259  1.00  0.00     0.015 A 
ATOM     13  C   UNL     1      40.731 137.533  14.301  1.00  0.00     0.051 A 
ATOM     14  C   UNL     1      38.407 137.482  12.722  1.00  0.00     0.001 A 
ATOM     15  C   UNL     1      40.207 138.724  13.759  1.00  0.00     0.011 A 
ATOM     16  C   UNL     1      39.053 138.692  12.972  1.00  0.00     0.001 A 
BRANCH  13  17
ATOM     17  N   UNL     1      41.909 137.546  15.123  1.00  0.00    -0.060 NA
BRANCH  17  18
ATOM     18  N   UNL     1      42.374 138.584  15.598  1.00  0.00     0.005 N 
ATOM     19  N   UNL     1      42.838 139.620  16.073  1.00  0.00    -0.003 NA
ENDBRANCH  17  18
ENDBRANCH  13  17
ENDBRANCH   7  11
ENDBRANCH   1   7
BRANCH   5  20
ATOM     20  C   UNL     1      40.442 132.592  18.939  1.00  0.00     0.147 C 
BRANCH  20  21
ATOM     21  C   UNL     1      41.928 132.167  19.043  1.00  0.00     0.272 C 
BRANCH  21  22
ATOM     22  N   UNL     1      42.631 132.547  20.314  1.00  0.00    -0.324 N 
ATOM     23  C   UNL     1      42.744 131.307  21.122  1.00  0.00     0.334 C 
ATOM     24  C   UNL     1      41.798 133.503  21.088  1.00  0.00     0.334 C 
BRANCH  22  25
ATOM     25  C   UNL     1      44.003 133.087  20.016  1.00  0.00     0.301 C 
BRANCH  25  26
ATOM     26  C   UNL     1      44.264 133.470  18.542  1.00  0.00     0.017 A 
ATOM     27  C   UNL     1      43.966 134.788  18.072  1.00  0.00    -0.042 A 
ATOM     28  C   UNL     1      44.806 132.527  17.606  1.00  0.00    -0.009 A 
ATOM     29  C   UNL     1      44.001 135.064  16.697  1.00  0.00     0.004 A 
ATOM     30  C   UNL     1      45.351 131.277  17.997  1.00  0.00     0.009 A 
ATOM     31  C   UNL     1      44.835 132.850  16.220  1.00  0.00    -0.018 A 
ATOM     32  C   UNL     1      44.400 134.101  15.783  1.00  0.00     0.009 A 
ATOM     33  C   UNL     1      45.827 130.368  17.049  1.00  0.00     0.001 A 
ATOM     34  C   UNL     1      45.317 131.923  15.279  1.00  0.00     0.009 A 
ATOM     35  C   UNL     1      45.801 130.686  15.694  1.00  0.00     0.001 A 
ATOM     36  C   UNL     1      43.636 135.940  18.996  1.00  0.00     0.045 C 
ENDBRANCH  25  26
ENDBRANCH  22  25
ENDBRANCH  21  22
ENDBRANCH  20  21
ENDBRANCH   5  20
TORSDOF 11
ENDMDL
MODEL 8
REMARK VINA RESULT:      -6.3      3.529      7.557
REMARK SMILES Cc1ccc2ccccc2c1C[N+](C)(C)CCc1cn(/C(=N/O)c2ccccc2N=[N+]=[N-])n[nH+]1
REMARK SMILES IDX 20 1 33 2 34 3 18 5 19 6 21 7 22 8 23 9 24 11 25 12 29 13
REMARK SMILES IDX 26 14 28 15 27 16 30 17 31 18 32 19 17 20 16 21 13 22 14 23
REMARK SMILES IDX 15 24 12 25 11 26 2 27 10 28 3 29 9 30 5 31 4 32 8 33 6 34
REMARK SMILES IDX 7 35 1 36
REMARK H PARENT 34 4 23 10
ROOT
ATOM      1  N   UNL     1      41.712 134.905  15.807  1.00  0.00    -0.080 N 
ATOM      2  N   UNL     1      42.874 134.948  15.171  1.00  0.00     0.095 NA
ATOM      3  N   UNL     1      43.703 135.757  15.812  1.00  0.00    -0.147 N 
ATOM      4  H   UNL     1      44.684 135.959  15.518  1.00  0.00     0.342 HD
ATOM      5  C   UNL     1      43.050 136.256  16.881  1.00  0.00     0.171 A 
ATOM      6  C   UNL     1      41.782 135.711  16.887  1.00  0.00     0.283 A 
ENDROOT
BRANCH   1   7
ATOM      7  C   UNL     1      40.589 134.109  15.398  1.00  0.00     0.289 C 
BRANCH   7   8
ATOM      8  N   UNL     1      40.760 133.166  14.520  1.00  0.00    -0.041 NA
BRANCH   8   9
ATOM      9  O   UNL     1      41.390 133.392  13.314  1.00  0.00    -0.407 OA
ATOM     10  H   UNL     1      42.385 133.578  13.292  1.00  0.00     0.330 HD
ENDBRANCH   8   9
ENDBRANCH   7   8
BRANCH   7  11
ATOM     11  C   UNL     1      39.247 134.382  15.966  1.00  0.00     0.057 A 
ATOM     12  C   UNL     1      38.895 133.820  17.203  1.00  0.00     0.015 A 
ATOM     13  C   UNL     1      38.309 135.167  15.259  1.00  0.00     0.051 A 
ATOM     14  C   UNL     1      37.623 134.036  17.739  1.00  0.00     0.001 A 
ATOM     15  C   UNL     1      37.033 135.382  15.816  1.00  0.00     0.011 A 
ATOM     16  C   UNL     1      36.695 134.815  17.048  1.00  0.00     0.001 A 
BRANCH  13  17
ATOM     17  N   UNL     1      38.680 135.752  14.001  1.00  0.00    -0.060 NA
BRANCH  17  18
ATOM     18  N   UNL     1      38.176 135.402  12.933  1.00  0.00     0.005 N 
ATOM     19  N   UNL     1      37.673 135.052  11.866  1.00  0.00    -0.003 NA
ENDBRANCH  17  18
ENDBRANCH  13  17
ENDBRANCH   7  11
ENDBRANCH   1   7
BRANCH   5  20
ATOM     20  C   UNL     1      43.637 137.187  17.897  1.00  0.00     0.147 C 
BRANCH  20  21
ATOM     21  C   UNL     1      44.761 136.477  18.692  1.00  0.00     0.272 C 
BRANCH  21  22
ATOM     22  N   UNL     1      44.446 136.147  20.122  1.00  0.00    -0.324 N 
ATOM     23  C   UNL     1      43.871 137.377  20.724  1.00  0.00     0.334 C 
ATOM     24  C   UNL     1      45.699 135.840  20.859  1.00  0.00     0.334 C 
BRANCH  22  25
ATOM     25  C   UNL     1      43.443 135.027  20.196  1.00  0.00     0.301 C 
BRANCH  25  26
ATOM     26  C   UNL     1      44.024 133.631  20.512  1.00  0.00     0.017 A 
ATOM     27  C   UNL     1      44.147 133.187  21.866  1.00  0.00    -0.042 A 
ATOM     28  C   UNL     1      44.455 132.744  19.469  1.00  0.00    -0.009 A 
ATOM     29  C   UNL     1      44.867 132.019  22.156  1.00  0.00     0.004 A 
ATOM     30  C   UNL     1      44.177 132.971  18.097  1.00  0.00     0.009 A 
ATOM     31  C   UNL     1      45.173 131.561  19.806  1.00  0.00    -0.018 A 
ATOM     32  C   UNL     1      45.397 131.234  21.143  1.00  0.00     0.009 A 
ATOM     33  C   UNL     1      44.654 132.105  17.110  1.00  0.00     0.001 A 
ATOM     34  C   UNL     1      45.648 130.702  18.799  1.00  0.00     0.009 A 
ATOM     35  C   UNL     1      45.395 130.981  17.459  1.00  0.00     0.001 A 
ATOM     36  C   UNL     1      43.504 133.906  23.033  1.00  0.00     0.045 C 
ENDBRANCH  25  26
ENDBRANCH  22  25
ENDBRANCH  21  22
ENDBRANCH  20  21
ENDBRANCH   5  20
TORSDOF 11
ENDMDL
MODEL 9
REMARK VINA RESULT:      -6.2      3.446      5.349
REMARK SMILES Cc1ccc2ccccc2c1C[N+](C)(C)CCc1cn(/C(=N/O)c2ccccc2N=[N+]=[N-])n[nH+]1
REMARK SMILES IDX 20 1 33 2 34 3 18 5 19 6 21 7 22 8 23 9 24 11 25 12 29 13
REMARK SMILES IDX 26 14 28 15 27 16 30 17 31 18 32 19 17 20 16 21 13 22 14 23
REMARK SMILES IDX 15 24 12 25 11 26 2 27 10 28 3 29 9 30 5 31 4 32 8 33 6 34
REMARK SMILES IDX 7 35 1 36
REMARK H PARENT 34 4 23 10
ROOT
ATOM      1  N   UNL     1      42.698 133.729  15.457  1.00  0.00    -0.080 N 
ATOM      2  N   UNL     1      42.292 133.019  14.414  1.00  0.00     0.095 NA
ATOM      3  N   UNL     1      40.996 133.209  14.223  1.00  0.00    -0.147 N 
ATOM      4  H   UNL     1      40.435 132.765  13.462  1.00  0.00     0.342 HD
ATOM      5  C   UNL     1      40.557 134.054  15.177  1.00  0.00     0.171 A 
ATOM      6  C   UNL     1      41.638 134.395  15.962  1.00  0.00     0.283 A 
ENDROOT
BRANCH   1   7
ATOM      7  C   UNL     1      44.051 133.775  15.933  1.00  0.00     0.289 C 
BRANCH   7   8
ATOM      8  N   UNL     1      44.774 134.831  15.706  1.00  0.00    -0.041 NA
BRANCH   8   9
ATOM      9  O   UNL     1      44.254 136.105  15.784  1.00  0.00    -0.407 OA
ATOM     10  H   UNL     1      43.541 136.318  16.469  1.00  0.00     0.330 HD
ENDBRANCH   8   9
ENDBRANCH   7   8
BRANCH   7  11
ATOM     11  C   UNL     1      44.615 132.612  16.661  1.00  0.00     0.057 A 
ATOM     12  C   UNL     1      44.342 132.458  18.029  1.00  0.00     0.015 A 
ATOM     13  C   UNL     1      45.452 131.684  16.004  1.00  0.00     0.051 A 
ATOM     14  C   UNL     1      44.892 131.389  18.741  1.00  0.00     0.001 A 
ATOM     15  C   UNL     1      45.993 130.607  16.733  1.00  0.00     0.011 A 
ATOM     16  C   UNL     1      45.714 130.467  18.095  1.00  0.00     0.001 A 
BRANCH  13  17
ATOM     17  N   UNL     1      45.715 131.838  14.600  1.00  0.00    -0.060 NA
BRANCH  17  18
ATOM     18  N   UNL     1      46.189 130.932  13.912  1.00  0.00     0.005 N 
ATOM     19  N   UNL     1      46.663 130.028  13.224  1.00  0.00    -0.003 NA
ENDBRANCH  17  18
ENDBRANCH  13  17
ENDBRANCH   7  11
ENDBRANCH   1   7
BRANCH   5  20
ATOM     20  C   UNL     1      39.153 134.563  15.304  1.00  0.00     0.147 C 
BRANCH  20  21
ATOM     21  C   UNL     1      39.135 136.111  15.253  1.00  0.00     0.272 C 
BRANCH  21  22
ATOM     22  N   UNL     1      37.962 136.776  15.913  1.00  0.00    -0.324 N 
ATOM     23  C   UNL     1      37.776 136.103  17.223  1.00  0.00     0.334 C 
ATOM     24  C   UNL     1      36.731 136.537  15.116  1.00  0.00     0.334 C 
BRANCH  22  25
ATOM     25  C   UNL     1      38.237 138.240  16.126  1.00  0.00     0.301 C 
BRANCH  25  26
ATOM     26  C   UNL     1      39.671 138.705  15.790  1.00  0.00     0.017 A 
ATOM     27  C   UNL     1      40.010 139.102  14.458  1.00  0.00    -0.042 A 
ATOM     28  C   UNL     1      40.698 138.755  16.791  1.00  0.00    -0.009 A 
ATOM     29  C   UNL     1      41.353 139.315  14.113  1.00  0.00     0.004 A 
ATOM     30  C   UNL     1      40.434 138.609  18.177  1.00  0.00     0.009 A 
ATOM     31  C   UNL     1      42.048 138.986  16.401  1.00  0.00    -0.018 A 
ATOM     32  C   UNL     1      42.359 139.229  15.064  1.00  0.00     0.009 A 
ATOM     33  C   UNL     1      41.470 138.618  19.115  1.00  0.00     0.001 A 
ATOM     34  C   UNL     1      43.078 138.990  17.358  1.00  0.00     0.009 A 
ATOM     35  C   UNL     1      42.788 138.798  18.706  1.00  0.00     0.001 A 
ATOM     36  C   UNL     1      38.978 139.339  13.378  1.00  0.00     0.045 C 
ENDBRANCH  25  26
ENDBRANCH  22  25
ENDBRANCH  21  22
ENDBRANCH  20  21
ENDBRANCH   5  20
TORSDOF 11
ENDMDL


