MODEL 1
REMARK VINA RESULT:      -6.7      0.000      0.000
REMARK SMILES [N-]=[N+]=Nc1ccc2c3c(cc(/C(O)=N/[NH+]=[N-])c(OC(=O)[C@]4(N)C[C@H](CO)C4)c13)C=C2
REMARK SMILES IDX 18 1 17 2 11 3 10 4 9 5 28 6 8 7 29 8 4 9 7 10 30 11 5 12
REMARK SMILES IDX 6 13 12 14 13 15 14 17 15 18 16 20 3 21 2 22 1 23 19 24
REMARK SMILES IDX 20 25 21 26 27 27 23 28 24 29 22 30 25 33 26 34
REMARK H PARENT 13 16 15 19 22 31 22 32 26 35
ROOT
ATOM      1  O   UNL     1      42.343 133.295  17.192  1.00  0.00    -0.424 OA
ENDROOT
BRANCH   1   2
ATOM      2  C   UNL     1      43.058 132.551  16.247  1.00  0.00     0.150 A 
ATOM      3  C   UNL     1      42.683 132.625  14.863  1.00  0.00     0.062 A 
ATOM      4  C   UNL     1      43.417 131.897  13.890  1.00  0.00     0.024 A 
ATOM      5  C   UNL     1      44.488 131.119  14.313  1.00  0.00    -0.016 A 
ATOM      6  C   UNL     1      44.136 131.709  16.643  1.00  0.00     0.036 A 
ATOM      7  C   UNL     1      44.807 131.044  15.628  1.00  0.00     0.000 A 
ATOM      8  C   UNL     1      45.425 130.252  13.590  1.00  0.00     0.009 C 
ATOM      9  C   UNL     1      44.583 131.458  17.971  1.00  0.00     0.049 A 
ATOM     10  C   UNL     1      45.858 130.203  15.815  1.00  0.00    -0.017 A 
ATOM     11  C   UNL     1      46.249 129.702  14.494  1.00  0.00     0.009 C 
ATOM     12  C   UNL     1      45.691 130.581  18.179  1.00  0.00     0.011 A 
ATOM     13  C   UNL     1      46.336 129.948  17.095  1.00  0.00     0.009 A 
BRANCH   3  14
ATOM     14  C   UNL     1      41.537 133.454  14.416  1.00  0.00     0.172 C 
BRANCH  14  15
ATOM     15  O   UNL     1      40.362 132.847  13.965  1.00  0.00    -0.506 OA
ATOM     16  H   UNL     1      39.625 132.567  14.599  1.00  0.00     0.293 HD
ENDBRANCH  14  15
BRANCH  14  17
ATOM     17  N   UNL     1      41.628 134.750  14.435  1.00  0.00    -0.151 NA
BRANCH  17  18
ATOM     18  N   UNL     1      42.783 135.428  14.854  1.00  0.00    -0.169 N 
ATOM     19  H   UNL     1      43.687 134.924  15.001  1.00  0.00     0.475 HD
ATOM     20  N   UNL     1      42.737 136.679  15.055  1.00  0.00    -0.151 NA
ENDBRANCH  17  18
ENDBRANCH  14  17
ENDBRANCH   3  14
BRANCH   9  21
ATOM     21  N   UNL     1      43.902 132.051  19.085  1.00  0.00    -0.060 NA
BRANCH  21  22
ATOM     22  N   UNL     1      44.475 132.772  19.903  1.00  0.00     0.005 N 
ATOM     23  N   UNL     1      45.046 133.495  20.719  1.00  0.00    -0.003 NA
ENDBRANCH  21  22
ENDBRANCH   9  21
ENDBRANCH   1   2
BRANCH   1  24
ATOM     24  C   UNL     1      41.055 132.939  17.614  1.00  0.00     0.331 C 
ATOM     25  O   UNL     1      40.813 131.751  17.966  1.00  0.00    -0.250 OA
BRANCH  24  26
ATOM     26  C   UNL     1      39.937 133.963  17.622  1.00  0.00     0.116 C 
ATOM     27  C   UNL     1      40.432 135.413  17.662  1.00  0.00     0.040 C 
ATOM     28  C   UNL     1      39.236 134.164  18.975  1.00  0.00     0.040 C 
ATOM     29  C   UNL     1      39.718 135.616  19.001  1.00  0.00     0.019 C 
BRANCH  26  30
ATOM     30  N   UNL     1      38.962 133.750  16.546  1.00  0.00    -0.316 NA
ATOM     31  H   UNL     1      38.120 134.341  16.737  1.00  0.00     0.119 HD
ATOM     32  H   UNL     1      38.652 132.751  16.561  1.00  0.00     0.119 HD
ENDBRANCH  26  30
BRANCH  29  33
ATOM     33  C   UNL     1      40.643 135.970  20.178  1.00  0.00     0.159 C 
BRANCH  33  34
ATOM     34  O   UNL     1      40.181 137.096  20.873  1.00  0.00    -0.396 OA
ATOM     35  H   UNL     1      39.205 137.145  20.701  1.00  0.00     0.210 HD
ENDBRANCH  33  34
ENDBRANCH  29  33
ENDBRANCH  24  26
ENDBRANCH   1  24
TORSDOF 12
ENDMDL
MODEL 2
REMARK VINA RESULT:      -6.6      1.378      1.644
REMARK SMILES [N-]=[N+]=Nc1ccc2c3c(cc(/C(O)=N/[NH+]=[N-])c(OC(=O)[C@]4(N)C[C@H](CO)C4)c13)C=C2
REMARK SMILES IDX 18 1 17 2 11 3 10 4 9 5 28 6 8 7 29 8 4 9 7 10 30 11 5 12
REMARK SMILES IDX 6 13 12 14 13 15 14 17 15 18 16 20 3 21 2 22 1 23 19 24
REMARK SMILES IDX 20 25 21 26 27 27 23 28 24 29 22 30 25 33 26 34
REMARK H PARENT 13 16 15 19 22 31 22 32 26 35
ROOT
ATOM      1  O   UNL     1      41.692 133.727  17.390  1.00  0.00    -0.424 OA
ENDROOT
BRANCH   1   2
ATOM      2  C   UNL     1      42.695 132.928  16.829  1.00  0.00     0.150 A 
ATOM      3  C   UNL     1      42.777 132.799  15.401  1.00  0.00     0.062 A 
ATOM      4  C   UNL     1      43.806 132.015  14.818  1.00  0.00     0.024 A 
ATOM      5  C   UNL     1      44.713 131.380  15.658  1.00  0.00    -0.016 A 
ATOM      6  C   UNL     1      43.620 132.228  17.655  1.00  0.00     0.036 A 
ATOM      7  C   UNL     1      44.601 131.494  17.004  1.00  0.00     0.000 A 
ATOM      8  C   UNL     1      45.860 130.505  15.392  1.00  0.00     0.009 C 
ATOM      9  C   UNL     1      43.630 132.179  19.078  1.00  0.00     0.049 A 
ATOM     10  C   UNL     1      45.565 130.767  17.625  1.00  0.00    -0.017 A 
ATOM     11  C   UNL     1      46.373 130.137  16.576  1.00  0.00     0.009 C 
ATOM     12  C   UNL     1      44.644 131.422  19.742  1.00  0.00     0.011 A 
ATOM     13  C   UNL     1      45.621 130.711  19.012  1.00  0.00     0.009 A 
BRANCH   3  14
ATOM     14  C   UNL     1      41.805 133.476  14.507  1.00  0.00     0.172 C 
BRANCH  14  15
ATOM     15  O   UNL     1      40.696 132.780  14.018  1.00  0.00    -0.506 OA
ATOM     16  H   UNL     1      39.782 133.208  13.949  1.00  0.00     0.293 HD
ENDBRANCH  14  15
BRANCH  14  17
ATOM     17  N   UNL     1      41.989 134.717  14.170  1.00  0.00    -0.151 NA
BRANCH  17  18
ATOM     18  N   UNL     1      41.541 135.794  14.950  1.00  0.00    -0.169 N 
ATOM     19  H   UNL     1      41.929 135.975  15.903  1.00  0.00     0.475 HD
ATOM     20  N   UNL     1      40.650 136.572  14.491  1.00  0.00    -0.151 NA
ENDBRANCH  17  18
ENDBRANCH  14  17
ENDBRANCH   3  14
BRANCH   9  21
ATOM     21  N   UNL     1      42.611 132.852  19.829  1.00  0.00    -0.060 NA
BRANCH  21  22
ATOM     22  N   UNL     1      42.496 132.724  21.050  1.00  0.00     0.005 N 
ATOM     23  N   UNL     1      42.383 132.601  22.268  1.00  0.00    -0.003 NA
ENDBRANCH  21  22
ENDBRANCH   9  21
ENDBRANCH   1   2
BRANCH   1  24
ATOM     24  C   UNL     1      40.367 133.289  17.523  1.00  0.00     0.331 C 
ATOM     25  O   UNL     1      40.124 132.066  17.721  1.00  0.00    -0.250 OA
BRANCH  24  26
ATOM     26  C   UNL     1      39.218 134.270  17.399  1.00  0.00     0.116 C 
ATOM     27  C   UNL     1      39.401 135.540  18.238  1.00  0.00     0.040 C 
ATOM     28  C   UNL     1      37.960 133.917  18.209  1.00  0.00     0.040 C 
ATOM     29  C   UNL     1      38.137 135.196  19.030  1.00  0.00     0.019 C 
BRANCH  26  30
ATOM     30  N   UNL     1      38.882 134.581  16.006  1.00  0.00    -0.316 NA
ATOM     31  H   UNL     1      37.947 134.164  15.787  1.00  0.00     0.119 HD
ATOM     32  H   UNL     1      39.582 134.123  15.377  1.00  0.00     0.119 HD
ENDBRANCH  26  30
BRANCH  29  33
ATOM     33  C   UNL     1      38.361 134.972  20.535  1.00  0.00     0.159 C 
BRANCH  33  34
ATOM     34  O   UNL     1      37.548 135.815  21.306  1.00  0.00    -0.396 OA
ATOM     35  H   UNL     1      37.893 135.756  22.234  1.00  0.00     0.210 HD
ENDBRANCH  33  34
ENDBRANCH  29  33
ENDBRANCH  24  26
ENDBRANCH   1  24
TORSDOF 12
ENDMDL
MODEL 3
REMARK VINA RESULT:      -6.6      2.272      5.908
REMARK SMILES [N-]=[N+]=Nc1ccc2c3c(cc(/C(O)=N/[NH+]=[N-])c(OC(=O)[C@]4(N)C[C@H](CO)C4)c13)C=C2
REMARK SMILES IDX 18 1 17 2 11 3 10 4 9 5 28 6 8 7 29 8 4 9 7 10 30 11 5 12
REMARK SMILES IDX 6 13 12 14 13 15 14 17 15 18 16 20 3 21 2 22 1 23 19 24
REMARK SMILES IDX 20 25 21 26 27 27 23 28 24 29 22 30 25 33 26 34
REMARK H PARENT 13 16 15 19 22 31 22 32 26 35
ROOT
ATOM      1  O   UNL     1      43.590 131.828  16.461  1.00  0.00    -0.424 OA
ENDROOT
BRANCH   1   2
ATOM      2  C   UNL     1      42.631 132.648  17.067  1.00  0.00     0.150 A 
ATOM      3  C   UNL     1      41.752 133.431  16.243  1.00  0.00     0.062 A 
ATOM      4  C   UNL     1      40.757 134.245  16.844  1.00  0.00     0.024 A 
ATOM      5  C   UNL     1      40.664 134.266  18.230  1.00  0.00    -0.016 A 
ATOM      6  C   UNL     1      42.529 132.730  18.485  1.00  0.00     0.036 A 
ATOM      7  C   UNL     1      41.521 133.539  18.988  1.00  0.00     0.000 A 
ATOM      8  C   UNL     1      39.781 134.990  19.150  1.00  0.00     0.009 C 
ATOM      9  C   UNL     1      43.367 132.090  19.441  1.00  0.00     0.049 A 
ATOM     10  C   UNL     1      41.273 133.736  20.309  1.00  0.00    -0.017 A 
ATOM     11  C   UNL     1      40.147 134.671  20.401  1.00  0.00     0.009 C 
ATOM     12  C   UNL     1      43.111 132.286  20.833  1.00  0.00     0.011 A 
ATOM     13  C   UNL     1      42.056 133.114  21.273  1.00  0.00     0.009 A 
BRANCH   3  14
ATOM     14  C   UNL     1      41.856 133.409  14.763  1.00  0.00     0.172 C 
BRANCH  14  15
ATOM     15  O   UNL     1      41.628 132.224  14.059  1.00  0.00    -0.506 OA
ATOM     16  H   UNL     1      40.715 131.789  14.022  1.00  0.00     0.293 HD
ENDBRANCH  14  15
BRANCH  14  17
ATOM     17  N   UNL     1      42.169 134.494  14.120  1.00  0.00    -0.151 NA
BRANCH  17  18
ATOM     18  N   UNL     1      43.096 135.429  14.606  1.00  0.00    -0.169 N 
ATOM     19  H   UNL     1      44.104 135.183  14.729  1.00  0.00     0.475 HD
ATOM     20  N   UNL     1      42.709 136.601  14.897  1.00  0.00    -0.151 NA
ENDBRANCH  17  18
ENDBRANCH  14  17
ENDBRANCH   3  14
BRANCH   9  21
ATOM     21  N   UNL     1      44.476 131.291  19.008  1.00  0.00    -0.060 NA
BRANCH  21  22
ATOM     22  N   UNL     1      45.476 131.114  19.705  1.00  0.00     0.005 N 
ATOM     23  N   UNL     1      46.477 130.939  20.399  1.00  0.00    -0.003 NA
ENDBRANCH  21  22
ENDBRANCH   9  21
ENDBRANCH   1   2
BRANCH   1  24
ATOM     24  C   UNL     1      44.769 132.337  15.900  1.00  0.00     0.331 C 
ATOM     25  O   UNL     1      45.014 133.574  15.963  1.00  0.00    -0.250 OA
BRANCH  24  26
ATOM     26  C   UNL     1      45.741 131.417  15.188  1.00  0.00     0.116 C 
ATOM     27  C   UNL     1      45.057 130.344  14.332  1.00  0.00     0.040 C 
ATOM     28  C   UNL     1      46.371 130.320  16.061  1.00  0.00     0.040 C 
ATOM     29  C   UNL     1      45.701 129.253  15.191  1.00  0.00     0.019 C 
BRANCH  26  30
ATOM     30  N   UNL     1      46.765 132.146  14.431  1.00  0.00    -0.316 NA
ATOM     31  H   UNL     1      46.687 131.880  13.423  1.00  0.00     0.119 HD
ATOM     32  H   UNL     1      47.710 131.845  14.762  1.00  0.00     0.119 HD
ENDBRANCH  26  30
BRANCH  29  33
ATOM     33  C   UNL     1      44.705 128.347  15.934  1.00  0.00     0.159 C 
BRANCH  33  34
ATOM     34  O   UNL     1      45.017 126.991  15.760  1.00  0.00    -0.396 OA
ATOM     35  H   UNL     1      46.002 126.947  15.649  1.00  0.00     0.210 HD
ENDBRANCH  33  34
ENDBRANCH  29  33
ENDBRANCH  24  26
ENDBRANCH   1  24
TORSDOF 12
ENDMDL
MODEL 4
REMARK VINA RESULT:      -6.5      2.818      7.146
REMARK SMILES [N-]=[N+]=Nc1ccc2c3c(cc(/C(O)=N/[NH+]=[N-])c(OC(=O)[C@]4(N)C[C@H](CO)C4)c13)C=C2
REMARK SMILES IDX 18 1 17 2 11 3 10 4 9 5 28 6 8 7 29 8 4 9 7 10 30 11 5 12
REMARK SMILES IDX 6 13 12 14 13 15 14 17 15 18 16 20 3 21 2 22 1 23 19 24
REMARK SMILES IDX 20 25 21 26 27 27 23 28 24 29 22 30 25 33 26 34
REMARK H PARENT 13 16 15 19 22 31 22 32 26 35
ROOT
ATOM      1  O   UNL     1      43.446 133.033  16.224  1.00  0.00    -0.424 OA
ENDROOT
BRANCH   1   2
ATOM      2  C   UNL     1      43.541 134.147  17.067  1.00  0.00     0.150 A 
ATOM      3  C   UNL     1      43.842 133.954  18.457  1.00  0.00     0.062 A 
ATOM      4  C   UNL     1      43.969 135.076  19.317  1.00  0.00     0.024 A 
ATOM      5  C   UNL     1      43.789 136.346  18.782  1.00  0.00    -0.016 A 
ATOM      6  C   UNL     1      43.323 135.462  16.567  1.00  0.00     0.036 A 
ATOM      7  C   UNL     1      43.479 136.502  17.471  1.00  0.00     0.000 A 
ATOM      8  C   UNL     1      43.834 137.685  19.378  1.00  0.00     0.009 C 
ATOM      9  C   UNL     1      42.938 135.823  15.244  1.00  0.00     0.049 A 
ATOM     10  C   UNL     1      43.314 137.818  17.175  1.00  0.00    -0.017 A 
ATOM     11  C   UNL     1      43.549 138.571  18.411  1.00  0.00     0.009 C 
ATOM     12  C   UNL     1      42.768 137.204  14.921  1.00  0.00     0.011 A 
ATOM     13  C   UNL     1      42.958 138.211  15.891  1.00  0.00     0.009 A 
BRANCH   3  14
ATOM     14  C   UNL     1      44.031 132.597  19.026  1.00  0.00     0.172 C 
BRANCH  14  15
ATOM     15  O   UNL     1      43.199 131.546  18.632  1.00  0.00    -0.506 OA
ATOM     16  H   UNL     1      43.182 130.661  19.123  1.00  0.00     0.293 HD
ENDBRANCH  14  15
BRANCH  14  17
ATOM     17  N   UNL     1      44.967 132.386  19.902  1.00  0.00    -0.151 NA
BRANCH  17  18
ATOM     18  N   UNL     1      45.910 131.354  19.778  1.00  0.00    -0.169 N 
ATOM     19  H   UNL     1      46.718 131.272  20.436  1.00  0.00     0.475 HD
ATOM     20  N   UNL     1      45.782 130.496  18.852  1.00  0.00    -0.151 NA
ENDBRANCH  17  18
ENDBRANCH  14  17
ENDBRANCH   3  14
BRANCH   9  21
ATOM     21  N   UNL     1      42.688 134.807  14.264  1.00  0.00    -0.060 NA
BRANCH  21  22
ATOM     22  N   UNL     1      41.552 134.408  14.000  1.00  0.00     0.005 N 
ATOM     23  N   UNL     1      40.418 134.013  13.734  1.00  0.00    -0.003 NA
ENDBRANCH  21  22
ENDBRANCH   9  21
ENDBRANCH   1   2
BRANCH   1  24
ATOM     24  C   UNL     1      44.551 132.512  15.538  1.00  0.00     0.331 C 
ATOM     25  O   UNL     1      45.670 133.092  15.613  1.00  0.00    -0.250 OA
BRANCH  24  26
ATOM     26  C   UNL     1      44.408 131.271  14.679  1.00  0.00     0.116 C 
ATOM     27  C   UNL     1      44.763 129.972  15.413  1.00  0.00     0.040 C 
ATOM     28  C   UNL     1      45.553 131.021  13.684  1.00  0.00     0.040 C 
ATOM     29  C   UNL     1      45.890 129.716  14.409  1.00  0.00     0.019 C 
BRANCH  26  30
ATOM     30  N   UNL     1      43.102 131.183  14.018  1.00  0.00    -0.316 NA
ATOM     31  H   UNL     1      42.616 132.104  14.117  1.00  0.00     0.119 HD
ATOM     32  H   UNL     1      42.519 130.468  14.511  1.00  0.00     0.119 HD
ENDBRANCH  26  30
BRANCH  29  33
ATOM     33  C   UNL     1      47.299 129.664  15.022  1.00  0.00     0.159 C 
BRANCH  33  34
ATOM     34  O   UNL     1      47.256 129.769  16.419  1.00  0.00    -0.396 OA
ATOM     35  H   UNL     1      46.948 128.886  16.752  1.00  0.00     0.210 HD
ENDBRANCH  33  34
ENDBRANCH  29  33
ENDBRANCH  24  26
ENDBRANCH   1  24
TORSDOF 12
ENDMDL
MODEL 5
REMARK VINA RESULT:      -6.5      3.017      7.331
REMARK SMILES [N-]=[N+]=Nc1ccc2c3c(cc(/C(O)=N/[NH+]=[N-])c(OC(=O)[C@]4(N)C[C@H](CO)C4)c13)C=C2
REMARK SMILES IDX 18 1 17 2 11 3 10 4 9 5 28 6 8 7 29 8 4 9 7 10 30 11 5 12
REMARK SMILES IDX 6 13 12 14 13 15 14 17 15 18 16 20 3 21 2 22 1 23 19 24
REMARK SMILES IDX 20 25 21 26 27 27 23 28 24 29 22 30 25 33 26 34
REMARK H PARENT 13 16 15 19 22 31 22 32 26 35
ROOT
ATOM      1  O   UNL     1      44.239 131.935  16.678  1.00  0.00    -0.424 OA
ENDROOT
BRANCH   1   2
ATOM      2  C   UNL     1      44.240 133.022  17.559  1.00  0.00     0.150 A 
ATOM      3  C   UNL     1      44.615 132.817  18.930  1.00  0.00     0.062 A 
ATOM      4  C   UNL     1      44.648 133.916  19.828  1.00  0.00     0.024 A 
ATOM      5  C   UNL     1      44.304 135.174  19.349  1.00  0.00    -0.016 A 
ATOM      6  C   UNL     1      43.856 134.321  17.119  1.00  0.00     0.036 A 
ATOM      7  C   UNL     1      43.928 135.340  18.057  1.00  0.00     0.000 A 
ATOM      8  C   UNL     1      44.221 136.488  19.995  1.00  0.00     0.009 C 
ATOM      9  C   UNL     1      43.382 134.681  15.825  1.00  0.00     0.049 A 
ATOM     10  C   UNL     1      43.605 136.637  17.818  1.00  0.00    -0.017 A 
ATOM     11  C   UNL     1      43.801 137.369  19.074  1.00  0.00     0.009 C 
ATOM     12  C   UNL     1      43.046 136.044  15.561  1.00  0.00     0.011 A 
ATOM     13  C   UNL     1      43.158 137.032  16.563  1.00  0.00     0.009 A 
BRANCH   3  14
ATOM     14  C   UNL     1      44.977 131.471  19.439  1.00  0.00     0.172 C 
BRANCH  14  15
ATOM     15  O   UNL     1      45.962 130.717  18.798  1.00  0.00    -0.506 OA
ATOM     16  H   UNL     1      46.445 131.054  17.974  1.00  0.00     0.293 HD
ENDBRANCH  14  15
BRANCH  14  17
ATOM     17  N   UNL     1      44.369 130.988  20.482  1.00  0.00    -0.151 NA
BRANCH  17  18
ATOM     18  N   UNL     1      43.051 131.326  20.821  1.00  0.00    -0.169 N 
ATOM     19  H   UNL     1      42.483 131.969  20.225  1.00  0.00     0.475 HD
ATOM     20  N   UNL     1      42.529 130.839  21.871  1.00  0.00    -0.151 NA
ENDBRANCH  17  18
ENDBRANCH  14  17
ENDBRANCH   3  14
BRANCH   9  21
ATOM     21  N   UNL     1      43.211 133.677  14.816  1.00  0.00    -0.060 NA
BRANCH  21  22
ATOM     22  N   UNL     1      42.100 133.287  14.452  1.00  0.00     0.005 N 
ATOM     23  N   UNL     1      40.992 132.900  14.086  1.00  0.00    -0.003 NA
ENDBRANCH  21  22
ENDBRANCH   9  21
ENDBRANCH   1   2
BRANCH   1  24
ATOM     24  C   UNL     1      45.341 131.619  15.872  1.00  0.00     0.331 C 
ATOM     25  O   UNL     1      46.090 132.538  15.439  1.00  0.00    -0.250 OA
BRANCH  24  26
ATOM     26  C   UNL     1      45.625 130.180  15.488  1.00  0.00     0.116 C 
ATOM     27  C   UNL     1      47.120 129.845  15.421  1.00  0.00     0.040 C 
ATOM     28  C   UNL     1      45.486 129.856  13.992  1.00  0.00     0.040 C 
ATOM     29  C   UNL     1      46.975 129.505  13.936  1.00  0.00     0.019 C 
BRANCH  26  30
ATOM     30  N   UNL     1      44.888 129.215  16.310  1.00  0.00    -0.316 NA
ATOM     31  H   UNL     1      45.301 128.265  16.162  1.00  0.00     0.119 HD
ATOM     32  H   UNL     1      43.895 129.178  15.982  1.00  0.00     0.119 HD
ENDBRANCH  26  30
BRANCH  29  33
ATOM     33  C   UNL     1      47.810 130.383  12.989  1.00  0.00     0.159 C 
BRANCH  33  34
ATOM     34  O   UNL     1      47.687 131.743  13.308  1.00  0.00    -0.396 OA
ATOM     35  H   UNL     1      48.154 132.238  12.586  1.00  0.00     0.210 HD
ENDBRANCH  33  34
ENDBRANCH  29  33
ENDBRANCH  24  26
ENDBRANCH   1  24
TORSDOF 12
ENDMDL
MODEL 6
REMARK VINA RESULT:      -6.5      1.737      2.134
REMARK SMILES [N-]=[N+]=Nc1ccc2c3c(cc(/C(O)=N/[NH+]=[N-])c(OC(=O)[C@]4(N)C[C@H](CO)C4)c13)C=C2
REMARK SMILES IDX 18 1 17 2 11 3 10 4 9 5 28 6 8 7 29 8 4 9 7 10 30 11 5 12
REMARK SMILES IDX 6 13 12 14 13 15 14 17 15 18 16 20 3 21 2 22 1 23 19 24
REMARK SMILES IDX 20 25 21 26 27 27 23 28 24 29 22 30 25 33 26 34
REMARK H PARENT 13 16 15 19 22 31 22 32 26 35
ROOT
ATOM      1  O   UNL     1      41.960 133.789  17.198  1.00  0.00    -0.424 OA
ENDROOT
BRANCH   1   2
ATOM      2  C   UNL     1      42.649 132.943  16.322  1.00  0.00     0.150 A 
ATOM      3  C   UNL     1      42.274 132.909  14.936  1.00  0.00     0.062 A 
ATOM      4  C   UNL     1      42.983 132.077  14.031  1.00  0.00     0.024 A 
ATOM      5  C   UNL     1      44.029 131.304  14.520  1.00  0.00    -0.016 A 
ATOM      6  C   UNL     1      43.701 132.105  16.790  1.00  0.00     0.036 A 
ATOM      7  C   UNL     1      44.348 131.333  15.837  1.00  0.00     0.000 A 
ATOM      8  C   UNL     1      44.937 130.349  13.876  1.00  0.00     0.009 C 
ATOM      9  C   UNL     1      44.142 131.956  18.135  1.00  0.00     0.049 A 
ATOM     10  C   UNL     1      45.372 130.479  16.097  1.00  0.00    -0.017 A 
ATOM     11  C   UNL     1      45.745 129.853  14.825  1.00  0.00     0.009 C 
ATOM     12  C   UNL     1      45.222 131.066  18.420  1.00  0.00     0.011 A 
ATOM     13  C   UNL     1      45.844 130.321  17.395  1.00  0.00     0.009 A 
BRANCH   3  14
ATOM     14  C   UNL     1      41.154 133.732  14.417  1.00  0.00     0.172 C 
BRANCH  14  15
ATOM     15  O   UNL     1      41.281 135.120  14.331  1.00  0.00    -0.506 OA
ATOM     16  H   UNL     1      40.478 135.736  14.350  1.00  0.00     0.293 HD
ENDBRANCH  14  15
BRANCH  14  17
ATOM     17  N   UNL     1      40.046 133.160  14.049  1.00  0.00    -0.151 NA
BRANCH  17  18
ATOM     18  N   UNL     1      38.784 133.739  14.254  1.00  0.00    -0.169 N 
ATOM     19  H   UNL     1      38.127 133.370  14.977  1.00  0.00     0.475 HD
ATOM     20  N   UNL     1      38.431 134.735  13.552  1.00  0.00    -0.151 NA
ENDBRANCH  17  18
ENDBRANCH  14  17
ENDBRANCH   3  14
BRANCH   9  21
ATOM     21  N   UNL     1      43.482 132.665  19.193  1.00  0.00    -0.060 NA
BRANCH  21  22
ATOM     22  N   UNL     1      44.019 132.879  20.281  1.00  0.00     0.005 N 
ATOM     23  N   UNL     1      44.558 133.091  21.366  1.00  0.00    -0.003 NA
ENDBRANCH  21  22
ENDBRANCH   9  21
ENDBRANCH   1   2
BRANCH   1  24
ATOM     24  C   UNL     1      40.763 133.413  17.822  1.00  0.00     0.331 C 
ATOM     25  O   UNL     1      40.214 132.316  17.523  1.00  0.00    -0.250 OA
BRANCH  24  26
ATOM     26  C   UNL     1      40.103 134.328  18.836  1.00  0.00     0.116 C 
ATOM     27  C   UNL     1      38.580 134.168  18.907  1.00  0.00     0.040 C 
ATOM     28  C   UNL     1      39.930 135.789  18.391  1.00  0.00     0.040 C 
ATOM     29  C   UNL     1      38.411 135.629  18.483  1.00  0.00     0.019 C 
BRANCH  26  30
ATOM     30  N   UNL     1      40.722 134.247  20.163  1.00  0.00    -0.316 NA
ATOM     31  H   UNL     1      40.329 133.417  20.664  1.00  0.00     0.119 HD
ATOM     32  H   UNL     1      40.459 135.097  20.713  1.00  0.00     0.119 HD
ENDBRANCH  26  30
BRANCH  29  33
ATOM     33  C   UNL     1      37.659 135.832  17.156  1.00  0.00     0.159 C 
BRANCH  33  34
ATOM     34  O   UNL     1      36.651 136.798  17.280  1.00  0.00    -0.396 OA
ATOM     35  H   UNL     1      36.886 137.524  16.646  1.00  0.00     0.210 HD
ENDBRANCH  33  34
ENDBRANCH  29  33
ENDBRANCH  24  26
ENDBRANCH   1  24
TORSDOF 12
ENDMDL
MODEL 7
REMARK VINA RESULT:      -6.5      2.836      7.332
REMARK SMILES [N-]=[N+]=Nc1ccc2c3c(cc(/C(O)=N/[NH+]=[N-])c(OC(=O)[C@]4(N)C[C@H](CO)C4)c13)C=C2
REMARK SMILES IDX 18 1 17 2 11 3 10 4 9 5 28 6 8 7 29 8 4 9 7 10 30 11 5 12
REMARK SMILES IDX 6 13 12 14 13 15 14 17 15 18 16 20 3 21 2 22 1 23 19 24
REMARK SMILES IDX 20 25 21 26 27 27 23 28 24 29 22 30 25 33 26 34
REMARK H PARENT 13 16 15 19 22 31 22 32 26 35
ROOT
ATOM      1  O   UNL     1      43.934 132.798  16.918  1.00  0.00    -0.424 OA
ENDROOT
BRANCH   1   2
ATOM      2  C   UNL     1      43.878 134.056  17.529  1.00  0.00     0.150 A 
ATOM      3  C   UNL     1      44.195 134.175  18.924  1.00  0.00     0.062 A 
ATOM      4  C   UNL     1      44.170 135.449  19.550  1.00  0.00     0.024 A 
ATOM      5  C   UNL     1      43.827 136.557  18.785  1.00  0.00    -0.016 A 
ATOM      6  C   UNL     1      43.493 135.211  16.790  1.00  0.00     0.036 A 
ATOM      7  C   UNL     1      43.506 136.417  17.475  1.00  0.00     0.000 A 
ATOM      8  C   UNL     1      43.694 137.981  19.112  1.00  0.00     0.009 C 
ATOM      9  C   UNL     1      43.070 135.257  15.432  1.00  0.00     0.049 A 
ATOM     10  C   UNL     1      43.173 137.618  16.936  1.00  0.00    -0.017 A 
ATOM     11  C   UNL     1      43.301 138.619  17.999  1.00  0.00     0.009 C 
ATOM     12  C   UNL     1      42.723 136.516  14.852  1.00  0.00     0.011 A 
ATOM     13  C   UNL     1      42.775 137.707  15.608  1.00  0.00     0.009 A 
BRANCH   3  14
ATOM     14  C   UNL     1      44.556 132.989  19.739  1.00  0.00     0.172 C 
BRANCH  14  15
ATOM     15  O   UNL     1      43.866 131.786  19.576  1.00  0.00    -0.506 OA
ATOM     16  H   UNL     1      43.024 131.722  19.018  1.00  0.00     0.293 HD
ENDBRANCH  14  15
BRANCH  14  17
ATOM     17  N   UNL     1      45.513 133.072  20.615  1.00  0.00    -0.151 NA
BRANCH  17  18
ATOM     18  N   UNL     1      46.048 131.952  21.269  1.00  0.00    -0.169 N 
ATOM     19  H   UNL     1      46.133 131.919  22.310  1.00  0.00     0.475 HD
ATOM     20  N   UNL     1      46.434 130.954  20.588  1.00  0.00    -0.151 NA
ENDBRANCH  17  18
ENDBRANCH  14  17
ENDBRANCH   3  14
BRANCH   9  21
ATOM     21  N   UNL     1      42.960 134.047  14.670  1.00  0.00    -0.060 NA
BRANCH  21  22
ATOM     22  N   UNL     1      41.873 133.562  14.352  1.00  0.00     0.005 N 
ATOM     23  N   UNL     1      40.790 133.075  14.035  1.00  0.00    -0.003 NA
ENDBRANCH  21  22
ENDBRANCH   9  21
ENDBRANCH   1   2
BRANCH   1  24
ATOM     24  C   UNL     1      45.080 132.331  16.259  1.00  0.00     0.331 C 
ATOM     25  O   UNL     1      45.790 133.130  15.588  1.00  0.00    -0.250 OA
BRANCH  24  26
ATOM     26  C   UNL     1      45.458 130.864  16.320  1.00  0.00     0.116 C 
ATOM     27  C   UNL     1      46.822 130.555  15.692  1.00  0.00     0.040 C 
ATOM     28  C   UNL     1      44.774 129.963  15.280  1.00  0.00     0.040 C 
ATOM     29  C   UNL     1      46.140 129.643  14.669  1.00  0.00     0.019 C 
BRANCH  26  30
ATOM     30  N   UNL     1      45.340 130.302  17.669  1.00  0.00    -0.316 NA
ATOM     31  H   UNL     1      44.395 129.863  17.766  1.00  0.00     0.119 HD
ATOM     32  H   UNL     1      45.396 131.078  18.368  1.00  0.00     0.119 HD
ENDBRANCH  26  30
BRANCH  29  33
ATOM     33  C   UNL     1      46.310 130.078  13.204  1.00  0.00     0.159 C 
BRANCH  33  34
ATOM     34  O   UNL     1      46.909 131.342  13.109  1.00  0.00    -0.396 OA
ATOM     35  H   UNL     1      47.359 131.368  12.225  1.00  0.00     0.210 HD
ENDBRANCH  33  34
ENDBRANCH  29  33
ENDBRANCH  24  26
ENDBRANCH   1  24
TORSDOF 12
ENDMDL
MODEL 8
REMARK VINA RESULT:      -6.5      1.283      1.705
REMARK SMILES [N-]=[N+]=Nc1ccc2c3c(cc(/C(O)=N/[NH+]=[N-])c(OC(=O)[C@]4(N)C[C@H](CO)C4)c13)C=C2
REMARK SMILES IDX 18 1 17 2 11 3 10 4 9 5 28 6 8 7 29 8 4 9 7 10 30 11 5 12
REMARK SMILES IDX 6 13 12 14 13 15 14 17 15 18 16 20 3 21 2 22 1 23 19 24
REMARK SMILES IDX 20 25 21 26 27 27 23 28 24 29 22 30 25 33 26 34
REMARK H PARENT 13 16 15 19 22 31 22 32 26 35
ROOT
ATOM      1  O   UNL     1      42.222 133.649  17.422  1.00  0.00    -0.424 OA
ENDROOT
BRANCH   1   2
ATOM      2  C   UNL     1      42.818 132.849  16.440  1.00  0.00     0.150 A 
ATOM      3  C   UNL     1      42.317 132.894  15.095  1.00  0.00     0.062 A 
ATOM      4  C   UNL     1      42.929 132.109  14.084  1.00  0.00     0.024 A 
ATOM      5  C   UNL     1      44.006 131.303  14.432  1.00  0.00    -0.016 A 
ATOM      6  C   UNL     1      43.898 131.978  16.763  1.00  0.00     0.036 A 
ATOM      7  C   UNL     1      44.446 131.256  15.713  1.00  0.00     0.000 A 
ATOM      8  C   UNL     1      44.839 130.378  13.655  1.00  0.00     0.009 C 
ATOM      9  C   UNL     1      44.458 131.751  18.052  1.00  0.00     0.049 A 
ATOM     10  C   UNL     1      45.478 130.382  15.831  1.00  0.00    -0.017 A 
ATOM     11  C   UNL     1      45.725 129.824  14.497  1.00  0.00     0.009 C 
ATOM     12  C   UNL     1      45.549 130.838  18.186  1.00  0.00     0.011 A 
ATOM     13  C   UNL     1      46.065 130.147  17.068  1.00  0.00     0.009 A 
BRANCH   3  14
ATOM     14  C   UNL     1      41.164 133.753  14.728  1.00  0.00     0.172 C 
BRANCH  14  15
ATOM     15  O   UNL     1      39.885 133.456  15.203  1.00  0.00    -0.506 OA
ATOM     16  H   UNL     1      39.678 132.587  15.680  1.00  0.00     0.293 HD
ENDBRANCH  14  15
BRANCH  14  17
ATOM     17  N   UNL     1      41.343 134.782  13.954  1.00  0.00    -0.151 NA
BRANCH  17  18
ATOM     18  N   UNL     1      40.374 135.230  13.044  1.00  0.00    -0.169 N 
ATOM     19  H   UNL     1      40.449 135.022  12.023  1.00  0.00     0.475 HD
ATOM     20  N   UNL     1      39.381 135.899  13.464  1.00  0.00    -0.151 NA
ENDBRANCH  17  18
ENDBRANCH  14  17
ENDBRANCH   3  14
BRANCH   9  21
ATOM     21  N   UNL     1      43.907 132.404  19.203  1.00  0.00    -0.060 NA
BRANCH  21  22
ATOM     22  N   UNL     1      44.611 132.850  20.111  1.00  0.00     0.005 N 
ATOM     23  N   UNL     1      45.313 133.298  21.015  1.00  0.00    -0.003 NA
ENDBRANCH  21  22
ENDBRANCH   9  21
ENDBRANCH   1   2
BRANCH   1  24
ATOM     24  C   UNL     1      41.113 133.227  18.167  1.00  0.00     0.331 C 
ATOM     25  O   UNL     1      40.513 132.161  17.855  1.00  0.00    -0.250 OA
BRANCH  24  26
ATOM     26  C   UNL     1      40.606 134.057  19.330  1.00  0.00     0.116 C 
ATOM     27  C   UNL     1      39.086 134.254  19.328  1.00  0.00     0.040 C 
ATOM     28  C   UNL     1      40.803 135.576  19.191  1.00  0.00     0.040 C 
ATOM     29  C   UNL     1      39.285 135.767  19.210  1.00  0.00     0.019 C 
BRANCH  26  30
ATOM     30  N   UNL     1      41.092 133.576  20.628  1.00  0.00    -0.316 NA
ATOM     31  H   UNL     1      40.866 132.558  20.711  1.00  0.00     0.119 HD
ATOM     32  H   UNL     1      40.577 134.074  21.389  1.00  0.00     0.119 HD
ENDBRANCH  26  30
BRANCH  29  33
ATOM     33  C   UNL     1      38.697 136.396  17.935  1.00  0.00     0.159 C 
BRANCH  33  34
ATOM     34  O   UNL     1      37.765 137.397  18.239  1.00  0.00    -0.396 OA
ATOM     35  H   UNL     1      37.388 137.695  17.371  1.00  0.00     0.210 HD
ENDBRANCH  33  34
ENDBRANCH  29  33
ENDBRANCH  24  26
ENDBRANCH   1  24
TORSDOF 12
ENDMDL
MODEL 9
REMARK VINA RESULT:      -6.4      1.590      2.250
REMARK SMILES [N-]=[N+]=Nc1ccc2c3c(cc(/C(O)=N/[NH+]=[N-])c(OC(=O)[C@]4(N)C[C@H](CO)C4)c13)C=C2
REMARK SMILES IDX 18 1 17 2 11 3 10 4 9 5 28 6 8 7 29 8 4 9 7 10 30 11 5 12
REMARK SMILES IDX 6 13 12 14 13 15 14 17 15 18 16 20 3 21 2 22 1 23 19 24
REMARK SMILES IDX 20 25 21 26 27 27 23 28 24 29 22 30 25 33 26 34
REMARK H PARENT 13 16 15 19 22 31 22 32 26 35
ROOT
ATOM      1  O   UNL     1      41.917 133.390  17.124  1.00  0.00    -0.424 OA
ENDROOT
BRANCH   1   2
ATOM      2  C   UNL     1      42.682 132.669  16.200  1.00  0.00     0.150 A 
ATOM      3  C   UNL     1      42.332 132.715  14.808  1.00  0.00     0.062 A 
ATOM      4  C   UNL     1      43.116 132.012  13.857  1.00  0.00     0.024 A 
ATOM      5  C   UNL     1      44.212 131.285  14.307  1.00  0.00    -0.016 A 
ATOM      6  C   UNL     1      43.789 131.880  16.624  1.00  0.00     0.036 A 
ATOM      7  C   UNL     1      44.508 131.235  15.629  1.00  0.00     0.000 A 
ATOM      8  C   UNL     1      45.200 130.454  13.611  1.00  0.00     0.009 C 
ATOM      9  C   UNL     1      44.220 131.660  17.963  1.00  0.00     0.049 A 
ATOM     10  C   UNL     1      45.591 130.444  15.844  1.00  0.00    -0.017 A 
ATOM     11  C   UNL     1      46.030 129.949  14.536  1.00  0.00     0.009 C 
ATOM     12  C   UNL     1      45.361 130.834  18.201  1.00  0.00     0.011 A 
ATOM     13  C   UNL     1      46.054 130.221  17.135  1.00  0.00     0.009 A 
BRANCH   3  14
ATOM     14  C   UNL     1      41.159 133.489  14.331  1.00  0.00     0.172 C 
BRANCH  14  15
ATOM     15  O   UNL     1      39.917 132.866  14.183  1.00  0.00    -0.506 OA
ATOM     16  H   UNL     1      39.172 133.279  13.637  1.00  0.00     0.293 HD
ENDBRANCH  14  15
BRANCH  14  17
ATOM     17  N   UNL     1      41.290 134.749  14.040  1.00  0.00    -0.151 NA
BRANCH  17  18
ATOM     18  N   UNL     1      40.394 135.436  13.207  1.00  0.00    -0.169 N 
ATOM     19  H   UNL     1      40.664 135.726  12.240  1.00  0.00     0.475 HD
ATOM     20  N   UNL     1      39.230 135.710  13.629  1.00  0.00    -0.151 NA
ENDBRANCH  17  18
ENDBRANCH  14  17
ENDBRANCH   3  14
BRANCH   9  21
ATOM     21  N   UNL     1      43.491 132.232  19.058  1.00  0.00    -0.060 NA
BRANCH  21  22
ATOM     22  N   UNL     1      43.654 131.866  20.223  1.00  0.00     0.005 N 
ATOM     23  N   UNL     1      43.814 131.504  21.388  1.00  0.00    -0.003 NA
ENDBRANCH  21  22
ENDBRANCH   9  21
ENDBRANCH   1   2
BRANCH   1  24
ATOM     24  C   UNL     1      42.139 134.748  17.389  1.00  0.00     0.331 C 
ATOM     25  O   UNL     1      43.268 135.260  17.153  1.00  0.00    -0.250 OA
BRANCH  24  26
ATOM     26  C   UNL     1      41.040 135.604  17.988  1.00  0.00     0.116 C 
ATOM     27  C   UNL     1      39.940 134.794  18.683  1.00  0.00     0.040 C 
ATOM     28  C   UNL     1      40.007 136.147  16.987  1.00  0.00     0.040 C 
ATOM     29  C   UNL     1      38.910 135.351  17.697  1.00  0.00     0.019 C 
BRANCH  26  30
ATOM     30  N   UNL     1      41.557 136.673  18.849  1.00  0.00    -0.316 NA
ATOM     31  H   UNL     1      42.285 137.205  18.319  1.00  0.00     0.119 HD
ATOM     32  H   UNL     1      42.026 136.244  19.679  1.00  0.00     0.119 HD
ENDBRANCH  26  30
BRANCH  29  33
ATOM     33  C   UNL     1      38.214 134.292  16.826  1.00  0.00     0.159 C 
BRANCH  33  34
ATOM     34  O   UNL     1      37.222 134.864  16.018  1.00  0.00    -0.396 OA
ATOM     35  H   UNL     1      37.221 134.343  15.173  1.00  0.00     0.210 HD
ENDBRANCH  33  34
ENDBRANCH  29  33
ENDBRANCH  24  26
ENDBRANCH   1  24
TORSDOF 12
ENDMDL


