MODEL 1
REMARK VINA RESULT:      -5.8      0.000      0.000
REMARK SMILES C[N+]1(C)Cc2cc3ccc(-n4cc(CCN5C[C@H](CN=[N+]=[N-])CN5C(=O)c5ccc(N)cc5)n[nH+]4)cc3cc2C1
REMARK SMILES IDX 24 1 16 2 17 3 18 4 23 5 25 6 26 7 27 8 28 9 29 10 30 11
REMARK SMILES IDX 33 12 32 13 31 14 15 17 14 18 13 19 34 20 12 21 35 22 11 23
REMARK SMILES IDX 10 25 9 26 36 27 8 28 37 29 7 30 38 31 6 32 39 33 5 34 40 35
REMARK SMILES IDX 4 36 2 37 1 38 3 39 19 40 20 41 21 42 22 43
REMARK H PARENT 31 15 31 16 35 24
ROOT
ATOM      1  N   UNL     1      46.342 135.924  22.231  1.00  0.00    -0.271 N 
ATOM      2  N   UNL     1      45.536 136.630  23.146  1.00  0.00    -0.218 NA
ATOM      3  C   UNL     1      44.826 135.581  23.902  1.00  0.00     0.114 C 
ATOM      4  C   UNL     1      44.930 134.271  23.105  1.00  0.00     0.032 C 
ATOM      5  C   UNL     1      46.067 134.507  22.122  1.00  0.00     0.145 C 
ENDROOT
BRANCH   1   6
ATOM      6  C   UNL     1      47.526 136.493  21.655  1.00  0.00     0.268 C 
ATOM      7  O   UNL     1      47.552 136.727  20.415  1.00  0.00    -0.268 OA
BRANCH   6   8
ATOM      8  C   UNL     1      48.736 136.739  22.473  1.00  0.00     0.041 A 
ATOM      9  C   UNL     1      49.520 137.883  22.249  1.00  0.00     0.016 A 
ATOM     10  C   UNL     1      50.698 138.091  22.973  1.00  0.00     0.026 A 
ATOM     11  C   UNL     1      51.126 137.143  23.911  1.00  0.00     0.031 A 
ATOM     12  C   UNL     1      49.161 135.798  23.431  1.00  0.00     0.016 A 
ATOM     13  C   UNL     1      50.350 135.997  24.140  1.00  0.00     0.026 A 
BRANCH  11  14
ATOM     14  N   UNL     1      52.348 137.340  24.624  1.00  0.00    -0.399 N 
ATOM     15  H   UNL     1      53.247 137.496  24.114  1.00  0.00     0.156 HD
ATOM     16  H   UNL     1      52.370 137.283  25.669  1.00  0.00     0.156 HD
ENDBRANCH  11  14
ENDBRANCH   6   8
ENDBRANCH   1   6
BRANCH   2  17
ATOM     17  C   UNL     1      44.604 137.501  22.389  1.00  0.00     0.115 C 
BRANCH  17  18
ATOM     18  C   UNL     1      43.147 137.153  22.721  1.00  0.00     0.082 C 
BRANCH  18  19
ATOM     19  C   UNL     1      42.418 136.693  21.493  1.00  0.00     0.134 A 
ATOM     20  N   UNL     1      41.544 137.451  20.800  1.00  0.00     0.020 NA
ATOM     21  C   UNL     1      42.712 135.570  20.744  1.00  0.00     0.190 A 
ATOM     22  N   UNL     1      41.323 136.814  19.664  1.00  0.00    -0.012 N 
ATOM     23  N   UNL     1      42.019 135.688  19.598  1.00  0.00    -0.104 N 
ATOM     24  H   UNL     1      40.711 137.181  18.902  1.00  0.00     0.527 HD
BRANCH  23  25
ATOM     25  C   UNL     1      42.188 134.890  18.420  1.00  0.00     0.107 A 
ATOM     26  C   UNL     1      41.071 134.470  17.678  1.00  0.00     0.033 A 
ATOM     27  C   UNL     1      43.470 134.456  18.051  1.00  0.00     0.041 A 
ATOM     28  C   UNL     1      41.228 133.625  16.577  1.00  0.00     0.011 A 
ATOM     29  C   UNL     1      43.639 133.589  16.965  1.00  0.00    -0.016 A 
ATOM     30  C   UNL     1      42.503 133.166  16.216  1.00  0.00    -0.018 A 
ATOM     31  C   UNL     1      44.920 133.114  16.626  1.00  0.00     0.019 A 
ATOM     32  C   UNL     1      42.669 132.279  15.135  1.00  0.00     0.018 A 
ATOM     33  C   UNL     1      45.042 132.227  15.558  1.00  0.00     0.016 A 
ATOM     34  C   UNL     1      43.956 131.825  14.838  1.00  0.00     0.016 A 
ATOM     35  C   UNL     1      46.273 131.594  15.039  1.00  0.00     0.301 C 
ATOM     36  C   UNL     1      44.368 130.884  13.773  1.00  0.00     0.301 C 
ATOM     37  N   UNL     1      45.805 130.571  14.052  1.00  0.00    -0.321 N 
ATOM     38  C   UNL     1      45.925 129.213  14.635  1.00  0.00     0.334 C 
ATOM     39  C   UNL     1      46.610 130.634  12.808  1.00  0.00     0.334 C 
ENDBRANCH  23  25
ENDBRANCH  18  19
ENDBRANCH  17  18
ENDBRANCH   2  17
BRANCH   4  40
ATOM     40  C   UNL     1      45.130 133.027  23.994  1.00  0.00     0.097 C 
BRANCH  40  41
ATOM     41  N   UNL     1      43.923 132.212  24.048  1.00  0.00    -0.094 NA
BRANCH  41  42
ATOM     42  N   UNL     1      43.444 131.728  23.021  1.00  0.00     0.001 N 
ATOM     43  N   UNL     1      42.965 131.241  21.996  1.00  0.00    -0.003 NA
ENDBRANCH  41  42
ENDBRANCH  40  41
ENDBRANCH   4  40
TORSDOF 10
ENDMDL
MODEL 2
REMARK VINA RESULT:      -5.5      3.915      8.991
REMARK SMILES C[N+]1(C)Cc2cc3ccc(-n4cc(CCN5C[C@H](CN=[N+]=[N-])CN5C(=O)c5ccc(N)cc5)n[nH+]4)cc3cc2C1
REMARK SMILES IDX 24 1 16 2 17 3 18 4 23 5 25 6 26 7 27 8 28 9 29 10 30 11
REMARK SMILES IDX 33 12 32 13 31 14 15 17 14 18 13 19 34 20 12 21 35 22 11 23
REMARK SMILES IDX 10 25 9 26 36 27 8 28 37 29 7 30 38 31 6 32 39 33 5 34 40 35
REMARK SMILES IDX 4 36 2 37 1 38 3 39 19 40 20 41 21 42 22 43
REMARK H PARENT 31 15 31 16 35 24
ROOT
ATOM      1  N   UNL     1      41.276 134.087  14.557  1.00  0.00    -0.271 N 
ATOM      2  N   UNL     1      40.130 134.255  13.755  1.00  0.00    -0.218 NA
ATOM      3  C   UNL     1      39.915 135.714  13.715  1.00  0.00     0.114 C 
ATOM      4  C   UNL     1      40.720 136.342  14.864  1.00  0.00     0.032 C 
ATOM      5  C   UNL     1      41.718 135.268  15.268  1.00  0.00     0.145 C 
ENDROOT
BRANCH   1   6
ATOM      6  C   UNL     1      42.109 132.924  14.468  1.00  0.00     0.268 C 
ATOM      7  O   UNL     1      42.103 132.244  13.404  1.00  0.00    -0.268 OA
BRANCH   6   8
ATOM      8  C   UNL     1      42.917 132.467  15.623  1.00  0.00     0.041 A 
ATOM      9  C   UNL     1      42.332 132.357  16.896  1.00  0.00     0.016 A 
ATOM     10  C   UNL     1      43.102 131.986  18.002  1.00  0.00     0.026 A 
ATOM     11  C   UNL     1      44.475 131.750  17.860  1.00  0.00     0.031 A 
ATOM     12  C   UNL     1      44.294 132.209  15.481  1.00  0.00     0.016 A 
ATOM     13  C   UNL     1      45.067 131.859  16.593  1.00  0.00     0.026 A 
BRANCH  11  14
ATOM     14  N   UNL     1      45.266 131.406  18.998  1.00  0.00    -0.399 N 
ATOM     15  H   UNL     1      44.935 131.623  19.966  1.00  0.00     0.156 HD
ATOM     16  H   UNL     1      46.213 130.977  18.879  1.00  0.00     0.156 HD
ENDBRANCH  11  14
ENDBRANCH   6   8
ENDBRANCH   1   6
BRANCH   2  17
ATOM     17  C   UNL     1      38.994 133.541  14.387  1.00  0.00     0.115 C 
BRANCH  17  18
ATOM     18  C   UNL     1      37.821 134.498  14.632  1.00  0.00     0.082 C 
BRANCH  18  19
ATOM     19  C   UNL     1      37.752 134.897  16.077  1.00  0.00     0.134 A 
ATOM     20  N   UNL     1      36.616 135.236  16.717  1.00  0.00     0.020 NA
ATOM     21  C   UNL     1      38.750 134.725  17.017  1.00  0.00     0.190 A 
ATOM     22  N   UNL     1      36.912 135.260  18.006  1.00  0.00    -0.012 N 
ATOM     23  N   UNL     1      38.182 134.946  18.215  1.00  0.00    -0.104 N 
ATOM     24  H   UNL     1      36.215 135.457  18.757  1.00  0.00     0.527 HD
BRANCH  23  25
ATOM     25  C   UNL     1      38.760 134.653  19.494  1.00  0.00     0.107 A 
ATOM     26  C   UNL     1      37.990 134.761  20.663  1.00  0.00     0.033 A 
ATOM     27  C   UNL     1      40.123 134.336  19.586  1.00  0.00     0.041 A 
ATOM     28  C   UNL     1      38.573 134.555  21.917  1.00  0.00     0.011 A 
ATOM     29  C   UNL     1      40.725 134.151  20.835  1.00  0.00    -0.016 A 
ATOM     30  C   UNL     1      39.940 134.263  22.019  1.00  0.00    -0.018 A 
ATOM     31  C   UNL     1      42.104 133.883  20.928  1.00  0.00     0.019 A 
ATOM     32  C   UNL     1      40.548 134.096  23.279  1.00  0.00     0.018 A 
ATOM     33  C   UNL     1      42.671 133.738  22.193  1.00  0.00     0.016 A 
ATOM     34  C   UNL     1      41.920 133.839  23.328  1.00  0.00     0.016 A 
ATOM     35  C   UNL     1      44.085 133.470  22.529  1.00  0.00     0.301 C 
ATOM     36  C   UNL     1      42.771 133.650  24.523  1.00  0.00     0.301 C 
ATOM     37  N   UNL     1      44.179 133.641  24.013  1.00  0.00    -0.321 N 
ATOM     38  C   UNL     1      44.844 134.927  24.334  1.00  0.00     0.334 C 
ATOM     39  C   UNL     1      44.952 132.533  24.622  1.00  0.00     0.334 C 
ENDBRANCH  23  25
ENDBRANCH  18  19
ENDBRANCH  17  18
ENDBRANCH   2  17
BRANCH   4  40
ATOM     40  C   UNL     1      41.377 137.686  14.488  1.00  0.00     0.097 C 
BRANCH  40  41
ATOM     41  N   UNL     1      40.750 138.799  15.192  1.00  0.00    -0.094 NA
BRANCH  41  42
ATOM     42  N   UNL     1      40.139 138.613  16.246  1.00  0.00     0.001 N 
ATOM     43  N   UNL     1      39.530 138.424  17.299  1.00  0.00    -0.003 NA
ENDBRANCH  41  42
ENDBRANCH  40  41
ENDBRANCH   4  40
TORSDOF 10
ENDMDL
MODEL 3
REMARK VINA RESULT:      -5.3      5.069      6.890
REMARK SMILES C[N+]1(C)Cc2cc3ccc(-n4cc(CCN5C[C@H](CN=[N+]=[N-])CN5C(=O)c5ccc(N)cc5)n[nH+]4)cc3cc2C1
REMARK SMILES IDX 24 1 16 2 17 3 18 4 23 5 25 6 26 7 27 8 28 9 29 10 30 11
REMARK SMILES IDX 33 12 32 13 31 14 15 17 14 18 13 19 34 20 12 21 35 22 11 23
REMARK SMILES IDX 10 25 9 26 36 27 8 28 37 29 7 30 38 31 6 32 39 33 5 34 40 35
REMARK SMILES IDX 4 36 2 37 1 38 3 39 19 40 20 41 21 42 22 43
REMARK H PARENT 31 15 31 16 35 24
ROOT
ATOM      1  N   UNL     1      39.219 138.186  17.564  1.00  0.00    -0.271 N 
ATOM      2  N   UNL     1      37.954 138.611  17.113  1.00  0.00    -0.218 NA
ATOM      3  C   UNL     1      37.238 139.015  18.338  1.00  0.00     0.114 C 
ATOM      4  C   UNL     1      37.978 138.408  19.540  1.00  0.00     0.032 C 
ATOM      5  C   UNL     1      39.348 138.028  18.998  1.00  0.00     0.145 C 
ENDROOT
BRANCH   1   6
ATOM      6  C   UNL     1      40.372 138.176  16.714  1.00  0.00     0.268 C 
ATOM      7  O   UNL     1      40.212 138.207  15.462  1.00  0.00    -0.268 OA
BRANCH   6   8
ATOM      8  C   UNL     1      41.739 138.055  17.274  1.00  0.00     0.041 A 
ATOM      9  C   UNL     1      42.407 139.192  17.759  1.00  0.00     0.016 A 
ATOM     10  C   UNL     1      43.720 139.097  18.232  1.00  0.00     0.026 A 
ATOM     11  C   UNL     1      44.395 137.870  18.199  1.00  0.00     0.031 A 
ATOM     12  C   UNL     1      42.415 136.819  17.261  1.00  0.00     0.016 A 
ATOM     13  C   UNL     1      43.735 136.731  17.715  1.00  0.00     0.026 A 
BRANCH  11  14
ATOM     14  N   UNL     1      45.748 137.783  18.649  1.00  0.00    -0.399 N 
ATOM     15  H   UNL     1      46.077 136.959  19.202  1.00  0.00     0.156 HD
ATOM     16  H   UNL     1      46.419 138.567  18.473  1.00  0.00     0.156 HD
ENDBRANCH  11  14
ENDBRANCH   6   8
ENDBRANCH   1   6
BRANCH   2  17
ATOM     17  C   UNL     1      37.287 137.479  16.424  1.00  0.00     0.115 C 
BRANCH  17  18
ATOM     18  C   UNL     1      37.336 136.213  17.289  1.00  0.00     0.082 C 
BRANCH  18  19
ATOM     19  C   UNL     1      38.206 135.169  16.653  1.00  0.00     0.134 A 
ATOM     20  N   UNL     1      38.255 134.926  15.328  1.00  0.00     0.020 NA
ATOM     21  C   UNL     1      39.253 134.502  17.260  1.00  0.00     0.190 A 
ATOM     22  N   UNL     1      39.305 134.146  15.135  1.00  0.00    -0.012 N 
ATOM     23  N   UNL     1      39.928 133.885  16.275  1.00  0.00    -0.104 N 
ATOM     24  H   UNL     1      39.620 133.820  14.195  1.00  0.00     0.527 HD
BRANCH  23  25
ATOM     25  C   UNL     1      41.219 133.271  16.387  1.00  0.00     0.107 A 
ATOM     26  C   UNL     1      41.951 133.370  17.581  1.00  0.00     0.033 A 
ATOM     27  C   UNL     1      41.789 132.638  15.273  1.00  0.00     0.041 A 
ATOM     28  C   UNL     1      43.243 132.844  17.666  1.00  0.00     0.011 A 
ATOM     29  C   UNL     1      43.091 132.129  15.336  1.00  0.00    -0.016 A 
ATOM     30  C   UNL     1      43.830 132.232  16.550  1.00  0.00    -0.018 A 
ATOM     31  C   UNL     1      43.679 131.539  14.202  1.00  0.00     0.019 A 
ATOM     32  C   UNL     1      45.147 131.736  16.610  1.00  0.00     0.018 A 
ATOM     33  C   UNL     1      44.990 131.072  14.297  1.00  0.00     0.016 A 
ATOM     34  C   UNL     1      45.697 131.167  15.460  1.00  0.00     0.016 A 
ATOM     35  C   UNL     1      45.807 130.438  13.241  1.00  0.00     0.301 C 
ATOM     36  C   UNL     1      47.053 130.603  15.280  1.00  0.00     0.301 C 
ATOM     37  N   UNL     1      47.188 130.350  13.810  1.00  0.00    -0.321 N 
ATOM     38  C   UNL     1      48.056 131.382  13.194  1.00  0.00     0.334 C 
ATOM     39  C   UNL     1      47.777 129.013  13.558  1.00  0.00     0.334 C 
ENDBRANCH  23  25
ENDBRANCH  18  19
ENDBRANCH  17  18
ENDBRANCH   2  17
BRANCH   4  40
ATOM     40  C   UNL     1      38.036 139.347  20.762  1.00  0.00     0.097 C 
BRANCH  40  41
ATOM     41  N   UNL     1      37.012 139.007  21.742  1.00  0.00    -0.094 NA
BRANCH  41  42
ATOM     42  N   UNL     1      37.282 138.304  22.717  1.00  0.00     0.001 N 
ATOM     43  N   UNL     1      37.552 137.598  23.689  1.00  0.00    -0.003 NA
ENDBRANCH  41  42
ENDBRANCH  40  41
ENDBRANCH   4  40
TORSDOF 10
ENDMDL
MODEL 4
REMARK VINA RESULT:      -5.3      1.851      3.321
REMARK SMILES C[N+]1(C)Cc2cc3ccc(-n4cc(CCN5C[C@H](CN=[N+]=[N-])CN5C(=O)c5ccc(N)cc5)n[nH+]4)cc3cc2C1
REMARK SMILES IDX 24 1 16 2 17 3 18 4 23 5 25 6 26 7 27 8 28 9 29 10 30 11
REMARK SMILES IDX 33 12 32 13 31 14 15 17 14 18 13 19 34 20 12 21 35 22 11 23
REMARK SMILES IDX 10 25 9 26 36 27 8 28 37 29 7 30 38 31 6 32 39 33 5 34 40 35
REMARK SMILES IDX 4 36 2 37 1 38 3 39 19 40 20 41 21 42 22 43
REMARK H PARENT 31 15 31 16 35 24
ROOT
ATOM      1  N   UNL     1      45.720 135.495  22.803  1.00  0.00    -0.271 N 
ATOM      2  N   UNL     1      44.537 134.872  23.249  1.00  0.00    -0.218 NA
ATOM      3  C   UNL     1      43.574 135.977  23.412  1.00  0.00     0.114 C 
ATOM      4  C   UNL     1      44.366 137.293  23.456  1.00  0.00     0.032 C 
ATOM      5  C   UNL     1      45.731 136.941  22.883  1.00  0.00     0.145 C 
ENDROOT
BRANCH   1   6
ATOM      6  C   UNL     1      46.728 134.789  22.069  1.00  0.00     0.268 C 
ATOM      7  O   UNL     1      46.444 133.670  21.557  1.00  0.00    -0.268 OA
BRANCH   6   8
ATOM      8  C   UNL     1      48.110 135.312  21.964  1.00  0.00     0.041 A 
ATOM      9  C   UNL     1      49.006 135.164  23.037  1.00  0.00     0.016 A 
ATOM     10  C   UNL     1      50.292 135.709  22.970  1.00  0.00     0.026 A 
ATOM     11  C   UNL     1      50.692 136.436  21.842  1.00  0.00     0.031 A 
ATOM     12  C   UNL     1      48.525 136.027  20.824  1.00  0.00     0.016 A 
ATOM     13  C   UNL     1      49.804 136.589  20.767  1.00  0.00     0.026 A 
BRANCH  11  14
ATOM     14  N   UNL     1      51.994 137.022  21.791  1.00  0.00    -0.399 N 
ATOM     15  H   UNL     1      52.540 137.039  20.900  1.00  0.00     0.156 HD
ATOM     16  H   UNL     1      52.442 137.400  22.659  1.00  0.00     0.156 HD
ENDBRANCH  11  14
ENDBRANCH   6   8
ENDBRANCH   1   6
BRANCH   2  17
ATOM     17  C   UNL     1      44.815 134.179  24.531  1.00  0.00     0.115 C 
BRANCH  17  18
ATOM     18  C   UNL     1      44.015 132.873  24.625  1.00  0.00     0.082 C 
BRANCH  18  19
ATOM     19  C   UNL     1      43.231 132.639  23.367  1.00  0.00     0.134 A 
ATOM     20  N   UNL     1      42.001 133.142  23.135  1.00  0.00     0.020 NA
ATOM     21  C   UNL     1      43.724 132.124  22.184  1.00  0.00     0.190 A 
ATOM     22  N   UNL     1      41.760 132.947  21.850  1.00  0.00    -0.012 N 
ATOM     23  N   UNL     1      42.781 132.349  21.253  1.00  0.00    -0.104 N 
ATOM     24  H   UNL     1      40.892 133.268  21.368  1.00  0.00     0.527 HD
BRANCH  23  25
ATOM     25  C   UNL     1      42.939 132.208  19.835  1.00  0.00     0.107 A 
ATOM     26  C   UNL     1      41.816 132.189  18.992  1.00  0.00     0.033 A 
ATOM     27  C   UNL     1      44.217 132.004  19.294  1.00  0.00     0.041 A 
ATOM     28  C   UNL     1      41.963 131.969  17.620  1.00  0.00     0.011 A 
ATOM     29  C   UNL     1      44.377 131.757  17.926  1.00  0.00    -0.016 A 
ATOM     30  C   UNL     1      43.234 131.739  17.075  1.00  0.00    -0.018 A 
ATOM     31  C   UNL     1      45.655 131.504  17.393  1.00  0.00     0.019 A 
ATOM     32  C   UNL     1      43.391 131.473  15.701  1.00  0.00     0.018 A 
ATOM     33  C   UNL     1      45.767 131.231  16.030  1.00  0.00     0.016 A 
ATOM     34  C   UNL     1      44.674 131.218  15.214  1.00  0.00     0.016 A 
ATOM     35  C   UNL     1      46.992 130.924  15.264  1.00  0.00     0.301 C 
ATOM     36  C   UNL     1      45.077 130.897  13.827  1.00  0.00     0.301 C 
ATOM     37  N   UNL     1      46.515 130.492  13.912  1.00  0.00    -0.321 N 
ATOM     38  C   UNL     1      46.638 129.020  13.779  1.00  0.00     0.334 C 
ATOM     39  C   UNL     1      47.310 131.140  12.842  1.00  0.00     0.334 C 
ENDBRANCH  23  25
ENDBRANCH  18  19
ENDBRANCH  17  18
ENDBRANCH   2  17
BRANCH   4  40
ATOM     40  C   UNL     1      43.668 138.454  22.718  1.00  0.00     0.097 C 
BRANCH  40  41
ATOM     41  N   UNL     1      42.257 138.540  23.078  1.00  0.00    -0.094 NA
BRANCH  41  42
ATOM     42  N   UNL     1      41.386 138.122  22.314  1.00  0.00     0.001 N 
ATOM     43  N   UNL     1      40.514 137.708  21.550  1.00  0.00    -0.003 NA
ENDBRANCH  41  42
ENDBRANCH  40  41
ENDBRANCH   4  40
TORSDOF 10
ENDMDL
MODEL 5
REMARK VINA RESULT:      -5.2      4.489      7.309
REMARK SMILES C[N+]1(C)Cc2cc3ccc(-n4cc(CCN5C[C@H](CN=[N+]=[N-])CN5C(=O)c5ccc(N)cc5)n[nH+]4)cc3cc2C1
REMARK SMILES IDX 24 1 16 2 17 3 18 4 23 5 25 6 26 7 27 8 28 9 29 10 30 11
REMARK SMILES IDX 33 12 32 13 31 14 15 17 14 18 13 19 34 20 12 21 35 22 11 23
REMARK SMILES IDX 10 25 9 26 36 27 8 28 37 29 7 30 38 31 6 32 39 33 5 34 40 35
REMARK SMILES IDX 4 36 2 37 1 38 3 39 19 40 20 41 21 42 22 43
REMARK H PARENT 31 15 31 16 35 24
ROOT
ATOM      1  N   UNL     1      38.481 137.502  18.031  1.00  0.00    -0.271 N 
ATOM      2  N   UNL     1      38.594 136.739  19.210  1.00  0.00    -0.218 NA
ATOM      3  C   UNL     1      37.668 135.608  19.012  1.00  0.00     0.114 C 
ATOM      4  C   UNL     1      36.709 135.977  17.869  1.00  0.00     0.032 C 
ATOM      5  C   UNL     1      37.388 137.136  17.155  1.00  0.00     0.145 C 
ENDROOT
BRANCH   1   6
ATOM      6  C   UNL     1      39.519 138.385  17.586  1.00  0.00     0.268 C 
ATOM      7  O   UNL     1      39.402 139.624  17.797  1.00  0.00    -0.268 OA
BRANCH   6   8
ATOM      8  C   UNL     1      40.683 137.879  16.823  1.00  0.00     0.041 A 
ATOM      9  C   UNL     1      41.573 138.779  16.211  1.00  0.00     0.016 A 
ATOM     10  C   UNL     1      42.639 138.309  15.437  1.00  0.00     0.026 A 
ATOM     11  C   UNL     1      42.814 136.934  15.238  1.00  0.00     0.031 A 
ATOM     12  C   UNL     1      40.876 136.496  16.635  1.00  0.00     0.016 A 
ATOM     13  C   UNL     1      41.930 136.029  15.844  1.00  0.00     0.026 A 
BRANCH  11  14
ATOM     14  N   UNL     1      43.883 136.458  14.417  1.00  0.00    -0.399 N 
ATOM     15  H   UNL     1      44.879 136.590  14.705  1.00  0.00     0.156 HD
ATOM     16  H   UNL     1      43.685 136.015  13.490  1.00  0.00     0.156 HD
ENDBRANCH  11  14
ENDBRANCH   6   8
ENDBRANCH   1   6
BRANCH   2  17
ATOM     17  C   UNL     1      38.205 137.584  20.365  1.00  0.00     0.115 C 
BRANCH  17  18
ATOM     18  C   UNL     1      39.436 138.266  20.977  1.00  0.00     0.082 C 
BRANCH  18  19
ATOM     19  C   UNL     1      40.500 137.256  21.295  1.00  0.00     0.134 A 
ATOM     20  N   UNL     1      40.675 136.695  22.509  1.00  0.00     0.020 NA
ATOM     21  C   UNL     1      41.263 136.561  20.377  1.00  0.00     0.190 A 
ATOM     22  N   UNL     1      41.510 135.686  22.331  1.00  0.00    -0.012 N 
ATOM     23  N   UNL     1      41.870 135.575  21.060  1.00  0.00    -0.104 N 
ATOM     24  H   UNL     1      41.806 135.037  23.093  1.00  0.00     0.527 HD
BRANCH  23  25
ATOM     25  C   UNL     1      42.570 134.459  20.495  1.00  0.00     0.107 A 
ATOM     26  C   UNL     1      43.301 133.587  21.318  1.00  0.00     0.033 A 
ATOM     27  C   UNL     1      42.593 134.284  19.104  1.00  0.00     0.041 A 
ATOM     28  C   UNL     1      44.050 132.547  20.761  1.00  0.00     0.011 A 
ATOM     29  C   UNL     1      43.358 133.262  18.530  1.00  0.00    -0.016 A 
ATOM     30  C   UNL     1      44.098 132.380  19.370  1.00  0.00    -0.018 A 
ATOM     31  C   UNL     1      43.420 133.118  17.132  1.00  0.00     0.019 A 
ATOM     32  C   UNL     1      44.884 131.363  18.794  1.00  0.00     0.018 A 
ATOM     33  C   UNL     1      44.220 132.108  16.599  1.00  0.00     0.016 A 
ATOM     34  C   UNL     1      44.925 131.260  17.403  1.00  0.00     0.016 A 
ATOM     35  C   UNL     1      44.446 131.784  15.175  1.00  0.00     0.301 C 
ATOM     36  C   UNL     1      45.688 130.295  16.581  1.00  0.00     0.301 C 
ATOM     37  N   UNL     1      45.554 130.778  15.170  1.00  0.00    -0.321 N 
ATOM     38  C   UNL     1      46.817 131.418  14.731  1.00  0.00     0.334 C 
ATOM     39  C   UNL     1      45.240 129.655  14.256  1.00  0.00     0.334 C 
ENDBRANCH  23  25
ENDBRANCH  18  19
ENDBRANCH  17  18
ENDBRANCH   2  17
BRANCH   4  40
ATOM     40  C   UNL     1      36.376 134.790  16.943  1.00  0.00     0.097 C 
BRANCH  40  41
ATOM     41  N   UNL     1      36.861 135.021  15.587  1.00  0.00    -0.094 NA
BRANCH  41  42
ATOM     42  N   UNL     1      37.739 134.306  15.102  1.00  0.00     0.001 N 
ATOM     43  N   UNL     1      38.617 133.590  14.620  1.00  0.00    -0.003 NA
ENDBRANCH  41  42
ENDBRANCH  40  41
ENDBRANCH   4  40
TORSDOF 10
ENDMDL
MODEL 6
REMARK VINA RESULT:      -5.0      4.270      6.989
REMARK SMILES C[N+]1(C)Cc2cc3ccc(-n4cc(CCN5C[C@H](CN=[N+]=[N-])CN5C(=O)c5ccc(N)cc5)n[nH+]4)cc3cc2C1
REMARK SMILES IDX 24 1 16 2 17 3 18 4 23 5 25 6 26 7 27 8 28 9 29 10 30 11
REMARK SMILES IDX 33 12 32 13 31 14 15 17 14 18 13 19 34 20 12 21 35 22 11 23
REMARK SMILES IDX 10 25 9 26 36 27 8 28 37 29 7 30 38 31 6 32 39 33 5 34 40 35
REMARK SMILES IDX 4 36 2 37 1 38 3 39 19 40 20 41 21 42 22 43
REMARK H PARENT 31 15 31 16 35 24
ROOT
ATOM      1  N   UNL     1      45.371 134.939  21.589  1.00  0.00    -0.271 N 
ATOM      2  N   UNL     1      45.136 135.948  20.634  1.00  0.00    -0.218 NA
ATOM      3  C   UNL     1      46.151 136.978  20.924  1.00  0.00     0.114 C 
ATOM      4  C   UNL     1      46.694 136.722  22.338  1.00  0.00     0.032 C 
ATOM      5  C   UNL     1      46.285 135.291  22.656  1.00  0.00     0.145 C 
ENDROOT
BRANCH   1   6
ATOM      6  C   UNL     1      44.966 133.580  21.384  1.00  0.00     0.268 C 
ATOM      7  O   UNL     1      45.348 132.696  22.200  1.00  0.00    -0.268 OA
BRANCH   6   8
ATOM      8  C   UNL     1      44.172 133.185  20.197  1.00  0.00     0.041 A 
ATOM      9  C   UNL     1      43.005 132.419  20.349  1.00  0.00     0.016 A 
ATOM     10  C   UNL     1      42.284 131.990  19.230  1.00  0.00     0.026 A 
ATOM     11  C   UNL     1      42.738 132.294  17.940  1.00  0.00     0.031 A 
ATOM     12  C   UNL     1      44.613 133.505  18.898  1.00  0.00     0.016 A 
ATOM     13  C   UNL     1      43.903 133.058  17.779  1.00  0.00     0.026 A 
BRANCH  11  14
ATOM     14  N   UNL     1      42.020 131.824  16.798  1.00  0.00    -0.399 N 
ATOM     15  H   UNL     1      41.885 132.436  15.960  1.00  0.00     0.156 HD
ATOM     16  H   UNL     1      41.575 130.877  16.801  1.00  0.00     0.156 HD
ENDBRANCH  11  14
ENDBRANCH   6   8
ENDBRANCH   1   6
BRANCH   2  17
ATOM     17  C   UNL     1      43.755 136.460  20.809  1.00  0.00     0.115 C 
BRANCH  17  18
ATOM     18  C   UNL     1      43.219 137.033  19.490  1.00  0.00     0.082 C 
BRANCH  18  19
ATOM     19  C   UNL     1      42.154 136.144  18.918  1.00  0.00     0.134 A 
ATOM     20  N   UNL     1      41.298 135.412  19.659  1.00  0.00     0.020 NA
ATOM     21  C   UNL     1      41.714 136.140  17.608  1.00  0.00     0.190 A 
ATOM     22  N   UNL     1      40.363 134.985  18.827  1.00  0.00    -0.012 N 
ATOM     23  N   UNL     1      40.581 135.416  17.594  1.00  0.00    -0.104 N 
ATOM     24  H   UNL     1      39.538 134.420  19.124  1.00  0.00     0.527 HD
BRANCH  23  25
ATOM     25  C   UNL     1      39.643 135.332  16.512  1.00  0.00     0.107 A 
ATOM     26  C   UNL     1      38.506 134.516  16.619  1.00  0.00     0.033 A 
ATOM     27  C   UNL     1      39.905 136.006  15.310  1.00  0.00     0.041 A 
ATOM     28  C   UNL     1      37.634 134.369  15.536  1.00  0.00     0.011 A 
ATOM     29  C   UNL     1      39.055 135.848  14.210  1.00  0.00    -0.016 A 
ATOM     30  C   UNL     1      37.902 135.018  14.323  1.00  0.00    -0.018 A 
ATOM     31  C   UNL     1      39.346 136.485  12.988  1.00  0.00     0.019 A 
ATOM     32  C   UNL     1      37.055 134.844  13.211  1.00  0.00     0.018 A 
ATOM     33  C   UNL     1      38.491 136.276  11.907  1.00  0.00     0.016 A 
ATOM     34  C   UNL     1      37.384 135.485  12.016  1.00  0.00     0.016 A 
ATOM     35  C   UNL     1      38.606 136.824  10.540  1.00  0.00     0.301 C 
ATOM     36  C   UNL     1      36.664 135.434  10.724  1.00  0.00     0.301 C 
ATOM     37  N   UNL     1      37.568 136.104   9.737  1.00  0.00    -0.321 N 
ATOM     38  C   UNL     1      38.214 135.089   8.870  1.00  0.00     0.334 C 
ATOM     39  C   UNL     1      36.810 137.052   8.886  1.00  0.00     0.334 C 
ENDBRANCH  23  25
ENDBRANCH  18  19
ENDBRANCH  17  18
ENDBRANCH   2  17
BRANCH   4  40
ATOM     40  C   UNL     1      48.211 136.973  22.467  1.00  0.00     0.097 C 
BRANCH  40  41
ATOM     41  N   UNL     1      48.981 135.868  21.909  1.00  0.00    -0.094 NA
BRANCH  41  42
ATOM     42  N   UNL     1      49.632 135.121  22.642  1.00  0.00     0.001 N 
ATOM     43  N   UNL     1      50.280 134.374  23.375  1.00  0.00    -0.003 NA
ENDBRANCH  41  42
ENDBRANCH  40  41
ENDBRANCH   4  40
TORSDOF 10
ENDMDL
MODEL 7
REMARK VINA RESULT:      -4.5      4.089      6.097
REMARK SMILES C[N+]1(C)Cc2cc3ccc(-n4cc(CCN5C[C@H](CN=[N+]=[N-])CN5C(=O)c5ccc(N)cc5)n[nH+]4)cc3cc2C1
REMARK SMILES IDX 24 1 16 2 17 3 18 4 23 5 25 6 26 7 27 8 28 9 29 10 30 11
REMARK SMILES IDX 33 12 32 13 31 14 15 17 14 18 13 19 34 20 12 21 35 22 11 23
REMARK SMILES IDX 10 25 9 26 36 27 8 28 37 29 7 30 38 31 6 32 39 33 5 34 40 35
REMARK SMILES IDX 4 36 2 37 1 38 3 39 19 40 20 41 21 42 22 43
REMARK H PARENT 31 15 31 16 35 24
ROOT
ATOM      1  N   UNL     1      39.352 136.543  21.228  1.00  0.00    -0.271 N 
ATOM      2  N   UNL     1      39.047 136.700  19.861  1.00  0.00    -0.218 NA
ATOM      3  C   UNL     1      39.722 137.952  19.470  1.00  0.00     0.114 C 
ATOM      4  C   UNL     1      40.066 138.724  20.753  1.00  0.00     0.032 C 
ATOM      5  C   UNL     1      39.963 137.691  21.865  1.00  0.00     0.145 C 
ENDROOT
BRANCH   1   6
ATOM      6  C   UNL     1      39.324 135.266  21.878  1.00  0.00     0.268 C 
ATOM      7  O   UNL     1      38.211 134.704  22.076  1.00  0.00    -0.268 OA
BRANCH   6   8
ATOM      8  C   UNL     1      40.564 134.634  22.385  1.00  0.00     0.041 A 
ATOM      9  C   UNL     1      41.811 134.989  21.843  1.00  0.00     0.016 A 
ATOM     10  C   UNL     1      42.980 134.353  22.273  1.00  0.00     0.026 A 
ATOM     11  C   UNL     1      42.916 133.330  23.228  1.00  0.00     0.031 A 
ATOM     12  C   UNL     1      40.508 133.619  23.359  1.00  0.00     0.016 A 
ATOM     13  C   UNL     1      41.676 132.969  23.772  1.00  0.00     0.026 A 
BRANCH  11  14
ATOM     14  N   UNL     1      44.108 132.657  23.638  1.00  0.00    -0.399 N 
ATOM     15  H   UNL     1      44.840 133.155  24.193  1.00  0.00     0.156 HD
ATOM     16  H   UNL     1      44.287 131.668  23.346  1.00  0.00     0.156 HD
ENDBRANCH  11  14
ENDBRANCH   6   8
ENDBRANCH   1   6
BRANCH   2  17
ATOM     17  C   UNL     1      37.574 136.789  19.707  1.00  0.00     0.115 C 
BRANCH  17  18
ATOM     18  C   UNL     1      37.077 135.779  18.664  1.00  0.00     0.082 C 
BRANCH  18  19
ATOM     19  C   UNL     1      38.194 135.362  17.754  1.00  0.00     0.134 A 
ATOM     20  N   UNL     1      38.640 136.096  16.715  1.00  0.00     0.020 NA
ATOM     21  C   UNL     1      39.091 134.336  17.982  1.00  0.00     0.190 A 
ATOM     22  N   UNL     1      39.776 135.540  16.331  1.00  0.00    -0.012 N 
ATOM     23  N   UNL     1      40.076 134.489  17.081  1.00  0.00    -0.104 N 
ATOM     24  H   UNL     1      40.375 135.915  15.563  1.00  0.00     0.527 HD
BRANCH  23  25
ATOM     25  C   UNL     1      41.339 133.811  17.083  1.00  0.00     0.107 A 
ATOM     26  C   UNL     1      42.215 133.941  18.173  1.00  0.00     0.033 A 
ATOM     27  C   UNL     1      41.739 133.079  15.955  1.00  0.00     0.041 A 
ATOM     28  C   UNL     1      43.480 133.348  18.142  1.00  0.00     0.011 A 
ATOM     29  C   UNL     1      43.012 132.501  15.900  1.00  0.00    -0.016 A 
ATOM     30  C   UNL     1      43.896 132.636  17.009  1.00  0.00    -0.018 A 
ATOM     31  C   UNL     1      43.430 131.809  14.747  1.00  0.00     0.019 A 
ATOM     32  C   UNL     1      45.185 132.070  16.948  1.00  0.00     0.018 A 
ATOM     33  C   UNL     1      44.718 131.275  14.720  1.00  0.00     0.016 A 
ATOM     34  C   UNL     1      45.564 131.401  15.783  1.00  0.00     0.016 A 
ATOM     35  C   UNL     1      45.369 130.531  13.622  1.00  0.00     0.301 C 
ATOM     36  C   UNL     1      46.859 130.750  15.484  1.00  0.00     0.301 C 
ATOM     37  N   UNL     1      46.803 130.399  14.030  1.00  0.00    -0.321 N 
ATOM     38  C   UNL     1      47.640 131.341  13.248  1.00  0.00     0.334 C 
ATOM     39  C   UNL     1      47.289 129.018  13.801  1.00  0.00     0.334 C 
ENDBRANCH  23  25
ENDBRANCH  18  19
ENDBRANCH  17  18
ENDBRANCH   2  17
BRANCH   4  40
ATOM     40  C   UNL     1      41.435 139.432  20.693  1.00  0.00     0.097 C 
BRANCH  40  41
ATOM     41  N   UNL     1      41.999 139.612  22.026  1.00  0.00    -0.094 NA
BRANCH  41  42
ATOM     42  N   UNL     1      42.656 138.715  22.558  1.00  0.00     0.001 N 
ATOM     43  N   UNL     1      43.314 137.821  23.090  1.00  0.00    -0.003 NA
ENDBRANCH  41  42
ENDBRANCH  40  41
ENDBRANCH   4  40
TORSDOF 10
ENDMDL
MODEL 8
REMARK VINA RESULT:      -4.5      2.773      5.667
REMARK SMILES C[N+]1(C)Cc2cc3ccc(-n4cc(CCN5C[C@H](CN=[N+]=[N-])CN5C(=O)c5ccc(N)cc5)n[nH+]4)cc3cc2C1
REMARK SMILES IDX 24 1 16 2 17 3 18 4 23 5 25 6 26 7 27 8 28 9 29 10 30 11
REMARK SMILES IDX 33 12 32 13 31 14 15 17 14 18 13 19 34 20 12 21 35 22 11 23
REMARK SMILES IDX 10 25 9 26 36 27 8 28 37 29 7 30 38 31 6 32 39 33 5 34 40 35
REMARK SMILES IDX 4 36 2 37 1 38 3 39 19 40 20 41 21 42 22 43
REMARK H PARENT 31 15 31 16 35 24
ROOT
ATOM      1  N   UNL     1      43.490 138.162  20.766  1.00  0.00    -0.271 N 
ATOM      2  N   UNL     1      43.584 138.084  22.170  1.00  0.00    -0.218 NA
ATOM      3  C   UNL     1      45.000 137.762  22.431  1.00  0.00     0.114 C 
ATOM      4  C   UNL     1      45.615 137.239  21.124  1.00  0.00     0.032 C 
ATOM      5  C   UNL     1      44.646 137.682  20.037  1.00  0.00     0.145 C 
ENDROOT
BRANCH   1   6
ATOM      6  C   UNL     1      42.460 138.908  20.107  1.00  0.00     0.268 C 
ATOM      7  O   UNL     1      41.682 139.623  20.798  1.00  0.00    -0.268 OA
BRANCH   6   8
ATOM      8  C   UNL     1      42.247 138.798  18.645  1.00  0.00     0.041 A 
ATOM      9  C   UNL     1      41.170 138.049  18.141  1.00  0.00     0.016 A 
ATOM     10  C   UNL     1      40.998 137.889  16.762  1.00  0.00     0.026 A 
ATOM     11  C   UNL     1      41.918 138.450  15.867  1.00  0.00     0.031 A 
ATOM     12  C   UNL     1      43.158 139.377  17.739  1.00  0.00     0.016 A 
ATOM     13  C   UNL     1      42.996 139.199  16.361  1.00  0.00     0.026 A 
BRANCH  11  14
ATOM     14  N   UNL     1      41.760 138.255  14.461  1.00  0.00    -0.399 N 
ATOM     15  H   UNL     1      42.531 137.843  13.887  1.00  0.00     0.156 HD
ATOM     16  H   UNL     1      40.888 138.568  13.974  1.00  0.00     0.156 HD
ENDBRANCH  11  14
ENDBRANCH   6   8
ENDBRANCH   1   6
BRANCH   2  17
ATOM     17  C   UNL     1      42.670 137.019  22.652  1.00  0.00     0.115 C 
BRANCH  17  18
ATOM     18  C   UNL     1      41.475 136.861  21.703  1.00  0.00     0.082 C 
BRANCH  18  19
ATOM     19  C   UNL     1      41.536 135.544  20.986  1.00  0.00     0.134 A 
ATOM     20  N   UNL     1      40.629 134.558  21.132  1.00  0.00     0.020 NA
ATOM     21  C   UNL     1      42.340 135.244  19.904  1.00  0.00     0.190 A 
ATOM     22  N   UNL     1      40.868 133.691  20.162  1.00  0.00    -0.012 N 
ATOM     23  N   UNL     1      41.881 134.083  19.404  1.00  0.00    -0.104 N 
ATOM     24  H   UNL     1      40.296 132.834  19.997  1.00  0.00     0.527 HD
BRANCH  23  25
ATOM     25  C   UNL     1      42.243 133.501  18.145  1.00  0.00     0.107 A 
ATOM     26  C   UNL     1      41.252 133.039  17.264  1.00  0.00     0.033 A 
ATOM     27  C   UNL     1      43.596 133.318  17.825  1.00  0.00     0.041 A 
ATOM     28  C   UNL     1      41.604 132.397  16.073  1.00  0.00     0.011 A 
ATOM     29  C   UNL     1      43.964 132.655  16.649  1.00  0.00    -0.016 A 
ATOM     30  C   UNL     1      42.954 132.187  15.759  1.00  0.00    -0.018 A 
ATOM     31  C   UNL     1      45.321 132.427  16.354  1.00  0.00     0.019 A 
ATOM     32  C   UNL     1      43.321 131.504  14.583  1.00  0.00     0.018 A 
ATOM     33  C   UNL     1      45.644 131.735  15.188  1.00  0.00     0.016 A 
ATOM     34  C   UNL     1      44.678 131.291  14.333  1.00  0.00     0.016 A 
ATOM     35  C   UNL     1      46.987 131.372  14.689  1.00  0.00     0.301 C 
ATOM     36  C   UNL     1      45.295 130.588  13.186  1.00  0.00     0.301 C 
ATOM     37  N   UNL     1      46.744 130.450  13.536  1.00  0.00    -0.321 N 
ATOM     38  C   UNL     1      47.039 129.052  13.935  1.00  0.00     0.334 C 
ATOM     39  C   UNL     1      47.602 130.812  12.383  1.00  0.00     0.334 C 
ENDBRANCH  23  25
ENDBRANCH  18  19
ENDBRANCH  17  18
ENDBRANCH   2  17
BRANCH   4  40
ATOM     40  C   UNL     1      47.062 137.719  20.893  1.00  0.00     0.097 C 
BRANCH  40  41
ATOM     41  N   UNL     1      48.006 136.978  21.722  1.00  0.00    -0.094 NA
BRANCH  41  42
ATOM     42  N   UNL     1      49.195 137.297  21.761  1.00  0.00     0.001 N 
ATOM     43  N   UNL     1      50.383 137.619  21.799  1.00  0.00    -0.003 NA
ENDBRANCH  41  42
ENDBRANCH  40  41
ENDBRANCH   4  40
TORSDOF 10
ENDMDL
MODEL 9
REMARK VINA RESULT:      -4.4      4.577      8.560
REMARK SMILES C[N+]1(C)Cc2cc3ccc(-n4cc(CCN5C[C@H](CN=[N+]=[N-])CN5C(=O)c5ccc(N)cc5)n[nH+]4)cc3cc2C1
REMARK SMILES IDX 24 1 16 2 17 3 18 4 23 5 25 6 26 7 27 8 28 9 29 10 30 11
REMARK SMILES IDX 33 12 32 13 31 14 15 17 14 18 13 19 34 20 12 21 35 22 11 23
REMARK SMILES IDX 10 25 9 26 36 27 8 28 37 29 7 30 38 31 6 32 39 33 5 34 40 35
REMARK SMILES IDX 4 36 2 37 1 38 3 39 19 40 20 41 21 42 22 43
REMARK H PARENT 31 15 31 16 35 24
ROOT
ATOM      1  N   UNL     1      40.063 138.361  14.726  1.00  0.00    -0.271 N 
ATOM      2  N   UNL     1      39.370 138.398  13.500  1.00  0.00    -0.218 NA
ATOM      3  C   UNL     1      37.979 138.721  13.869  1.00  0.00     0.114 C 
ATOM      4  C   UNL     1      37.812 138.448  15.371  1.00  0.00     0.032 C 
ATOM      5  C   UNL     1      39.233 138.384  15.912  1.00  0.00     0.145 C 
ENDROOT
BRANCH   1   6
ATOM      6  C   UNL     1      41.479 138.565  14.812  1.00  0.00     0.268 C 
ATOM      7  O   UNL     1      42.068 139.181  13.880  1.00  0.00    -0.268 OA
BRANCH   6   8
ATOM      8  C   UNL     1      42.269 138.006  15.933  1.00  0.00     0.041 A 
ATOM      9  C   UNL     1      42.829 138.859  16.899  1.00  0.00     0.016 A 
ATOM     10  C   UNL     1      43.628 138.344  17.925  1.00  0.00     0.026 A 
ATOM     11  C   UNL     1      43.904 136.973  17.984  1.00  0.00     0.031 A 
ATOM     12  C   UNL     1      42.534 136.624  16.008  1.00  0.00     0.016 A 
ATOM     13  C   UNL     1      43.350 136.114  17.023  1.00  0.00     0.026 A 
BRANCH  11  14
ATOM     14  N   UNL     1      44.750 136.454  19.012  1.00  0.00    -0.399 N 
ATOM     15  H   UNL     1      44.471 136.518  20.018  1.00  0.00     0.156 HD
ATOM     16  H   UNL     1      45.685 136.047  18.777  1.00  0.00     0.156 HD
ENDBRANCH  11  14
ENDBRANCH   6   8
ENDBRANCH   1   6
BRANCH   2  17
ATOM     17  C   UNL     1      39.480 137.070  12.847  1.00  0.00     0.115 C 
BRANCH  17  18
ATOM     18  C   UNL     1      38.409 136.112  13.384  1.00  0.00     0.082 C 
BRANCH  18  19
ATOM     19  C   UNL     1      39.023 135.072  14.275  1.00  0.00     0.134 A 
ATOM     20  N   UNL     1      39.983 134.210  13.884  1.00  0.00     0.020 NA
ATOM     21  C   UNL     1      38.911 135.010  15.650  1.00  0.00     0.190 A 
ATOM     22  N   UNL     1      40.446 133.649  14.989  1.00  0.00    -0.012 N 
ATOM     23  N   UNL     1      39.829 134.118  16.063  1.00  0.00    -0.104 N 
ATOM     24  H   UNL     1      41.229 132.959  15.004  1.00  0.00     0.527 HD
BRANCH  23  25
ATOM     25  C   UNL     1      40.247 133.898  17.417  1.00  0.00     0.107 A 
ATOM     26  C   UNL     1      39.644 134.602  18.471  1.00  0.00     0.033 A 
ATOM     27  C   UNL     1      41.321 133.035  17.682  1.00  0.00     0.041 A 
ATOM     28  C   UNL     1      40.105 134.449  19.782  1.00  0.00     0.011 A 
ATOM     29  C   UNL     1      41.809 132.891  18.986  1.00  0.00    -0.016 A 
ATOM     30  C   UNL     1      41.193 133.608  20.052  1.00  0.00    -0.018 A 
ATOM     31  C   UNL     1      42.918 132.063  19.243  1.00  0.00     0.019 A 
ATOM     32  C   UNL     1      41.695 133.478  21.362  1.00  0.00     0.018 A 
ATOM     33  C   UNL     1      43.394 131.972  20.550  1.00  0.00     0.016 A 
ATOM     34  C   UNL     1      42.802 132.655  21.573  1.00  0.00     0.016 A 
ATOM     35  C   UNL     1      44.542 131.185  21.046  1.00  0.00     0.301 C 
ATOM     36  C   UNL     1      43.508 132.383  22.844  1.00  0.00     0.301 C 
ATOM     37  N   UNL     1      44.744 131.629  22.461  1.00  0.00    -0.321 N 
ATOM     38  C   UNL     1      45.928 132.517  22.549  1.00  0.00     0.334 C 
ATOM     39  C   UNL     1      44.949 130.464  23.353  1.00  0.00     0.334 C 
ENDBRANCH  23  25
ENDBRANCH  18  19
ENDBRANCH  17  18
ENDBRANCH   2  17
BRANCH   4  40
ATOM     40  C   UNL     1      36.925 139.486  16.088  1.00  0.00     0.097 C 
BRANCH  40  41
ATOM     41  N   UNL     1      36.375 138.949  17.328  1.00  0.00    -0.094 NA
BRANCH  41  42
ATOM     42  N   UNL     1      36.538 137.765  17.628  1.00  0.00     0.001 N 
ATOM     43  N   UNL     1      36.700 136.582  17.926  1.00  0.00    -0.003 NA
ENDBRANCH  41  42
ENDBRANCH  40  41
ENDBRANCH   4  40
TORSDOF 10
ENDMDL


