MODEL 1
REMARK VINA RESULT:      -8.1      0.000      0.000
REMARK SMILES Cc1[nH+]nn(C/C(O)=N\c2cccc(C#N)c2C)c1-c1cc2ccccc2c2ccccc12
REMARK SMILES IDX 7 1 8 2 9 4 10 5 11 6 17 7 12 8 14 9 13 10 18 11 15 12 16 13
REMARK SMILES IDX 6 14 5 15 4 16 19 17 3 18 2 19 1 21 20 22 21 23 33 24 22 25
REMARK SMILES IDX 32 26 28 27 23 28 27 29 31 30 29 31 24 32 26 33 30 34 25 35
REMARK H PARENT 8 3 3 20
ROOT
ATOM      1  C   UNL     1      42.688 132.873  14.747  1.00  0.00     0.231 C 
ENDROOT
BRANCH   1   2
ATOM      2  O   UNL     1      41.313 132.728  14.910  1.00  0.00    -0.493 OA
ATOM      3  H   UNL     1      40.833 133.142  15.699  1.00  0.00     0.295 HD
ENDBRANCH   1   2
BRANCH   1   4
ATOM      4  N   UNL     1      43.386 131.836  14.373  1.00  0.00    -0.214 NA
BRANCH   4   5
ATOM      5  C   UNL     1      44.479 131.199  15.058  1.00  0.00     0.071 A 
ATOM      6  C   UNL     1      44.562 131.241  16.460  1.00  0.00     0.029 A 
ATOM      7  C   UNL     1      45.552 130.655  14.311  1.00  0.00    -0.007 A 
ATOM      8  C   UNL     1      45.645 130.664  17.122  1.00  0.00     0.004 A 
ATOM      9  C   UNL     1      46.663 130.106  14.996  1.00  0.00     0.057 A 
ATOM     10  C   UNL     1      46.688 130.094  16.395  1.00  0.00     0.020 A 
ATOM     11  C   UNL     1      45.537 130.745  12.803  1.00  0.00     0.048 C 
BRANCH   9  12
ATOM     12  C   UNL     1      47.793 129.554  14.287  1.00  0.00     0.099 C 
ATOM     13  N   UNL     1      48.698 129.113  13.716  1.00  0.00    -0.192 NA
ENDBRANCH   9  12
ENDBRANCH   4   5
ENDBRANCH   1   4
BRANCH   1  14
ATOM     14  C   UNL     1      43.288 134.219  15.068  1.00  0.00     0.366 C 
BRANCH  14  15
ATOM     15  N   UNL     1      42.260 135.117  15.589  1.00  0.00    -0.120 N 
ATOM     16  N   UNL     1      41.244 135.567  14.868  1.00  0.00     0.089 NA
ATOM     17  C   UNL     1      42.122 135.582  16.851  1.00  0.00     0.201 A 
ATOM     18  N   UNL     1      40.464 136.331  15.618  1.00  0.00    -0.147 N 
ATOM     19  C   UNL     1      40.989 136.377  16.855  1.00  0.00     0.169 A 
ATOM     20  H   UNL     1      39.598 136.807  15.282  1.00  0.00     0.342 HD
ATOM     21  C   UNL     1      40.398 137.132  18.004  1.00  0.00     0.100 C 
BRANCH  17  22
ATOM     22  C   UNL     1      43.048 135.332  17.981  1.00  0.00     0.036 A 
ATOM     23  C   UNL     1      43.941 136.347  18.324  1.00  0.00     0.022 A 
ATOM     24  C   UNL     1      43.020 134.135  18.735  1.00  0.00    -0.006 A 
ATOM     25  C   UNL     1      44.826 136.200  19.392  1.00  0.00    -0.017 A 
ATOM     26  C   UNL     1      42.161 133.075  18.373  1.00  0.00     0.009 A 
ATOM     27  C   UNL     1      43.884 133.981  19.863  1.00  0.00    -0.010 A 
ATOM     28  C   UNL     1      45.738 137.232  19.670  1.00  0.00     0.009 A 
ATOM     29  C   UNL     1      44.809 135.021  20.184  1.00  0.00    -0.010 A 
ATOM     30  C   UNL     1      42.107 131.908  19.129  1.00  0.00     0.001 A 
ATOM     31  C   UNL     1      43.796 132.783  20.616  1.00  0.00     0.009 A 
ATOM     32  C   UNL     1      46.641 137.112  20.723  1.00  0.00     0.001 A 
ATOM     33  C   UNL     1      45.738 134.931  21.253  1.00  0.00     0.009 A 
ATOM     34  C   UNL     1      42.913 131.768  20.251  1.00  0.00     0.001 A 
ATOM     35  C   UNL     1      46.640 135.965  21.511  1.00  0.00     0.001 A 
ENDBRANCH  17  22
ENDBRANCH  14  15
ENDBRANCH   1  14
TORSDOF 7
ENDMDL
MODEL 2
REMARK VINA RESULT:      -8.0      2.463      6.281
REMARK SMILES Cc1[nH+]nn(C/C(O)=N\c2cccc(C#N)c2C)c1-c1cc2ccccc2c2ccccc12
REMARK SMILES IDX 7 1 8 2 9 4 10 5 11 6 17 7 12 8 14 9 13 10 18 11 15 12 16 13
REMARK SMILES IDX 6 14 5 15 4 16 19 17 3 18 2 19 1 21 20 22 21 23 33 24 22 25
REMARK SMILES IDX 32 26 28 27 23 28 27 29 31 30 29 31 24 32 26 33 30 34 25 35
REMARK H PARENT 8 3 3 20
ROOT
ATOM      1  C   UNL     1      44.771 132.632  15.521  1.00  0.00     0.231 C 
ENDROOT
BRANCH   1   2
ATOM      2  O   UNL     1      46.083 132.379  15.132  1.00  0.00    -0.493 OA
ATOM      3  H   UNL     1      46.311 132.153  14.172  1.00  0.00     0.295 HD
ENDBRANCH   1   2
BRANCH   1   4
ATOM      4  N   UNL     1      44.263 133.810  15.279  1.00  0.00    -0.214 NA
BRANCH   4   5
ATOM      5  C   UNL     1      42.894 134.154  15.002  1.00  0.00     0.071 A 
ATOM      6  C   UNL     1      41.980 133.167  14.596  1.00  0.00     0.029 A 
ATOM      7  C   UNL     1      42.501 135.513  14.995  1.00  0.00    -0.007 A 
ATOM      8  C   UNL     1      40.665 133.506  14.282  1.00  0.00     0.004 A 
ATOM      9  C   UNL     1      41.172 135.848  14.638  1.00  0.00     0.057 A 
ATOM     10  C   UNL     1      40.260 134.839  14.309  1.00  0.00     0.020 A 
ATOM     11  C   UNL     1      43.521 136.590  15.283  1.00  0.00     0.048 C 
BRANCH   9  12
ATOM     12  C   UNL     1      40.721 137.218  14.597  1.00  0.00     0.099 C 
ATOM     13  N   UNL     1      40.362 138.318  14.563  1.00  0.00    -0.192 NA
ENDBRANCH   9  12
ENDBRANCH   4   5
ENDBRANCH   1   4
BRANCH   1  14
ATOM     14  C   UNL     1      44.038 131.534  16.250  1.00  0.00     0.366 C 
BRANCH  14  15
ATOM     15  N   UNL     1      44.363 131.573  17.674  1.00  0.00    -0.120 N 
ATOM     16  N   UNL     1      45.314 130.839  18.232  1.00  0.00     0.089 NA
ATOM     17  C   UNL     1      43.827 132.366  18.629  1.00  0.00     0.201 A 
ATOM     18  N   UNL     1      45.395 131.114  19.525  1.00  0.00    -0.147 N 
ATOM     19  C   UNL     1      44.472 132.049  19.812  1.00  0.00     0.169 A 
ATOM     20  H   UNL     1      46.067 130.665  20.187  1.00  0.00     0.342 HD
ATOM     21  C   UNL     1      44.248 132.635  21.170  1.00  0.00     0.100 C 
BRANCH  17  22
ATOM     22  C   UNL     1      42.720 133.334  18.442  1.00  0.00     0.036 A 
ATOM     23  C   UNL     1      41.449 132.824  18.181  1.00  0.00     0.022 A 
ATOM     24  C   UNL     1      42.905 134.732  18.565  1.00  0.00    -0.006 A 
ATOM     25  C   UNL     1      40.350 133.668  18.019  1.00  0.00    -0.017 A 
ATOM     26  C   UNL     1      44.192 135.272  18.778  1.00  0.00     0.009 A 
ATOM     27  C   UNL     1      41.786 135.614  18.451  1.00  0.00    -0.010 A 
ATOM     28  C   UNL     1      39.099 133.109  17.712  1.00  0.00     0.009 A 
ATOM     29  C   UNL     1      40.496 135.074  18.159  1.00  0.00    -0.010 A 
ATOM     30  C   UNL     1      44.375 136.643  18.930  1.00  0.00     0.001 A 
ATOM     31  C   UNL     1      42.009 137.003  18.621  1.00  0.00     0.009 A 
ATOM     32  C   UNL     1      37.985 133.925  17.535  1.00  0.00     0.001 A 
ATOM     33  C   UNL     1      39.342 135.879  17.977  1.00  0.00     0.009 A 
ATOM     34  C   UNL     1      43.287 137.503  18.862  1.00  0.00     0.001 A 
ATOM     35  C   UNL     1      38.107 135.305  17.667  1.00  0.00     0.001 A 
ENDBRANCH  17  22
ENDBRANCH  14  15
ENDBRANCH   1  14
TORSDOF 7
ENDMDL
MODEL 3
REMARK VINA RESULT:      -7.5      3.234      6.820
REMARK SMILES Cc1[nH+]nn(C/C(O)=N\c2cccc(C#N)c2C)c1-c1cc2ccccc2c2ccccc12
REMARK SMILES IDX 7 1 8 2 9 4 10 5 11 6 17 7 12 8 14 9 13 10 18 11 15 12 16 13
REMARK SMILES IDX 6 14 5 15 4 16 19 17 3 18 2 19 1 21 20 22 21 23 33 24 22 25
REMARK SMILES IDX 32 26 28 27 23 28 27 29 31 30 29 31 24 32 26 33 30 34 25 35
REMARK H PARENT 8 3 3 20
ROOT
ATOM      1  C   UNL     1      41.311 134.308  21.457  1.00  0.00     0.231 C 
ENDROOT
BRANCH   1   2
ATOM      2  O   UNL     1      41.592 135.470  22.170  1.00  0.00    -0.493 OA
ATOM      3  H   UNL     1      40.893 136.191  22.292  1.00  0.00     0.295 HD
ENDBRANCH   1   2
BRANCH   1   4
ATOM      4  N   UNL     1      40.342 134.330  20.583  1.00  0.00    -0.214 NA
BRANCH   4   5
ATOM      5  C   UNL     1      40.322 134.946  19.284  1.00  0.00     0.071 A 
ATOM      6  C   UNL     1      39.901 136.279  19.135  1.00  0.00     0.029 A 
ATOM      7  C   UNL     1      40.585 134.166  18.134  1.00  0.00    -0.007 A 
ATOM      8  C   UNL     1      39.836 136.863  17.871  1.00  0.00     0.004 A 
ATOM      9  C   UNL     1      40.480 134.762  16.853  1.00  0.00     0.057 A 
ATOM     10  C   UNL     1      40.130 136.112  16.736  1.00  0.00     0.020 A 
ATOM     11  C   UNL     1      40.890 132.693  18.280  1.00  0.00     0.048 C 
BRANCH   9  12
ATOM     12  C   UNL     1      40.720 134.009  15.645  1.00  0.00     0.099 C 
ATOM     13  N   UNL     1      40.916 133.406  14.677  1.00  0.00    -0.192 NA
ENDBRANCH   9  12
ENDBRANCH   4   5
ENDBRANCH   1   4
BRANCH   1  14
ATOM     14  C   UNL     1      42.120 133.078  21.784  1.00  0.00     0.366 C 
BRANCH  14  15
ATOM     15  N   UNL     1      43.485 133.456  22.143  1.00  0.00    -0.120 N 
ATOM     16  N   UNL     1      43.905 133.594  23.392  1.00  0.00     0.089 NA
ATOM     17  C   UNL     1      44.536 133.664  21.318  1.00  0.00     0.201 A 
ATOM     18  N   UNL     1      45.191 133.909  23.402  1.00  0.00    -0.147 N 
ATOM     19  C   UNL     1      45.615 133.979  22.127  1.00  0.00     0.169 A 
ATOM     20  H   UNL     1      45.757 134.074  24.264  1.00  0.00     0.342 HD
ATOM     21  C   UNL     1      47.015 134.302  21.711  1.00  0.00     0.100 C 
BRANCH  17  22
ATOM     22  C   UNL     1      44.506 133.623  19.837  1.00  0.00     0.036 A 
ATOM     23  C   UNL     1      44.719 132.391  19.218  1.00  0.00     0.022 A 
ATOM     24  C   UNL     1      44.229 134.766  19.051  1.00  0.00    -0.006 A 
ATOM     25  C   UNL     1      44.681 132.264  17.829  1.00  0.00    -0.017 A 
ATOM     26  C   UNL     1      44.062 136.032  19.654  1.00  0.00     0.009 A 
ATOM     27  C   UNL     1      44.137 134.651  17.629  1.00  0.00    -0.010 A 
ATOM     28  C   UNL     1      44.946 131.011  17.251  1.00  0.00     0.009 A 
ATOM     29  C   UNL     1      44.382 133.386  17.012  1.00  0.00    -0.010 A 
ATOM     30  C   UNL     1      43.759 137.154  18.888  1.00  0.00     0.001 A 
ATOM     31  C   UNL     1      43.817 135.812  16.883  1.00  0.00     0.009 A 
ATOM     32  C   UNL     1      44.926 130.854  15.868  1.00  0.00     0.001 A 
ATOM     33  C   UNL     1      44.364 133.192  15.606  1.00  0.00     0.009 A 
ATOM     34  C   UNL     1      43.627 137.042  17.511  1.00  0.00     0.001 A 
ATOM     35  C   UNL     1      44.635 131.941  15.049  1.00  0.00     0.001 A 
ENDBRANCH  17  22
ENDBRANCH  14  15
ENDBRANCH   1  14
TORSDOF 7
ENDMDL
MODEL 4
REMARK VINA RESULT:      -7.1      4.020      7.879
REMARK SMILES Cc1[nH+]nn(C/C(O)=N\c2cccc(C#N)c2C)c1-c1cc2ccccc2c2ccccc12
REMARK SMILES IDX 7 1 8 2 9 4 10 5 11 6 17 7 12 8 14 9 13 10 18 11 15 12 16 13
REMARK SMILES IDX 6 14 5 15 4 16 19 17 3 18 2 19 1 21 20 22 21 23 33 24 22 25
REMARK SMILES IDX 32 26 28 27 23 28 27 29 31 30 29 31 24 32 26 33 30 34 25 35
REMARK H PARENT 8 3 3 20
ROOT
ATOM      1  C   UNL     1      46.257 133.531  21.694  1.00  0.00     0.231 C 
ENDROOT
BRANCH   1   2
ATOM      2  O   UNL     1      45.133 134.261  22.069  1.00  0.00    -0.493 OA
ATOM      3  H   UNL     1      45.155 135.272  22.112  1.00  0.00     0.295 HD
ENDBRANCH   1   2
BRANCH   1   4
ATOM      4  N   UNL     1      47.428 134.102  21.771  1.00  0.00    -0.214 NA
BRANCH   4   5
ATOM      5  C   UNL     1      47.738 135.506  21.803  1.00  0.00     0.071 A 
ATOM      6  C   UNL     1      47.115 136.393  20.909  1.00  0.00     0.029 A 
ATOM      7  C   UNL     1      48.781 135.975  22.636  1.00  0.00    -0.007 A 
ATOM      8  C   UNL     1      47.448 137.747  20.907  1.00  0.00     0.004 A 
ATOM      9  C   UNL     1      49.135 137.346  22.598  1.00  0.00     0.057 A 
ATOM     10  C   UNL     1      48.449 138.223  21.751  1.00  0.00     0.020 A 
ATOM     11  C   UNL     1      49.557 134.997  23.489  1.00  0.00     0.048 C 
BRANCH   9  12
ATOM     12  C   UNL     1      50.203 137.876  23.413  1.00  0.00     0.099 C 
ATOM     13  N   UNL     1      51.059 138.298  24.067  1.00  0.00    -0.192 NA
ENDBRANCH   9  12
ENDBRANCH   4   5
ENDBRANCH   1   4
BRANCH   1  14
ATOM     14  C   UNL     1      46.036 132.134  21.171  1.00  0.00     0.366 C 
BRANCH  14  15
ATOM     15  N   UNL     1      44.611 131.898  20.955  1.00  0.00    -0.120 N 
ATOM     16  N   UNL     1      43.735 131.738  21.936  1.00  0.00     0.089 NA
ATOM     17  C   UNL     1      43.942 131.862  19.780  1.00  0.00     0.201 A 
ATOM     18  N   UNL     1      42.521 131.575  21.432  1.00  0.00    -0.147 N 
ATOM     19  C   UNL     1      42.613 131.630  20.091  1.00  0.00     0.169 A 
ATOM     20  H   UNL     1      41.657 131.428  22.000  1.00  0.00     0.342 HD
ATOM     21  C   UNL     1      41.456 131.497  19.152  1.00  0.00     0.100 C 
BRANCH  17  22
ATOM     22  C   UNL     1      44.539 131.986  18.429  1.00  0.00     0.036 A 
ATOM     23  C   UNL     1      45.239 130.889  17.928  1.00  0.00     0.022 A 
ATOM     24  C   UNL     1      44.382 133.144  17.633  1.00  0.00    -0.006 A 
ATOM     25  C   UNL     1      45.808 130.916  16.654  1.00  0.00    -0.017 A 
ATOM     26  C   UNL     1      43.722 134.284  18.141  1.00  0.00     0.009 A 
ATOM     27  C   UNL     1      44.915 133.177  16.307  1.00  0.00    -0.010 A 
ATOM     28  C   UNL     1      46.543 129.803  16.211  1.00  0.00     0.009 A 
ATOM     29  C   UNL     1      45.650 132.053  15.819  1.00  0.00    -0.010 A 
ATOM     30  C   UNL     1      43.538 135.415  17.350  1.00  0.00     0.001 A 
ATOM     31  C   UNL     1      44.700 134.341  15.528  1.00  0.00     0.009 A 
ATOM     32  C   UNL     1      47.132 129.803  14.949  1.00  0.00     0.001 A 
ATOM     33  C   UNL     1      46.257 132.021  14.537  1.00  0.00     0.009 A 
ATOM     34  C   UNL     1      44.016 135.439  16.047  1.00  0.00     0.001 A 
ATOM     35  C   UNL     1      46.989 130.908  14.116  1.00  0.00     0.001 A 
ENDBRANCH  17  22
ENDBRANCH  14  15
ENDBRANCH   1  14
TORSDOF 7
ENDMDL
MODEL 5
REMARK VINA RESULT:      -7.1      1.357      1.606
REMARK SMILES Cc1[nH+]nn(C/C(O)=N\c2cccc(C#N)c2C)c1-c1cc2ccccc2c2ccccc12
REMARK SMILES IDX 7 1 8 2 9 4 10 5 11 6 17 7 12 8 14 9 13 10 18 11 15 12 16 13
REMARK SMILES IDX 6 14 5 15 4 16 19 17 3 18 2 19 1 21 20 22 21 23 33 24 22 25
REMARK SMILES IDX 32 26 28 27 23 28 27 29 31 30 29 31 24 32 26 33 30 34 25 35
REMARK H PARENT 8 3 3 20
ROOT
ATOM      1  C   UNL     1      42.543 132.678  15.413  1.00  0.00     0.231 C 
ENDROOT
BRANCH   1   2
ATOM      2  O   UNL     1      41.935 133.745  14.756  1.00  0.00    -0.493 OA
ATOM      3  H   UNL     1      40.928 133.843  14.736  1.00  0.00     0.295 HD
ENDBRANCH   1   2
BRANCH   1   4
ATOM      4  N   UNL     1      43.428 131.969  14.768  1.00  0.00    -0.214 NA
BRANCH   4   5
ATOM      5  C   UNL     1      44.556 131.250  15.296  1.00  0.00     0.071 A 
ATOM      6  C   UNL     1      44.822 131.258  16.675  1.00  0.00     0.029 A 
ATOM      7  C   UNL     1      45.484 130.653  14.410  1.00  0.00    -0.007 A 
ATOM      8  C   UNL     1      45.942 130.601  17.184  1.00  0.00     0.004 A 
ATOM      9  C   UNL     1      46.636 130.021  14.936  1.00  0.00     0.057 A 
ATOM     10  C   UNL     1      46.841 129.979  16.320  1.00  0.00     0.020 A 
ATOM     11  C   UNL     1      45.280 130.774  12.917  1.00  0.00     0.048 C 
BRANCH   9  12
ATOM     12  C   UNL     1      47.626 129.412  14.080  1.00  0.00     0.099 C 
ATOM     13  N   UNL     1      48.418 128.925  13.391  1.00  0.00    -0.192 NA
ENDBRANCH   9  12
ENDBRANCH   4   5
ENDBRANCH   1   4
BRANCH   1  14
ATOM     14  C   UNL     1      42.092 132.381  16.821  1.00  0.00     0.366 C 
BRANCH  14  15
ATOM     15  N   UNL     1      41.075 133.344  17.236  1.00  0.00    -0.120 N 
ATOM     16  N   UNL     1      39.823 133.325  16.803  1.00  0.00     0.089 NA
ATOM     17  C   UNL     1      41.194 134.344  18.138  1.00  0.00     0.201 A 
ATOM     18  N   UNL     1      39.132 134.297  17.379  1.00  0.00    -0.147 N 
ATOM     19  C   UNL     1      39.958 134.964  18.204  1.00  0.00     0.169 A 
ATOM     20  H   UNL     1      38.122 134.493  17.202  1.00  0.00     0.342 HD
ATOM     21  C   UNL     1      39.557 136.132  19.049  1.00  0.00     0.100 C 
BRANCH  17  22
ATOM     22  C   UNL     1      42.431 134.729  18.859  1.00  0.00     0.036 A 
ATOM     23  C   UNL     1      43.125 135.849  18.402  1.00  0.00     0.022 A 
ATOM     24  C   UNL     1      42.891 134.034  20.002  1.00  0.00    -0.006 A 
ATOM     25  C   UNL     1      44.283 136.292  19.042  1.00  0.00    -0.017 A 
ATOM     26  C   UNL     1      42.233 132.868  20.450  1.00  0.00     0.009 A 
ATOM     27  C   UNL     1      44.048 134.497  20.703  1.00  0.00    -0.010 A 
ATOM     28  C   UNL     1      44.973 137.397  18.518  1.00  0.00     0.009 A 
ATOM     29  C   UNL     1      44.760 135.632  20.206  1.00  0.00    -0.010 A 
ATOM     30  C   UNL     1      42.663 132.198  21.592  1.00  0.00     0.001 A 
ATOM     31  C   UNL     1      44.451 133.796  21.867  1.00  0.00     0.009 A 
ATOM     32  C   UNL     1      46.137 137.858  19.127  1.00  0.00     0.001 A 
ATOM     33  C   UNL     1      45.946 136.127  20.807  1.00  0.00     0.009 A 
ATOM     34  C   UNL     1      43.760 132.666  22.302  1.00  0.00     0.001 A 
ATOM     35  C   UNL     1      46.621 137.224  20.268  1.00  0.00     0.001 A 
ENDBRANCH  17  22
ENDBRANCH  14  15
ENDBRANCH   1  14
TORSDOF 7
ENDMDL
MODEL 6
REMARK VINA RESULT:      -7.1      2.618      6.575
REMARK SMILES Cc1[nH+]nn(C/C(O)=N\c2cccc(C#N)c2C)c1-c1cc2ccccc2c2ccccc12
REMARK SMILES IDX 7 1 8 2 9 4 10 5 11 6 17 7 12 8 14 9 13 10 18 11 15 12 16 13
REMARK SMILES IDX 6 14 5 15 4 16 19 17 3 18 2 19 1 21 20 22 21 23 33 24 22 25
REMARK SMILES IDX 32 26 28 27 23 28 27 29 31 30 29 31 24 32 26 33 30 34 25 35
REMARK H PARENT 8 3 3 20
ROOT
ATOM      1  C   UNL     1      43.838 133.937  15.188  1.00  0.00     0.231 C 
ENDROOT
BRANCH   1   2
ATOM      2  O   UNL     1      45.006 134.372  15.808  1.00  0.00    -0.493 OA
ATOM      3  H   UNL     1      45.001 135.167  16.435  1.00  0.00     0.295 HD
ENDBRANCH   1   2
BRANCH   1   4
ATOM      4  N   UNL     1      43.146 134.794  14.488  1.00  0.00    -0.214 NA
BRANCH   4   5
ATOM      5  C   UNL     1      42.124 135.701  14.940  1.00  0.00     0.071 A 
ATOM      6  C   UNL     1      42.466 136.849  15.673  1.00  0.00     0.029 A 
ATOM      7  C   UNL     1      40.761 135.360  14.773  1.00  0.00    -0.007 A 
ATOM      8  C   UNL     1      41.475 137.705  16.152  1.00  0.00     0.004 A 
ATOM      9  C   UNL     1      39.764 136.218  15.296  1.00  0.00     0.057 A 
ATOM     10  C   UNL     1      40.130 137.395  15.959  1.00  0.00     0.020 A 
ATOM     11  C   UNL     1      40.390 134.049  14.118  1.00  0.00     0.048 C 
BRANCH   9  12
ATOM     12  C   UNL     1      38.359 135.912  15.172  1.00  0.00     0.099 C 
ATOM     13  N   UNL     1      37.231 135.669  15.072  1.00  0.00    -0.192 NA
ENDBRANCH   9  12
ENDBRANCH   4   5
ENDBRANCH   1   4
BRANCH   1  14
ATOM     14  C   UNL     1      43.423 132.505  15.412  1.00  0.00     0.366 C 
BRANCH  14  15
ATOM     15  N   UNL     1      43.875 132.051  16.725  1.00  0.00    -0.120 N 
ATOM     16  N   UNL     1      44.880 131.207  16.905  1.00  0.00     0.089 NA
ATOM     17  C   UNL     1      43.420 132.432  17.940  1.00  0.00     0.201 A 
ATOM     18  N   UNL     1      45.076 131.010  18.200  1.00  0.00    -0.147 N 
ATOM     19  C   UNL     1      44.173 131.744  18.876  1.00  0.00     0.169 A 
ATOM     20  H   UNL     1      45.809 130.384  18.603  1.00  0.00     0.342 HD
ATOM     21  C   UNL     1      44.068 131.803  20.367  1.00  0.00     0.100 C 
BRANCH  17  22
ATOM     22  C   UNL     1      42.292 133.358  18.201  1.00  0.00     0.036 A 
ATOM     23  C   UNL     1      41.000 132.884  17.977  1.00  0.00     0.022 A 
ATOM     24  C   UNL     1      42.485 134.666  18.704  1.00  0.00    -0.006 A 
ATOM     25  C   UNL     1      39.884 133.684  18.224  1.00  0.00    -0.017 A 
ATOM     26  C   UNL     1      43.785 135.184  18.888  1.00  0.00     0.009 A 
ATOM     27  C   UNL     1      41.355 135.488  19.009  1.00  0.00    -0.010 A 
ATOM     28  C   UNL     1      38.605 133.178  17.940  1.00  0.00     0.009 A 
ATOM     29  C   UNL     1      40.040 134.993  18.751  1.00  0.00    -0.010 A 
ATOM     30  C   UNL     1      43.979 136.459  19.411  1.00  0.00     0.001 A 
ATOM     31  C   UNL     1      41.591 136.776  19.550  1.00  0.00     0.009 A 
ATOM     32  C   UNL     1      37.472 133.955  18.166  1.00  0.00     0.001 A 
ATOM     33  C   UNL     1      38.866 135.759  18.975  1.00  0.00     0.009 A 
ATOM     34  C   UNL     1      42.888 137.246  19.750  1.00  0.00     0.001 A 
ATOM     35  C   UNL     1      37.603 135.241  18.682  1.00  0.00     0.001 A 
ENDBRANCH  17  22
ENDBRANCH  14  15
ENDBRANCH   1  14
TORSDOF 7
ENDMDL
MODEL 7
REMARK VINA RESULT:      -7.0      2.759      6.686
REMARK SMILES Cc1[nH+]nn(C/C(O)=N\c2cccc(C#N)c2C)c1-c1cc2ccccc2c2ccccc12
REMARK SMILES IDX 7 1 8 2 9 4 10 5 11 6 17 7 12 8 14 9 13 10 18 11 15 12 16 13
REMARK SMILES IDX 6 14 5 15 4 16 19 17 3 18 2 19 1 21 20 22 21 23 33 24 22 25
REMARK SMILES IDX 32 26 28 27 23 28 27 29 31 30 29 31 24 32 26 33 30 34 25 35
REMARK H PARENT 8 3 3 20
ROOT
ATOM      1  C   UNL     1      43.044 133.181  15.090  1.00  0.00     0.231 C 
ENDROOT
BRANCH   1   2
ATOM      2  O   UNL     1      42.653 131.846  15.048  1.00  0.00    -0.493 OA
ATOM      3  H   UNL     1      42.059 131.496  14.306  1.00  0.00     0.295 HD
ENDBRANCH   1   2
BRANCH   1   4
ATOM      4  N   UNL     1      42.416 134.040  14.335  1.00  0.00    -0.214 NA
BRANCH   4   5
ATOM      5  C   UNL     1      41.155 134.688  14.575  1.00  0.00     0.071 A 
ATOM      6  C   UNL     1      39.949 134.037  14.263  1.00  0.00     0.029 A 
ATOM      7  C   UNL     1      41.129 136.041  14.989  1.00  0.00    -0.007 A 
ATOM      8  C   UNL     1      38.727 134.681  14.451  1.00  0.00     0.004 A 
ATOM      9  C   UNL     1      39.883 136.696  15.141  1.00  0.00     0.057 A 
ATOM     10  C   UNL     1      38.693 136.002  14.894  1.00  0.00     0.020 A 
ATOM     11  C   UNL     1      42.427 136.791  15.180  1.00  0.00     0.048 C 
BRANCH   9  12
ATOM     12  C   UNL     1      39.797 138.079  15.544  1.00  0.00     0.099 C 
ATOM     13  N   UNL     1      39.726 139.188  15.866  1.00  0.00    -0.192 NA
ENDBRANCH   9  12
ENDBRANCH   4   5
ENDBRANCH   1   4
BRANCH   1  14
ATOM     14  C   UNL     1      44.212 133.536  15.975  1.00  0.00     0.366 C 
BRANCH  14  15
ATOM     15  N   UNL     1      44.163 132.756  17.209  1.00  0.00    -0.120 N 
ATOM     16  N   UNL     1      45.045 131.819  17.522  1.00  0.00     0.089 NA
ATOM     17  C   UNL     1      43.293 132.878  18.237  1.00  0.00     0.201 A 
ATOM     18  N   UNL     1      44.760 131.312  18.712  1.00  0.00    -0.147 N 
ATOM     19  C   UNL     1      43.664 131.936  19.181  1.00  0.00     0.169 A 
ATOM     20  H   UNL     1      45.305 130.556  19.183  1.00  0.00     0.342 HD
ATOM     21  C   UNL     1      43.024 131.655  20.503  1.00  0.00     0.100 C 
BRANCH  17  22
ATOM     22  C   UNL     1      42.135 133.802  18.297  1.00  0.00     0.036 A 
ATOM     23  C   UNL     1      40.865 133.262  18.099  1.00  0.00     0.022 A 
ATOM     24  C   UNL     1      42.276 135.179  18.591  1.00  0.00    -0.006 A 
ATOM     25  C   UNL     1      39.722 134.059  18.166  1.00  0.00    -0.017 A 
ATOM     26  C   UNL     1      43.556 135.755  18.744  1.00  0.00     0.009 A 
ATOM     27  C   UNL     1      41.117 136.006  18.713  1.00  0.00    -0.010 A 
ATOM     28  C   UNL     1      38.468 133.479  17.914  1.00  0.00     0.009 A 
ATOM     29  C   UNL     1      39.825 135.440  18.482  1.00  0.00    -0.010 A 
ATOM     30  C   UNL     1      43.699 137.102  19.064  1.00  0.00     0.001 A 
ATOM     31  C   UNL     1      41.300 137.370  19.049  1.00  0.00     0.009 A 
ATOM     32  C   UNL     1      37.310 134.250  17.964  1.00  0.00     0.001 A 
ATOM     33  C   UNL     1      38.627 136.198  18.530  1.00  0.00     0.009 A 
ATOM     34  C   UNL     1      42.577 137.903  19.225  1.00  0.00     0.001 A 
ATOM     35  C   UNL     1      37.390 135.605  18.271  1.00  0.00     0.001 A 
ENDBRANCH  17  22
ENDBRANCH  14  15
ENDBRANCH   1  14
TORSDOF 7
ENDMDL
MODEL 8
REMARK VINA RESULT:      -7.0      2.786      6.369
REMARK SMILES Cc1[nH+]nn(C/C(O)=N\c2cccc(C#N)c2C)c1-c1cc2ccccc2c2ccccc12
REMARK SMILES IDX 7 1 8 2 9 4 10 5 11 6 17 7 12 8 14 9 13 10 18 11 15 12 16 13
REMARK SMILES IDX 6 14 5 15 4 16 19 17 3 18 2 19 1 21 20 22 21 23 33 24 22 25
REMARK SMILES IDX 32 26 28 27 23 28 27 29 31 30 29 31 24 32 26 33 30 34 25 35
REMARK H PARENT 8 3 3 20
ROOT
ATOM      1  C   UNL     1      43.738 135.609  15.888  1.00  0.00     0.231 C 
ENDROOT
BRANCH   1   2
ATOM      2  O   UNL     1      44.954 134.979  15.633  1.00  0.00    -0.493 OA
ATOM      3  H   UNL     1      45.059 133.979  15.746  1.00  0.00     0.295 HD
ENDBRANCH   1   2
BRANCH   1   4
ATOM      4  N   UNL     1      43.052 136.075  14.881  1.00  0.00    -0.214 NA
BRANCH   4   5
ATOM      5  C   UNL     1      41.712 136.597  14.877  1.00  0.00     0.071 A 
ATOM      6  C   UNL     1      41.441 137.868  15.410  1.00  0.00     0.029 A 
ATOM      7  C   UNL     1      40.639 135.769  14.469  1.00  0.00    -0.007 A 
ATOM      8  C   UNL     1      40.136 138.356  15.450  1.00  0.00     0.004 A 
ATOM      9  C   UNL     1      39.314 136.263  14.549  1.00  0.00     0.057 A 
ATOM     10  C   UNL     1      39.077 137.561  15.015  1.00  0.00     0.020 A 
ATOM     11  C   UNL     1      40.911 134.346  14.038  1.00  0.00     0.048 C 
BRANCH   9  12
ATOM     12  C   UNL     1      38.180 135.457  14.164  1.00  0.00     0.099 C 
ATOM     13  N   UNL     1      37.269 134.812  13.857  1.00  0.00    -0.192 NA
ENDBRANCH   9  12
ENDBRANCH   4   5
ENDBRANCH   1   4
BRANCH   1  14
ATOM     14  C   UNL     1      43.321 135.755  17.330  1.00  0.00     0.366 C 
BRANCH  14  15
ATOM     15  N   UNL     1      42.122 134.962  17.590  1.00  0.00    -0.120 N 
ATOM     16  N   UNL     1      40.941 135.488  17.878  1.00  0.00     0.089 NA
ATOM     17  C   UNL     1      41.983 133.619  17.528  1.00  0.00     0.201 A 
ATOM     18  N   UNL     1      40.044 134.525  18.028  1.00  0.00    -0.147 N 
ATOM     19  C   UNL     1      40.661 133.345  17.834  1.00  0.00     0.169 A 
ATOM     20  H   UNL     1      39.039 134.680  18.262  1.00  0.00     0.342 HD
ATOM     21  C   UNL     1      39.990 132.011  17.909  1.00  0.00     0.100 C 
BRANCH  17  22
ATOM     22  C   UNL     1      43.061 132.640  17.248  1.00  0.00     0.036 A 
ATOM     23  C   UNL     1      43.274 132.273  15.919  1.00  0.00     0.022 A 
ATOM     24  C   UNL     1      43.891 132.113  18.265  1.00  0.00    -0.006 A 
ATOM     25  C   UNL     1      44.286 131.378  15.570  1.00  0.00    -0.017 A 
ATOM     26  C   UNL     1      43.659 132.430  19.621  1.00  0.00     0.009 A 
ATOM     27  C   UNL     1      44.964 131.231  17.927  1.00  0.00    -0.010 A 
ATOM     28  C   UNL     1      44.433 131.005  14.224  1.00  0.00     0.009 A 
ATOM     29  C   UNL     1      45.153 130.849  16.563  1.00  0.00    -0.010 A 
ATOM     30  C   UNL     1      44.491 131.939  20.622  1.00  0.00     0.001 A 
ATOM     31  C   UNL     1      45.797 130.759  18.971  1.00  0.00     0.009 A 
ATOM     32  C   UNL     1      45.426 130.106  13.845  1.00  0.00     0.001 A 
ATOM     33  C   UNL     1      46.158 129.939  16.145  1.00  0.00     0.009 A 
ATOM     34  C   UNL     1      45.561 131.116  20.297  1.00  0.00     0.001 A 
ATOM     35  C   UNL     1      46.285 129.575  14.802  1.00  0.00     0.001 A 
ENDBRANCH  17  22
ENDBRANCH  14  15
ENDBRANCH   1  14
TORSDOF 7
ENDMDL
MODEL 9
REMARK VINA RESULT:      -6.9      3.075      5.550
REMARK SMILES Cc1[nH+]nn(C/C(O)=N\c2cccc(C#N)c2C)c1-c1cc2ccccc2c2ccccc12
REMARK SMILES IDX 7 1 8 2 9 4 10 5 11 6 17 7 12 8 14 9 13 10 18 11 15 12 16 13
REMARK SMILES IDX 6 14 5 15 4 16 19 17 3 18 2 19 1 21 20 22 21 23 33 24 22 25
REMARK SMILES IDX 32 26 28 27 23 28 27 29 31 30 29 31 24 32 26 33 30 34 25 35
REMARK H PARENT 8 3 3 20
ROOT
ATOM      1  C   UNL     1      44.842 131.333  19.073  1.00  0.00     0.231 C 
ENDROOT
BRANCH   1   2
ATOM      2  O   UNL     1      46.025 130.607  19.181  1.00  0.00    -0.493 OA
ATOM      3  H   UNL     1      46.318 130.212  20.067  1.00  0.00     0.295 HD
ENDBRANCH   1   2
BRANCH   1   4
ATOM      4  N   UNL     1      44.326 131.514  17.889  1.00  0.00    -0.214 NA
BRANCH   4   5
ATOM      5  C   UNL     1      43.095 132.171  17.539  1.00  0.00     0.071 A 
ATOM      6  C   UNL     1      42.006 132.162  18.428  1.00  0.00     0.029 A 
ATOM      7  C   UNL     1      42.929 132.703  16.239  1.00  0.00    -0.007 A 
ATOM      8  C   UNL     1      40.798 132.758  18.072  1.00  0.00     0.004 A 
ATOM      9  C   UNL     1      41.684 133.273  15.877  1.00  0.00     0.057 A 
ATOM     10  C   UNL     1      40.638 133.317  16.806  1.00  0.00     0.020 A 
ATOM     11  C   UNL     1      44.047 132.579  15.229  1.00  0.00     0.048 C 
BRANCH   9  12
ATOM     12  C   UNL     1      41.452 133.814  14.559  1.00  0.00     0.099 C 
ATOM     13  N   UNL     1      41.269 134.249  13.502  1.00  0.00    -0.192 NA
ENDBRANCH   9  12
ENDBRANCH   4   5
ENDBRANCH   1   4
BRANCH   1  14
ATOM     14  C   UNL     1      44.262 131.909  20.340  1.00  0.00     0.366 C 
BRANCH  14  15
ATOM     15  N   UNL     1      45.135 132.958  20.861  1.00  0.00    -0.120 N 
ATOM     16  N   UNL     1      46.209 132.721  21.599  1.00  0.00     0.089 NA
ATOM     17  C   UNL     1      45.053 134.291  20.649  1.00  0.00     0.201 A 
ATOM     18  N   UNL     1      46.814 133.863  21.893  1.00  0.00    -0.147 N 
ATOM     19  C   UNL     1      46.112 134.864  21.332  1.00  0.00     0.169 A 
ATOM     20  H   UNL     1      47.682 133.945  22.466  1.00  0.00     0.342 HD
ATOM     21  C   UNL     1      46.473 136.313  21.425  1.00  0.00     0.100 C 
BRANCH  17  22
ATOM     22  C   UNL     1      43.993 134.992  19.886  1.00  0.00     0.036 A 
ATOM     23  C   UNL     1      44.278 135.363  18.572  1.00  0.00     0.022 A 
ATOM     24  C   UNL     1      42.711 135.248  20.427  1.00  0.00    -0.006 A 
ATOM     25  C   UNL     1      43.325 136.002  17.778  1.00  0.00    -0.017 A 
ATOM     26  C   UNL     1      42.418 134.928  21.770  1.00  0.00     0.009 A 
ATOM     27  C   UNL     1      41.703 135.859  19.618  1.00  0.00    -0.010 A 
ATOM     28  C   UNL     1      43.674 136.397  16.476  1.00  0.00     0.009 A 
ATOM     29  C   UNL     1      42.021 136.253  18.282  1.00  0.00    -0.010 A 
ATOM     30  C   UNL     1      41.150 135.150  22.298  1.00  0.00     0.001 A 
ATOM     31  C   UNL     1      40.420 136.060  20.185  1.00  0.00     0.009 A 
ATOM     32  C   UNL     1      42.749 137.046  15.663  1.00  0.00     0.001 A 
ATOM     33  C   UNL     1      41.099 136.912  17.428  1.00  0.00     0.009 A 
ATOM     34  C   UNL     1      40.154 135.704  21.506  1.00  0.00     0.001 A 
ATOM     35  C   UNL     1      41.466 137.302  16.138  1.00  0.00     0.001 A 
ENDBRANCH  17  22
ENDBRANCH  14  15
ENDBRANCH   1  14
TORSDOF 7
ENDMDL


