REMARK SMILES C[C@@H](C#N)N(C)CCCCc1cn(-c2cc(N)c3c4c(cccc24)C(=O)N3)nn1
REMARK SMILES IDX 8 1 7 2 5 3 6 4 2 5 1 6 3 7 4 8 9 9 10 10 11 11 12 12 29 13
REMARK SMILES IDX 13 14 28 15 14 16 15 17 24 18 16 19 23 20 19 21 18 22 22 23
REMARK SMILES IDX 20 24 27 25 21 26 25 27 26 29 17 30
REMARK H PARENT 27 28 17 31 17 32
ROOT
ATOM      1  C   UNL     1       3.032  -1.342  -1.440  1.00  0.00     0.016 C 
ENDROOT
BRANCH   1   2
ATOM      2  C   UNL     1       3.753  -0.787  -2.675  1.00  0.00     0.085 C 
BRANCH   2   3
ATOM      3  N   UNL     1       3.333  -1.520  -3.894  1.00  0.00    -0.291 NA
ATOM      4  C   UNL     1       2.071  -0.987  -4.440  1.00  0.00     0.106 C 
BRANCH   3   5
ATOM      5  C   UNL     1       4.388  -1.607  -4.939  1.00  0.00     0.157 C 
ATOM      6  C   UNL     1       4.990  -0.246  -5.332  1.00  0.00     0.041 C 
BRANCH   5   7
ATOM      7  C   UNL     1       5.452  -2.527  -4.505  1.00  0.00     0.081 C 
ATOM      8  N   UNL     1       6.288  -3.250  -4.163  1.00  0.00    -0.197 NA
ENDBRANCH   5   7
ENDBRANCH   3   5
ENDBRANCH   2   3
ENDBRANCH   1   2
BRANCH   1   9
ATOM      9  C   UNL     1       3.536  -0.666  -0.155  1.00  0.00     0.008 C 
BRANCH   9  10
ATOM     10  C   UNL     1       2.866  -1.236   1.103  1.00  0.00     0.060 C 
BRANCH  10  11
ATOM     11  C   UNL     1       1.407  -0.900   1.157  1.00  0.00     0.083 A 
ATOM     12  C   UNL     1       0.854   0.328   1.443  1.00  0.00     0.140 A 
ATOM     13  N   UNL     1       0.412  -1.755   0.848  1.00  0.00    -0.135 NA
ATOM     14  N   UNL     1      -0.476   0.175   1.321  1.00  0.00    -0.220 N 
ATOM     15  N   UNL     1      -0.720  -1.074   0.954  1.00  0.00    -0.062 NA
BRANCH  14  16
ATOM     16  C   UNL     1      -1.475   1.201   1.454  1.00  0.00     0.076 A 
ATOM     17  C   UNL     1      -1.209   2.508   0.948  1.00  0.00     0.056 A 
ATOM     18  C   UNL     1      -2.735   0.940   2.058  1.00  0.00     0.011 A 
ATOM     19  C   UNL     1      -2.176   3.540   1.018  1.00  0.00     0.058 A 
ATOM     20  C   UNL     1      -3.138  -0.270   2.673  1.00  0.00     0.011 A 
ATOM     21  C   UNL     1      -3.648   1.984   2.090  1.00  0.00     0.022 A 
ATOM     22  C   UNL     1      -3.410   3.238   1.600  1.00  0.00     0.073 A 
ATOM     23  C   UNL     1      -4.426  -0.375   3.260  1.00  0.00     0.002 A 
ATOM     24  C   UNL     1      -4.887   1.900   2.653  1.00  0.00     0.050 A 
ATOM     25  N   UNL     1      -4.542   4.085   1.819  1.00  0.00    -0.320 N 
ATOM     26  C   UNL     1      -5.318   0.720   3.254  1.00  0.00     0.014 A 
ATOM     27  C   UNL     1      -5.473   3.227   2.490  1.00  0.00     0.256 C 
ATOM     28  H   UNL     1      -4.661   5.094   1.579  1.00  0.00     0.170 HD
ATOM     29  O   UNL     1      -6.615   3.586   2.880  1.00  0.00    -0.269 OA
BRANCH  19  30
ATOM     30  N   UNL     1      -1.891   4.844   0.504  1.00  0.00    -0.397 N 
ATOM     31  H   UNL     1      -0.963   5.053   0.073  1.00  0.00     0.156 HD
ATOM     32  H   UNL     1      -2.598   5.610   0.548  1.00  0.00     0.156 HD
ENDBRANCH  19  30
ENDBRANCH  14  16
ENDBRANCH  10  11
ENDBRANCH   9  10
ENDBRANCH   1   9
TORSDOF 9


