REMARK SMILES C[N+]1(C)Cc2cc3ccc(-n4cc(CCn5cc(C[NH3+])c[nH+]5)n[nH+]4)cc3cc2C1
REMARK SMILES IDX 15 1 14 2 13 3 11 4 12 5 24 6 23 7 10 9 2 10 4 11 29 12 5 13
REMARK SMILES IDX 28 14 6 15 27 16 7 17 26 18 8 19 25 20 9 21 1 22 3 23 16 24
REMARK SMILES IDX 17 25 22 26 18 27 21 28 19 30 20 31
REMARK H PARENT 24 8 22 29 20 32 20 33 20 34
ROOT
ATOM      1  C   UNL     1      -1.031  -4.871  -3.823  1.00  0.00     0.196 C 
ENDROOT
BRANCH   1   2
ATOM      2  C   UNL     1      -2.425  -4.584  -3.253  1.00  0.00     0.092 C 
BRANCH   2   3
ATOM      3  C   UNL     1      -2.526  -3.181  -2.740  1.00  0.00     0.134 A 
ATOM      4  N   UNL     1      -2.275  -1.411  -1.487  1.00  0.00    -0.104 N 
ATOM      5  C   UNL     1      -2.225  -2.756  -1.462  1.00  0.00     0.190 A 
ATOM      6  N   UNL     1      -2.595  -1.046  -2.721  1.00  0.00    -0.012 N 
ATOM      7  N   UNL     1      -2.744  -2.098  -3.513  1.00  0.00     0.020 NA
ATOM      8  H   UNL     1      -2.715  -0.061  -3.045  1.00  0.00     0.527 HD
BRANCH   4   9
ATOM      9  C   UNL     1      -1.954  -0.516  -0.405  1.00  0.00     0.107 A 
ATOM     10  N   UNL     1       0.457   5.524   2.580  1.00  0.00    -0.321 N 
ATOM     11  C   UNL     1       0.099   4.343   3.428  1.00  0.00     0.301 C 
ATOM     12  C   UNL     1       0.414   5.057   1.157  1.00  0.00     0.301 C 
ATOM     13  C   UNL     1      -0.366   3.302   2.486  1.00  0.00     0.016 A 
ATOM     14  C   UNL     1      -0.189   3.708   1.198  1.00  0.00     0.016 A 
ATOM     15  C   UNL     1      -0.894   2.046   2.790  1.00  0.00     0.018 A 
ATOM     16  C   UNL     1      -0.528   2.889   0.120  1.00  0.00     0.019 A 
ATOM     17  C   UNL     1      -1.253   1.191   1.730  1.00  0.00    -0.018 A 
ATOM     18  C   UNL     1      -1.072   1.617   0.384  1.00  0.00    -0.016 A 
ATOM     19  C   UNL     1      -1.781  -0.080   1.987  1.00  0.00     0.011 A 
ATOM     20  C   UNL     1      -1.427   0.761  -0.668  1.00  0.00     0.041 A 
ATOM     21  C   UNL     1      -2.125  -0.925   0.930  1.00  0.00     0.033 A 
ATOM     22  C   UNL     1       1.807   6.025   2.924  1.00  0.00     0.334 C 
ATOM     23  C   UNL     1      -0.526   6.614   2.786  1.00  0.00     0.334 C 
ENDBRANCH   4   9
ENDBRANCH   2   3
ENDBRANCH   1   2
BRANCH   1  24
ATOM     24  N   UNL     1       0.004  -4.645  -2.814  1.00  0.00    -0.162 N 
ATOM     25  C   UNL     1       0.751  -3.530  -2.687  1.00  0.00     0.166 A 
ATOM     26  N   UNL     1       0.223  -5.439  -1.778  1.00  0.00    -0.130 N 
ATOM     27  C   UNL     1       1.482  -3.638  -1.520  1.00  0.00     0.094 A 
ATOM     28  C   UNL     1       1.119  -4.852  -0.964  1.00  0.00     0.344 A 
ATOM     29  H   UNL     1      -0.267  -6.345  -1.604  1.00  0.00     0.488 HD
BRANCH  27  30
ATOM     30  C   UNL     1       2.335  -2.578  -0.892  1.00  0.00     0.303 C 
BRANCH  30  31
ATOM     31  N   UNL     1       1.504  -1.571  -0.233  1.00  0.00    -0.354 N 
ATOM     32  H   UNL     1       0.912  -1.079  -0.941  1.00  0.00     0.344 HD
ATOM     33  H   UNL     1       2.121  -0.870   0.236  1.00  0.00     0.344 HD
ATOM     34  H   UNL     1       0.893  -2.022   0.488  1.00  0.00     0.344 HD
ENDBRANCH  30  31
ENDBRANCH  27  30
ENDBRANCH   1  24
TORSDOF 6


