REMARK SMILES C#CCO/C([O-])=C\[C@H]1[CH][C]2C=CC=C[C@@H]2CC1
REMARK SMILES IDX 4 1 3 2 2 3 1 4 5 5 6 6 7 7 8 8 9 9 17 10 10 11 16 12 11 13
REMARK SMILES IDX 15 14 12 15 14 16 13 17
REMARK H PARENT
ROOT
ATOM      1  O   UNL     1       1.400  -1.942  -0.705  1.00  0.00    -0.601 OA
ENDROOT
BRANCH   1   2
ATOM      2  C   UNL     1       1.454  -2.417  -2.043  1.00  0.00     0.160 C 
BRANCH   2   3
ATOM      3  C   UNL     1       0.487  -1.673  -2.851  1.00  0.00    -0.095 C 
ATOM      4  C   UNL     1      -0.310  -1.058  -3.513  1.00  0.00     0.005 C 
ENDBRANCH   2   3
ENDBRANCH   1   2
BRANCH   1   5
ATOM      5  C   UNL     1       2.214  -2.451   0.310  1.00  0.00     0.049 C 
ATOM      6  O   UNL     1       3.126  -3.465   0.034  1.00  0.00    -0.547 OA
BRANCH   5   7
ATOM      7  C   UNL     1       2.130  -1.966   1.554  1.00  0.00     0.004 C 
BRANCH   7   8
ATOM      8  C   UNL     1       1.172  -0.870   1.958  1.00  0.00     0.036 C 
ATOM      9  C   UNL     1       1.387   0.372   1.117  1.00  0.00    -0.015 C 
ATOM     10  C   UNL     1      -0.288  -1.377   1.950  1.00  0.00     0.013 C 
ATOM     11  C   UNL     1       0.321   1.177   0.690  1.00  0.00    -0.045 C 
ATOM     12  C   UNL     1      -1.283  -0.214   2.032  1.00  0.00     0.013 C 
ATOM     13  C   UNL     1       0.587   2.475   0.037  1.00  0.00     0.004 C 
ATOM     14  C   UNL     1      -1.114   0.697   0.809  1.00  0.00     0.041 C 
ATOM     15  C   UNL     1      -0.406   3.353  -0.125  1.00  0.00    -0.000 C 
ATOM     16  C   UNL     1      -2.085   1.855   0.855  1.00  0.00    -0.019 C 
ATOM     17  C   UNL     1      -1.768   3.058   0.358  1.00  0.00    -0.004 C 
ENDBRANCH   7   8
ENDBRANCH   5   7
ENDBRANCH   1   5
TORSDOF 5


