REMARK SMILES CCN(CC/N=C(\OC(=O)[C@H]1C[C@@H]1CO)C1(C#N)CC1)c1cc(N=[N+]=[N-])c2c3c(cccc13)C(=O)[N-]2
REMARK SMILES IDX 6 1 7 2 8 3 9 4 10 5 11 6 13 7 12 8 14 9 15 10 16 12 19 13
REMARK SMILES IDX 20 14 17 15 18 16 5 17 4 18 3 19 21 20 22 21 33 22 23 23
REMARK SMILES IDX 32 24 28 25 27 26 31 27 29 28 36 29 30 30 34 31 35 32 24 33
REMARK SMILES IDX 25 34 26 35 2 36 1 37
REMARK H PARENT 15 11
ROOT
ATOM      1  N   UNL     1       0.913  -1.462  -1.977  1.00  0.00    -0.252 NA
ENDROOT
BRANCH   1   2
ATOM      2  C   UNL     1       1.494  -0.323  -1.727  1.00  0.00     0.214 C 
BRANCH   2   3
ATOM      3  O   UNL     1       2.520  -0.259  -0.769  1.00  0.00    -0.410 OA
BRANCH   3   4
ATOM      4  C   UNL     1       3.410   0.807  -0.607  1.00  0.00     0.315 C 
ATOM      5  O   UNL     1       3.722   1.554  -1.578  1.00  0.00    -0.251 OA
BRANCH   4   6
ATOM      6  C   UNL     1       4.008   1.050   0.740  1.00  0.00     0.105 C 
ATOM      7  C   UNL     1       2.979   1.318   1.836  1.00  0.00     0.030 C 
ATOM      8  C   UNL     1       3.810   2.470   1.271  1.00  0.00     0.022 C 
BRANCH   7   9
ATOM      9  C   UNL     1       3.387   0.878   3.244  1.00  0.00     0.160 C 
BRANCH   9  10
ATOM     10  O   UNL     1       2.723  -0.306   3.579  1.00  0.00    -0.396 OA
ATOM     11  H   UNL     1       3.186  -1.040   3.099  1.00  0.00     0.210 HD
ENDBRANCH   9  10
ENDBRANCH   7   9
ENDBRANCH   4   6
ENDBRANCH   3   4
ENDBRANCH   2   3
BRANCH   2  12
ATOM     12  C   UNL     1       1.055   0.888  -2.508  1.00  0.00     0.133 C 
ATOM     13  C   UNL     1      -0.389   1.333  -2.313  1.00  0.00     0.034 C 
ATOM     14  C   UNL     1       0.748   2.167  -1.738  1.00  0.00     0.034 C 
BRANCH  12  15
ATOM     15  C   UNL     1       1.588   1.058  -3.869  1.00  0.00     0.079 C 
ATOM     16  N   UNL     1       2.014   1.186  -4.940  1.00  0.00    -0.197 NA
ENDBRANCH  12  15
ENDBRANCH   2  12
ENDBRANCH   1   2
BRANCH   1  17
ATOM     17  C   UNL     1       1.311  -2.743  -1.393  1.00  0.00     0.167 C 
BRANCH  17  18
ATOM     18  C   UNL     1       0.982  -2.835   0.102  1.00  0.00     0.140 C 
BRANCH  18  19
ATOM     19  N   UNL     1      -0.467  -2.776   0.341  1.00  0.00    -0.369 N 
BRANCH  19  20
ATOM     20  C   UNL     1      -1.026  -1.635   1.024  1.00  0.00     0.045 A 
ATOM     21  C   UNL     1      -0.519  -1.265   2.303  1.00  0.00     0.035 A 
ATOM     22  C   UNL     1      -2.099  -0.892   0.467  1.00  0.00     0.005 A 
ATOM     23  C   UNL     1      -1.057  -0.177   3.030  1.00  0.00     0.026 A 
ATOM     24  C   UNL     1      -2.693  -1.106  -0.801  1.00  0.00     0.011 A 
ATOM     25  C   UNL     1      -2.600   0.158   1.223  1.00  0.00    -0.021 A 
ATOM     26  C   UNL     1      -2.128   0.526   2.452  1.00  0.00    -0.116 A 
ATOM     27  C   UNL     1      -3.759  -0.271  -1.232  1.00  0.00     0.001 A 
ATOM     28  C   UNL     1      -3.620   0.962   0.827  1.00  0.00     0.006 A 
ATOM     29  N   UNL     1      -2.854   1.649   2.972  1.00  0.00    -0.622 NA
ATOM     30  C   UNL     1      -4.237   0.777  -0.410  1.00  0.00     0.011 A 
ATOM     31  C   UNL     1      -3.797   1.910   1.920  1.00  0.00     0.086 C 
ATOM     32  O   UNL     1      -4.650   2.837   1.959  1.00  0.00    -0.315 OA
BRANCH  23  33
ATOM     33  N   UNL     1      -0.502   0.152   4.313  1.00  0.00    -0.062 NA
BRANCH  33  34
ATOM     34  N   UNL     1      -0.924   1.079   5.005  1.00  0.00     0.005 N 
ATOM     35  N   UNL     1      -1.341   2.003   5.701  1.00  0.00    -0.003 NA
ENDBRANCH  33  34
ENDBRANCH  23  33
ENDBRANCH  19  20
BRANCH  19  36
ATOM     36  C   UNL     1      -1.276  -3.996   0.194  1.00  0.00     0.113 C 
ATOM     37  C   UNL     1      -1.310  -4.786   1.499  1.00  0.00     0.027 C 
ENDBRANCH  19  36
ENDBRANCH  18  19
ENDBRANCH  17  18
ENDBRANCH   1  17
TORSDOF 15


