MODEL 1
REMARK VINA RESULT:      -7.4      0.000      0.000
REMARK SMILES CC[C@H]1C[C@]1(/N=C(\O)c1noc(C)c1C)C(=O)Oc1c(Cl)c(Cl)c(N)c2ccccc12
REMARK SMILES IDX 5 1 4 2 3 3 6 4 7 5 8 6 9 8 10 9 14 10 11 11 12 12 15 13
REMARK SMILES IDX 13 14 16 15 17 16 18 17 19 18 20 19 31 20 22 21 30 22 26 23
REMARK SMILES IDX 24 24 29 25 27 26 28 27 21 28 23 29 25 30 2 33 1 34
REMARK H PARENT 8 7 25 31 25 32
ROOT
ATOM      1  C   UNL     1      43.161 134.014  16.134  1.00  0.00     0.165 C 
ATOM      2  C   UNL     1      43.617 135.171  15.254  1.00  0.00     0.050 C 
ATOM      3  C   UNL     1      42.855 135.451  16.552  1.00  0.00     0.031 C 
ENDROOT
BRANCH   1   4
ATOM      4  N   UNL     1      44.207 133.336  16.897  1.00  0.00    -0.231 NA
BRANCH   4   5
ATOM      5  C   UNL     1      44.502 132.081  16.748  1.00  0.00     0.237 C 
BRANCH   5   6
ATOM      6  O   UNL     1      43.886 131.120  17.552  1.00  0.00    -0.492 OA
ATOM      7  H   UNL     1      43.736 130.170  17.231  1.00  0.00     0.295 HD
ENDBRANCH   5   6
BRANCH   5   8
ATOM      8  C   UNL     1      45.490 131.667  15.731  1.00  0.00     0.171 A 
ATOM      9  N   UNL     1      46.255 132.540  15.045  1.00  0.00    -0.074 NA
ATOM     10  C   UNL     1      45.788 130.379  15.306  1.00  0.00     0.024 A 
ATOM     11  O   UNL     1      47.000 131.850  14.231  1.00  0.00    -0.361 OA
ATOM     12  C   UNL     1      46.762 130.564  14.344  1.00  0.00     0.137 A 
ATOM     13  C   UNL     1      45.194 129.083  15.770  1.00  0.00     0.051 C 
ATOM     14  C   UNL     1      47.460 129.510  13.550  1.00  0.00     0.091 C 
ENDBRANCH   5   8
ENDBRANCH   4   5
ENDBRANCH   1   4
BRANCH   1  15
ATOM     15  C   UNL     1      41.978 133.201  15.717  1.00  0.00     0.339 C 
ATOM     16  O   UNL     1      41.781 132.952  14.498  1.00  0.00    -0.249 OA
BRANCH  15  17
ATOM     17  O   UNL     1      41.127 132.688  16.701  1.00  0.00    -0.422 OA
BRANCH  17  18
ATOM     18  C   UNL     1      40.238 133.491  17.426  1.00  0.00     0.159 A 
ATOM     19  C   UNL     1      40.497 133.726  18.779  1.00  0.00     0.105 A 
ATOM     20  C   UNL     1      39.095 134.049  16.816  1.00  0.00     0.028 A 
ATOM     21  C   UNL     1      39.643 134.541  19.537  1.00  0.00     0.087 A 
ATOM     22  C   UNL     1      38.789 133.769  15.469  1.00  0.00     0.013 A 
ATOM     23  C   UNL     1      38.233 134.894  17.569  1.00  0.00     0.010 A 
ATOM     24  C   UNL     1      38.504 135.127  18.944  1.00  0.00     0.060 A 
ATOM     25  C   UNL     1      37.685 134.356  14.855  1.00  0.00     0.001 A 
ATOM     26  C   UNL     1      37.136 135.498  16.914  1.00  0.00     0.011 A 
ATOM     27  C   UNL     1      36.868 135.226  15.571  1.00  0.00     0.001 A 
ATOM     28  Cl  UNL     1      41.926 132.993  19.512  1.00  0.00    -0.078 Cl
ATOM     29  Cl  UNL     1      39.988 134.788  21.252  1.00  0.00    -0.080 Cl
BRANCH  24  30
ATOM     30  N   UNL     1      37.619 135.924  19.751  1.00  0.00    -0.397 N 
ATOM     31  H   UNL     1      36.858 135.490  20.317  1.00  0.00     0.156 HD
ATOM     32  H   UNL     1      37.631 136.966  19.718  1.00  0.00     0.156 HD
ENDBRANCH  24  30
ENDBRANCH  17  18
ENDBRANCH  15  17
ENDBRANCH   1  15
BRANCH   3  33
ATOM     33  C   UNL     1      43.708 136.086  17.661  1.00  0.00     0.003 C 
ATOM     34  C   UNL     1      42.823 136.520  18.824  1.00  0.00     0.004 C 
ENDBRANCH   3  33
TORSDOF 9
ENDMDL
MODEL 2
REMARK VINA RESULT:      -7.4      2.782      6.338
REMARK SMILES CC[C@H]1C[C@]1(/N=C(\O)c1noc(C)c1C)C(=O)Oc1c(Cl)c(Cl)c(N)c2ccccc12
REMARK SMILES IDX 5 1 4 2 3 3 6 4 7 5 8 6 9 8 10 9 14 10 11 11 12 12 15 13
REMARK SMILES IDX 13 14 16 15 17 16 18 17 19 18 20 19 31 20 22 21 30 22 26 23
REMARK SMILES IDX 24 24 29 25 27 26 28 27 21 28 23 29 25 30 2 33 1 34
REMARK H PARENT 8 7 25 31 25 32
ROOT
ATOM      1  C   UNL     1      44.151 131.915  16.369  1.00  0.00     0.165 C 
ATOM      2  C   UNL     1      44.958 132.944  15.587  1.00  0.00     0.050 C 
ATOM      3  C   UNL     1      45.278 131.453  15.447  1.00  0.00     0.031 C 
ENDROOT
BRANCH   1   4
ATOM      4  N   UNL     1      42.793 131.666  15.890  1.00  0.00    -0.231 NA
BRANCH   4   5
ATOM      5  C   UNL     1      42.058 132.571  15.318  1.00  0.00     0.237 C 
BRANCH   5   6
ATOM      6  O   UNL     1      41.873 132.545  13.934  1.00  0.00    -0.492 OA
ATOM      7  H   UNL     1      42.154 131.750  13.371  1.00  0.00     0.295 HD
ENDBRANCH   5   6
BRANCH   5   8
ATOM      8  C   UNL     1      41.419 133.628  16.127  1.00  0.00     0.171 A 
ATOM      9  N   UNL     1      40.578 133.371  17.148  1.00  0.00    -0.074 NA
ATOM     10  C   UNL     1      41.549 135.004  15.987  1.00  0.00     0.024 A 
ATOM     11  O   UNL     1      40.193 134.515  17.634  1.00  0.00    -0.361 OA
ATOM     12  C   UNL     1      40.736 135.515  16.982  1.00  0.00     0.137 A 
ATOM     13  C   UNL     1      42.367 135.767  14.991  1.00  0.00     0.051 C 
ATOM     14  C   UNL     1      40.498 136.954  17.302  1.00  0.00     0.091 C 
ENDBRANCH   5   8
ENDBRANCH   4   5
ENDBRANCH   1   4
BRANCH   1  15
ATOM     15  C   UNL     1      44.407 131.743  17.831  1.00  0.00     0.339 C 
ATOM     16  O   UNL     1      45.372 131.033  18.223  1.00  0.00    -0.249 OA
BRANCH  15  17
ATOM     17  O   UNL     1      43.592 132.415  18.747  1.00  0.00    -0.422 OA
BRANCH  17  18
ATOM     18  C   UNL     1      44.108 133.232  19.761  1.00  0.00     0.159 A 
ATOM     19  C   UNL     1      44.337 132.672  21.021  1.00  0.00     0.105 A 
ATOM     20  C   UNL     1      44.386 134.595  19.530  1.00  0.00     0.028 A 
ATOM     21  C   UNL     1      44.872 133.451  22.059  1.00  0.00     0.087 A 
ATOM     22  C   UNL     1      44.101 135.185  18.281  1.00  0.00     0.013 A 
ATOM     23  C   UNL     1      44.947 135.389  20.567  1.00  0.00     0.010 A 
ATOM     24  C   UNL     1      45.176 134.812  21.845  1.00  0.00     0.060 A 
ATOM     25  C   UNL     1      44.417 136.520  18.039  1.00  0.00     0.001 A 
ATOM     26  C   UNL     1      45.283 136.732  20.286  1.00  0.00     0.011 A 
ATOM     27  C   UNL     1      45.016 137.288  19.033  1.00  0.00     0.001 A 
ATOM     28  Cl  UNL     1      43.956 130.968  21.278  1.00  0.00    -0.078 Cl
ATOM     29  Cl  UNL     1      45.116 132.715  23.647  1.00  0.00    -0.080 Cl
BRANCH  24  30
ATOM     30  N   UNL     1      45.684 135.601  22.936  1.00  0.00    -0.397 N 
ATOM     31  H   UNL     1      46.627 136.046  22.894  1.00  0.00     0.156 HD
ATOM     32  H   UNL     1      45.183 135.670  23.847  1.00  0.00     0.156 HD
ENDBRANCH  24  30
ENDBRANCH  17  18
ENDBRANCH  15  17
ENDBRANCH   1  15
BRANCH   3  33
ATOM     33  C   UNL     1      44.906 130.853  14.083  1.00  0.00     0.003 C 
ATOM     34  C   UNL     1      46.165 130.541  13.282  1.00  0.00     0.004 C 
ENDBRANCH   3  33
TORSDOF 9
ENDMDL
MODEL 3
REMARK VINA RESULT:      -7.2      1.618      2.361
REMARK SMILES CC[C@H]1C[C@]1(/N=C(\O)c1noc(C)c1C)C(=O)Oc1c(Cl)c(Cl)c(N)c2ccccc12
REMARK SMILES IDX 5 1 4 2 3 3 6 4 7 5 8 6 9 8 10 9 14 10 11 11 12 12 15 13
REMARK SMILES IDX 13 14 16 15 17 16 18 17 19 18 20 19 31 20 22 21 30 22 26 23
REMARK SMILES IDX 24 24 29 25 27 26 28 27 21 28 23 29 25 30 2 33 1 34
REMARK H PARENT 8 7 25 31 25 32
ROOT
ATOM      1  C   UNL     1      43.693 132.838  17.799  1.00  0.00     0.165 C 
ATOM      2  C   UNL     1      44.124 133.461  19.120  1.00  0.00     0.050 C 
ATOM      3  C   UNL     1      43.974 131.942  19.003  1.00  0.00     0.031 C 
ENDROOT
BRANCH   1   4
ATOM      4  N   UNL     1      44.700 132.817  16.739  1.00  0.00    -0.231 NA
BRANCH   4   5
ATOM      5  C   UNL     1      44.550 132.172  15.623  1.00  0.00     0.237 C 
BRANCH   5   6
ATOM      6  O   UNL     1      43.287 132.084  15.033  1.00  0.00    -0.492 OA
ATOM      7  H   UNL     1      42.446 131.963  15.585  1.00  0.00     0.295 HD
ENDBRANCH   5   6
BRANCH   5   8
ATOM      8  C   UNL     1      45.712 131.530  14.976  1.00  0.00     0.171 A 
ATOM      9  N   UNL     1      46.726 132.224  14.421  1.00  0.00    -0.074 NA
ATOM     10  C   UNL     1      45.957 130.172  14.816  1.00  0.00     0.024 A 
ATOM     11  O   UNL     1      47.571 131.360  13.936  1.00  0.00    -0.361 OA
ATOM     12  C   UNL     1      47.162 130.130  14.142  1.00  0.00     0.137 A 
ATOM     13  C   UNL     1      45.114 129.015  15.260  1.00  0.00     0.051 C 
ATOM     14  C   UNL     1      47.913 128.914  13.710  1.00  0.00     0.091 C 
ENDBRANCH   5   8
ENDBRANCH   4   5
ENDBRANCH   1   4
BRANCH   1  15
ATOM     15  C   UNL     1      42.259 132.923  17.383  1.00  0.00     0.339 C 
ATOM     16  O   UNL     1      41.530 131.896  17.420  1.00  0.00    -0.249 OA
BRANCH  15  17
ATOM     17  O   UNL     1      41.736 134.162  17.002  1.00  0.00    -0.422 OA
BRANCH  17  18
ATOM     18  C   UNL     1      40.402 134.523  17.231  1.00  0.00     0.159 A 
ATOM     19  C   UNL     1      40.035 134.956  18.509  1.00  0.00     0.105 A 
ATOM     20  C   UNL     1      39.438 134.446  16.205  1.00  0.00     0.028 A 
ATOM     21  C   UNL     1      38.713 135.346  18.776  1.00  0.00     0.087 A 
ATOM     22  C   UNL     1      39.784 133.952  14.930  1.00  0.00     0.013 A 
ATOM     23  C   UNL     1      38.101 134.858  16.457  1.00  0.00     0.010 A 
ATOM     24  C   UNL     1      37.736 135.296  17.759  1.00  0.00     0.060 A 
ATOM     25  C   UNL     1      38.842 133.918  13.904  1.00  0.00     0.001 A 
ATOM     26  C   UNL     1      37.173 134.839  15.391  1.00  0.00     0.011 A 
ATOM     27  C   UNL     1      37.546 134.371  14.130  1.00  0.00     0.001 A 
ATOM     28  Cl  UNL     1      41.264 135.018  19.773  1.00  0.00    -0.078 Cl
ATOM     29  Cl  UNL     1      38.281 135.856  20.411  1.00  0.00    -0.080 Cl
BRANCH  24  30
ATOM     30  N   UNL     1      36.379 135.661  18.066  1.00  0.00    -0.397 N 
ATOM     31  H   UNL     1      36.100 135.965  19.025  1.00  0.00     0.156 HD
ATOM     32  H   UNL     1      35.604 135.532  17.382  1.00  0.00     0.156 HD
ENDBRANCH  24  30
ENDBRANCH  17  18
ENDBRANCH  15  17
ENDBRANCH   1  15
BRANCH   3  33
ATOM     33  C   UNL     1      45.302 131.171  19.045  1.00  0.00     0.003 C 
ATOM     34  C   UNL     1      45.816 131.083  20.477  1.00  0.00     0.004 C 
ENDBRANCH   3  33
TORSDOF 9
ENDMDL
MODEL 4
REMARK VINA RESULT:      -7.2      2.988      3.574
REMARK SMILES CC[C@H]1C[C@]1(/N=C(\O)c1noc(C)c1C)C(=O)Oc1c(Cl)c(Cl)c(N)c2ccccc12
REMARK SMILES IDX 5 1 4 2 3 3 6 4 7 5 8 6 9 8 10 9 14 10 11 11 12 12 15 13
REMARK SMILES IDX 13 14 16 15 17 16 18 17 19 18 20 19 31 20 22 21 30 22 26 23
REMARK SMILES IDX 24 24 29 25 27 26 28 27 21 28 23 29 25 30 2 33 1 34
REMARK H PARENT 8 7 25 31 25 32
ROOT
ATOM      1  C   UNL     1      43.456 132.678  15.730  1.00  0.00     0.165 C 
ATOM      2  C   UNL     1      44.674 133.579  15.885  1.00  0.00     0.050 C 
ATOM      3  C   UNL     1      43.902 133.116  17.124  1.00  0.00     0.031 C 
ENDROOT
BRANCH   1   4
ATOM      4  N   UNL     1      43.728 131.285  15.381  1.00  0.00    -0.231 NA
BRANCH   4   5
ATOM      5  C   UNL     1      44.004 130.891  14.176  1.00  0.00     0.237 C 
BRANCH   5   6
ATOM      6  O   UNL     1      42.982 130.764  13.232  1.00  0.00    -0.492 OA
ATOM      7  H   UNL     1      42.938 129.979  12.593  1.00  0.00     0.295 HD
ENDBRANCH   5   6
BRANCH   5   8
ATOM      8  C   UNL     1      45.397 130.574  13.800  1.00  0.00     0.171 A 
ATOM      9  N   UNL     1      45.862 130.668  12.537  1.00  0.00    -0.074 NA
ATOM     10  C   UNL     1      46.424 130.134  14.625  1.00  0.00     0.024 A 
ATOM     11  O   UNL     1      47.113 130.311  12.555  1.00  0.00    -0.361 OA
ATOM     12  C   UNL     1      47.496 129.983  13.766  1.00  0.00     0.137 A 
ATOM     13  C   UNL     1      46.387 129.873  16.100  1.00  0.00     0.051 C 
ATOM     14  C   UNL     1      48.877 129.535  14.117  1.00  0.00     0.091 C 
ENDBRANCH   5   8
ENDBRANCH   4   5
ENDBRANCH   1   4
BRANCH   1  15
ATOM     15  C   UNL     1      42.166 133.267  15.256  1.00  0.00     0.339 C 
ATOM     16  O   UNL     1      41.618 132.826  14.210  1.00  0.00    -0.249 OA
BRANCH  15  17
ATOM     17  O   UNL     1      41.561 134.275  16.013  1.00  0.00    -0.422 OA
BRANCH  17  18
ATOM     18  C   UNL     1      40.989 135.414  15.435  1.00  0.00     0.159 A 
ATOM     19  C   UNL     1      41.796 136.536  15.225  1.00  0.00     0.105 A 
ATOM     20  C   UNL     1      39.626 135.445  15.077  1.00  0.00     0.028 A 
ATOM     21  C   UNL     1      41.268 137.693  14.631  1.00  0.00     0.087 A 
ATOM     22  C   UNL     1      38.788 134.343  15.340  1.00  0.00     0.013 A 
ATOM     23  C   UNL     1      39.084 136.604  14.454  1.00  0.00     0.010 A 
ATOM     24  C   UNL     1      39.911 137.739  14.245  1.00  0.00     0.060 A 
ATOM     25  C   UNL     1      37.452 134.357  14.945  1.00  0.00     0.001 A 
ATOM     26  C   UNL     1      37.733 136.580  14.039  1.00  0.00     0.011 A 
ATOM     27  C   UNL     1      36.930 135.466  14.287  1.00  0.00     0.001 A 
ATOM     28  Cl  UNL     1      43.493 136.467  15.707  1.00  0.00    -0.078 Cl
ATOM     29  Cl  UNL     1      42.312 139.101  14.412  1.00  0.00    -0.080 Cl
BRANCH  24  30
ATOM     30  N   UNL     1      39.381 138.950  13.676  1.00  0.00    -0.397 N 
ATOM     31  H   UNL     1      39.521 139.876  14.137  1.00  0.00     0.156 HD
ATOM     32  H   UNL     1      38.749 138.940  12.848  1.00  0.00     0.156 HD
ENDBRANCH  24  30
ENDBRANCH  17  18
ENDBRANCH  15  17
ENDBRANCH   1  15
BRANCH   3  33
ATOM     33  C   UNL     1      44.660 132.105  17.998  1.00  0.00     0.003 C 
ATOM     34  C   UNL     1      43.842 131.762  19.238  1.00  0.00     0.004 C 
ENDBRANCH   3  33
TORSDOF 9
ENDMDL
MODEL 5
REMARK VINA RESULT:      -7.1      2.704      5.638
REMARK SMILES CC[C@H]1C[C@]1(/N=C(\O)c1noc(C)c1C)C(=O)Oc1c(Cl)c(Cl)c(N)c2ccccc12
REMARK SMILES IDX 5 1 4 2 3 3 6 4 7 5 8 6 9 8 10 9 14 10 11 11 12 12 15 13
REMARK SMILES IDX 13 14 16 15 17 16 18 17 19 18 20 19 31 20 22 21 30 22 26 23
REMARK SMILES IDX 24 24 29 25 27 26 28 27 21 28 23 29 25 30 2 33 1 34
REMARK H PARENT 8 7 25 31 25 32
ROOT
ATOM      1  C   UNL     1      44.313 132.597  16.029  1.00  0.00     0.165 C 
ATOM      2  C   UNL     1      45.768 132.572  15.580  1.00  0.00     0.050 C 
ATOM      3  C   UNL     1      45.078 131.275  16.012  1.00  0.00     0.031 C 
ENDROOT
BRANCH   1   4
ATOM      4  N   UNL     1      43.318 132.773  14.974  1.00  0.00    -0.231 NA
BRANCH   4   5
ATOM      5  C   UNL     1      42.665 133.878  14.783  1.00  0.00     0.237 C 
BRANCH   5   6
ATOM      6  O   UNL     1      43.359 135.083  14.649  1.00  0.00    -0.492 OA
ATOM      7  H   UNL     1      43.874 135.313  13.807  1.00  0.00     0.295 HD
ENDBRANCH   5   6
BRANCH   5   8
ATOM      8  C   UNL     1      41.190 133.865  14.708  1.00  0.00     0.171 A 
ATOM      9  N   UNL     1      40.494 132.950  14.004  1.00  0.00    -0.074 NA
ATOM     10  C   UNL     1      40.298 134.748  15.303  1.00  0.00     0.024 A 
ATOM     11  O   UNL     1      39.230 133.230  14.143  1.00  0.00    -0.361 OA
ATOM     12  C   UNL     1      39.059 134.288  14.900  1.00  0.00     0.137 A 
ATOM     13  C   UNL     1      40.598 135.931  16.173  1.00  0.00     0.051 C 
ATOM     14  C   UNL     1      37.725 134.859  15.254  1.00  0.00     0.091 C 
ENDBRANCH   5   8
ENDBRANCH   4   5
ENDBRANCH   1   4
BRANCH   1  15
ATOM     15  C   UNL     1      43.976 133.125  17.387  1.00  0.00     0.339 C 
ATOM     16  O   UNL     1      44.268 134.312  17.693  1.00  0.00    -0.249 OA
BRANCH  15  17
ATOM     17  O   UNL     1      43.296 132.299  18.287  1.00  0.00    -0.422 OA
BRANCH  17  18
ATOM     18  C   UNL     1      43.000 132.690  19.598  1.00  0.00     0.159 A 
ATOM     19  C   UNL     1      43.927 132.411  20.606  1.00  0.00     0.105 A 
ATOM     20  C   UNL     1      41.791 133.345  19.909  1.00  0.00     0.028 A 
ATOM     21  C   UNL     1      43.679 132.803  21.931  1.00  0.00     0.087 A 
ATOM     22  C   UNL     1      40.822 133.577  18.912  1.00  0.00     0.013 A 
ATOM     23  C   UNL     1      41.537 133.767  21.243  1.00  0.00     0.010 A 
ATOM     24  C   UNL     1      42.484 133.478  22.262  1.00  0.00     0.060 A 
ATOM     25  C   UNL     1      39.647 134.264  19.211  1.00  0.00     0.001 A 
ATOM     26  C   UNL     1      40.351 134.485  21.513  1.00  0.00     0.011 A 
ATOM     27  C   UNL     1      39.417 134.727  20.503  1.00  0.00     0.001 A 
ATOM     28  Cl  UNL     1      45.419 131.569  20.182  1.00  0.00    -0.078 Cl
ATOM     29  Cl  UNL     1      44.860 132.403  23.182  1.00  0.00    -0.080 Cl
BRANCH  24  30
ATOM     30  N   UNL     1      42.233 133.833  23.633  1.00  0.00    -0.397 N 
ATOM     31  H   UNL     1      41.644 133.234  24.252  1.00  0.00     0.156 HD
ATOM     32  H   UNL     1      42.533 134.748  24.031  1.00  0.00     0.156 HD
ENDBRANCH  24  30
ENDBRANCH  17  18
ENDBRANCH  15  17
ENDBRANCH   1  15
BRANCH   3  33
ATOM     33  C   UNL     1      44.808 130.291  14.863  1.00  0.00     0.003 C 
ATOM     34  C   UNL     1      45.147 128.869  15.296  1.00  0.00     0.004 C 
ENDBRANCH   3  33
TORSDOF 9
ENDMDL
MODEL 6
REMARK VINA RESULT:      -7.0      2.476      7.227
REMARK SMILES CC[C@H]1C[C@]1(/N=C(\O)c1noc(C)c1C)C(=O)Oc1c(Cl)c(Cl)c(N)c2ccccc12
REMARK SMILES IDX 5 1 4 2 3 3 6 4 7 5 8 6 9 8 10 9 14 10 11 11 12 12 15 13
REMARK SMILES IDX 13 14 16 15 17 16 18 17 19 18 20 19 31 20 22 21 30 22 26 23
REMARK SMILES IDX 24 24 29 25 27 26 28 27 21 28 23 29 25 30 2 33 1 34
REMARK H PARENT 8 7 25 31 25 32
ROOT
ATOM      1  C   UNL     1      40.904 134.603  14.913  1.00  0.00     0.165 C 
ATOM      2  C   UNL     1      40.415 135.143  13.576  1.00  0.00     0.050 C 
ATOM      3  C   UNL     1      39.753 133.907  14.191  1.00  0.00     0.031 C 
ENDROOT
BRANCH   1   4
ATOM      4  N   UNL     1      40.538 135.383  16.094  1.00  0.00    -0.231 NA
BRANCH   4   5
ATOM      5  C   UNL     1      41.270 136.343  16.572  1.00  0.00     0.237 C 
BRANCH   5   6
ATOM      6  O   UNL     1      42.122 137.057  15.728  1.00  0.00    -0.492 OA
ATOM      7  H   UNL     1      41.927 137.165  14.739  1.00  0.00     0.295 HD
ENDBRANCH   5   6
BRANCH   5   8
ATOM      8  C   UNL     1      41.204 136.680  18.009  1.00  0.00     0.171 A 
ATOM      9  N   UNL     1      42.291 136.750  18.803  1.00  0.00    -0.074 NA
ATOM     10  C   UNL     1      40.075 136.961  18.768  1.00  0.00     0.024 A 
ATOM     11  O   UNL     1      41.881 137.058  19.999  1.00  0.00    -0.361 OA
ATOM     12  C   UNL     1      40.576 137.192  20.034  1.00  0.00     0.137 A 
ATOM     13  C   UNL     1      38.642 136.998  18.329  1.00  0.00     0.051 C 
ATOM     14  C   UNL     1      39.803 137.549  21.261  1.00  0.00     0.091 C 
ENDBRANCH   5   8
ENDBRANCH   4   5
ENDBRANCH   1   4
BRANCH   1  15
ATOM     15  C   UNL     1      42.185 133.835  14.967  1.00  0.00     0.339 C 
ATOM     16  O   UNL     1      43.265 134.383  14.619  1.00  0.00    -0.249 OA
BRANCH  15  17
ATOM     17  O   UNL     1      42.170 132.523  15.451  1.00  0.00    -0.422 OA
BRANCH  17  18
ATOM     18  C   UNL     1      43.183 132.006  16.268  1.00  0.00     0.159 A 
ATOM     19  C   UNL     1      43.101 132.209  17.648  1.00  0.00     0.105 A 
ATOM     20  C   UNL     1      44.274 131.300  15.720  1.00  0.00     0.028 A 
ATOM     21  C   UNL     1      44.084 131.691  18.505  1.00  0.00     0.087 A 
ATOM     22  C   UNL     1      44.400 131.142  14.324  1.00  0.00     0.013 A 
ATOM     23  C   UNL     1      45.266 130.752  16.579  1.00  0.00     0.010 A 
ATOM     24  C   UNL     1      45.175 130.964  17.980  1.00  0.00     0.060 A 
ATOM     25  C   UNL     1      45.454 130.407  13.786  1.00  0.00     0.001 A 
ATOM     26  C   UNL     1      46.309 129.988  16.008  1.00  0.00     0.011 A 
ATOM     27  C   UNL     1      46.398 129.822  14.625  1.00  0.00     0.001 A 
ATOM     28  Cl  UNL     1      41.732 133.116  18.295  1.00  0.00    -0.078 Cl
ATOM     29  Cl  UNL     1      43.961 131.997  20.240  1.00  0.00    -0.080 Cl
BRANCH  24  30
ATOM     30  N   UNL     1      46.193 130.478  18.873  1.00  0.00    -0.397 N 
ATOM     31  H   UNL     1      46.029 130.411  19.901  1.00  0.00     0.156 HD
ATOM     32  H   UNL     1      47.162 130.278  18.548  1.00  0.00     0.156 HD
ENDBRANCH  24  30
ENDBRANCH  17  18
ENDBRANCH  15  17
ENDBRANCH   1  15
BRANCH   3  33
ATOM     33  C   UNL     1      38.322 134.144  14.699  1.00  0.00     0.003 C 
ATOM     34  C   UNL     1      37.373 134.352  13.524  1.00  0.00     0.004 C 
ENDBRANCH   3  33
TORSDOF 9
ENDMDL
MODEL 7
REMARK VINA RESULT:      -7.0      2.792      6.252
REMARK SMILES CC[C@H]1C[C@]1(/N=C(\O)c1noc(C)c1C)C(=O)Oc1c(Cl)c(Cl)c(N)c2ccccc12
REMARK SMILES IDX 5 1 4 2 3 3 6 4 7 5 8 6 9 8 10 9 14 10 11 11 12 12 15 13
REMARK SMILES IDX 13 14 16 15 17 16 18 17 19 18 20 19 31 20 22 21 30 22 26 23
REMARK SMILES IDX 24 24 29 25 27 26 28 27 21 28 23 29 25 30 2 33 1 34
REMARK H PARENT 8 7 25 31 25 32
ROOT
ATOM      1  C   UNL     1      43.970 131.968  16.504  1.00  0.00     0.165 C 
ATOM      2  C   UNL     1      44.902 132.846  15.679  1.00  0.00     0.050 C 
ATOM      3  C   UNL     1      45.041 131.322  15.628  1.00  0.00     0.031 C 
ENDROOT
BRANCH   1   4
ATOM      4  N   UNL     1      42.596 131.856  16.019  1.00  0.00    -0.231 NA
BRANCH   4   5
ATOM      5  C   UNL     1      42.010 132.772  15.310  1.00  0.00     0.237 C 
BRANCH   5   6
ATOM      6  O   UNL     1      41.722 132.534  13.965  1.00  0.00    -0.492 OA
ATOM      7  H   UNL     1      41.442 133.279  13.338  1.00  0.00     0.295 HD
ENDBRANCH   5   6
BRANCH   5   8
ATOM      8  C   UNL     1      41.650 134.066  15.923  1.00  0.00     0.171 A 
ATOM      9  N   UNL     1      42.114 135.251  15.476  1.00  0.00    -0.074 NA
ATOM     10  C   UNL     1      40.823 134.292  17.016  1.00  0.00     0.024 A 
ATOM     11  O   UNL     1      41.613 136.179  16.239  1.00  0.00    -0.361 OA
ATOM     12  C   UNL     1      40.843 135.665  17.169  1.00  0.00     0.137 A 
ATOM     13  C   UNL     1      40.085 133.288  17.849  1.00  0.00     0.051 C 
ATOM     14  C   UNL     1      40.117 136.470  18.196  1.00  0.00     0.091 C 
ENDBRANCH   5   8
ENDBRANCH   4   5
ENDBRANCH   1   4
BRANCH   1  15
ATOM     15  C   UNL     1      44.191 131.850  17.978  1.00  0.00     0.339 C 
ATOM     16  O   UNL     1      45.136 131.144  18.420  1.00  0.00    -0.249 OA
BRANCH  15  17
ATOM     17  O   UNL     1      43.366 132.570  18.847  1.00  0.00    -0.422 OA
BRANCH  17  18
ATOM     18  C   UNL     1      43.868 133.344  19.900  1.00  0.00     0.159 A 
ATOM     19  C   UNL     1      43.948 132.773  21.173  1.00  0.00     0.105 A 
ATOM     20  C   UNL     1      44.280 134.677  19.694  1.00  0.00     0.028 A 
ATOM     21  C   UNL     1      44.464 133.508  22.252  1.00  0.00     0.087 A 
ATOM     22  C   UNL     1      44.147 135.283  18.429  1.00  0.00     0.013 A 
ATOM     23  C   UNL     1      44.824 135.424  20.775  1.00  0.00     0.010 A 
ATOM     24  C   UNL     1      44.901 134.837  22.066  1.00  0.00     0.060 A 
ATOM     25  C   UNL     1      44.595 136.586  18.215  1.00  0.00     0.001 A 
ATOM     26  C   UNL     1      45.296 136.733  20.524  1.00  0.00     0.011 A 
ATOM     27  C   UNL     1      45.178 137.303  19.255  1.00  0.00     0.001 A 
ATOM     28  Cl  UNL     1      43.402 131.109  21.397  1.00  0.00    -0.078 Cl
ATOM     29  Cl  UNL     1      44.518 132.761  23.853  1.00  0.00    -0.080 Cl
BRANCH  24  30
ATOM     30  N   UNL     1      45.387 135.584  23.195  1.00  0.00    -0.397 N 
ATOM     31  H   UNL     1      44.738 136.105  23.824  1.00  0.00     0.156 HD
ATOM     32  H   UNL     1      46.405 135.725  23.367  1.00  0.00     0.156 HD
ENDBRANCH  24  30
ENDBRANCH  17  18
ENDBRANCH  15  17
ENDBRANCH   1  15
BRANCH   3  33
ATOM     33  C   UNL     1      44.611 130.692  14.294  1.00  0.00     0.003 C 
ATOM     34  C   UNL     1      45.816 130.527  13.375  1.00  0.00     0.004 C 
ENDBRANCH   3  33
TORSDOF 9
ENDMDL
MODEL 8
REMARK VINA RESULT:      -6.9      2.927      7.592
REMARK SMILES CC[C@H]1C[C@]1(/N=C(\O)c1noc(C)c1C)C(=O)Oc1c(Cl)c(Cl)c(N)c2ccccc12
REMARK SMILES IDX 5 1 4 2 3 3 6 4 7 5 8 6 9 8 10 9 14 10 11 11 12 12 15 13
REMARK SMILES IDX 13 14 16 15 17 16 18 17 19 18 20 19 31 20 22 21 30 22 26 23
REMARK SMILES IDX 24 24 29 25 27 26 28 27 21 28 23 29 25 30 2 33 1 34
REMARK H PARENT 8 7 25 31 25 32
ROOT
ATOM      1  C   UNL     1      40.603 134.473  15.623  1.00  0.00     0.165 C 
ATOM      2  C   UNL     1      40.572 135.989  15.761  1.00  0.00     0.050 C 
ATOM      3  C   UNL     1      40.169 135.333  14.438  1.00  0.00     0.031 C 
ENDROOT
BRANCH   1   4
ATOM      4  N   UNL     1      39.536 133.743  16.306  1.00  0.00    -0.231 NA
BRANCH   4   5
ATOM      5  C   UNL     1      39.581 133.421  17.562  1.00  0.00     0.237 C 
BRANCH   5   6
ATOM      6  O   UNL     1      40.001 132.144  17.940  1.00  0.00    -0.492 OA
ATOM      7  H   UNL     1      40.264 131.443  17.256  1.00  0.00     0.295 HD
ENDBRANCH   5   6
BRANCH   5   8
ATOM      8  C   UNL     1      39.188 134.402  18.594  1.00  0.00     0.171 A 
ATOM      9  N   UNL     1      37.905 134.721  18.861  1.00  0.00    -0.074 NA
ATOM     10  C   UNL     1      40.017 135.145  19.425  1.00  0.00     0.024 A 
ATOM     11  O   UNL     1      37.914 135.614  19.808  1.00  0.00    -0.361 OA
ATOM     12  C   UNL     1      39.139 135.903  20.177  1.00  0.00     0.137 A 
ATOM     13  C   UNL     1      41.514 135.140  19.493  1.00  0.00     0.051 C 
ATOM     14  C   UNL     1      39.483 136.886  21.246  1.00  0.00     0.091 C 
ENDBRANCH   5   8
ENDBRANCH   4   5
ENDBRANCH   1   4
BRANCH   1  15
ATOM     15  C   UNL     1      41.917 133.779  15.464  1.00  0.00     0.339 C 
ATOM     16  O   UNL     1      42.918 134.414  15.035  1.00  0.00    -0.249 OA
BRANCH  15  17
ATOM     17  O   UNL     1      42.027 132.437  15.841  1.00  0.00    -0.422 OA
BRANCH  17  18
ATOM     18  C   UNL     1      43.259 131.786  15.971  1.00  0.00     0.159 A 
ATOM     19  C   UNL     1      43.877 131.284  14.821  1.00  0.00     0.105 A 
ATOM     20  C   UNL     1      43.871 131.625  17.231  1.00  0.00     0.028 A 
ATOM     21  C   UNL     1      45.122 130.642  14.904  1.00  0.00     0.087 A 
ATOM     22  C   UNL     1      43.229 132.072  18.404  1.00  0.00     0.013 A 
ATOM     23  C   UNL     1      45.143 130.995  17.325  1.00  0.00     0.010 A 
ATOM     24  C   UNL     1      45.763 130.488  16.152  1.00  0.00     0.060 A 
ATOM     25  C   UNL     1      43.854 131.952  19.644  1.00  0.00     0.001 A 
ATOM     26  C   UNL     1      45.766 130.912  18.591  1.00  0.00     0.011 A 
ATOM     27  C   UNL     1      45.122 131.387  19.736  1.00  0.00     0.001 A 
ATOM     28  Cl  UNL     1      43.070 131.485  13.264  1.00  0.00    -0.078 Cl
ATOM     29  Cl  UNL     1      45.855 129.994  13.433  1.00  0.00    -0.080 Cl
BRANCH  24  30
ATOM     30  N   UNL     1      47.019 129.790  16.218  1.00  0.00    -0.397 N 
ATOM     31  H   UNL     1      47.818 130.046  15.598  1.00  0.00     0.156 HD
ATOM     32  H   UNL     1      47.147 128.937  16.804  1.00  0.00     0.156 HD
ENDBRANCH  24  30
ENDBRANCH  17  18
ENDBRANCH  15  17
ENDBRANCH   1  15
BRANCH   3  33
ATOM     33  C   UNL     1      38.670 135.430  14.116  1.00  0.00     0.003 C 
ATOM     34  C   UNL     1      38.237 134.249  13.255  1.00  0.00     0.004 C 
ENDBRANCH   3  33
TORSDOF 9
ENDMDL
MODEL 9
REMARK VINA RESULT:      -6.9      3.024      6.226
REMARK SMILES CC[C@H]1C[C@]1(/N=C(\O)c1noc(C)c1C)C(=O)Oc1c(Cl)c(Cl)c(N)c2ccccc12
REMARK SMILES IDX 5 1 4 2 3 3 6 4 7 5 8 6 9 8 10 9 14 10 11 11 12 12 15 13
REMARK SMILES IDX 13 14 16 15 17 16 18 17 19 18 20 19 31 20 22 21 30 22 26 23
REMARK SMILES IDX 24 24 29 25 27 26 28 27 21 28 23 29 25 30 2 33 1 34
REMARK H PARENT 8 7 25 31 25 32
ROOT
ATOM      1  C   UNL     1      43.934 132.471  16.034  1.00  0.00     0.165 C 
ATOM      2  C   UNL     1      45.322 133.063  15.832  1.00  0.00     0.050 C 
ATOM      3  C   UNL     1      45.110 131.551  15.716  1.00  0.00     0.031 C 
ENDROOT
BRANCH   1   4
ATOM      4  N   UNL     1      42.979 132.686  14.949  1.00  0.00    -0.231 NA
BRANCH   4   5
ATOM      5  C   UNL     1      42.331 133.798  14.775  1.00  0.00     0.237 C 
BRANCH   5   6
ATOM      6  O   UNL     1      43.026 134.967  14.461  1.00  0.00    -0.492 OA
ATOM      7  H   UNL     1      44.018 134.962  14.257  1.00  0.00     0.295 HD
ENDBRANCH   5   6
BRANCH   5   8
ATOM      8  C   UNL     1      40.861 133.827  14.911  1.00  0.00     0.171 A 
ATOM      9  N   UNL     1      40.022 133.317  13.986  1.00  0.00    -0.074 NA
ATOM     10  C   UNL     1      40.111 134.366  15.948  1.00  0.00     0.024 A 
ATOM     11  O   UNL     1      38.808 133.516  14.409  1.00  0.00    -0.361 OA
ATOM     12  C   UNL     1      38.803 134.136  15.565  1.00  0.00     0.137 A 
ATOM     13  C   UNL     1      40.595 135.047  17.193  1.00  0.00     0.051 C 
ATOM     14  C   UNL     1      37.565 134.503  16.315  1.00  0.00     0.091 C 
ENDBRANCH   5   8
ENDBRANCH   4   5
ENDBRANCH   1   4
BRANCH   1  15
ATOM     15  C   UNL     1      43.384 132.353  17.420  1.00  0.00     0.339 C 
ATOM     16  O   UNL     1      42.231 131.879  17.603  1.00  0.00    -0.249 OA
BRANCH  15  17
ATOM     17  O   UNL     1      44.185 132.732  18.502  1.00  0.00    -0.422 OA
BRANCH  17  18
ATOM     18  C   UNL     1      43.690 133.461  19.590  1.00  0.00     0.159 A 
ATOM     19  C   UNL     1      43.580 134.849  19.472  1.00  0.00     0.105 A 
ATOM     20  C   UNL     1      43.316 132.820  20.789  1.00  0.00     0.028 A 
ATOM     21  C   UNL     1      43.070 135.616  20.531  1.00  0.00     0.087 A 
ATOM     22  C   UNL     1      43.481 131.428  20.942  1.00  0.00     0.013 A 
ATOM     23  C   UNL     1      42.779 133.583  21.862  1.00  0.00     0.010 A 
ATOM     24  C   UNL     1      42.671 134.994  21.734  1.00  0.00     0.060 A 
ATOM     25  C   UNL     1      43.070 130.789  22.110  1.00  0.00     0.001 A 
ATOM     26  C   UNL     1      42.345 132.907  23.024  1.00  0.00     0.011 A 
ATOM     27  C   UNL     1      42.493 131.523  23.142  1.00  0.00     0.001 A 
ATOM     28  Cl  UNL     1      44.079 135.618  17.963  1.00  0.00    -0.078 Cl
ATOM     29  Cl  UNL     1      42.977 137.371  20.355  1.00  0.00    -0.080 Cl
BRANCH  24  30
ATOM     30  N   UNL     1      42.191 135.804  22.821  1.00  0.00    -0.397 N 
ATOM     31  H   UNL     1      41.242 135.662  23.229  1.00  0.00     0.156 HD
ATOM     32  H   UNL     1      42.722 136.630  23.171  1.00  0.00     0.156 HD
ENDBRANCH  24  30
ENDBRANCH  17  18
ENDBRANCH  15  17
ENDBRANCH   1  15
BRANCH   3  33
ATOM     33  C   UNL     1      45.241 131.002  14.287  1.00  0.00     0.003 C 
ATOM     34  C   UNL     1      45.590 129.519  14.321  1.00  0.00     0.004 C 
ENDBRANCH   3  33
TORSDOF 9
ENDMDL


