MODEL 1
REMARK VINA RESULT:      -8.3      0.000      0.000
REMARK SMILES Cc1nnn(/C=C2/C[C@@H](C)OC2=O)c1-c1c2ccccc2cc2c(N=[N+]=[N-])cccc12
REMARK SMILES IDX 15 1 16 2 17 3 18 4 19 5 20 6 21 7 22 8 23 9 24 10 28 11
REMARK SMILES IDX 29 12 30 13 31 14 14 15 5 16 4 17 3 18 2 19 1 20 6 21 7 22
REMARK SMILES IDX 12 23 8 24 11 25 9 26 13 27 10 28 25 29 26 30 27 31
REMARK H PARENT
ROOT
ATOM      1  C   UNL     1      41.000 134.916  15.831  1.00  0.00     0.018 A 
ATOM      2  C   UNL     1      41.793 136.049  16.141  1.00  0.00    -0.008 A 
ATOM      3  C   UNL     1      42.773 136.019  17.160  1.00  0.00     0.009 A 
ATOM      4  C   UNL     1      43.541 137.150  17.443  1.00  0.00     0.001 A 
ATOM      5  C   UNL     1      43.346 138.329  16.727  1.00  0.00     0.001 A 
ATOM      6  C   UNL     1      42.377 138.386  15.726  1.00  0.00     0.009 A 
ATOM      7  C   UNL     1      41.594 137.257  15.429  1.00  0.00    -0.017 A 
ATOM      8  C   UNL     1      40.614 137.336  14.436  1.00  0.00     0.018 A 
ATOM      9  C   UNL     1      39.809 136.227  14.124  1.00  0.00    -0.008 A 
ATOM     10  C   UNL     1      38.814 136.321  13.121  1.00  0.00     0.045 A 
ATOM     11  C   UNL     1      38.025 135.196  12.823  1.00  0.00     0.011 A 
ATOM     12  C   UNL     1      38.219 133.996  13.500  1.00  0.00     0.001 A 
ATOM     13  C   UNL     1      39.197 133.895  14.486  1.00  0.00     0.009 A 
ATOM     14  C   UNL     1      40.002 135.004  14.823  1.00  0.00    -0.008 A 
ENDROOT
BRANCH   1  15
ATOM     15  C   UNL     1      41.199 133.645  16.570  1.00  0.00     0.098 A 
ATOM     16  N   UNL     1      42.017 132.644  16.201  1.00  0.00    -0.219 N 
ATOM     17  N   UNL     1      41.956 131.702  17.130  1.00  0.00    -0.062 NA
ATOM     18  N   UNL     1      41.150 132.073  18.117  1.00  0.00    -0.135 NA
ATOM     19  C   UNL     1      40.658 133.283  17.787  1.00  0.00     0.088 A 
ATOM     20  C   UNL     1      39.778 134.109  18.667  1.00  0.00     0.071 C 
BRANCH  16  21
ATOM     21  C   UNL     1      42.723 132.537  14.958  1.00  0.00     0.126 C 
BRANCH  21  22
ATOM     22  C   UNL     1      43.985 132.098  14.860  1.00  0.00     0.059 C 
ATOM     23  C   UNL     1      45.205 132.728  15.325  1.00  0.00     0.335 C 
ATOM     24  C   UNL     1      44.378 130.858  14.126  1.00  0.00     0.089 C 
ATOM     25  O   UNL     1      46.301 131.962  14.995  1.00  0.00    -0.459 OA
ATOM     26  C   UNL     1      45.920 130.778  14.302  1.00  0.00     0.178 C 
ATOM     27  O   UNL     1      45.298 133.854  15.879  1.00  0.00    -0.247 OA
ATOM     28  C   UNL     1      46.652 130.699  12.964  1.00  0.00     0.053 C 
ENDBRANCH  21  22
ENDBRANCH  16  21
ENDBRANCH   1  15
BRANCH  10  29
ATOM     29  N   UNL     1      38.616 137.558  12.415  1.00  0.00    -0.060 NA
BRANCH  29  30
ATOM     30  N   UNL     1      38.512 137.615  11.189  1.00  0.00     0.005 N 
ATOM     31  N   UNL     1      38.410 137.673   9.965  1.00  0.00    -0.003 NA
ENDBRANCH  29  30
ENDBRANCH  10  29
TORSDOF 5
ENDMDL
MODEL 2
REMARK VINA RESULT:      -8.2      3.029      6.002
REMARK SMILES Cc1nnn(/C=C2/C[C@@H](C)OC2=O)c1-c1c2ccccc2cc2c(N=[N+]=[N-])cccc12
REMARK SMILES IDX 15 1 16 2 17 3 18 4 19 5 20 6 21 7 22 8 23 9 24 10 28 11
REMARK SMILES IDX 29 12 30 13 31 14 14 15 5 16 4 17 3 18 2 19 1 20 6 21 7 22
REMARK SMILES IDX 12 23 8 24 11 25 9 26 13 27 10 28 25 29 26 30 27 31
REMARK H PARENT
ROOT
ATOM      1  C   UNL     1      43.265 134.204  16.757  1.00  0.00     0.018 A 
ATOM      2  C   UNL     1      43.253 135.619  16.665  1.00  0.00    -0.008 A 
ATOM      3  C   UNL     1      42.820 136.288  15.498  1.00  0.00     0.009 A 
ATOM      4  C   UNL     1      42.817 137.683  15.436  1.00  0.00     0.001 A 
ATOM      5  C   UNL     1      43.249 138.436  16.527  1.00  0.00     0.001 A 
ATOM      6  C   UNL     1      43.693 137.797  17.684  1.00  0.00     0.009 A 
ATOM      7  C   UNL     1      43.703 136.394  17.762  1.00  0.00    -0.017 A 
ATOM      8  C   UNL     1      44.168 135.768  18.923  1.00  0.00     0.018 A 
ATOM      9  C   UNL     1      44.201 134.367  19.027  1.00  0.00    -0.008 A 
ATOM     10  C   UNL     1      44.681 133.744  20.204  1.00  0.00     0.045 A 
ATOM     11  C   UNL     1      44.698 132.341  20.286  1.00  0.00     0.011 A 
ATOM     12  C   UNL     1      44.243 131.565  19.225  1.00  0.00     0.001 A 
ATOM     13  C   UNL     1      43.767 132.169  18.065  1.00  0.00     0.009 A 
ATOM     14  C   UNL     1      43.744 133.575  17.938  1.00  0.00    -0.008 A 
ENDROOT
BRANCH   1  15
ATOM     15  C   UNL     1      42.797 133.382  15.614  1.00  0.00     0.098 A 
ATOM     16  N   UNL     1      43.536 132.483  14.941  1.00  0.00    -0.219 N 
ATOM     17  N   UNL     1      42.764 131.924  14.022  1.00  0.00    -0.062 NA
ATOM     18  N   UNL     1      41.528 132.403  14.098  1.00  0.00    -0.135 NA
ATOM     19  C   UNL     1      41.525 133.322  15.083  1.00  0.00     0.088 A 
ATOM     20  C   UNL     1      40.309 134.043  15.566  1.00  0.00     0.071 C 
BRANCH  16  21
ATOM     21  C   UNL     1      44.946 132.264  15.083  1.00  0.00     0.126 C 
BRANCH  21  22
ATOM     22  C   UNL     1      45.574 131.175  14.618  1.00  0.00     0.059 C 
ATOM     23  C   UNL     1      45.471 129.802  15.071  1.00  0.00     0.335 C 
ATOM     24  C   UNL     1      46.623 131.213  13.555  1.00  0.00     0.089 C 
ATOM     25  O   UNL     1      46.314 128.989  14.348  1.00  0.00    -0.459 OA
ATOM     26  C   UNL     1      47.034 129.727  13.367  1.00  0.00     0.178 C 
ATOM     27  O   UNL     1      44.784 129.388  16.041  1.00  0.00    -0.247 OA
ATOM     28  C   UNL     1      48.535 129.513  13.552  1.00  0.00     0.053 C 
ENDBRANCH  21  22
ENDBRANCH  16  21
ENDBRANCH   1  15
BRANCH  10  29
ATOM     29  N   UNL     1      45.146 134.545  21.304  1.00  0.00    -0.060 NA
BRANCH  29  30
ATOM     30  N   UNL     1      46.309 134.511  21.707  1.00  0.00     0.005 N 
ATOM     31  N   UNL     1      47.472 134.475  22.108  1.00  0.00    -0.003 NA
ENDBRANCH  29  30
ENDBRANCH  10  29
TORSDOF 5
ENDMDL
MODEL 3
REMARK VINA RESULT:      -8.1      3.272      6.434
REMARK SMILES Cc1nnn(/C=C2/C[C@@H](C)OC2=O)c1-c1c2ccccc2cc2c(N=[N+]=[N-])cccc12
REMARK SMILES IDX 15 1 16 2 17 3 18 4 19 5 20 6 21 7 22 8 23 9 24 10 28 11
REMARK SMILES IDX 29 12 30 13 31 14 14 15 5 16 4 17 3 18 2 19 1 20 6 21 7 22
REMARK SMILES IDX 12 23 8 24 11 25 9 26 13 27 10 28 25 29 26 30 27 31
REMARK H PARENT
ROOT
ATOM      1  C   UNL     1      43.620 134.167  17.830  1.00  0.00     0.018 A 
ATOM      2  C   UNL     1      43.773 135.576  17.864  1.00  0.00    -0.008 A 
ATOM      3  C   UNL     1      43.408 136.393  16.771  1.00  0.00     0.009 A 
ATOM      4  C   UNL     1      43.567 137.779  16.832  1.00  0.00     0.001 A 
ATOM      5  C   UNL     1      44.097 138.375  17.975  1.00  0.00     0.001 A 
ATOM      6  C   UNL     1      44.476 137.588  19.061  1.00  0.00     0.009 A 
ATOM      7  C   UNL     1      44.323 136.191  19.015  1.00  0.00    -0.017 A 
ATOM      8  C   UNL     1      44.725 135.414  20.105  1.00  0.00     0.018 A 
ATOM      9  C   UNL     1      44.594 134.016  20.085  1.00  0.00    -0.008 A 
ATOM     10  C   UNL     1      45.012 133.237  21.192  1.00  0.00     0.045 A 
ATOM     11  C   UNL     1      44.866 131.840  21.149  1.00  0.00     0.011 A 
ATOM     12  C   UNL     1      44.310 131.221  20.034  1.00  0.00     0.001 A 
ATOM     13  C   UNL     1      43.895 131.978  18.943  1.00  0.00     0.009 A 
ATOM     14  C   UNL     1      44.035 133.383  18.941  1.00  0.00    -0.008 A 
ENDROOT
BRANCH   1  15
ATOM     15  C   UNL     1      43.046 133.510  16.630  1.00  0.00     0.098 A 
ATOM     16  N   UNL     1      43.736 132.807  15.716  1.00  0.00    -0.219 N 
ATOM     17  N   UNL     1      42.877 132.344  14.821  1.00  0.00    -0.062 NA
ATOM     18  N   UNL     1      41.638 132.692  15.143  1.00  0.00    -0.135 NA
ATOM     19  C   UNL     1      41.717 133.429  16.268  1.00  0.00     0.088 A 
ATOM     20  C   UNL     1      40.540 133.947  17.027  1.00  0.00     0.071 C 
BRANCH  16  21
ATOM     21  C   UNL     1      45.163 132.692  15.631  1.00  0.00     0.126 C 
BRANCH  21  22
ATOM     22  C   UNL     1      45.795 131.555  15.308  1.00  0.00     0.059 C 
ATOM     23  C   UNL     1      46.333 130.534  16.184  1.00  0.00     0.335 C 
ATOM     24  C   UNL     1      46.158 131.176  13.910  1.00  0.00     0.089 C 
ATOM     25  O   UNL     1      46.939 129.538  15.452  1.00  0.00    -0.459 OA
ATOM     26  C   UNL     1      46.858 129.797  14.054  1.00  0.00     0.178 C 
ATOM     27  O   UNL     1      46.340 130.560  17.443  1.00  0.00    -0.247 OA
ATOM     28  C   UNL     1      48.256 129.790  13.441  1.00  0.00     0.053 C 
ENDBRANCH  21  22
ENDBRANCH  16  21
ENDBRANCH   1  15
BRANCH  10  29
ATOM     29  N   UNL     1      45.580 133.877  22.348  1.00  0.00    -0.060 NA
BRANCH  29  30
ATOM     30  N   UNL     1      44.957 134.021  23.401  1.00  0.00     0.005 N 
ATOM     31  N   UNL     1      44.336 134.163  24.454  1.00  0.00    -0.003 NA
ENDBRANCH  29  30
ENDBRANCH  10  29
TORSDOF 5
ENDMDL
MODEL 4
REMARK VINA RESULT:      -8.1      4.095      6.623
REMARK SMILES Cc1nnn(/C=C2/C[C@@H](C)OC2=O)c1-c1c2ccccc2cc2c(N=[N+]=[N-])cccc12
REMARK SMILES IDX 15 1 16 2 17 3 18 4 19 5 20 6 21 7 22 8 23 9 24 10 28 11
REMARK SMILES IDX 29 12 30 13 31 14 14 15 5 16 4 17 3 18 2 19 1 20 6 21 7 22
REMARK SMILES IDX 12 23 8 24 11 25 9 26 13 27 10 28 25 29 26 30 27 31
REMARK H PARENT
ROOT
ATOM      1  C   UNL     1      43.755 134.008  18.988  1.00  0.00     0.018 A 
ATOM      2  C   UNL     1      44.204 133.179  20.046  1.00  0.00    -0.008 A 
ATOM      3  C   UNL     1      43.824 131.821  20.144  1.00  0.00     0.009 A 
ATOM      4  C   UNL     1      44.283 131.026  21.196  1.00  0.00     0.001 A 
ATOM      5  C   UNL     1      45.120 131.566  22.171  1.00  0.00     0.001 A 
ATOM      6  C   UNL     1      45.498 132.906  22.102  1.00  0.00     0.009 A 
ATOM      7  C   UNL     1      45.044 133.720  21.050  1.00  0.00    -0.017 A 
ATOM      8  C   UNL     1      45.417 135.067  21.005  1.00  0.00     0.018 A 
ATOM      9  C   UNL     1      44.971 135.908  19.973  1.00  0.00    -0.008 A 
ATOM     10  C   UNL     1      45.349 137.272  19.941  1.00  0.00     0.045 A 
ATOM     11  C   UNL     1      44.894 138.091  18.894  1.00  0.00     0.011 A 
ATOM     12  C   UNL     1      44.083 137.572  17.890  1.00  0.00     0.001 A 
ATOM     13  C   UNL     1      43.709 136.232  17.912  1.00  0.00     0.009 A 
ATOM     14  C   UNL     1      44.135 135.377  18.952  1.00  0.00    -0.008 A 
ENDROOT
BRANCH   1  15
ATOM     15  C   UNL     1      42.875 133.453  17.931  1.00  0.00     0.098 A 
ATOM     16  N   UNL     1      43.288 132.814  16.823  1.00  0.00    -0.219 N 
ATOM     17  N   UNL     1      42.217 132.432  16.146  1.00  0.00    -0.062 NA
ATOM     18  N   UNL     1      41.111 132.768  16.798  1.00  0.00    -0.135 NA
ATOM     19  C   UNL     1      41.496 133.414  17.916  1.00  0.00     0.088 A 
ATOM     20  C   UNL     1      40.566 133.886  18.985  1.00  0.00     0.071 C 
BRANCH  16  21
ATOM     21  C   UNL     1      44.643 132.691  16.368  1.00  0.00     0.126 C 
BRANCH  21  22
ATOM     22  C   UNL     1      45.166 131.546  15.909  1.00  0.00     0.059 C 
ATOM     23  C   UNL     1      45.761 130.454  16.654  1.00  0.00     0.335 C 
ATOM     24  C   UNL     1      45.321 131.228  14.457  1.00  0.00     0.089 C 
ATOM     25  O   UNL     1      46.212 129.474  15.800  1.00  0.00    -0.459 OA
ATOM     26  C   UNL     1      45.961 129.812  14.440  1.00  0.00     0.178 C 
ATOM     27  O   UNL     1      45.935 130.411  17.900  1.00  0.00    -0.247 OA
ATOM     28  C   UNL     1      47.263 129.775  13.644  1.00  0.00     0.053 C 
ENDBRANCH  21  22
ENDBRANCH  16  21
ENDBRANCH   1  15
BRANCH  10  29
ATOM     29  N   UNL     1      46.192 137.809  20.975  1.00  0.00    -0.060 NA
BRANCH  29  30
ATOM     30  N   UNL     1      47.249 138.394  20.734  1.00  0.00     0.005 N 
ATOM     31  N   UNL     1      48.305 138.978  20.495  1.00  0.00    -0.003 NA
ENDBRANCH  29  30
ENDBRANCH  10  29
TORSDOF 5
ENDMDL
MODEL 5
REMARK VINA RESULT:      -8.1      3.952      7.207
REMARK SMILES Cc1nnn(/C=C2/C[C@@H](C)OC2=O)c1-c1c2ccccc2cc2c(N=[N+]=[N-])cccc12
REMARK SMILES IDX 15 1 16 2 17 3 18 4 19 5 20 6 21 7 22 8 23 9 24 10 28 11
REMARK SMILES IDX 29 12 30 13 31 14 14 15 5 16 4 17 3 18 2 19 1 20 6 21 7 22
REMARK SMILES IDX 12 23 8 24 11 25 9 26 13 27 10 28 25 29 26 30 27 31
REMARK H PARENT
ROOT
ATOM      1  C   UNL     1      43.549 132.429  17.616  1.00  0.00     0.018 A 
ATOM      2  C   UNL     1      44.229 132.156  18.829  1.00  0.00    -0.008 A 
ATOM      3  C   UNL     1      43.854 132.763  20.049  1.00  0.00     0.009 A 
ATOM      4  C   UNL     1      44.540 132.475  21.230  1.00  0.00     0.001 A 
ATOM      5  C   UNL     1      45.613 131.586  21.219  1.00  0.00     0.001 A 
ATOM      6  C   UNL     1      46.010 130.984  20.026  1.00  0.00     0.009 A 
ATOM      7  C   UNL     1      45.330 131.264  18.828  1.00  0.00    -0.017 A 
ATOM      8  C   UNL     1      45.751 130.668  17.636  1.00  0.00     0.018 A 
ATOM      9  C   UNL     1      45.099 130.937  16.421  1.00  0.00    -0.008 A 
ATOM     10  C   UNL     1      45.539 130.333  15.219  1.00  0.00     0.045 A 
ATOM     11  C   UNL     1      44.866 130.613  14.017  1.00  0.00     0.011 A 
ATOM     12  C   UNL     1      43.771 131.472  14.004  1.00  0.00     0.001 A 
ATOM     13  C   UNL     1      43.331 132.069  15.181  1.00  0.00     0.009 A 
ATOM     14  C   UNL     1      43.986 131.822  16.407  1.00  0.00    -0.008 A 
ENDROOT
BRANCH   1  15
ATOM     15  C   UNL     1      42.395 133.362  17.604  1.00  0.00     0.098 A 
ATOM     16  N   UNL     1      42.449 134.671  17.306  1.00  0.00    -0.219 N 
ATOM     17  N   UNL     1      41.218 135.156  17.363  1.00  0.00    -0.062 NA
ATOM     18  N   UNL     1      40.353 134.193  17.653  1.00  0.00    -0.135 NA
ATOM     19  C   UNL     1      41.066 133.061  17.815  1.00  0.00     0.088 A 
ATOM     20  C   UNL     1      40.472 131.713  18.062  1.00  0.00     0.071 C 
BRANCH  16  21
ATOM     21  C   UNL     1      43.637 135.449  17.104  1.00  0.00     0.126 C 
BRANCH  21  22
ATOM     22  C   UNL     1      44.026 136.432  17.929  1.00  0.00     0.059 C 
ATOM     23  C   UNL     1      43.811 137.860  17.806  1.00  0.00     0.335 C 
ATOM     24  C   UNL     1      44.880 136.213  19.135  1.00  0.00     0.089 C 
ATOM     25  O   UNL     1      44.404 138.530  18.853  1.00  0.00    -0.459 OA
ATOM     26  C   UNL     1      45.047 137.631  19.749  1.00  0.00     0.178 C 
ATOM     27  O   UNL     1      43.243 138.448  16.850  1.00  0.00    -0.247 OA
ATOM     28  C   UNL     1      46.515 138.020  19.915  1.00  0.00     0.053 C 
ENDBRANCH  21  22
ENDBRANCH  16  21
ENDBRANCH   1  15
BRANCH  10  29
ATOM     29  N   UNL     1      46.666 129.439  15.233  1.00  0.00    -0.060 NA
BRANCH  29  30
ATOM     30  N   UNL     1      47.432 129.320  14.275  1.00  0.00     0.005 N 
ATOM     31  N   UNL     1      48.198 129.201  13.320  1.00  0.00    -0.003 NA
ENDBRANCH  29  30
ENDBRANCH  10  29
TORSDOF 5
ENDMDL
MODEL 6
REMARK VINA RESULT:      -8.0      3.595      7.179
REMARK SMILES Cc1nnn(/C=C2/C[C@@H](C)OC2=O)c1-c1c2ccccc2cc2c(N=[N+]=[N-])cccc12
REMARK SMILES IDX 15 1 16 2 17 3 18 4 19 5 20 6 21 7 22 8 23 9 24 10 28 11
REMARK SMILES IDX 29 12 30 13 31 14 14 15 5 16 4 17 3 18 2 19 1 20 6 21 7 22
REMARK SMILES IDX 12 23 8 24 11 25 9 26 13 27 10 28 25 29 26 30 27 31
REMARK H PARENT
ROOT
ATOM      1  C   UNL     1      43.553 132.229  17.655  1.00  0.00     0.018 A 
ATOM      2  C   UNL     1      44.231 131.994  18.878  1.00  0.00    -0.008 A 
ATOM      3  C   UNL     1      43.774 132.537  20.101  1.00  0.00     0.009 A 
ATOM      4  C   UNL     1      44.460 132.289  21.291  1.00  0.00     0.001 A 
ATOM      5  C   UNL     1      45.613 131.505  21.287  1.00  0.00     0.001 A 
ATOM      6  C   UNL     1      46.089 130.970  20.091  1.00  0.00     0.009 A 
ATOM      7  C   UNL     1      45.411 131.211  18.884  1.00  0.00    -0.017 A 
ATOM      8  C   UNL     1      45.912 130.683  17.690  1.00  0.00     0.018 A 
ATOM      9  C   UNL     1      45.262 130.915  16.467  1.00  0.00    -0.008 A 
ATOM     10  C   UNL     1      45.783 130.382  15.263  1.00  0.00     0.045 A 
ATOM     11  C   UNL     1      45.111 130.624  14.053  1.00  0.00     0.011 A 
ATOM     12  C   UNL     1      43.940 131.376  14.031  1.00  0.00     0.001 A 
ATOM     13  C   UNL     1      43.421 131.903  15.210  1.00  0.00     0.009 A 
ATOM     14  C   UNL     1      44.071 131.692  16.445  1.00  0.00    -0.008 A 
ENDROOT
BRANCH   1  15
ATOM     15  C   UNL     1      42.317 133.048  17.636  1.00  0.00     0.098 A 
ATOM     16  N   UNL     1      42.238 134.339  17.271  1.00  0.00    -0.219 N 
ATOM     17  N   UNL     1      40.969 134.709  17.345  1.00  0.00    -0.062 NA
ATOM     18  N   UNL     1      40.207 133.687  17.711  1.00  0.00    -0.135 NA
ATOM     19  C   UNL     1      41.028 132.636  17.906  1.00  0.00     0.088 A 
ATOM     20  C   UNL     1      40.572 131.254  18.239  1.00  0.00     0.071 C 
BRANCH  16  21
ATOM     21  C   UNL     1      43.341 135.213  16.991  1.00  0.00     0.126 C 
BRANCH  21  22
ATOM     22  C   UNL     1      43.195 136.455  16.511  1.00  0.00     0.059 C 
ATOM     23  C   UNL     1      43.235 137.716  17.225  1.00  0.00     0.335 C 
ATOM     24  C   UNL     1      42.848 136.761  15.091  1.00  0.00     0.089 C 
ATOM     25  O   UNL     1      43.003 138.767  16.366  1.00  0.00    -0.459 OA
ATOM     26  C   UNL     1      42.798 138.313  15.032  1.00  0.00     0.178 C 
ATOM     27  O   UNL     1      43.374 137.865  18.467  1.00  0.00    -0.247 OA
ATOM     28  C   UNL     1      41.461 138.829  14.506  1.00  0.00     0.053 C 
ENDBRANCH  21  22
ENDBRANCH  16  21
ENDBRANCH   1  15
BRANCH  10  29
ATOM     29  N   UNL     1      46.989 129.599  15.285  1.00  0.00    -0.060 NA
BRANCH  29  30
ATOM     30  N   UNL     1      47.675 129.407  14.280  1.00  0.00     0.005 N 
ATOM     31  N   UNL     1      48.360 129.216  13.276  1.00  0.00    -0.003 NA
ENDBRANCH  29  30
ENDBRANCH  10  29
TORSDOF 5
ENDMDL
MODEL 7
REMARK VINA RESULT:      -8.0      2.964      5.729
REMARK SMILES Cc1nnn(/C=C2/C[C@@H](C)OC2=O)c1-c1c2ccccc2cc2c(N=[N+]=[N-])cccc12
REMARK SMILES IDX 15 1 16 2 17 3 18 4 19 5 20 6 21 7 22 8 23 9 24 10 28 11
REMARK SMILES IDX 29 12 30 13 31 14 14 15 5 16 4 17 3 18 2 19 1 20 6 21 7 22
REMARK SMILES IDX 12 23 8 24 11 25 9 26 13 27 10 28 25 29 26 30 27 31
REMARK H PARENT
ROOT
ATOM      1  C   UNL     1      43.127 134.337  16.817  1.00  0.00     0.018 A 
ATOM      2  C   UNL     1      43.169 135.745  16.654  1.00  0.00    -0.008 A 
ATOM      3  C   UNL     1      42.875 136.363  15.418  1.00  0.00     0.009 A 
ATOM      4  C   UNL     1      42.923 137.752  15.286  1.00  0.00     0.001 A 
ATOM      5  C   UNL     1      43.269 138.549  16.375  1.00  0.00     0.001 A 
ATOM      6  C   UNL     1      43.575 137.961  17.601  1.00  0.00     0.009 A 
ATOM      7  C   UNL     1      43.533 136.565  17.751  1.00  0.00    -0.017 A 
ATOM      8  C   UNL     1      43.861 135.989  18.982  1.00  0.00     0.018 A 
ATOM      9  C   UNL     1      43.838 134.596  19.159  1.00  0.00    -0.008 A 
ATOM     10  C   UNL     1      44.180 134.023  20.408  1.00  0.00     0.045 A 
ATOM     11  C   UNL     1      44.144 132.627  20.561  1.00  0.00     0.011 A 
ATOM     12  C   UNL     1      43.770 131.808  19.500  1.00  0.00     0.001 A 
ATOM     13  C   UNL     1      43.432 132.362  18.270  1.00  0.00     0.009 A 
ATOM     14  C   UNL     1      43.465 133.759  18.071  1.00  0.00    -0.008 A 
ENDROOT
BRANCH   1  15
ATOM     15  C   UNL     1      42.747 133.468  15.676  1.00  0.00     0.098 A 
ATOM     16  N   UNL     1      43.565 132.615  15.036  1.00  0.00    -0.219 N 
ATOM     17  N   UNL     1      42.859 131.990  14.106  1.00  0.00    -0.062 NA
ATOM     18  N   UNL     1      41.591 132.381  14.144  1.00  0.00    -0.135 NA
ATOM     19  C   UNL     1      41.497 133.311  15.115  1.00  0.00     0.088 A 
ATOM     20  C   UNL     1      40.221 133.951  15.555  1.00  0.00     0.071 C 
BRANCH  16  21
ATOM     21  C   UNL     1      44.983 132.498  15.217  1.00  0.00     0.126 C 
BRANCH  21  22
ATOM     22  C   UNL     1      45.664 131.364  15.001  1.00  0.00     0.059 C 
ATOM     23  C   UNL     1      46.217 130.438  15.969  1.00  0.00     0.335 C 
ATOM     24  C   UNL     1      46.075 130.887  13.647  1.00  0.00     0.089 C 
ATOM     25  O   UNL     1      46.878 129.411  15.334  1.00  0.00    -0.459 OA
ATOM     26  C   UNL     1      46.821 129.552  13.918  1.00  0.00     0.178 C 
ATOM     27  O   UNL     1      46.193 130.566  17.221  1.00  0.00    -0.247 OA
ATOM     28  C   UNL     1      48.233 129.550  13.337  1.00  0.00     0.053 C 
ENDBRANCH  21  22
ENDBRANCH  16  21
ENDBRANCH   1  15
BRANCH  10  29
ATOM     29  N   UNL     1      44.559 134.869  21.508  1.00  0.00    -0.060 NA
BRANCH  29  30
ATOM     30  N   UNL     1      43.792 135.141  22.433  1.00  0.00     0.005 N 
ATOM     31  N   UNL     1      43.025 135.414  23.355  1.00  0.00    -0.003 NA
ENDBRANCH  29  30
ENDBRANCH  10  29
TORSDOF 5
ENDMDL
MODEL 8
REMARK VINA RESULT:      -7.9      3.154      5.248
REMARK SMILES Cc1nnn(/C=C2/C[C@@H](C)OC2=O)c1-c1c2ccccc2cc2c(N=[N+]=[N-])cccc12
REMARK SMILES IDX 15 1 16 2 17 3 18 4 19 5 20 6 21 7 22 8 23 9 24 10 28 11
REMARK SMILES IDX 29 12 30 13 31 14 14 15 5 16 4 17 3 18 2 19 1 20 6 21 7 22
REMARK SMILES IDX 12 23 8 24 11 25 9 26 13 27 10 28 25 29 26 30 27 31
REMARK H PARENT
ROOT
ATOM      1  C   UNL     1      43.184 134.331  17.055  1.00  0.00     0.018 A 
ATOM      2  C   UNL     1      43.504 133.694  18.280  1.00  0.00    -0.008 A 
ATOM      3  C   UNL     1      43.430 132.290  18.433  1.00  0.00     0.009 A 
ATOM      4  C   UNL     1      43.753 131.689  19.651  1.00  0.00     0.001 A 
ATOM      5  C   UNL     1      44.147 132.468  20.737  1.00  0.00     0.001 A 
ATOM      6  C   UNL     1      44.215 133.855  20.613  1.00  0.00     0.009 A 
ATOM      7  C   UNL     1      43.893 134.477  19.395  1.00  0.00    -0.017 A 
ATOM      8  C   UNL     1      43.948 135.870  19.292  1.00  0.00     0.018 A 
ATOM      9  C   UNL     1      43.621 136.520  18.091  1.00  0.00    -0.008 A 
ATOM     10  C   UNL     1      43.673 137.933  18.000  1.00  0.00     0.045 A 
ATOM     11  C   UNL     1      43.347 138.560  16.785  1.00  0.00     0.011 A 
ATOM     12  C   UNL     1      42.981 137.805  15.675  1.00  0.00     0.001 A 
ATOM     13  C   UNL     1      42.929 136.416  15.755  1.00  0.00     0.009 A 
ATOM     14  C   UNL     1      43.238 135.748  16.959  1.00  0.00    -0.008 A 
ENDROOT
BRANCH   1  15
ATOM     15  C   UNL     1      42.775 133.522  15.881  1.00  0.00     0.098 A 
ATOM     16  N   UNL     1      43.575 132.702  15.178  1.00  0.00    -0.219 N 
ATOM     17  N   UNL     1      42.845 132.126  14.235  1.00  0.00    -0.062 NA
ATOM     18  N   UNL     1      41.580 132.516  14.324  1.00  0.00    -0.135 NA
ATOM     19  C   UNL     1      41.512 133.396  15.342  1.00  0.00     0.088 A 
ATOM     20  C   UNL     1      40.248 134.013  15.846  1.00  0.00     0.071 C 
BRANCH  16  21
ATOM     21  C   UNL     1      44.997 132.574  15.319  1.00  0.00     0.126 C 
BRANCH  21  22
ATOM     22  C   UNL     1      45.663 131.435  15.084  1.00  0.00     0.059 C 
ATOM     23  C   UNL     1      46.172 130.467  16.036  1.00  0.00     0.335 C 
ATOM     24  C   UNL     1      46.102 130.995  13.726  1.00  0.00     0.089 C 
ATOM     25  O   UNL     1      46.831 129.449  15.385  1.00  0.00    -0.459 OA
ATOM     26  C   UNL     1      46.817 129.638  13.973  1.00  0.00     0.178 C 
ATOM     27  O   UNL     1      46.115 130.554  17.290  1.00  0.00    -0.247 OA
ATOM     28  C   UNL     1      48.244 129.628  13.431  1.00  0.00     0.053 C 
ENDBRANCH  21  22
ENDBRANCH  16  21
ENDBRANCH   1  15
BRANCH  10  29
ATOM     29  N   UNL     1      44.058 138.714  19.145  1.00  0.00    -0.060 NA
BRANCH  29  30
ATOM     30  N   UNL     1      43.240 139.168  19.945  1.00  0.00     0.005 N 
ATOM     31  N   UNL     1      42.422 139.620  20.746  1.00  0.00    -0.003 NA
ENDBRANCH  29  30
ENDBRANCH  10  29
TORSDOF 5
ENDMDL
MODEL 9
REMARK VINA RESULT:      -7.8      4.166      6.783
REMARK SMILES Cc1nnn(/C=C2/C[C@@H](C)OC2=O)c1-c1c2ccccc2cc2c(N=[N+]=[N-])cccc12
REMARK SMILES IDX 15 1 16 2 17 3 18 4 19 5 20 6 21 7 22 8 23 9 24 10 28 11
REMARK SMILES IDX 29 12 30 13 31 14 14 15 5 16 4 17 3 18 2 19 1 20 6 21 7 22
REMARK SMILES IDX 12 23 8 24 11 25 9 26 13 27 10 28 25 29 26 30 27 31
REMARK H PARENT
ROOT
ATOM      1  C   UNL     1      43.703 133.785  18.179  1.00  0.00     0.018 A 
ATOM      2  C   UNL     1      43.411 134.897  17.350  1.00  0.00    -0.008 A 
ATOM      3  C   UNL     1      42.612 135.973  17.798  1.00  0.00     0.009 A 
ATOM      4  C   UNL     1      42.341 137.058  16.961  1.00  0.00     0.001 A 
ATOM      5  C   UNL     1      42.853 137.089  15.665  1.00  0.00     0.001 A 
ATOM      6  C   UNL     1      43.634 136.033  15.197  1.00  0.00     0.009 A 
ATOM      7  C   UNL     1      43.914 134.934  16.026  1.00  0.00    -0.017 A 
ATOM      8  C   UNL     1      44.683 133.874  15.536  1.00  0.00     0.018 A 
ATOM      9  C   UNL     1      44.971 132.757  16.338  1.00  0.00    -0.008 A 
ATOM     10  C   UNL     1      45.744 131.685  15.828  1.00  0.00     0.045 A 
ATOM     11  C   UNL     1      46.024 130.582  16.652  1.00  0.00     0.011 A 
ATOM     12  C   UNL     1      45.553 130.538  17.960  1.00  0.00     0.001 A 
ATOM     13  C   UNL     1      44.794 131.587  18.470  1.00  0.00     0.009 A 
ATOM     14  C   UNL     1      44.481 132.709  17.672  1.00  0.00    -0.008 A 
ENDROOT
BRANCH   1  15
ATOM     15  C   UNL     1      43.181 133.735  19.567  1.00  0.00     0.098 A 
ATOM     16  N   UNL     1      41.988 133.239  19.938  1.00  0.00    -0.219 N 
ATOM     17  N   UNL     1      41.898 133.330  21.256  1.00  0.00    -0.062 NA
ATOM     18  N   UNL     1      43.013 133.838  21.764  1.00  0.00    -0.135 NA
ATOM     19  C   UNL     1      43.830 134.106  20.726  1.00  0.00     0.088 A 
ATOM     20  C   UNL     1      45.232 134.606  20.857  1.00  0.00     0.071 C 
BRANCH  16  21
ATOM     21  C   UNL     1      40.933 132.817  19.063  1.00  0.00     0.126 C 
BRANCH  21  22
ATOM     22  C   UNL     1      40.101 133.667  18.446  1.00  0.00     0.059 C 
ATOM     23  C   UNL     1      39.885 133.858  17.026  1.00  0.00     0.335 C 
ATOM     24  C   UNL     1      39.279 134.690  19.161  1.00  0.00     0.089 C 
ATOM     25  O   UNL     1      38.966 134.861  16.806  1.00  0.00    -0.459 OA
ATOM     26  C   UNL     1      38.495 135.412  18.031  1.00  0.00     0.178 C 
ATOM     27  O   UNL     1      40.493 133.271  16.094  1.00  0.00    -0.247 OA
ATOM     28  C   UNL     1      38.720 136.922  18.044  1.00  0.00     0.053 C 
ENDBRANCH  21  22
ENDBRANCH  16  21
ENDBRANCH   1  15
BRANCH  10  29
ATOM     29  N   UNL     1      46.238 131.732  14.478  1.00  0.00    -0.060 NA
BRANCH  29  30
ATOM     30  N   UNL     1      47.148 131.006  14.077  1.00  0.00     0.005 N 
ATOM     31  N   UNL     1      48.058 130.282  13.677  1.00  0.00    -0.003 NA
ENDBRANCH  29  30
ENDBRANCH  10  29
TORSDOF 5
ENDMDL


