MODEL 1
REMARK VINA RESULT:      -5.8      0.000      0.000
REMARK SMILES [N-]=[N+]=Nc1cc(Cl)cc2c(CNO)c(OCCc3cn(C[C@H](N)C(=O)[O-])nn3)ccc12
REMARK SMILES IDX 16 1 15 2 14 3 10 4 9 5 29 6 8 7 31 8 30 9 6 10 4 11 5 12
REMARK SMILES IDX 7 13 11 14 12 15 13 17 3 19 2 20 1 21 17 22 18 23 28 24
REMARK SMILES IDX 19 25 27 26 20 27 21 28 22 29 24 30 25 31 26 32 23 33
REMARK H PARENT 12 16 13 18 23 34 23 35
ROOT
ATOM      1  C   UNL     1      39.581 136.048  15.747  1.00  0.00     0.236 C 
ENDROOT
BRANCH   1   2
ATOM      2  O   UNL     1      39.907 134.679  15.518  1.00  0.00    -0.493 OA
BRANCH   2   3
ATOM      3  C   UNL     1      41.185 134.116  15.668  1.00  0.00     0.124 A 
ATOM      4  C   UNL     1      41.528 133.522  16.903  1.00  0.00     0.018 A 
ATOM      5  C   UNL     1      42.800 132.891  17.051  1.00  0.00    -0.008 A 
ATOM      6  C   UNL     1      42.114 134.134  14.618  1.00  0.00     0.047 A 
ATOM      7  C   UNL     1      43.175 132.220  18.237  1.00  0.00     0.029 A 
ATOM      8  C   UNL     1      43.731 132.927  15.972  1.00  0.00    -0.008 A 
ATOM      9  C   UNL     1      43.369 133.558  14.771  1.00  0.00     0.013 A 
ATOM     10  C   UNL     1      44.430 131.626  18.360  1.00  0.00     0.042 A 
ATOM     11  C   UNL     1      45.005 132.325  16.107  1.00  0.00     0.047 A 
ATOM     12  C   UNL     1      45.340 131.681  17.309  1.00  0.00     0.031 A 
ATOM     13  Cl  UNL     1      44.866 130.801  19.847  1.00  0.00    -0.084 Cl
BRANCH   4  14
ATOM     14  C   UNL     1      40.492 133.558  18.016  1.00  0.00     0.151 C 
BRANCH  14  15
ATOM     15  N   UNL     1      39.269 132.874  17.598  1.00  0.00    -0.201 NA
ATOM     16  H   UNL     1      39.221 132.918  16.554  1.00  0.00     0.155 HD
BRANCH  15  17
ATOM     17  O   UNL     1      38.207 133.579  18.063  1.00  0.00    -0.316 OA
ATOM     18  H   UNL     1      38.606 134.287  18.631  1.00  0.00     0.238 HD
ENDBRANCH  15  17
ENDBRANCH  14  15
ENDBRANCH   4  14
BRANCH  11  19
ATOM     19  N   UNL     1      45.942 132.374  15.016  1.00  0.00    -0.060 NA
BRANCH  19  20
ATOM     20  N   UNL     1      46.479 131.364  14.556  1.00  0.00     0.005 N 
ATOM     21  N   UNL     1      47.013 130.355  14.098  1.00  0.00    -0.003 NA
ENDBRANCH  19  20
ENDBRANCH  11  19
ENDBRANCH   2   3
ENDBRANCH   1   2
BRANCH   1  22
ATOM     22  C   UNL     1      38.074 136.251  15.602  1.00  0.00     0.101 C 
BRANCH  22  23
ATOM     23  C   UNL     1      37.614 135.875  14.228  1.00  0.00     0.086 A 
ATOM     24  N   UNL     1      37.190 134.645  13.874  1.00  0.00    -0.135 NA
ATOM     25  C   UNL     1      37.676 136.659  13.096  1.00  0.00     0.134 A 
ATOM     26  N   UNL     1      36.981 134.678  12.565  1.00  0.00    -0.067 NA
ATOM     27  N   UNL     1      37.262 135.878  12.085  1.00  0.00    -0.250 N 
BRANCH  27  28
ATOM     28  C   UNL     1      37.204 136.238  10.671  1.00  0.00     0.170 C 
BRANCH  28  29
ATOM     29  C   UNL     1      38.306 135.522   9.872  1.00  0.00     0.119 C 
BRANCH  29  30
ATOM     30  C   UNL     1      37.871 135.310   8.448  1.00  0.00     0.060 C 
ATOM     31  O   UNL     1      37.641 134.148   8.022  1.00  0.00    -0.548 OA
ATOM     32  O   UNL     1      37.689 136.399   7.604  1.00  0.00    -0.548 OA
ENDBRANCH  29  30
BRANCH  29  33
ATOM     33  N   UNL     1      39.535 136.315   9.896  1.00  0.00    -0.321 NA
ATOM     34  H   UNL     1      39.525 136.910  10.757  1.00  0.00     0.119 HD
ATOM     35  H   UNL     1      39.515 136.980   9.089  1.00  0.00     0.119 HD
ENDBRANCH  29  33
ENDBRANCH  28  29
ENDBRANCH  27  28
ENDBRANCH  22  23
ENDBRANCH   1  22
TORSDOF 13
ENDMDL
MODEL 2
REMARK VINA RESULT:      -5.4      6.257      9.260
REMARK SMILES [N-]=[N+]=Nc1cc(Cl)cc2c(CNO)c(OCCc3cn(C[C@H](N)C(=O)[O-])nn3)ccc12
REMARK SMILES IDX 16 1 15 2 14 3 10 4 9 5 29 6 8 7 31 8 30 9 6 10 4 11 5 12
REMARK SMILES IDX 7 13 11 14 12 15 13 17 3 19 2 20 1 21 17 22 18 23 28 24
REMARK SMILES IDX 19 25 27 26 20 27 21 28 22 29 24 30 25 31 26 32 23 33
REMARK H PARENT 12 16 13 18 23 34 23 35
ROOT
ATOM      1  C   UNL     1      44.884 132.300  22.124  1.00  0.00     0.236 C 
ENDROOT
BRANCH   1   2
ATOM      2  O   UNL     1      44.740 133.004  20.893  1.00  0.00    -0.493 OA
BRANCH   2   3
ATOM      3  C   UNL     1      44.694 132.408  19.621  1.00  0.00     0.124 A 
ATOM      4  C   UNL     1      43.816 132.940  18.650  1.00  0.00     0.018 A 
ATOM      5  C   UNL     1      43.803 132.384  17.335  1.00  0.00    -0.008 A 
ATOM      6  C   UNL     1      45.501 131.307  19.307  1.00  0.00     0.047 A 
ATOM      7  C   UNL     1      42.998 132.915  16.301  1.00  0.00     0.029 A 
ATOM      8  C   UNL     1      44.628 131.260  17.040  1.00  0.00    -0.008 A 
ATOM      9  C   UNL     1      45.462 130.736  18.041  1.00  0.00     0.013 A 
ATOM     10  C   UNL     1      42.994 132.343  15.030  1.00  0.00     0.042 A 
ATOM     11  C   UNL     1      44.614 130.683  15.748  1.00  0.00     0.047 A 
ATOM     12  C   UNL     1      43.788 131.234  14.754  1.00  0.00     0.031 A 
ATOM     13  Cl  UNL     1      41.982 133.025  13.768  1.00  0.00    -0.084 Cl
BRANCH   4  14
ATOM     14  C   UNL     1      42.942 134.116  19.057  1.00  0.00     0.151 C 
BRANCH  14  15
ATOM     15  N   UNL     1      41.668 133.644  19.596  1.00  0.00    -0.201 NA
ATOM     16  H   UNL     1      41.002 134.450  19.590  1.00  0.00     0.155 HD
BRANCH  15  17
ATOM     17  O   UNL     1      41.855 133.308  20.898  1.00  0.00    -0.316 OA
ATOM     18  H   UNL     1      41.081 133.706  21.372  1.00  0.00     0.238 HD
ENDBRANCH  15  17
ENDBRANCH  14  15
ENDBRANCH   4  14
BRANCH  11  19
ATOM     19  N   UNL     1      45.443 129.543  15.460  1.00  0.00    -0.060 NA
BRANCH  19  20
ATOM     20  N   UNL     1      46.275 129.539  14.551  1.00  0.00     0.005 N 
ATOM     21  N   UNL     1      47.105 129.534  13.643  1.00  0.00    -0.003 NA
ENDBRANCH  19  20
ENDBRANCH  11  19
ENDBRANCH   2   3
ENDBRANCH   1   2
BRANCH   1  22
ATOM     22  C   UNL     1      45.532 133.211  23.166  1.00  0.00     0.101 C 
BRANCH  22  23
ATOM     23  C   UNL     1      46.231 134.361  22.509  1.00  0.00     0.086 A 
ATOM     24  N   UNL     1      47.401 134.265  21.845  1.00  0.00    -0.135 NA
ATOM     25  C   UNL     1      45.879 135.691  22.588  1.00  0.00     0.134 A 
ATOM     26  N   UNL     1      47.749 135.500  21.511  1.00  0.00    -0.067 NA
ATOM     27  N   UNL     1      46.846 136.365  21.944  1.00  0.00    -0.250 N 
BRANCH  27  28
ATOM     28  C   UNL     1      46.955 137.815  21.803  1.00  0.00     0.170 C 
BRANCH  28  29
ATOM     29  C   UNL     1      46.638 138.257  20.364  1.00  0.00     0.119 C 
BRANCH  29  30
ATOM     30  C   UNL     1      47.908 138.525  19.605  1.00  0.00     0.060 C 
ATOM     31  O   UNL     1      49.026 138.351  20.158  1.00  0.00    -0.548 OA
ATOM     32  O   UNL     1      47.855 138.937  18.279  1.00  0.00    -0.548 OA
ENDBRANCH  29  30
BRANCH  29  33
ATOM     33  N   UNL     1      45.868 137.218  19.681  1.00  0.00    -0.321 NA
ATOM     34  H   UNL     1      46.200 136.286  20.020  1.00  0.00     0.119 HD
ATOM     35  H   UNL     1      46.100 137.252  18.661  1.00  0.00     0.119 HD
ENDBRANCH  29  33
ENDBRANCH  28  29
ENDBRANCH  27  28
ENDBRANCH  22  23
ENDBRANCH   1  22
TORSDOF 13
ENDMDL
MODEL 3
REMARK VINA RESULT:      -5.3      3.704      5.996
REMARK SMILES [N-]=[N+]=Nc1cc(Cl)cc2c(CNO)c(OCCc3cn(C[C@H](N)C(=O)[O-])nn3)ccc12
REMARK SMILES IDX 16 1 15 2 14 3 10 4 9 5 29 6 8 7 31 8 30 9 6 10 4 11 5 12
REMARK SMILES IDX 7 13 11 14 12 15 13 17 3 19 2 20 1 21 17 22 18 23 28 24
REMARK SMILES IDX 19 25 27 26 20 27 21 28 22 29 24 30 25 31 26 32 23 33
REMARK H PARENT 12 16 13 18 23 34 23 35
ROOT
ATOM      1  C   UNL     1      44.209 131.828  14.236  1.00  0.00     0.236 C 
ENDROOT
BRANCH   1   2
ATOM      2  O   UNL     1      45.148 132.258  15.219  1.00  0.00    -0.493 OA
BRANCH   2   3
ATOM      3  C   UNL     1      44.824 132.659  16.526  1.00  0.00     0.124 A 
ATOM      4  C   UNL     1      44.951 131.724  17.578  1.00  0.00     0.018 A 
ATOM      5  C   UNL     1      44.684 132.134  18.919  1.00  0.00    -0.008 A 
ATOM      6  C   UNL     1      44.382 133.961  16.797  1.00  0.00     0.047 A 
ATOM      7  C   UNL     1      44.859 131.267  20.021  1.00  0.00     0.029 A 
ATOM      8  C   UNL     1      44.231 133.462  19.170  1.00  0.00    -0.008 A 
ATOM      9  C   UNL     1      44.081 134.353  18.095  1.00  0.00     0.013 A 
ATOM     10  C   UNL     1      44.576 131.689  21.319  1.00  0.00     0.042 A 
ATOM     11  C   UNL     1      43.941 133.881  20.490  1.00  0.00     0.047 A 
ATOM     12  C   UNL     1      44.116 132.981  21.554  1.00  0.00     0.031 A 
ATOM     13  Cl  UNL     1      44.803 130.587  22.666  1.00  0.00    -0.084 Cl
BRANCH   4  14
ATOM     14  C   UNL     1      45.404 130.317  17.221  1.00  0.00     0.151 C 
BRANCH  14  15
ATOM     15  N   UNL     1      46.836 130.302  16.924  1.00  0.00    -0.201 NA
ATOM     16  H   UNL     1      47.176 131.290  16.949  1.00  0.00     0.155 HD
BRANCH  15  17
ATOM     17  O   UNL     1      47.001 129.869  15.649  1.00  0.00    -0.316 OA
ATOM     18  H   UNL     1      46.364 130.410  15.117  1.00  0.00     0.238 HD
ENDBRANCH  15  17
ENDBRANCH  14  15
ENDBRANCH   4  14
BRANCH  11  19
ATOM     19  N   UNL     1      43.475 135.221  20.734  1.00  0.00    -0.060 NA
BRANCH  19  20
ATOM     20  N   UNL     1      42.871 135.538  21.760  1.00  0.00     0.005 N 
ATOM     21  N   UNL     1      42.270 135.854  22.786  1.00  0.00    -0.003 NA
ENDBRANCH  19  20
ENDBRANCH  11  19
ENDBRANCH   2   3
ENDBRANCH   1   2
BRANCH   1  22
ATOM     22  C   UNL     1      42.829 131.676  14.872  1.00  0.00     0.101 C 
BRANCH  22  23
ATOM     23  C   UNL     1      41.955 132.845  14.538  1.00  0.00     0.086 A 
ATOM     24  N   UNL     1      41.832 133.380  13.306  1.00  0.00    -0.135 NA
ATOM     25  C   UNL     1      41.258 133.633  15.429  1.00  0.00     0.134 A 
ATOM     26  N   UNL     1      41.068 134.456  13.435  1.00  0.00    -0.067 NA
ATOM     27  N   UNL     1      40.711 134.618  14.699  1.00  0.00    -0.250 N 
BRANCH  27  28
ATOM     28  C   UNL     1      39.924 135.742  15.198  1.00  0.00     0.170 C 
BRANCH  28  29
ATOM     29  C   UNL     1      40.289 137.044  14.464  1.00  0.00     0.119 C 
BRANCH  29  30
ATOM     30  C   UNL     1      39.526 138.204  15.040  1.00  0.00     0.060 C 
ATOM     31  O   UNL     1      40.116 139.286  15.296  1.00  0.00    -0.548 OA
ATOM     32  O   UNL     1      38.158 138.099  15.264  1.00  0.00    -0.548 OA
ENDBRANCH  29  30
BRANCH  29  33
ATOM     33  N   UNL     1      41.726 137.295  14.579  1.00  0.00    -0.321 NA
ATOM     34  H   UNL     1      41.942 137.513  15.580  1.00  0.00     0.119 HD
ATOM     35  H   UNL     1      41.953 138.164  14.042  1.00  0.00     0.119 HD
ENDBRANCH  29  33
ENDBRANCH  28  29
ENDBRANCH  27  28
ENDBRANCH  22  23
ENDBRANCH   1  22
TORSDOF 13
ENDMDL
MODEL 4
REMARK VINA RESULT:      -5.3      4.241      8.311
REMARK SMILES [N-]=[N+]=Nc1cc(Cl)cc2c(CNO)c(OCCc3cn(C[C@H](N)C(=O)[O-])nn3)ccc12
REMARK SMILES IDX 16 1 15 2 14 3 10 4 9 5 29 6 8 7 31 8 30 9 6 10 4 11 5 12
REMARK SMILES IDX 7 13 11 14 12 15 13 17 3 19 2 20 1 21 17 22 18 23 28 24
REMARK SMILES IDX 19 25 27 26 20 27 21 28 22 29 24 30 25 31 26 32 23 33
REMARK H PARENT 12 16 13 18 23 34 23 35
ROOT
ATOM      1  C   UNL     1      43.884 135.123  15.413  1.00  0.00     0.236 C 
ENDROOT
BRANCH   1   2
ATOM      2  O   UNL     1      42.467 135.188  15.555  1.00  0.00    -0.493 OA
BRANCH   2   3
ATOM      3  C   UNL     1      41.788 135.570  16.725  1.00  0.00     0.124 A 
ATOM      4  C   UNL     1      40.666 134.816  17.139  1.00  0.00     0.018 A 
ATOM      5  C   UNL     1      40.004 135.155  18.357  1.00  0.00    -0.008 A 
ATOM      6  C   UNL     1      42.206 136.675  17.478  1.00  0.00     0.047 A 
ATOM      7  C   UNL     1      38.920 134.399  18.860  1.00  0.00     0.029 A 
ATOM      8  C   UNL     1      40.443 136.287  19.104  1.00  0.00    -0.008 A 
ATOM      9  C   UNL     1      41.538 137.034  18.642  1.00  0.00     0.013 A 
ATOM     10  C   UNL     1      38.282 134.762  20.045  1.00  0.00     0.042 A 
ATOM     11  C   UNL     1      39.785 136.650  20.303  1.00  0.00     0.047 A 
ATOM     12  C   UNL     1      38.704 135.879  20.759  1.00  0.00     0.031 A 
ATOM     13  Cl  UNL     1      36.938 133.803  20.643  1.00  0.00    -0.084 Cl
BRANCH   4  14
ATOM     14  C   UNL     1      40.241 133.646  16.267  1.00  0.00     0.151 C 
BRANCH  14  15
ATOM     15  N   UNL     1      39.686 134.127  15.002  1.00  0.00    -0.201 NA
ATOM     16  H   UNL     1      38.721 134.482  15.193  1.00  0.00     0.155 HD
BRANCH  15  17
ATOM     17  O   UNL     1      39.549 133.066  14.167  1.00  0.00    -0.316 OA
ATOM     18  H   UNL     1      39.985 132.315  14.644  1.00  0.00     0.238 HD
ENDBRANCH  15  17
ENDBRANCH  14  15
ENDBRANCH   4  14
BRANCH  11  19
ATOM     19  N   UNL     1      40.228 137.800  21.047  1.00  0.00    -0.060 NA
BRANCH  19  20
ATOM     20  N   UNL     1      39.447 138.625  21.522  1.00  0.00     0.005 N 
ATOM     21  N   UNL     1      38.666 139.449  21.998  1.00  0.00    -0.003 NA
ENDBRANCH  19  20
ENDBRANCH  11  19
ENDBRANCH   2   3
ENDBRANCH   1   2
BRANCH   1  22
ATOM     22  C   UNL     1      44.495 134.445  16.638  1.00  0.00     0.101 C 
BRANCH  22  23
ATOM     23  C   UNL     1      44.478 132.955  16.488  1.00  0.00     0.086 A 
ATOM     24  N   UNL     1      44.415 132.084  17.515  1.00  0.00    -0.135 NA
ATOM     25  C   UNL     1      44.656 132.244  15.321  1.00  0.00     0.134 A 
ATOM     26  N   UNL     1      44.535 130.872  16.992  1.00  0.00    -0.067 NA
ATOM     27  N   UNL     1      44.675 130.950  15.679  1.00  0.00    -0.250 N 
BRANCH  27  28
ATOM     28  C   UNL     1      44.897 129.803  14.802  1.00  0.00     0.170 C 
BRANCH  28  29
ATOM     29  C   UNL     1      46.390 129.440  14.733  1.00  0.00     0.119 C 
BRANCH  29  30
ATOM     30  C   UNL     1      47.039 130.102  13.550  1.00  0.00     0.060 C 
ATOM     31  O   UNL     1      48.293 130.197  13.485  1.00  0.00    -0.548 OA
ATOM     32  O   UNL     1      46.260 130.587  12.506  1.00  0.00    -0.548 OA
ENDBRANCH  29  30
BRANCH  29  33
ATOM     33  N   UNL     1      47.064 129.860  15.962  1.00  0.00    -0.321 NA
ATOM     34  H   UNL     1      47.656 129.067  16.300  1.00  0.00     0.119 HD
ATOM     35  H   UNL     1      46.339 130.011  16.700  1.00  0.00     0.119 HD
ENDBRANCH  29  33
ENDBRANCH  28  29
ENDBRANCH  27  28
ENDBRANCH  22  23
ENDBRANCH   1  22
TORSDOF 13
ENDMDL
MODEL 5
REMARK VINA RESULT:      -5.3      3.369      5.885
REMARK SMILES [N-]=[N+]=Nc1cc(Cl)cc2c(CNO)c(OCCc3cn(C[C@H](N)C(=O)[O-])nn3)ccc12
REMARK SMILES IDX 16 1 15 2 14 3 10 4 9 5 29 6 8 7 31 8 30 9 6 10 4 11 5 12
REMARK SMILES IDX 7 13 11 14 12 15 13 17 3 19 2 20 1 21 17 22 18 23 28 24
REMARK SMILES IDX 19 25 27 26 20 27 21 28 22 29 24 30 25 31 26 32 23 33
REMARK H PARENT 12 16 13 18 23 34 23 35
ROOT
ATOM      1  C   UNL     1      44.638 131.813  14.193  1.00  0.00     0.236 C 
ENDROOT
BRANCH   1   2
ATOM      2  O   UNL     1      45.488 132.055  15.312  1.00  0.00    -0.493 OA
BRANCH   2   3
ATOM      3  C   UNL     1      45.055 132.473  16.581  1.00  0.00     0.124 A 
ATOM      4  C   UNL     1      45.088 131.551  17.652  1.00  0.00     0.018 A 
ATOM      5  C   UNL     1      44.709 131.979  18.960  1.00  0.00    -0.008 A 
ATOM      6  C   UNL     1      44.597 133.780  16.797  1.00  0.00     0.047 A 
ATOM      7  C   UNL     1      44.786 131.125  20.083  1.00  0.00     0.029 A 
ATOM      8  C   UNL     1      44.241 133.311  19.155  1.00  0.00    -0.008 A 
ATOM      9  C   UNL     1      44.187 134.189  18.060  1.00  0.00     0.013 A 
ATOM     10  C   UNL     1      44.395 131.564  21.347  1.00  0.00     0.042 A 
ATOM     11  C   UNL     1      43.841 133.747  20.440  1.00  0.00     0.047 A 
ATOM     12  C   UNL     1      43.921 132.860  21.526  1.00  0.00     0.031 A 
ATOM     13  Cl  UNL     1      44.502 130.478  22.722  1.00  0.00    -0.084 Cl
BRANCH   4  14
ATOM     14  C   UNL     1      45.565 130.139  17.352  1.00  0.00     0.151 C 
BRANCH  14  15
ATOM     15  N   UNL     1      46.944 130.158  16.866  1.00  0.00    -0.201 NA
ATOM     16  H   UNL     1      47.220 131.158  16.733  1.00  0.00     0.155 HD
BRANCH  15  17
ATOM     17  O   UNL     1      46.970 129.583  15.638  1.00  0.00    -0.316 OA
ATOM     18  H   UNL     1      47.931 129.558  15.394  1.00  0.00     0.238 HD
ENDBRANCH  15  17
ENDBRANCH  14  15
ENDBRANCH   4  14
BRANCH  11  19
ATOM     19  N   UNL     1      43.361 135.091  20.627  1.00  0.00    -0.060 NA
BRANCH  19  20
ATOM     20  N   UNL     1      42.681 135.424  21.599  1.00  0.00     0.005 N 
ATOM     21  N   UNL     1      42.001 135.758  22.569  1.00  0.00    -0.003 NA
ENDBRANCH  19  20
ENDBRANCH  11  19
ENDBRANCH   2   3
ENDBRANCH   1   2
BRANCH   1  22
ATOM     22  C   UNL     1      43.314 131.218  14.670  1.00  0.00     0.101 C 
BRANCH  22  23
ATOM     23  C   UNL     1      42.280 132.288  14.844  1.00  0.00     0.086 A 
ATOM     24  N   UNL     1      41.655 132.563  16.006  1.00  0.00    -0.135 NA
ATOM     25  C   UNL     1      41.713 133.053  13.849  1.00  0.00     0.134 A 
ATOM     26  N   UNL     1      40.740 133.484  15.735  1.00  0.00    -0.067 NA
ATOM     27  N   UNL     1      40.765 133.792  14.448  1.00  0.00    -0.250 N 
BRANCH  27  28
ATOM     28  C   UNL     1      39.844 134.723  13.802  1.00  0.00     0.170 C 
BRANCH  28  29
ATOM     29  C   UNL     1      38.388 134.245  13.937  1.00  0.00     0.119 C 
BRANCH  29  30
ATOM     30  C   UNL     1      37.550 135.295  14.612  1.00  0.00     0.060 C 
ATOM     31  O   UNL     1      36.503 134.968  15.231  1.00  0.00    -0.548 OA
ATOM     32  O   UNL     1      37.942 136.627  14.581  1.00  0.00    -0.548 OA
ENDBRANCH  29  30
BRANCH  29  33
ATOM     33  N   UNL     1      37.835 133.949  12.615  1.00  0.00    -0.321 NA
ATOM     34  H   UNL     1      37.991 134.782  12.001  1.00  0.00     0.119 HD
ATOM     35  H   UNL     1      36.798 133.850  12.706  1.00  0.00     0.119 HD
ENDBRANCH  29  33
ENDBRANCH  28  29
ENDBRANCH  27  28
ENDBRANCH  22  23
ENDBRANCH   1  22
TORSDOF 13
ENDMDL
MODEL 6
REMARK VINA RESULT:      -5.1      2.569      3.238
REMARK SMILES [N-]=[N+]=Nc1cc(Cl)cc2c(CNO)c(OCCc3cn(C[C@H](N)C(=O)[O-])nn3)ccc12
REMARK SMILES IDX 16 1 15 2 14 3 10 4 9 5 29 6 8 7 31 8 30 9 6 10 4 11 5 12
REMARK SMILES IDX 7 13 11 14 12 15 13 17 3 19 2 20 1 21 17 22 18 23 28 24
REMARK SMILES IDX 19 25 27 26 20 27 21 28 22 29 24 30 25 31 26 32 23 33
REMARK H PARENT 12 16 13 18 23 34 23 35
ROOT
ATOM      1  C   UNL     1      42.821 137.198  16.404  1.00  0.00     0.236 C 
ENDROOT
BRANCH   1   2
ATOM      2  O   UNL     1      42.329 135.863  16.491  1.00  0.00    -0.493 OA
BRANCH   2   3
ATOM      3  C   UNL     1      43.117 134.723  16.723  1.00  0.00     0.124 A 
ATOM      4  C   UNL     1      43.310 134.287  18.054  1.00  0.00     0.018 A 
ATOM      5  C   UNL     1      44.058 133.097  18.302  1.00  0.00    -0.008 A 
ATOM      6  C   UNL     1      43.707 134.020  15.665  1.00  0.00     0.047 A 
ATOM      7  C   UNL     1      44.228 132.572  19.604  1.00  0.00     0.029 A 
ATOM      8  C   UNL     1      44.653 132.402  17.210  1.00  0.00    -0.008 A 
ATOM      9  C   UNL     1      44.471 132.885  15.904  1.00  0.00     0.013 A 
ATOM     10  C   UNL     1      44.976 131.416  19.819  1.00  0.00     0.042 A 
ATOM     11  C   UNL     1      45.416 131.231  17.438  1.00  0.00     0.047 A 
ATOM     12  C   UNL     1      45.570 130.753  18.750  1.00  0.00     0.031 A 
ATOM     13  Cl  UNL     1      45.169 130.790  21.448  1.00  0.00    -0.084 Cl
BRANCH   4  14
ATOM     14  C   UNL     1      42.672 135.107  19.164  1.00  0.00     0.151 C 
BRANCH  14  15
ATOM     15  N   UNL     1      41.214 135.031  19.082  1.00  0.00    -0.201 NA
ATOM     16  H   UNL     1      40.821 135.735  19.749  1.00  0.00     0.155 HD
BRANCH  15  17
ATOM     17  O   UNL     1      40.825 133.813  19.534  1.00  0.00    -0.316 OA
ATOM     18  H   UNL     1      41.669 133.304  19.641  1.00  0.00     0.238 HD
ENDBRANCH  15  17
ENDBRANCH  14  15
ENDBRANCH   4  14
BRANCH  11  19
ATOM     19  N   UNL     1      46.021 130.540  16.331  1.00  0.00    -0.060 NA
BRANCH  19  20
ATOM     20  N   UNL     1      45.551 129.505  15.857  1.00  0.00     0.005 N 
ATOM     21  N   UNL     1      45.078 128.472  15.384  1.00  0.00    -0.003 NA
ENDBRANCH  19  20
ENDBRANCH  11  19
ENDBRANCH   2   3
ENDBRANCH   1   2
BRANCH   1  22
ATOM     22  C   UNL     1      42.370 137.829  15.088  1.00  0.00     0.101 C 
BRANCH  22  23
ATOM     23  C   UNL     1      40.877 137.918  15.022  1.00  0.00     0.086 A 
ATOM     24  N   UNL     1      40.077 138.146  16.083  1.00  0.00    -0.135 NA
ATOM     25  C   UNL     1      40.085 137.653  13.926  1.00  0.00     0.134 A 
ATOM     26  N   UNL     1      38.829 138.040  15.648  1.00  0.00    -0.067 NA
ATOM     27  N   UNL     1      38.817 137.751  14.357  1.00  0.00    -0.250 N 
BRANCH  27  28
ATOM     28  C   UNL     1      37.607 137.500  13.578  1.00  0.00     0.170 C 
BRANCH  28  29
ATOM     29  C   UNL     1      37.189 136.022  13.663  1.00  0.00     0.119 C 
BRANCH  29  30
ATOM     30  C   UNL     1      37.627 135.280  12.430  1.00  0.00     0.060 C 
ATOM     31  O   UNL     1      38.267 135.877  11.525  1.00  0.00    -0.548 OA
ATOM     32  O   UNL     1      37.354 133.924  12.297  1.00  0.00    -0.548 OA
ENDBRANCH  29  30
BRANCH  29  33
ATOM     33  N   UNL     1      37.785 135.402  14.846  1.00  0.00    -0.321 NA
ATOM     34  H   UNL     1      38.605 135.981  15.142  1.00  0.00     0.119 HD
ATOM     35  H   UNL     1      38.175 134.472  14.570  1.00  0.00     0.119 HD
ENDBRANCH  29  33
ENDBRANCH  28  29
ENDBRANCH  27  28
ENDBRANCH  22  23
ENDBRANCH   1  22
TORSDOF 13
ENDMDL
MODEL 7
REMARK VINA RESULT:      -5.1      4.508      9.317
REMARK SMILES [N-]=[N+]=Nc1cc(Cl)cc2c(CNO)c(OCCc3cn(C[C@H](N)C(=O)[O-])nn3)ccc12
REMARK SMILES IDX 16 1 15 2 14 3 10 4 9 5 29 6 8 7 31 8 30 9 6 10 4 11 5 12
REMARK SMILES IDX 7 13 11 14 12 15 13 17 3 19 2 20 1 21 17 22 18 23 28 24
REMARK SMILES IDX 19 25 27 26 20 27 21 28 22 29 24 30 25 31 26 32 23 33
REMARK H PARENT 12 16 13 18 23 34 23 35
ROOT
ATOM      1  C   UNL     1      44.333 131.403  15.504  1.00  0.00     0.236 C 
ENDROOT
BRANCH   1   2
ATOM      2  O   UNL     1      44.371 132.814  15.306  1.00  0.00    -0.493 OA
BRANCH   2   3
ATOM      3  C   UNL     1      43.263 133.616  14.987  1.00  0.00     0.124 A 
ATOM      4  C   UNL     1      43.210 134.937  15.487  1.00  0.00     0.018 A 
ATOM      5  C   UNL     1      42.121 135.784  15.121  1.00  0.00    -0.008 A 
ATOM      6  C   UNL     1      42.221 133.129  14.186  1.00  0.00     0.047 A 
ATOM      7  C   UNL     1      42.046 137.134  15.532  1.00  0.00     0.029 A 
ATOM      8  C   UNL     1      41.070 135.265  14.310  1.00  0.00    -0.008 A 
ATOM      9  C   UNL     1      41.138 133.937  13.861  1.00  0.00     0.013 A 
ATOM     10  C   UNL     1      40.963 137.935  15.173  1.00  0.00     0.042 A 
ATOM     11  C   UNL     1      39.971 136.084  13.954  1.00  0.00     0.047 A 
ATOM     12  C   UNL     1      39.931 137.416  14.396  1.00  0.00     0.031 A 
ATOM     13  Cl  UNL     1      40.899 139.608  15.699  1.00  0.00    -0.084 Cl
BRANCH   4  14
ATOM     14  C   UNL     1      44.353 135.401  16.375  1.00  0.00     0.151 C 
BRANCH  14  15
ATOM     15  N   UNL     1      44.033 135.170  17.783  1.00  0.00    -0.201 NA
ATOM     16  H   UNL     1      42.991 135.181  17.878  1.00  0.00     0.155 HD
BRANCH  15  17
ATOM     17  O   UNL     1      44.498 136.221  18.504  1.00  0.00    -0.316 OA
ATOM     18  H   UNL     1      45.314 136.512  18.023  1.00  0.00     0.238 HD
ENDBRANCH  15  17
ENDBRANCH  14  15
ENDBRANCH   4  14
BRANCH  11  19
ATOM     19  N   UNL     1      38.909 135.550  13.142  1.00  0.00    -0.060 NA
BRANCH  19  20
ATOM     20  N   UNL     1      38.802 135.800  11.941  1.00  0.00     0.005 N 
ATOM     21  N   UNL     1      38.696 136.050  10.741  1.00  0.00    -0.003 NA
ENDBRANCH  19  20
ENDBRANCH  11  19
ENDBRANCH   2   3
ENDBRANCH   1   2
BRANCH   1  22
ATOM     22  C   UNL     1      45.439 130.987  16.472  1.00  0.00     0.101 C 
BRANCH  22  23
ATOM     23  C   UNL     1      45.035 131.250  17.889  1.00  0.00     0.086 A 
ATOM     24  N   UNL     1      45.721 130.827  18.970  1.00  0.00    -0.135 NA
ATOM     25  C   UNL     1      43.860 131.830  18.315  1.00  0.00     0.134 A 
ATOM     26  N   UNL     1      44.995 131.153  20.031  1.00  0.00    -0.067 NA
ATOM     27  N   UNL     1      43.880 131.759  19.656  1.00  0.00    -0.250 N 
BRANCH  27  28
ATOM     28  C   UNL     1      42.825 132.190  20.570  1.00  0.00     0.170 C 
BRANCH  28  29
ATOM     29  C   UNL     1      43.253 133.439  21.360  1.00  0.00     0.119 C 
BRANCH  29  30
ATOM     30  C   UNL     1      43.650 133.065  22.761  1.00  0.00     0.060 C 
ATOM     31  O   UNL     1      44.806 133.330  23.184  1.00  0.00    -0.548 OA
ATOM     32  O   UNL     1      42.734 132.452  23.607  1.00  0.00    -0.548 OA
ENDBRANCH  29  30
BRANCH  29  33
ATOM     33  N   UNL     1      44.377 134.093  20.689  1.00  0.00    -0.321 NA
ATOM     34  H   UNL     1      44.241 134.001  19.656  1.00  0.00     0.119 HD
ATOM     35  H   UNL     1      45.249 133.560  20.912  1.00  0.00     0.119 HD
ENDBRANCH  29  33
ENDBRANCH  28  29
ENDBRANCH  27  28
ENDBRANCH  22  23
ENDBRANCH   1  22
TORSDOF 13
ENDMDL
MODEL 8
REMARK VINA RESULT:      -5.1      5.962     10.118
REMARK SMILES [N-]=[N+]=Nc1cc(Cl)cc2c(CNO)c(OCCc3cn(C[C@H](N)C(=O)[O-])nn3)ccc12
REMARK SMILES IDX 16 1 15 2 14 3 10 4 9 5 29 6 8 7 31 8 30 9 6 10 4 11 5 12
REMARK SMILES IDX 7 13 11 14 12 15 13 17 3 19 2 20 1 21 17 22 18 23 28 24
REMARK SMILES IDX 19 25 27 26 20 27 21 28 22 29 24 30 25 31 26 32 23 33
REMARK H PARENT 12 16 13 18 23 34 23 35
ROOT
ATOM      1  C   UNL     1      43.221 131.217  22.088  1.00  0.00     0.236 C 
ENDROOT
BRANCH   1   2
ATOM      2  O   UNL     1      43.792 132.090  21.117  1.00  0.00    -0.493 OA
BRANCH   2   3
ATOM      3  C   UNL     1      44.268 131.696  19.855  1.00  0.00     0.124 A 
ATOM      4  C   UNL     1      43.460 131.927  18.718  1.00  0.00     0.018 A 
ATOM      5  C   UNL     1      43.955 131.588  17.423  1.00  0.00    -0.008 A 
ATOM      6  C   UNL     1      45.521 131.085  19.710  1.00  0.00     0.047 A 
ATOM      7  C   UNL     1      43.225 131.857  16.244  1.00  0.00     0.029 A 
ATOM      8  C   UNL     1      45.230 130.962  17.301  1.00  0.00    -0.008 A 
ATOM      9  C   UNL     1      45.990 130.715  18.456  1.00  0.00     0.013 A 
ATOM     10  C   UNL     1      43.726 131.501  14.993  1.00  0.00     0.042 A 
ATOM     11  C   UNL     1      45.729 130.600  16.027  1.00  0.00     0.047 A 
ATOM     12  C   UNL     1      44.963 130.873  14.882  1.00  0.00     0.031 A 
ATOM     13  Cl  UNL     1      42.794 131.848  13.546  1.00  0.00    -0.084 Cl
BRANCH   4  14
ATOM     14  C   UNL     1      42.098 132.565  18.939  1.00  0.00     0.151 C 
BRANCH  14  15
ATOM     15  N   UNL     1      42.220 134.021  19.004  1.00  0.00    -0.201 NA
ATOM     16  H   UNL     1      41.998 134.315  19.983  1.00  0.00     0.155 HD
BRANCH  15  17
ATOM     17  O   UNL     1      41.261 134.564  18.212  1.00  0.00    -0.316 OA
ATOM     18  H   UNL     1      41.030 133.845  17.570  1.00  0.00     0.238 HD
ENDBRANCH  15  17
ENDBRANCH  14  15
ENDBRANCH   4  14
BRANCH  11  19
ATOM     19  N   UNL     1      47.013 129.960  15.913  1.00  0.00    -0.060 NA
BRANCH  19  20
ATOM     20  N   UNL     1      47.486 129.610  14.831  1.00  0.00     0.005 N 
ATOM     21  N   UNL     1      47.958 129.259  13.750  1.00  0.00    -0.003 NA
ENDBRANCH  19  20
ENDBRANCH  11  19
ENDBRANCH   2   3
ENDBRANCH   1   2
BRANCH   1  22
ATOM     22  C   UNL     1      42.942 131.990  23.376  1.00  0.00     0.101 C 
BRANCH  22  23
ATOM     23  C   UNL     1      44.056 132.944  23.677  1.00  0.00     0.086 A 
ATOM     24  N   UNL     1      45.253 132.586  24.184  1.00  0.00    -0.135 NA
ATOM     25  C   UNL     1      43.999 134.320  23.620  1.00  0.00     0.134 A 
ATOM     26  N   UNL     1      45.919 133.710  24.415  1.00  0.00    -0.067 NA
ATOM     27  N   UNL     1      45.183 134.757  24.078  1.00  0.00    -0.250 N 
BRANCH  27  28
ATOM     28  C   UNL     1      45.589 136.147  24.265  1.00  0.00     0.170 C 
BRANCH  28  29
ATOM     29  C   UNL     1      46.517 136.611  23.130  1.00  0.00     0.119 C 
BRANCH  29  30
ATOM     30  C   UNL     1      47.873 136.968  23.671  1.00  0.00     0.060 C 
ATOM     31  O   UNL     1      47.981 137.784  24.624  1.00  0.00    -0.548 OA
ATOM     32  O   UNL     1      49.014 136.376  23.143  1.00  0.00    -0.548 OA
ENDBRANCH  29  30
BRANCH  29  33
ATOM     33  N   UNL     1      46.650 135.552  22.129  1.00  0.00    -0.321 NA
ATOM     34  H   UNL     1      47.614 135.603  21.724  1.00  0.00     0.119 HD
ATOM     35  H   UNL     1      45.996 135.760  21.340  1.00  0.00     0.119 HD
ENDBRANCH  29  33
ENDBRANCH  28  29
ENDBRANCH  27  28
ENDBRANCH  22  23
ENDBRANCH   1  22
TORSDOF 13
ENDMDL
MODEL 9
REMARK VINA RESULT:      -4.9      4.030      6.321
REMARK SMILES [N-]=[N+]=Nc1cc(Cl)cc2c(CNO)c(OCCc3cn(C[C@H](N)C(=O)[O-])nn3)ccc12
REMARK SMILES IDX 16 1 15 2 14 3 10 4 9 5 29 6 8 7 31 8 30 9 6 10 4 11 5 12
REMARK SMILES IDX 7 13 11 14 12 15 13 17 3 19 2 20 1 21 17 22 18 23 28 24
REMARK SMILES IDX 19 25 27 26 20 27 21 28 22 29 24 30 25 31 26 32 23 33
REMARK H PARENT 12 16 13 18 23 34 23 35
ROOT
ATOM      1  C   UNL     1      44.253 131.400  15.896  1.00  0.00     0.236 C 
ENDROOT
BRANCH   1   2
ATOM      2  O   UNL     1      44.789 132.354  16.810  1.00  0.00    -0.493 OA
BRANCH   2   3
ATOM      3  C   UNL     1      44.797 132.219  18.208  1.00  0.00     0.124 A 
ATOM      4  C   UNL     1      44.307 133.283  18.999  1.00  0.00     0.018 A 
ATOM      5  C   UNL     1      44.252 133.137  20.418  1.00  0.00    -0.008 A 
ATOM      6  C   UNL     1      45.278 131.055  18.823  1.00  0.00     0.047 A 
ATOM      7  C   UNL     1      43.709 134.136  21.257  1.00  0.00     0.029 A 
ATOM      8  C   UNL     1      44.752 131.946  21.021  1.00  0.00    -0.008 A 
ATOM      9  C   UNL     1      45.265 130.924  20.205  1.00  0.00     0.013 A 
ATOM     10  C   UNL     1      43.682 133.973  22.641  1.00  0.00     0.042 A 
ATOM     11  C   UNL     1      44.724 131.791  22.427  1.00  0.00     0.047 A 
ATOM     12  C   UNL     1      44.189 132.816  23.224  1.00  0.00     0.031 A 
ATOM     13  Cl  UNL     1      43.001 135.234  23.657  1.00  0.00    -0.084 Cl
BRANCH   4  14
ATOM     14  C   UNL     1      43.826 134.533  18.280  1.00  0.00     0.151 C 
BRANCH  14  15
ATOM     15  N   UNL     1      42.440 134.829  18.638  1.00  0.00    -0.201 NA
ATOM     16  H   UNL     1      42.433 135.166  19.628  1.00  0.00     0.155 HD
BRANCH  15  17
ATOM     17  O   UNL     1      41.739 133.667  18.622  1.00  0.00    -0.316 OA
ATOM     18  H   UNL     1      41.976 133.220  19.474  1.00  0.00     0.238 HD
ENDBRANCH  15  17
ENDBRANCH  14  15
ENDBRANCH   4  14
BRANCH  11  19
ATOM     19  N   UNL     1      45.240 130.590  23.029  1.00  0.00    -0.060 NA
BRANCH  19  20
ATOM     20  N   UNL     1      44.557 129.865  23.754  1.00  0.00     0.005 N 
ATOM     21  N   UNL     1      43.875 129.140  24.477  1.00  0.00    -0.003 NA
ENDBRANCH  19  20
ENDBRANCH  11  19
ENDBRANCH   2   3
ENDBRANCH   1   2
BRANCH   1  22
ATOM     22  C   UNL     1      43.645 132.121  14.695  1.00  0.00     0.101 C 
BRANCH  22  23
ATOM     23  C   UNL     1      42.435 132.906  15.099  1.00  0.00     0.086 A 
ATOM     24  N   UNL     1      41.600 132.561  16.100  1.00  0.00    -0.135 NA
ATOM     25  C   UNL     1      41.912 134.003  14.450  1.00  0.00     0.134 A 
ATOM     26  N   UNL     1      40.600 133.431  16.076  1.00  0.00    -0.067 NA
ATOM     27  N   UNL     1      40.774 134.305  15.097  1.00  0.00    -0.250 N 
BRANCH  27  28
ATOM     28  C   UNL     1      39.825 135.359  14.750  1.00  0.00     0.170 C 
BRANCH  28  29
ATOM     29  C   UNL     1      39.304 136.071  16.010  1.00  0.00     0.119 C 
BRANCH  29  30
ATOM     30  C   UNL     1      38.136 135.324  16.592  1.00  0.00     0.060 C 
ATOM     31  O   UNL     1      37.172 134.983  15.858  1.00  0.00    -0.548 OA
ATOM     32  O   UNL     1      38.128 134.980  17.939  1.00  0.00    -0.548 OA
ENDBRANCH  29  30
BRANCH  29  33
ATOM     33  N   UNL     1      40.371 136.168  17.006  1.00  0.00    -0.321 NA
ATOM     34  H   UNL     1      39.935 136.368  17.936  1.00  0.00     0.119 HD
ATOM     35  H   UNL     1      40.959 137.003  16.780  1.00  0.00     0.119 HD
ENDBRANCH  29  33
ENDBRANCH  28  29
ENDBRANCH  27  28
ENDBRANCH  22  23
ENDBRANCH   1  22
TORSDOF 13
ENDMDL


