MODEL 1
REMARK VINA RESULT:      -6.1      0.000      0.000
REMARK SMILES CCN(CC/N=C(/OC(=O)[C@H]1C[C@@H]1CO)C1(C#N)CC1)c1cc(N=[N+]=[N-])c2c3c(cccc13)C(=O)[N-]2
REMARK SMILES IDX 6 1 7 2 8 3 9 4 10 5 11 6 13 7 12 8 14 9 15 10 16 12 19 13
REMARK SMILES IDX 20 14 17 15 18 16 5 17 4 18 3 19 21 20 22 21 33 22 23 23
REMARK SMILES IDX 32 24 28 25 27 26 31 27 29 28 36 29 30 30 34 31 35 32 24 33
REMARK SMILES IDX 25 34 26 35 2 36 1 37
REMARK H PARENT 15 11
ROOT
ATOM      1  N   UNL     1      43.164 131.932  17.222  1.00  0.00    -0.252 NA
ENDROOT
BRANCH   1   2
ATOM      2  C   UNL     1      43.147 132.384  16.000  1.00  0.00     0.214 C 
BRANCH   2   3
ATOM      3  O   UNL     1      43.884 131.742  14.992  1.00  0.00    -0.410 OA
BRANCH   3   4
ATOM      4  C   UNL     1      45.278 131.781  14.842  1.00  0.00     0.315 C 
ATOM      5  O   UNL     1      45.955 132.773  15.226  1.00  0.00    -0.251 OA
BRANCH   4   6
ATOM      6  C   UNL     1      45.974 130.598  14.250  1.00  0.00     0.105 C 
ATOM      7  C   UNL     1      47.318 130.907  13.602  1.00  0.00     0.030 C 
ATOM      8  C   UNL     1      46.095 130.652  12.732  1.00  0.00     0.022 C 
BRANCH   7   9
ATOM      9  C   UNL     1      48.339 129.765  13.631  1.00  0.00     0.160 C 
BRANCH   9  10
ATOM     10  O   UNL     1      47.733 128.594  14.104  1.00  0.00    -0.396 OA
ATOM     11  H   UNL     1      48.054 128.465  15.036  1.00  0.00     0.210 HD
ENDBRANCH   9  10
ENDBRANCH   7   9
ENDBRANCH   4   6
ENDBRANCH   3   4
ENDBRANCH   2   3
BRANCH   2  12
ATOM     12  C   UNL     1      42.314 133.577  15.611  1.00  0.00     0.133 C 
ATOM     13  C   UNL     1      42.217 133.848  14.113  1.00  0.00     0.034 C 
ATOM     14  C   UNL     1      43.032 134.775  15.004  1.00  0.00     0.034 C 
BRANCH  12  15
ATOM     15  C   UNL     1      41.082 133.852  16.362  1.00  0.00     0.079 C 
ATOM     16  N   UNL     1      40.111 134.069  16.956  1.00  0.00    -0.197 NA
ENDBRANCH  12  15
ENDBRANCH   2  12
ENDBRANCH   1   2
BRANCH   1  17
ATOM     17  C   UNL     1      44.181 131.048  17.791  1.00  0.00     0.167 C 
BRANCH  17  18
ATOM     18  C   UNL     1      45.215 131.882  18.544  1.00  0.00     0.140 C 
BRANCH  18  19
ATOM     19  N   UNL     1      44.606 132.523  19.717  1.00  0.00    -0.369 N 
BRANCH  19  20
ATOM     20  C   UNL     1      44.655 133.951  19.849  1.00  0.00     0.045 A 
ATOM     21  C   UNL     1      43.845 134.766  19.011  1.00  0.00     0.035 A 
ATOM     22  C   UNL     1      45.501 134.563  20.801  1.00  0.00     0.005 A 
ATOM     23  C   UNL     1      43.867 136.184  19.120  1.00  0.00     0.026 A 
ATOM     24  C   UNL     1      46.377 133.893  21.684  1.00  0.00     0.011 A 
ATOM     25  C   UNL     1      45.483 135.946  20.864  1.00  0.00    -0.021 A 
ATOM     26  C   UNL     1      44.714 136.748  20.074  1.00  0.00    -0.116 A 
ATOM     27  C   UNL     1      47.183 134.643  22.581  1.00  0.00     0.001 A 
ATOM     28  C   UNL     1      46.243 136.678  21.717  1.00  0.00     0.006 A 
ATOM     29  N   UNL     1      44.924 138.134  20.370  1.00  0.00    -0.622 NA
ATOM     30  C   UNL     1      47.121 136.056  22.604  1.00  0.00     0.011 A 
ATOM     31  C   UNL     1      45.903 138.066  21.420  1.00  0.00     0.086 C 
ATOM     32  O   UNL     1      46.387 139.077  21.991  1.00  0.00    -0.315 OA
BRANCH  23  33
ATOM     33  N   UNL     1      43.061 137.028  18.292  1.00  0.00    -0.062 NA
BRANCH  33  34
ATOM     34  N   UNL     1      42.033 137.561  18.713  1.00  0.00     0.005 N 
ATOM     35  N   UNL     1      41.008 138.097  19.132  1.00  0.00    -0.003 NA
ENDBRANCH  33  34
ENDBRANCH  23  33
ENDBRANCH  19  20
BRANCH  19  36
ATOM     36  C   UNL     1      43.751 131.750  20.625  1.00  0.00     0.113 C 
ATOM     37  C   UNL     1      42.357 132.362  20.697  1.00  0.00     0.027 C 
ENDBRANCH  19  36
ENDBRANCH  18  19
ENDBRANCH  17  18
ENDBRANCH   1  17
TORSDOF 15
ENDMDL
MODEL 2
REMARK VINA RESULT:      -6.1      2.884      5.595
REMARK SMILES CCN(CC/N=C(/OC(=O)[C@H]1C[C@@H]1CO)C1(C#N)CC1)c1cc(N=[N+]=[N-])c2c3c(cccc13)C(=O)[N-]2
REMARK SMILES IDX 6 1 7 2 8 3 9 4 10 5 11 6 13 7 12 8 14 9 15 10 16 12 19 13
REMARK SMILES IDX 20 14 17 15 18 16 5 17 4 18 3 19 21 20 22 21 33 22 23 23
REMARK SMILES IDX 32 24 28 25 27 26 31 27 29 28 36 29 30 30 34 31 35 32 24 33
REMARK SMILES IDX 25 34 26 35 2 36 1 37
REMARK H PARENT 15 11
ROOT
ATOM      1  N   UNL     1      41.083 132.959  14.467  1.00  0.00    -0.252 NA
ENDROOT
BRANCH   1   2
ATOM      2  C   UNL     1      40.464 133.915  15.101  1.00  0.00     0.214 C 
BRANCH   2   3
ATOM      3  O   UNL     1      40.882 134.307  16.384  1.00  0.00    -0.410 OA
BRANCH   3   4
ATOM      4  C   UNL     1      40.550 133.669  17.587  1.00  0.00     0.315 C 
ATOM      5  O   UNL     1      40.475 132.413  17.668  1.00  0.00    -0.251 OA
BRANCH   4   6
ATOM      6  C   UNL     1      40.321 134.501  18.807  1.00  0.00     0.105 C 
ATOM      7  C   UNL     1      38.911 134.420  19.379  1.00  0.00     0.030 C 
ATOM      8  C   UNL     1      39.343 135.650  18.593  1.00  0.00     0.022 C 
BRANCH   7   9
ATOM      9  C   UNL     1      38.803 134.627  20.893  1.00  0.00     0.160 C 
BRANCH   9  10
ATOM     10  O   UNL     1      38.450 135.954  21.170  1.00  0.00    -0.396 OA
ATOM     11  H   UNL     1      37.530 136.082  20.816  1.00  0.00     0.210 HD
ENDBRANCH   9  10
ENDBRANCH   7   9
ENDBRANCH   4   6
ENDBRANCH   3   4
ENDBRANCH   2   3
BRANCH   2  12
ATOM     12  C   UNL     1      39.314 134.661  14.478  1.00  0.00     0.133 C 
ATOM     13  C   UNL     1      37.935 134.326  15.039  1.00  0.00     0.034 C 
ATOM     14  C   UNL     1      38.322 133.861  13.642  1.00  0.00     0.034 C 
BRANCH  12  15
ATOM     15  C   UNL     1      39.500 136.072  14.118  1.00  0.00     0.079 C 
ATOM     16  N   UNL     1      39.646 137.186  13.835  1.00  0.00    -0.197 NA
ENDBRANCH  12  15
ENDBRANCH   2  12
ENDBRANCH   1   2
BRANCH   1  17
ATOM     17  C   UNL     1      42.526 132.878  14.245  1.00  0.00     0.167 C 
BRANCH  17  18
ATOM     18  C   UNL     1      43.169 132.078  15.376  1.00  0.00     0.140 C 
BRANCH  18  19
ATOM     19  N   UNL     1      44.349 132.781  15.898  1.00  0.00    -0.369 N 
BRANCH  19  20
ATOM     20  C   UNL     1      44.205 133.672  17.014  1.00  0.00     0.045 A 
ATOM     21  C   UNL     1      44.095 135.072  16.791  1.00  0.00     0.035 A 
ATOM     22  C   UNL     1      44.173 133.178  18.338  1.00  0.00     0.005 A 
ATOM     23  C   UNL     1      43.947 135.981  17.875  1.00  0.00     0.026 A 
ATOM     24  C   UNL     1      44.293 131.823  18.721  1.00  0.00     0.011 A 
ATOM     25  C   UNL     1      44.027 134.106  19.355  1.00  0.00    -0.021 A 
ATOM     26  C   UNL     1      43.918 135.452  19.165  1.00  0.00    -0.116 A 
ATOM     27  C   UNL     1      44.258 131.473  20.096  1.00  0.00     0.001 A 
ATOM     28  C   UNL     1      43.988 133.790  20.673  1.00  0.00     0.006 A 
ATOM     29  N   UNL     1      43.789 136.149  20.411  1.00  0.00    -0.622 NA
ATOM     30  C   UNL     1      44.104 132.465  21.093  1.00  0.00     0.011 A 
ATOM     31  C   UNL     1      43.837 135.070  21.359  1.00  0.00     0.086 C 
ATOM     32  O   UNL     1      43.758 135.228  22.604  1.00  0.00    -0.315 OA
BRANCH  23  33
ATOM     33  N   UNL     1      43.832 137.394  17.679  1.00  0.00    -0.062 NA
BRANCH  33  34
ATOM     34  N   UNL     1      42.740 137.963  17.684  1.00  0.00     0.005 N 
ATOM     35  N   UNL     1      41.650 138.535  17.690  1.00  0.00    -0.003 NA
ENDBRANCH  33  34
ENDBRANCH  23  33
ENDBRANCH  19  20
BRANCH  19  36
ATOM     36  C   UNL     1      45.695 132.407  15.450  1.00  0.00     0.113 C 
ATOM     37  C   UNL     1      45.923 130.912  15.637  1.00  0.00     0.027 C 
ENDBRANCH  19  36
ENDBRANCH  18  19
ENDBRANCH  17  18
ENDBRANCH   1  17
TORSDOF 15
ENDMDL
MODEL 3
REMARK VINA RESULT:      -5.9      3.205      6.364
REMARK SMILES CCN(CC/N=C(/OC(=O)[C@H]1C[C@@H]1CO)C1(C#N)CC1)c1cc(N=[N+]=[N-])c2c3c(cccc13)C(=O)[N-]2
REMARK SMILES IDX 6 1 7 2 8 3 9 4 10 5 11 6 13 7 12 8 14 9 15 10 16 12 19 13
REMARK SMILES IDX 20 14 17 15 18 16 5 17 4 18 3 19 21 20 22 21 33 22 23 23
REMARK SMILES IDX 32 24 28 25 27 26 31 27 29 28 36 29 30 30 34 31 35 32 24 33
REMARK SMILES IDX 25 34 26 35 2 36 1 37
REMARK H PARENT 15 11
ROOT
ATOM      1  N   UNL     1      40.216 134.281  18.564  1.00  0.00    -0.252 NA
ENDROOT
BRANCH   1   2
ATOM      2  C   UNL     1      39.362 134.916  17.811  1.00  0.00     0.214 C 
BRANCH   2   3
ATOM      3  O   UNL     1      39.702 135.280  16.498  1.00  0.00    -0.410 OA
BRANCH   3   4
ATOM      4  C   UNL     1      39.941 134.397  15.436  1.00  0.00     0.315 C 
ATOM      5  O   UNL     1      40.646 133.362  15.585  1.00  0.00    -0.251 OA
BRANCH   4   6
ATOM      6  C   UNL     1      39.307 134.671  14.111  1.00  0.00     0.105 C 
ATOM      7  C   UNL     1      38.269 135.787  14.119  1.00  0.00     0.030 C 
ATOM      8  C   UNL     1      37.823 134.332  14.056  1.00  0.00     0.022 C 
BRANCH   7   9
ATOM      9  C   UNL     1      38.127 136.561  12.805  1.00  0.00     0.160 C 
BRANCH   9  10
ATOM     10  O   UNL     1      39.364 136.623  12.150  1.00  0.00    -0.396 OA
ATOM     11  H   UNL     1      39.630 135.685  11.958  1.00  0.00     0.210 HD
ENDBRANCH   9  10
ENDBRANCH   7   9
ENDBRANCH   4   6
ENDBRANCH   3   4
ENDBRANCH   2   3
BRANCH   2  12
ATOM     12  C   UNL     1      37.975 135.246  18.296  1.00  0.00     0.133 C 
ATOM     13  C   UNL     1      37.087 134.046  18.606  1.00  0.00     0.034 C 
ATOM     14  C   UNL     1      36.806 134.905  17.381  1.00  0.00     0.034 C 
BRANCH  12  15
ATOM     15  C   UNL     1      37.798 136.388  19.203  1.00  0.00     0.079 C 
ATOM     16  N   UNL     1      37.660 137.288  19.918  1.00  0.00    -0.197 NA
ENDBRANCH  12  15
ENDBRANCH   2  12
ENDBRANCH   1   2
BRANCH   1  17
ATOM     17  C   UNL     1      40.351 134.430  20.013  1.00  0.00     0.167 C 
BRANCH  17  18
ATOM     18  C   UNL     1      41.713 133.897  20.452  1.00  0.00     0.140 C 
BRANCH  18  19
ATOM     19  N   UNL     1      42.795 134.673  19.831  1.00  0.00    -0.369 N 
BRANCH  19  20
ATOM     20  C   UNL     1      43.401 134.198  18.621  1.00  0.00     0.045 A 
ATOM     21  C   UNL     1      43.255 134.944  17.418  1.00  0.00     0.035 A 
ATOM     22  C   UNL     1      44.143 132.995  18.602  1.00  0.00     0.005 A 
ATOM     23  C   UNL     1      43.848 134.503  16.202  1.00  0.00     0.026 A 
ATOM     24  C   UNL     1      44.356 132.136  19.704  1.00  0.00     0.011 A 
ATOM     25  C   UNL     1      44.698 132.613  17.393  1.00  0.00    -0.021 A 
ATOM     26  C   UNL     1      44.573 133.312  16.229  1.00  0.00    -0.116 A 
ATOM     27  C   UNL     1      45.114 130.947  19.534  1.00  0.00     0.001 A 
ATOM     28  C   UNL     1      45.426 131.484  17.213  1.00  0.00     0.006 A 
ATOM     29  N   UNL     1      45.250 132.657  15.148  1.00  0.00    -0.622 NA
ATOM     30  C   UNL     1      45.659 130.608  18.274  1.00  0.00     0.011 A 
ATOM     31  C   UNL     1      45.786 131.493  15.799  1.00  0.00     0.086 C 
ATOM     32  O   UNL     1      46.468 130.615  15.211  1.00  0.00    -0.315 OA
BRANCH  23  33
ATOM     33  N   UNL     1      43.719 135.235  14.979  1.00  0.00    -0.062 NA
BRANCH  33  34
ATOM     34  N   UNL     1      43.079 136.285  14.914  1.00  0.00     0.005 N 
ATOM     35  N   UNL     1      42.440 137.335  14.846  1.00  0.00    -0.003 NA
ENDBRANCH  33  34
ENDBRANCH  23  33
ENDBRANCH  19  20
BRANCH  19  36
ATOM     36  C   UNL     1      43.098 136.030  20.299  1.00  0.00     0.113 C 
ATOM     37  C   UNL     1      44.142 135.992  21.409  1.00  0.00     0.027 C 
ENDBRANCH  19  36
ENDBRANCH  18  19
ENDBRANCH  17  18
ENDBRANCH   1  17
TORSDOF 15
ENDMDL
MODEL 4
REMARK VINA RESULT:      -5.8      2.702      5.675
REMARK SMILES CCN(CC/N=C(/OC(=O)[C@H]1C[C@@H]1CO)C1(C#N)CC1)c1cc(N=[N+]=[N-])c2c3c(cccc13)C(=O)[N-]2
REMARK SMILES IDX 6 1 7 2 8 3 9 4 10 5 11 6 13 7 12 8 14 9 15 10 16 12 19 13
REMARK SMILES IDX 20 14 17 15 18 16 5 17 4 18 3 19 21 20 22 21 33 22 23 23
REMARK SMILES IDX 32 24 28 25 27 26 31 27 29 28 36 29 30 30 34 31 35 32 24 33
REMARK SMILES IDX 25 34 26 35 2 36 1 37
REMARK H PARENT 15 11
ROOT
ATOM      1  N   UNL     1      40.740 132.644  17.181  1.00  0.00    -0.252 NA
ENDROOT
BRANCH   1   2
ATOM      2  C   UNL     1      40.688 133.921  16.929  1.00  0.00     0.214 C 
BRANCH   2   3
ATOM      3  O   UNL     1      40.971 134.406  15.641  1.00  0.00    -0.410 OA
BRANCH   3   4
ATOM      4  C   UNL     1      40.532 133.841  14.436  1.00  0.00     0.315 C 
ATOM      5  O   UNL     1      41.008 132.756  14.004  1.00  0.00    -0.251 OA
BRANCH   4   6
ATOM      6  C   UNL     1      39.444 134.523  13.671  1.00  0.00     0.105 C 
ATOM      7  C   UNL     1      38.840 135.737  14.366  1.00  0.00     0.030 C 
ATOM      8  C   UNL     1      38.073 134.422  14.328  1.00  0.00     0.022 C 
BRANCH   7   9
ATOM      9  C   UNL     1      38.299 136.826  13.435  1.00  0.00     0.160 C 
BRANCH   9  10
ATOM     10  O   UNL     1      39.357 137.435  12.747  1.00  0.00    -0.396 OA
ATOM     11  H   UNL     1      40.044 137.664  13.428  1.00  0.00     0.210 HD
ENDBRANCH   9  10
ENDBRANCH   7   9
ENDBRANCH   4   6
ENDBRANCH   3   4
ENDBRANCH   2   3
BRANCH   2  12
ATOM     12  C   UNL     1      40.286 134.918  17.984  1.00  0.00     0.133 C 
ATOM     13  C   UNL     1      40.760 134.602  19.398  1.00  0.00     0.034 C 
ATOM     14  C   UNL     1      39.287 134.466  19.040  1.00  0.00     0.034 C 
BRANCH  12  15
ATOM     15  C   UNL     1      40.292 136.347  17.642  1.00  0.00     0.079 C 
ATOM     16  N   UNL     1      40.298 137.473  17.372  1.00  0.00    -0.197 NA
ENDBRANCH  12  15
ENDBRANCH   2  12
ENDBRANCH   1   2
BRANCH   1  17
ATOM     17  C   UNL     1      41.912 131.918  17.669  1.00  0.00     0.167 C 
BRANCH  17  18
ATOM     18  C   UNL     1      42.936 131.790  16.543  1.00  0.00     0.140 C 
BRANCH  18  19
ATOM     19  N   UNL     1      44.270 132.187  17.012  1.00  0.00    -0.369 N 
BRANCH  19  20
ATOM     20  C   UNL     1      44.424 132.733  18.330  1.00  0.00     0.045 A 
ATOM     21  C   UNL     1      44.684 131.866  19.428  1.00  0.00     0.035 A 
ATOM     22  C   UNL     1      44.318 134.124  18.557  1.00  0.00     0.005 A 
ATOM     23  C   UNL     1      44.846 132.376  20.745  1.00  0.00     0.026 A 
ATOM     24  C   UNL     1      44.040 135.105  17.578  1.00  0.00     0.011 A 
ATOM     25  C   UNL     1      44.484 134.566  19.858  1.00  0.00    -0.021 A 
ATOM     26  C   UNL     1      44.736 133.755  20.925  1.00  0.00    -0.116 A 
ATOM     27  C   UNL     1      43.948 136.471  17.956  1.00  0.00     0.001 A 
ATOM     28  C   UNL     1      44.402 135.866  20.236  1.00  0.00     0.006 A 
ATOM     29  N   UNL     1      44.847 134.507  22.141  1.00  0.00    -0.622 NA
ATOM     30  C   UNL     1      44.130 136.865  19.302  1.00  0.00     0.011 A 
ATOM     31  C   UNL     1      44.630 135.850  21.678  1.00  0.00     0.086 C 
ATOM     32  O   UNL     1      44.640 136.859  22.429  1.00  0.00    -0.315 OA
BRANCH  23  33
ATOM     33  N   UNL     1      45.111 131.528  21.868  1.00  0.00    -0.062 NA
BRANCH  33  34
ATOM     34  N   UNL     1      44.285 130.710  22.273  1.00  0.00     0.005 N 
ATOM     35  N   UNL     1      43.460 129.893  22.681  1.00  0.00    -0.003 NA
ENDBRANCH  33  34
ENDBRANCH  23  33
ENDBRANCH  19  20
BRANCH  19  36
ATOM     36  C   UNL     1      45.466 131.817  16.247  1.00  0.00     0.113 C 
ATOM     37  C   UNL     1      45.668 130.306  16.271  1.00  0.00     0.027 C 
ENDBRANCH  19  36
ENDBRANCH  18  19
ENDBRANCH  17  18
ENDBRANCH   1  17
TORSDOF 15
ENDMDL
MODEL 5
REMARK VINA RESULT:      -5.7      2.844      6.214
REMARK SMILES CCN(CC/N=C(/OC(=O)[C@H]1C[C@@H]1CO)C1(C#N)CC1)c1cc(N=[N+]=[N-])c2c3c(cccc13)C(=O)[N-]2
REMARK SMILES IDX 6 1 7 2 8 3 9 4 10 5 11 6 13 7 12 8 14 9 15 10 16 12 19 13
REMARK SMILES IDX 20 14 17 15 18 16 5 17 4 18 3 19 21 20 22 21 33 22 23 23
REMARK SMILES IDX 32 24 28 25 27 26 31 27 29 28 36 29 30 30 34 31 35 32 24 33
REMARK SMILES IDX 25 34 26 35 2 36 1 37
REMARK H PARENT 15 11
ROOT
ATOM      1  N   UNL     1      44.002 132.609  14.666  1.00  0.00    -0.252 NA
ENDROOT
BRANCH   1   2
ATOM      2  C   UNL     1      44.925 131.937  15.294  1.00  0.00     0.214 C 
BRANCH   2   3
ATOM      3  O   UNL     1      45.289 132.280  16.607  1.00  0.00    -0.410 OA
BRANCH   3   4
ATOM      4  C   UNL     1      44.527 132.040  17.759  1.00  0.00     0.315 C 
ATOM      5  O   UNL     1      43.910 130.954  17.927  1.00  0.00    -0.251 OA
BRANCH   4   6
ATOM      6  C   UNL     1      44.485 133.084  18.828  1.00  0.00     0.105 C 
ATOM      7  C   UNL     1      44.957 132.613  20.199  1.00  0.00     0.030 C 
ATOM      8  C   UNL     1      43.470 132.798  19.927  1.00  0.00     0.022 C 
BRANCH   7   9
ATOM      9  C   UNL     1      45.590 133.693  21.082  1.00  0.00     0.160 C 
BRANCH   9  10
ATOM     10  O   UNL     1      46.743 133.190  21.699  1.00  0.00    -0.396 OA
ATOM     11  H   UNL     1      46.512 133.043  22.654  1.00  0.00     0.210 HD
ENDBRANCH   9  10
ENDBRANCH   7   9
ENDBRANCH   4   6
ENDBRANCH   3   4
ENDBRANCH   2   3
BRANCH   2  12
ATOM     12  C   UNL     1      45.606 130.751  14.663  1.00  0.00     0.133 C 
ATOM     13  C   UNL     1      47.066 130.963  14.276  1.00  0.00     0.034 C 
ATOM     14  C   UNL     1      45.999 130.859  13.195  1.00  0.00     0.034 C 
BRANCH  12  15
ATOM     15  C   UNL     1      45.297 129.408  15.171  1.00  0.00     0.079 C 
ATOM     16  N   UNL     1      45.056 128.348  15.572  1.00  0.00    -0.197 NA
ENDBRANCH  12  15
ENDBRANCH   2  12
ENDBRANCH   1   2
BRANCH   1  17
ATOM     17  C   UNL     1      42.935 133.387  15.296  1.00  0.00     0.167 C 
BRANCH  17  18
ATOM     18  C   UNL     1      43.258 134.875  15.184  1.00  0.00     0.140 C 
BRANCH  18  19
ATOM     19  N   UNL     1      42.118 135.685  15.635  1.00  0.00    -0.369 N 
BRANCH  19  20
ATOM     20  C   UNL     1      41.700 135.616  17.006  1.00  0.00     0.045 A 
ATOM     21  C   UNL     1      42.527 136.165  18.025  1.00  0.00     0.035 A 
ATOM     22  C   UNL     1      40.475 135.008  17.363  1.00  0.00     0.005 A 
ATOM     23  C   UNL     1      42.139 136.118  19.393  1.00  0.00     0.026 A 
ATOM     24  C   UNL     1      39.561 134.401  16.472  1.00  0.00     0.011 A 
ATOM     25  C   UNL     1      40.147 134.989  18.707  1.00  0.00    -0.021 A 
ATOM     26  C   UNL     1      40.922 135.511  19.701  1.00  0.00    -0.116 A 
ATOM     27  C   UNL     1      38.371 133.813  16.976  1.00  0.00     0.001 A 
ATOM     28  C   UNL     1      39.014 134.436  19.206  1.00  0.00     0.006 A 
ATOM     29  N   UNL     1      40.318 135.328  20.988  1.00  0.00    -0.622 NA
ATOM     30  C   UNL     1      38.086 133.826  18.362  1.00  0.00     0.011 A 
ATOM     31  C   UNL     1      39.102 134.640  20.648  1.00  0.00     0.086 C 
ATOM     32  O   UNL     1      38.246 134.274  21.494  1.00  0.00    -0.315 OA
BRANCH  23  33
ATOM     33  N   UNL     1      42.950 136.664  20.438  1.00  0.00    -0.062 NA
BRANCH  33  34
ATOM     34  N   UNL     1      43.911 137.397  20.199  1.00  0.00     0.005 N 
ATOM     35  N   UNL     1      44.873 138.127  19.962  1.00  0.00    -0.003 NA
ENDBRANCH  33  34
ENDBRANCH  23  33
ENDBRANCH  19  20
BRANCH  19  36
ATOM     36  C   UNL     1      41.560 136.728  14.768  1.00  0.00     0.113 C 
ATOM     37  C   UNL     1      42.360 138.018  14.902  1.00  0.00     0.027 C 
ENDBRANCH  19  36
ENDBRANCH  18  19
ENDBRANCH  17  18
ENDBRANCH   1  17
TORSDOF 15
ENDMDL
MODEL 6
REMARK VINA RESULT:      -5.6      2.897      5.756
REMARK SMILES CCN(CC/N=C(/OC(=O)[C@H]1C[C@@H]1CO)C1(C#N)CC1)c1cc(N=[N+]=[N-])c2c3c(cccc13)C(=O)[N-]2
REMARK SMILES IDX 6 1 7 2 8 3 9 4 10 5 11 6 13 7 12 8 14 9 15 10 16 12 19 13
REMARK SMILES IDX 20 14 17 15 18 16 5 17 4 18 3 19 21 20 22 21 33 22 23 23
REMARK SMILES IDX 32 24 28 25 27 26 31 27 29 28 36 29 30 30 34 31 35 32 24 33
REMARK SMILES IDX 25 34 26 35 2 36 1 37
REMARK H PARENT 15 11
ROOT
ATOM      1  N   UNL     1      44.457 133.187  15.391  1.00  0.00    -0.252 NA
ENDROOT
BRANCH   1   2
ATOM      2  C   UNL     1      45.135 132.352  16.128  1.00  0.00     0.214 C 
BRANCH   2   3
ATOM      3  O   UNL     1      45.215 132.532  17.518  1.00  0.00    -0.410 OA
BRANCH   3   4
ATOM      4  C   UNL     1      44.399 131.912  18.475  1.00  0.00     0.315 C 
ATOM      5  O   UNL     1      43.183 131.669  18.246  1.00  0.00    -0.251 OA
BRANCH   4   6
ATOM      6  C   UNL     1      45.001 131.496  19.778  1.00  0.00     0.105 C 
ATOM      7  C   UNL     1      44.064 131.599  20.976  1.00  0.00     0.030 C 
ATOM      8  C   UNL     1      45.160 132.638  20.775  1.00  0.00     0.022 C 
BRANCH   7   9
ATOM      9  C   UNL     1      44.326 130.595  22.103  1.00  0.00     0.160 C 
BRANCH   9  10
ATOM     10  O   UNL     1      45.583 130.834  22.673  1.00  0.00    -0.396 OA
ATOM     11  H   UNL     1      46.258 130.577  21.990  1.00  0.00     0.210 HD
ENDBRANCH   9  10
ENDBRANCH   7   9
ENDBRANCH   4   6
ENDBRANCH   3   4
ENDBRANCH   2   3
BRANCH   2  12
ATOM     12  C   UNL     1      45.819 131.150  15.532  1.00  0.00     0.133 C 
ATOM     13  C   UNL     1      44.959 129.895  15.423  1.00  0.00     0.034 C 
ATOM     14  C   UNL     1      46.083 129.961  16.448  1.00  0.00     0.034 C 
BRANCH  12  15
ATOM     15  C   UNL     1      46.752 131.350  14.416  1.00  0.00     0.079 C 
ATOM     16  N   UNL     1      47.490 131.507  13.537  1.00  0.00    -0.197 NA
ENDBRANCH  12  15
ENDBRANCH   2  12
ENDBRANCH   1   2
BRANCH   1  17
ATOM     17  C   UNL     1      43.173 132.909  14.747  1.00  0.00     0.167 C 
BRANCH  17  18
ATOM     18  C   UNL     1      42.060 132.956  15.792  1.00  0.00     0.140 C 
BRANCH  18  19
ATOM     19  N   UNL     1      41.739 134.347  16.139  1.00  0.00    -0.369 N 
BRANCH  19  20
ATOM     20  C   UNL     1      41.911 134.796  17.491  1.00  0.00     0.045 A 
ATOM     21  C   UNL     1      43.189 135.239  17.932  1.00  0.00     0.035 A 
ATOM     22  C   UNL     1      40.826 134.804  18.397  1.00  0.00     0.005 A 
ATOM     23  C   UNL     1      43.390 135.694  19.264  1.00  0.00     0.026 A 
ATOM     24  C   UNL     1      39.508 134.376  18.117  1.00  0.00     0.011 A 
ATOM     25  C   UNL     1      41.078 135.258  19.680  1.00  0.00    -0.021 A 
ATOM     26  C   UNL     1      42.293 135.688  20.125  1.00  0.00    -0.116 A 
ATOM     27  C   UNL     1      38.519 134.427  19.134  1.00  0.00     0.001 A 
ATOM     28  C   UNL     1      40.145 135.317  20.663  1.00  0.00     0.006 A 
ATOM     29  N   UNL     1      42.238 136.084  21.501  1.00  0.00    -0.622 NA
ATOM     30  C   UNL     1      38.834 134.903  20.429  1.00  0.00     0.011 A 
ATOM     31  C   UNL     1      40.859 135.838  21.824  1.00  0.00     0.086 C 
ATOM     32  O   UNL     1      40.358 136.051  22.958  1.00  0.00    -0.315 OA
BRANCH  23  33
ATOM     33  N   UNL     1      44.664 136.147  19.734  1.00  0.00    -0.062 NA
BRANCH  33  34
ATOM     34  N   UNL     1      44.889 137.338  19.954  1.00  0.00     0.005 N 
ATOM     35  N   UNL     1      45.117 138.527  20.177  1.00  0.00    -0.003 NA
ENDBRANCH  33  34
ENDBRANCH  23  33
ENDBRANCH  19  20
BRANCH  19  36
ATOM     36  C   UNL     1      41.475 135.333  15.086  1.00  0.00     0.113 C 
ATOM     37  C   UNL     1      42.393 136.540  15.242  1.00  0.00     0.027 C 
ENDBRANCH  19  36
ENDBRANCH  18  19
ENDBRANCH  17  18
ENDBRANCH   1  17
TORSDOF 15
ENDMDL
MODEL 7
REMARK VINA RESULT:      -5.6      3.185      6.469
REMARK SMILES CCN(CC/N=C(/OC(=O)[C@H]1C[C@@H]1CO)C1(C#N)CC1)c1cc(N=[N+]=[N-])c2c3c(cccc13)C(=O)[N-]2
REMARK SMILES IDX 6 1 7 2 8 3 9 4 10 5 11 6 13 7 12 8 14 9 15 10 16 12 19 13
REMARK SMILES IDX 20 14 17 15 18 16 5 17 4 18 3 19 21 20 22 21 33 22 23 23
REMARK SMILES IDX 32 24 28 25 27 26 31 27 29 28 36 29 30 30 34 31 35 32 24 33
REMARK SMILES IDX 25 34 26 35 2 36 1 37
REMARK H PARENT 15 11
ROOT
ATOM      1  N   UNL     1      43.233 132.208  14.696  1.00  0.00    -0.252 NA
ENDROOT
BRANCH   1   2
ATOM      2  C   UNL     1      44.427 132.475  15.145  1.00  0.00     0.214 C 
BRANCH   2   3
ATOM      3  O   UNL     1      44.754 133.772  15.574  1.00  0.00    -0.410 OA
BRANCH   3   4
ATOM      4  C   UNL     1      44.272 134.401  16.730  1.00  0.00     0.315 C 
ATOM      5  O   UNL     1      44.109 135.651  16.782  1.00  0.00    -0.251 OA
BRANCH   4   6
ATOM      6  C   UNL     1      43.906 133.561  17.910  1.00  0.00     0.105 C 
ATOM      7  C   UNL     1      42.444 133.654  18.331  1.00  0.00     0.030 C 
ATOM      8  C   UNL     1      43.517 134.368  19.143  1.00  0.00     0.022 C 
BRANCH   7   9
ATOM      9  C   UNL     1      41.869 132.395  18.989  1.00  0.00     0.160 C 
BRANCH   9  10
ATOM     10  O   UNL     1      41.313 131.558  18.013  1.00  0.00    -0.396 OA
ATOM     11  H   UNL     1      40.381 131.871  17.869  1.00  0.00     0.210 HD
ENDBRANCH   9  10
ENDBRANCH   7   9
ENDBRANCH   4   6
ENDBRANCH   3   4
ENDBRANCH   2   3
BRANCH   2  12
ATOM     12  C   UNL     1      45.483 131.408  15.263  1.00  0.00     0.133 C 
ATOM     13  C   UNL     1      44.972 130.017  15.625  1.00  0.00     0.034 C 
ATOM     14  C   UNL     1      45.754 130.830  16.647  1.00  0.00     0.034 C 
BRANCH  12  15
ATOM     15  C   UNL     1      46.606 131.419  14.316  1.00  0.00     0.079 C 
ATOM     16  N   UNL     1      47.490 131.426  13.568  1.00  0.00    -0.197 NA
ENDBRANCH  12  15
ENDBRANCH   2  12
ENDBRANCH   1   2
BRANCH   1  17
ATOM     17  C   UNL     1      42.263 133.191  14.215  1.00  0.00     0.167 C 
BRANCH  17  18
ATOM     18  C   UNL     1      41.017 133.147  15.096  1.00  0.00     0.140 C 
BRANCH  18  19
ATOM     19  N   UNL     1      40.222 134.371  14.926  1.00  0.00    -0.369 N 
BRANCH  19  20
ATOM     20  C   UNL     1      40.030 135.251  16.043  1.00  0.00     0.045 A 
ATOM     21  C   UNL     1      40.672 136.520  16.061  1.00  0.00     0.035 A 
ATOM     22  C   UNL     1      39.210 134.875  17.131  1.00  0.00     0.005 A 
ATOM     23  C   UNL     1      40.498 137.417  17.151  1.00  0.00     0.026 A 
ATOM     24  C   UNL     1      38.527 133.646  17.268  1.00  0.00     0.011 A 
ATOM     25  C   UNL     1      39.075 135.786  18.164  1.00  0.00    -0.021 A 
ATOM     26  C   UNL     1      39.679 137.008  18.204  1.00  0.00    -0.116 A 
ATOM     27  C   UNL     1      37.747 133.398  18.429  1.00  0.00     0.001 A 
ATOM     28  C   UNL     1      38.333 135.568  19.278  1.00  0.00     0.006 A 
ATOM     29  N   UNL     1      39.355 137.715  19.407  1.00  0.00    -0.622 NA
ATOM     30  C   UNL     1      37.644 134.368  19.453  1.00  0.00     0.011 A 
ATOM     31  C   UNL     1      38.496 136.778  20.078  1.00  0.00     0.086 C 
ATOM     32  O   UNL     1      37.968 136.992  21.199  1.00  0.00    -0.315 OA
BRANCH  23  33
ATOM     33  N   UNL     1      41.131 138.700  17.195  1.00  0.00    -0.062 NA
BRANCH  33  34
ATOM     34  N   UNL     1      42.356 138.820  17.223  1.00  0.00     0.005 N 
ATOM     35  N   UNL     1      43.581 138.942  17.248  1.00  0.00    -0.003 NA
ENDBRANCH  33  34
ENDBRANCH  23  33
ENDBRANCH  19  20
BRANCH  19  36
ATOM     36  C   UNL     1      39.827 134.819  13.586  1.00  0.00     0.113 C 
ATOM     37  C   UNL     1      38.381 134.432  13.298  1.00  0.00     0.027 C 
ENDBRANCH  19  36
ENDBRANCH  18  19
ENDBRANCH  17  18
ENDBRANCH   1  17
TORSDOF 15
ENDMDL
MODEL 8
REMARK VINA RESULT:      -5.4      2.514      3.389
REMARK SMILES CCN(CC/N=C(/OC(=O)[C@H]1C[C@@H]1CO)C1(C#N)CC1)c1cc(N=[N+]=[N-])c2c3c(cccc13)C(=O)[N-]2
REMARK SMILES IDX 6 1 7 2 8 3 9 4 10 5 11 6 13 7 12 8 14 9 15 10 16 12 19 13
REMARK SMILES IDX 20 14 17 15 18 16 5 17 4 18 3 19 21 20 22 21 33 22 23 23
REMARK SMILES IDX 32 24 28 25 27 26 31 27 29 28 36 29 30 30 34 31 35 32 24 33
REMARK SMILES IDX 25 34 26 35 2 36 1 37
REMARK H PARENT 15 11
ROOT
ATOM      1  N   UNL     1      43.457 131.609  17.538  1.00  0.00    -0.252 NA
ENDROOT
BRANCH   1   2
ATOM      2  C   UNL     1      43.914 132.407  16.615  1.00  0.00     0.214 C 
BRANCH   2   3
ATOM      3  O   UNL     1      45.275 132.387  16.265  1.00  0.00    -0.410 OA
BRANCH   3   4
ATOM      4  C   UNL     1      46.031 131.244  15.974  1.00  0.00     0.315 C 
ATOM      5  O   UNL     1      46.436 130.472  16.885  1.00  0.00    -0.251 OA
BRANCH   4   6
ATOM      6  C   UNL     1      46.325 130.917  14.546  1.00  0.00     0.105 C 
ATOM      7  C   UNL     1      47.676 130.252  14.308  1.00  0.00     0.030 C 
ATOM      8  C   UNL     1      47.478 131.720  13.955  1.00  0.00     0.022 C 
BRANCH   7   9
ATOM      9  C   UNL     1      47.739 129.303  13.107  1.00  0.00     0.160 C 
BRANCH   9  10
ATOM     10  O   UNL     1      47.366 129.983  11.941  1.00  0.00    -0.396 OA
ATOM     11  H   UNL     1      48.143 130.545  11.679  1.00  0.00     0.210 HD
ENDBRANCH   9  10
ENDBRANCH   7   9
ENDBRANCH   4   6
ENDBRANCH   3   4
ENDBRANCH   2   3
BRANCH   2  12
ATOM     12  C   UNL     1      43.007 133.345  15.862  1.00  0.00     0.133 C 
ATOM     13  C   UNL     1      43.538 134.763  15.679  1.00  0.00     0.034 C 
ATOM     14  C   UNL     1      42.383 134.499  16.636  1.00  0.00     0.034 C 
BRANCH  12  15
ATOM     15  C   UNL     1      42.248 132.824  14.717  1.00  0.00     0.079 C 
ATOM     16  N   UNL     1      41.649 132.412  13.816  1.00  0.00    -0.197 NA
ENDBRANCH  12  15
ENDBRANCH   2  12
ENDBRANCH   1   2
BRANCH   1  17
ATOM     17  C   UNL     1      42.953 132.020  18.848  1.00  0.00     0.167 C 
BRANCH  17  18
ATOM     18  C   UNL     1      44.059 131.866  19.889  1.00  0.00     0.140 C 
BRANCH  18  19
ATOM     19  N   UNL     1      43.854 132.803  21.002  1.00  0.00    -0.369 N 
BRANCH  19  20
ATOM     20  C   UNL     1      42.903 133.868  20.864  1.00  0.00     0.045 A 
ATOM     21  C   UNL     1      41.604 133.734  21.428  1.00  0.00     0.035 A 
ATOM     22  C   UNL     1      43.237 135.054  20.172  1.00  0.00     0.005 A 
ATOM     23  C   UNL     1      40.641 134.773  21.312  1.00  0.00     0.026 A 
ATOM     24  C   UNL     1      44.472 135.326  19.540  1.00  0.00     0.011 A 
ATOM     25  C   UNL     1      42.262 136.033  20.090  1.00  0.00    -0.021 A 
ATOM     26  C   UNL     1      41.012 135.928  20.624  1.00  0.00    -0.116 A 
ATOM     27  C   UNL     1      44.662 136.561  18.866  1.00  0.00     0.001 A 
ATOM     28  C   UNL     1      42.427 137.220  19.453  1.00  0.00     0.006 A 
ATOM     29  N   UNL     1      40.229 137.100  20.364  1.00  0.00    -0.622 NA
ATOM     30  C   UNL     1      43.629 137.527  18.816  1.00  0.00     0.011 A 
ATOM     31  C   UNL     1      41.151 137.910  19.615  1.00  0.00     0.086 C 
ATOM     32  O   UNL     1      40.876 139.054  19.171  1.00  0.00    -0.315 OA
BRANCH  23  33
ATOM     33  N   UNL     1      39.328 134.666  21.872  1.00  0.00    -0.062 NA
BRANCH  33  34
ATOM     34  N   UNL     1      38.994 135.302  22.872  1.00  0.00     0.005 N 
ATOM     35  N   UNL     1      38.657 135.938  23.871  1.00  0.00    -0.003 NA
ENDBRANCH  33  34
ENDBRANCH  23  33
ENDBRANCH  19  20
BRANCH  19  36
ATOM     36  C   UNL     1      44.429 132.524  22.322  1.00  0.00     0.113 C 
ATOM     37  C   UNL     1      44.905 131.078  22.403  1.00  0.00     0.027 C 
ENDBRANCH  19  36
ENDBRANCH  18  19
ENDBRANCH  17  18
ENDBRANCH   1  17
TORSDOF 15
ENDMDL
MODEL 9
REMARK VINA RESULT:      -5.3      3.082      6.316
REMARK SMILES CCN(CC/N=C(/OC(=O)[C@H]1C[C@@H]1CO)C1(C#N)CC1)c1cc(N=[N+]=[N-])c2c3c(cccc13)C(=O)[N-]2
REMARK SMILES IDX 6 1 7 2 8 3 9 4 10 5 11 6 13 7 12 8 14 9 15 10 16 12 19 13
REMARK SMILES IDX 20 14 17 15 18 16 5 17 4 18 3 19 21 20 22 21 33 22 23 23
REMARK SMILES IDX 32 24 28 25 27 26 31 27 29 28 36 29 30 30 34 31 35 32 24 33
REMARK SMILES IDX 25 34 26 35 2 36 1 37
REMARK H PARENT 15 11
ROOT
ATOM      1  N   UNL     1      45.013 134.108  15.644  1.00  0.00    -0.252 NA
ENDROOT
BRANCH   1   2
ATOM      2  C   UNL     1      44.965 132.915  16.169  1.00  0.00     0.214 C 
BRANCH   2   3
ATOM      3  O   UNL     1      44.664 132.747  17.530  1.00  0.00    -0.410 OA
BRANCH   3   4
ATOM      4  C   UNL     1      43.413 132.396  18.057  1.00  0.00     0.315 C 
ATOM      5  O   UNL     1      42.465 132.025  17.313  1.00  0.00    -0.251 OA
BRANCH   4   6
ATOM      6  C   UNL     1      43.218 132.427  19.538  1.00  0.00     0.105 C 
ATOM      7  C   UNL     1      44.443 132.863  20.334  1.00  0.00     0.030 C 
ATOM      8  C   UNL     1      44.049 131.392  20.289  1.00  0.00     0.022 C 
BRANCH   7   9
ATOM      9  C   UNL     1      44.146 133.569  21.660  1.00  0.00     0.160 C 
BRANCH   9  10
ATOM     10  O   UNL     1      42.779 133.864  21.750  1.00  0.00    -0.396 OA
ATOM     11  H   UNL     1      42.663 134.425  22.562  1.00  0.00     0.210 HD
ENDBRANCH   9  10
ENDBRANCH   7   9
ENDBRANCH   4   6
ENDBRANCH   3   4
ENDBRANCH   2   3
BRANCH   2  12
ATOM     12  C   UNL     1      45.188 131.678  15.338  1.00  0.00     0.133 C 
ATOM     13  C   UNL     1      45.910 130.536  16.046  1.00  0.00     0.034 C 
ATOM     14  C   UNL     1      46.621 131.330  14.958  1.00  0.00     0.034 C 
BRANCH  12  15
ATOM     15  C   UNL     1      44.132 131.252  14.411  1.00  0.00     0.079 C 
ATOM     16  N   UNL     1      43.300 130.914  13.679  1.00  0.00    -0.197 NA
ENDBRANCH  12  15
ENDBRANCH   2  12
ENDBRANCH   1   2
BRANCH   1  17
ATOM     17  C   UNL     1      43.995 135.147  15.796  1.00  0.00     0.167 C 
BRANCH  17  18
ATOM     18  C   UNL     1      42.657 134.628  15.275  1.00  0.00     0.140 C 
BRANCH  18  19
ATOM     19  N   UNL     1      41.556 135.478  15.747  1.00  0.00    -0.369 N 
BRANCH  19  20
ATOM     20  C   UNL     1      41.217 135.488  17.141  1.00  0.00     0.045 A 
ATOM     21  C   UNL     1      42.081 136.127  18.073  1.00  0.00     0.035 A 
ATOM     22  C   UNL     1      40.034 134.870  17.606  1.00  0.00     0.005 A 
ATOM     23  C   UNL     1      41.772 136.159  19.461  1.00  0.00     0.026 A 
ATOM     24  C   UNL     1      39.092 134.179  16.811  1.00  0.00     0.011 A 
ATOM     25  C   UNL     1      39.782 134.932  18.966  1.00  0.00    -0.021 A 
ATOM     26  C   UNL     1      40.594 135.539  19.877  1.00  0.00    -0.116 A 
ATOM     27  C   UNL     1      37.951 133.592  17.420  1.00  0.00     0.001 A 
ATOM     28  C   UNL     1      38.697 134.380  19.564  1.00  0.00     0.006 A 
ATOM     29  N   UNL     1      40.069 135.426  21.206  1.00  0.00    -0.622 NA
ATOM     30  C   UNL     1      37.744 133.689  18.816  1.00  0.00     0.011 A 
ATOM     31  C   UNL     1      38.860 134.682  20.983  1.00  0.00     0.086 C 
ATOM     32  O   UNL     1      38.064 134.348  21.898  1.00  0.00    -0.315 OA
BRANCH  23  33
ATOM     33  N   UNL     1      42.622 136.797  20.420  1.00  0.00    -0.062 NA
BRANCH  33  34
ATOM     34  N   UNL     1      42.328 137.878  20.931  1.00  0.00     0.005 N 
ATOM     35  N   UNL     1      42.037 138.959  21.443  1.00  0.00    -0.003 NA
ENDBRANCH  33  34
ENDBRANCH  23  33
ENDBRANCH  19  20
BRANCH  19  36
ATOM     36  C   UNL     1      40.960 136.482  14.858  1.00  0.00     0.113 C 
ATOM     37  C   UNL     1      40.091 135.811  13.801  1.00  0.00     0.027 C 
ENDBRANCH  19  36
ENDBRANCH  18  19
ENDBRANCH  17  18
ENDBRANCH   1  17
TORSDOF 15
ENDMDL


