REMARK SMILES CC[C@H]1C[C@]1(N)C(=O)Oc1ccccc(O)c(NC2(CF)COC2)c(N=[N+]=[N-])c(Cl)c1Cl
REMARK SMILES IDX 15 1 14 2 13 3 12 4 11 5 10 6 31 7 32 8 29 9 30 10 25 11
REMARK SMILES IDX 17 12 16 13 18 15 19 17 22 18 24 19 23 20 20 21 21 22 26 23
REMARK SMILES IDX 27 24 28 25 9 26 7 27 8 28 5 29 4 30 3 31 6 32 2 35 1 36
REMARK H PARENT 16 14 18 16 6 33 6 34
ROOT
ATOM      1  C   UNL     1      -1.172  -1.397  -3.964  1.00  0.00     0.139 A 
ATOM      2  C   UNL     1      -0.124  -1.101  -4.864  1.00  0.00     0.048 A 
ATOM      3  C   UNL     1       0.910  -0.164  -4.671  1.00  0.00     0.004 A 
ATOM      4  C   UNL     1       1.289   0.354  -3.431  1.00  0.00     0.004 A 
ATOM      5  C   UNL     1       1.153  -0.375  -2.248  1.00  0.00     0.049 A 
ATOM      6  C   UNL     1       0.744   0.200  -1.035  1.00  0.00     0.151 A 
ATOM      7  C   UNL     1      -0.131   1.309  -0.963  1.00  0.00     0.102 A 
ATOM      8  Cl  UNL     1      -0.070   2.247   0.535  1.00  0.00    -0.079 Cl
ATOM      9  C   UNL     1      -1.077   1.689  -1.958  1.00  0.00     0.075 A 
ATOM     10  Cl  UNL     1      -1.835   3.277  -1.818  1.00  0.00    -0.082 Cl
ATOM     11  C   UNL     1      -1.487   0.870  -3.041  1.00  0.00     0.085 A 
ATOM     12  C   UNL     1      -1.605  -0.532  -2.926  1.00  0.00     0.088 A 
ENDROOT
BRANCH   1  13
ATOM     13  O   UNL     1      -1.800  -2.633  -4.120  1.00  0.00    -0.506 OA
ATOM     14  H   UNL     1      -2.583  -2.920  -3.542  1.00  0.00     0.293 HD
ENDBRANCH   1  13
BRANCH  12  15
ATOM     15  N   UNL     1      -2.132  -1.127  -1.728  1.00  0.00    -0.369 N 
ATOM     16  H   UNL     1      -1.636  -1.972  -1.380  1.00  0.00     0.161 HD
BRANCH  15  17
ATOM     17  C   UNL     1      -3.440  -0.784  -1.137  1.00  0.00     0.113 C 
ATOM     18  C   UNL     1      -3.336   0.091   0.095  1.00  0.00     0.193 C 
ATOM     19  C   UNL     1      -3.918  -1.823  -0.131  1.00  0.00     0.193 C 
ATOM     20  O   UNL     1      -3.799  -0.929   0.948  1.00  0.00    -0.376 OA
BRANCH  17  21
ATOM     21  C   UNL     1      -4.529  -0.377  -2.153  1.00  0.00     0.247 C 
ATOM     22  F   UNL     1      -4.309   0.905  -2.618  1.00  0.00    -0.248 F 
ENDBRANCH  17  21
ENDBRANCH  15  17
ENDBRANCH  12  15
BRANCH  11  23
ATOM     23  N   UNL     1      -1.758   1.446  -4.330  1.00  0.00    -0.057 NA
BRANCH  23  24
ATOM     24  N   UNL     1      -1.306   2.537  -4.678  1.00  0.00     0.005 N 
ATOM     25  N   UNL     1      -0.850   3.620  -5.035  1.00  0.00    -0.003 NA
ENDBRANCH  23  24
ENDBRANCH  11  23
BRANCH   6  26
ATOM     26  O   UNL     1       1.121  -0.389   0.185  1.00  0.00    -0.424 OA
BRANCH  26  27
ATOM     27  C   UNL     1       2.243  -1.200   0.397  1.00  0.00     0.331 C 
ATOM     28  O   UNL     1       3.135  -1.333  -0.483  1.00  0.00    -0.250 OA
BRANCH  27  29
ATOM     29  C   UNL     1       2.385  -1.905   1.710  1.00  0.00     0.118 C 
ATOM     30  C   UNL     1       3.694  -1.742   2.470  1.00  0.00     0.040 C 
ATOM     31  C   UNL     1       2.434  -1.020   2.953  1.00  0.00     0.022 C 
BRANCH  29  32
ATOM     32  N   UNL     1       1.740  -3.207   1.861  1.00  0.00    -0.316 NA
ATOM     33  H   UNL     1       2.112  -3.836   1.114  1.00  0.00     0.119 HD
ATOM     34  H   UNL     1       0.720  -3.079   1.675  1.00  0.00     0.119 HD
ENDBRANCH  29  32
BRANCH  31  35
ATOM     35  C   UNL     1       1.808  -1.581   4.239  1.00  0.00     0.003 C 
ATOM     36  C   UNL     1       2.315  -0.815   5.455  1.00  0.00     0.004 C 
ENDBRANCH  31  35
ENDBRANCH  27  29
ENDBRANCH  26  27
ENDBRANCH   6  26
TORSDOF 11


