MODEL 1
REMARK VINA RESULT:      -8.7      0.000      0.000
REMARK SMILES Cc1nnn(/C=C2\C[C@@H](C)OC2=O)c1-c1c2ccccc2cc2c(N=[N+]=[N-])cccc12
REMARK SMILES IDX 15 1 16 2 17 3 18 4 19 5 20 6 21 7 22 8 23 9 24 10 28 11
REMARK SMILES IDX 29 12 30 13 31 14 14 15 5 16 4 17 3 18 2 19 1 20 6 21 7 22
REMARK SMILES IDX 12 23 8 24 11 25 9 26 13 27 10 28 25 29 26 30 27 31
REMARK H PARENT
ROOT
ATOM      1  C   UNL     1      43.567 134.265  17.600  1.00  0.00     0.018 A 
ATOM      2  C   UNL     1      43.645 135.681  17.578  1.00  0.00    -0.008 A 
ATOM      3  C   UNL     1      43.193 136.435  16.471  1.00  0.00     0.009 A 
ATOM      4  C   UNL     1      43.284 137.828  16.474  1.00  0.00     0.001 A 
ATOM      5  C   UNL     1      43.817 138.496  17.576  1.00  0.00     0.001 A 
ATOM      6  C   UNL     1      44.259 137.772  18.684  1.00  0.00     0.009 A 
ATOM      7  C   UNL     1      44.175 136.369  18.697  1.00  0.00    -0.017 A 
ATOM      8  C   UNL     1      44.610 135.659  19.819  1.00  0.00     0.018 A 
ATOM      9  C   UNL     1      44.534 134.258  19.863  1.00  0.00    -0.008 A 
ATOM     10  C   UNL     1      44.973 133.547  21.008  1.00  0.00     0.045 A 
ATOM     11  C   UNL     1      44.891 132.144  21.023  1.00  0.00     0.011 A 
ATOM     12  C   UNL     1      44.388 131.452  19.926  1.00  0.00     0.001 A 
ATOM     13  C   UNL     1      43.955 132.142  18.798  1.00  0.00     0.009 A 
ATOM     14  C   UNL     1      44.011 133.551  18.745  1.00  0.00    -0.008 A 
ENDROOT
BRANCH   1  15
ATOM     15  C   UNL     1      43.021 133.532  16.432  1.00  0.00     0.098 A 
ATOM     16  N   UNL     1      43.738 132.838  15.529  1.00  0.00    -0.219 N 
ATOM     17  N   UNL     1      42.890 132.328  14.647  1.00  0.00    -0.062 NA
ATOM     18  N   UNL     1      41.643 132.673  14.941  1.00  0.00    -0.135 NA
ATOM     19  C   UNL     1      41.701 133.437  16.049  1.00  0.00     0.088 A 
ATOM     20  C   UNL     1      40.511 134.001  16.754  1.00  0.00     0.071 C 
BRANCH  16  21
ATOM     21  C   UNL     1      45.165 132.651  15.535  1.00  0.00     0.126 C 
BRANCH  21  22
ATOM     22  C   UNL     1      45.768 131.519  15.142  1.00  0.00     0.059 C 
ATOM     23  C   UNL     1      46.335 130.533  16.034  1.00  0.00     0.335 C 
ATOM     24  C   UNL     1      46.013 131.042  13.744  1.00  0.00     0.089 C 
ATOM     25  O   UNL     1      46.902 129.496  15.327  1.00  0.00    -0.459 OA
ATOM     26  C   UNL     1      46.753 129.687  13.923  1.00  0.00     0.178 C 
ATOM     27  O   UNL     1      46.327 130.594  17.292  1.00  0.00    -0.247 OA
ATOM     28  C   UNL     1      48.125 129.682  13.250  1.00  0.00     0.053 C 
ENDBRANCH  21  22
ENDBRANCH  16  21
ENDBRANCH   1  15
BRANCH  10  29
ATOM     29  N   UNL     1      45.496 134.263  22.140  1.00  0.00    -0.060 NA
BRANCH  29  30
ATOM     30  N   UNL     1      46.701 134.463  22.301  1.00  0.00     0.005 N 
ATOM     31  N   UNL     1      47.904 134.663  22.462  1.00  0.00    -0.003 NA
ENDBRANCH  29  30
ENDBRANCH  10  29
TORSDOF 5
ENDMDL
MODEL 2
REMARK VINA RESULT:      -8.6      1.528      3.624
REMARK SMILES Cc1nnn(/C=C2\C[C@@H](C)OC2=O)c1-c1c2ccccc2cc2c(N=[N+]=[N-])cccc12
REMARK SMILES IDX 15 1 16 2 17 3 18 4 19 5 20 6 21 7 22 8 23 9 24 10 28 11
REMARK SMILES IDX 29 12 30 13 31 14 14 15 5 16 4 17 3 18 2 19 1 20 6 21 7 22
REMARK SMILES IDX 12 23 8 24 11 25 9 26 13 27 10 28 25 29 26 30 27 31
REMARK H PARENT
ROOT
ATOM      1  C   UNL     1      43.864 133.961  18.095  1.00  0.00     0.018 A 
ATOM      2  C   UNL     1      44.352 133.167  19.163  1.00  0.00    -0.008 A 
ATOM      3  C   UNL     1      44.277 131.756  19.139  1.00  0.00     0.009 A 
ATOM      4  C   UNL     1      44.762 130.998  20.206  1.00  0.00     0.001 A 
ATOM      5  C   UNL     1      45.336 131.626  21.310  1.00  0.00     0.001 A 
ATOM      6  C   UNL     1      45.431 133.017  21.351  1.00  0.00     0.009 A 
ATOM      7  C   UNL     1      44.947 133.794  20.286  1.00  0.00    -0.017 A 
ATOM      8  C   UNL     1      45.060 135.187  20.336  1.00  0.00     0.018 A 
ATOM      9  C   UNL     1      44.591 135.989  19.283  1.00  0.00    -0.008 A 
ATOM     10  C   UNL     1      44.716 137.399  19.341  1.00  0.00     0.045 A 
ATOM     11  C   UNL     1      44.231 138.180  18.278  1.00  0.00     0.011 A 
ATOM     12  C   UNL     1      43.629 137.581  17.176  1.00  0.00     0.001 A 
ATOM     13  C   UNL     1      43.502 136.196  17.111  1.00  0.00     0.009 A 
ATOM     14  C   UNL     1      43.984 135.375  18.153  1.00  0.00    -0.008 A 
ENDROOT
BRANCH   1  15
ATOM     15  C   UNL     1      43.232 133.316  16.918  1.00  0.00     0.098 A 
ATOM     16  N   UNL     1      43.878 132.675  15.928  1.00  0.00    -0.219 N 
ATOM     17  N   UNL     1      42.968 132.237  15.069  1.00  0.00    -0.062 NA
ATOM     18  N   UNL     1      41.748 132.578  15.464  1.00  0.00    -0.135 NA
ATOM     19  C   UNL     1      41.889 133.265  16.615  1.00  0.00     0.088 A 
ATOM     20  C   UNL     1      40.756 133.795  17.430  1.00  0.00     0.071 C 
BRANCH  16  21
ATOM     21  C   UNL     1      45.299 132.468  15.830  1.00  0.00     0.126 C 
BRANCH  21  22
ATOM     22  C   UNL     1      45.858 131.426  15.196  1.00  0.00     0.059 C 
ATOM     23  C   UNL     1      45.786 130.054  15.643  1.00  0.00     0.335 C 
ATOM     24  C   UNL     1      46.678 131.441  13.944  1.00  0.00     0.089 C 
ATOM     25  O   UNL     1      46.477 129.220  14.791  1.00  0.00    -0.459 OA
ATOM     26  C   UNL     1      47.050 129.949  13.709  1.00  0.00     0.178 C 
ATOM     27  O   UNL     1      45.182 129.649  16.672  1.00  0.00    -0.247 OA
ATOM     28  C   UNL     1      48.561 129.726  13.675  1.00  0.00     0.053 C 
ENDBRANCH  21  22
ENDBRANCH  16  21
ENDBRANCH   1  15
BRANCH  10  29
ATOM     29  N   UNL     1      45.334 138.020  20.482  1.00  0.00    -0.060 NA
BRANCH  29  30
ATOM     30  N   UNL     1      46.492 138.441  20.462  1.00  0.00     0.005 N 
ATOM     31  N   UNL     1      47.648 138.860  20.443  1.00  0.00    -0.003 NA
ENDBRANCH  29  30
ENDBRANCH  10  29
TORSDOF 5
ENDMDL
MODEL 3
REMARK VINA RESULT:      -8.6      3.442      6.535
REMARK SMILES Cc1nnn(/C=C2\C[C@@H](C)OC2=O)c1-c1c2ccccc2cc2c(N=[N+]=[N-])cccc12
REMARK SMILES IDX 15 1 16 2 17 3 18 4 19 5 20 6 21 7 22 8 23 9 24 10 28 11
REMARK SMILES IDX 29 12 30 13 31 14 14 15 5 16 4 17 3 18 2 19 1 20 6 21 7 22
REMARK SMILES IDX 12 23 8 24 11 25 9 26 13 27 10 28 25 29 26 30 27 31
REMARK H PARENT
ROOT
ATOM      1  C   UNL     1      43.564 132.296  17.658  1.00  0.00     0.018 A 
ATOM      2  C   UNL     1      44.238 132.025  18.876  1.00  0.00    -0.008 A 
ATOM      3  C   UNL     1      43.781 132.538  20.111  1.00  0.00     0.009 A 
ATOM      4  C   UNL     1      44.465 132.259  21.295  1.00  0.00     0.001 A 
ATOM      5  C   UNL     1      45.608 131.462  21.276  1.00  0.00     0.001 A 
ATOM      6  C   UNL     1      46.071 130.936  20.069  1.00  0.00     0.009 A 
ATOM      7  C   UNL     1      45.395 131.207  18.868  1.00  0.00    -0.017 A 
ATOM      8  C   UNL     1      45.864 130.662  17.670  1.00  0.00     0.018 A 
ATOM      9  C   UNL     1      45.205 130.912  16.455  1.00  0.00    -0.008 A 
ATOM     10  C   UNL     1      45.685 130.350  15.246  1.00  0.00     0.045 A 
ATOM     11  C   UNL     1      45.011 130.621  14.043  1.00  0.00     0.011 A 
ATOM     12  C   UNL     1      43.883 131.435  14.030  1.00  0.00     0.001 A 
ATOM     13  C   UNL     1      43.405 131.991  15.214  1.00  0.00     0.009 A 
ATOM     14  C   UNL     1      44.047 131.737  16.444  1.00  0.00    -0.008 A 
ENDROOT
BRANCH   1  15
ATOM     15  C   UNL     1      42.356 133.157  17.652  1.00  0.00     0.098 A 
ATOM     16  N   UNL     1      42.334 134.484  17.431  1.00  0.00    -0.219 N 
ATOM     17  N   UNL     1      41.072 134.883  17.504  1.00  0.00    -0.062 NA
ATOM     18  N   UNL     1      40.270 133.860  17.773  1.00  0.00    -0.135 NA
ATOM     19  C   UNL     1      41.054 132.770  17.882  1.00  0.00     0.088 A 
ATOM     20  C   UNL     1      40.551 131.386  18.132  1.00  0.00     0.071 C 
BRANCH  16  21
ATOM     21  C   UNL     1      43.468 135.318  17.133  1.00  0.00     0.126 C 
BRANCH  21  22
ATOM     22  C   UNL     1      43.957 136.238  17.978  1.00  0.00     0.059 C 
ATOM     23  C   UNL     1      43.827 137.667  17.806  1.00  0.00     0.335 C 
ATOM     24  C   UNL     1      44.744 136.012  19.231  1.00  0.00     0.089 C 
ATOM     25  O   UNL     1      44.453 138.345  18.828  1.00  0.00    -0.459 OA
ATOM     26  C   UNL     1      45.034 137.444  19.767  1.00  0.00     0.178 C 
ATOM     27  O   UNL     1      43.231 138.240  16.856  1.00  0.00    -0.247 OA
ATOM     28  C   UNL     1      46.531 137.722  19.896  1.00  0.00     0.053 C 
ENDBRANCH  21  22
ENDBRANCH  16  21
ENDBRANCH   1  15
BRANCH  10  29
ATOM     29  N   UNL     1      46.853 129.511  15.258  1.00  0.00    -0.060 NA
BRANCH  29  30
ATOM     30  N   UNL     1      47.554 129.334  14.260  1.00  0.00     0.005 N 
ATOM     31  N   UNL     1      48.255 129.159  13.264  1.00  0.00    -0.003 NA
ENDBRANCH  29  30
ENDBRANCH  10  29
TORSDOF 5
ENDMDL
MODEL 4
REMARK VINA RESULT:      -8.6      2.028      4.101
REMARK SMILES Cc1nnn(/C=C2\C[C@@H](C)OC2=O)c1-c1c2ccccc2cc2c(N=[N+]=[N-])cccc12
REMARK SMILES IDX 15 1 16 2 17 3 18 4 19 5 20 6 21 7 22 8 23 9 24 10 28 11
REMARK SMILES IDX 29 12 30 13 31 14 14 15 5 16 4 17 3 18 2 19 1 20 6 21 7 22
REMARK SMILES IDX 12 23 8 24 11 25 9 26 13 27 10 28 25 29 26 30 27 31
REMARK H PARENT
ROOT
ATOM      1  C   UNL     1      43.729 133.421  19.670  1.00  0.00     0.018 A 
ATOM      2  C   UNL     1      43.915 132.694  20.873  1.00  0.00    -0.008 A 
ATOM      3  C   UNL     1      43.418 131.382  21.036  1.00  0.00     0.009 A 
ATOM      4  C   UNL     1      43.613 130.689  22.232  1.00  0.00     0.001 A 
ATOM      5  C   UNL     1      44.310 131.284  23.283  1.00  0.00     0.001 A 
ATOM      6  C   UNL     1      44.819 132.576  23.140  1.00  0.00     0.009 A 
ATOM      7  C   UNL     1      44.631 133.286  21.943  1.00  0.00    -0.017 A 
ATOM      8  C   UNL     1      45.158 134.574  21.811  1.00  0.00     0.018 A 
ATOM      9  C   UNL     1      44.991 135.306  20.624  1.00  0.00    -0.008 A 
ATOM     10  C   UNL     1      45.534 136.608  20.499  1.00  0.00     0.045 A 
ATOM     11  C   UNL     1      45.346 137.322  19.302  1.00  0.00     0.011 A 
ATOM     12  C   UNL     1      44.632 136.762  18.248  1.00  0.00     0.001 A 
ATOM     13  C   UNL     1      44.095 135.483  18.363  1.00  0.00     0.009 A 
ATOM     14  C   UNL     1      44.268 134.729  19.543  1.00  0.00    -0.008 A 
ENDROOT
BRANCH   1  15
ATOM     15  C   UNL     1      42.975 132.816  18.545  1.00  0.00     0.098 A 
ATOM     16  N   UNL     1      43.463 131.940  17.648  1.00  0.00    -0.219 N 
ATOM     17  N   UNL     1      42.484 131.634  16.809  1.00  0.00    -0.062 NA
ATOM     18  N   UNL     1      41.372 132.286  17.126  1.00  0.00    -0.135 NA
ATOM     19  C   UNL     1      41.659 133.042  18.204  1.00  0.00     0.088 A 
ATOM     20  C   UNL     1      40.673 133.903  18.923  1.00  0.00     0.071 C 
BRANCH  16  21
ATOM     21  C   UNL     1      44.798 131.404  17.619  1.00  0.00     0.126 C 
BRANCH  21  22
ATOM     22  C   UNL     1      45.555 131.349  16.512  1.00  0.00     0.059 C 
ATOM     23  C   UNL     1      45.711 132.429  15.565  1.00  0.00     0.335 C 
ATOM     24  C   UNL     1      46.359 130.194  16.002  1.00  0.00     0.089 C 
ATOM     25  O   UNL     1      46.532 132.058  14.524  1.00  0.00    -0.459 OA
ATOM     26  C   UNL     1      47.002 130.722  14.688  1.00  0.00     0.178 C 
ATOM     27  O   UNL     1      45.175 133.565  15.656  1.00  0.00    -0.247 OA
ATOM     28  C   UNL     1      46.613 129.882  13.473  1.00  0.00     0.053 C 
ENDBRANCH  21  22
ENDBRANCH  16  21
ENDBRANCH   1  15
BRANCH  10  29
ATOM     29  N   UNL     1      46.269 137.189  21.590  1.00  0.00    -0.060 NA
BRANCH  29  30
ATOM     30  N   UNL     1      45.819 138.104  22.282  1.00  0.00     0.005 N 
ATOM     31  N   UNL     1      45.369 139.016  22.973  1.00  0.00    -0.003 NA
ENDBRANCH  29  30
ENDBRANCH  10  29
TORSDOF 5
ENDMDL
MODEL 5
REMARK VINA RESULT:      -8.4      2.108      4.135
REMARK SMILES Cc1nnn(/C=C2\C[C@@H](C)OC2=O)c1-c1c2ccccc2cc2c(N=[N+]=[N-])cccc12
REMARK SMILES IDX 15 1 16 2 17 3 18 4 19 5 20 6 21 7 22 8 23 9 24 10 28 11
REMARK SMILES IDX 29 12 30 13 31 14 14 15 5 16 4 17 3 18 2 19 1 20 6 21 7 22
REMARK SMILES IDX 12 23 8 24 11 25 9 26 13 27 10 28 25 29 26 30 27 31
REMARK H PARENT
ROOT
ATOM      1  C   UNL     1      42.810 134.746  17.906  1.00  0.00     0.018 A 
ATOM      2  C   UNL     1      43.458 133.907  18.848  1.00  0.00    -0.008 A 
ATOM      3  C   UNL     1      43.148 132.533  18.960  1.00  0.00     0.009 A 
ATOM      4  C   UNL     1      43.799 131.730  19.899  1.00  0.00     0.001 A 
ATOM      5  C   UNL     1      44.772 132.275  20.736  1.00  0.00     0.001 A 
ATOM      6  C   UNL     1      45.101 133.627  20.635  1.00  0.00     0.009 A 
ATOM      7  C   UNL     1      44.456 134.449  19.696  1.00  0.00    -0.017 A 
ATOM      8  C   UNL     1      44.806 135.798  19.598  1.00  0.00     0.018 A 
ATOM      9  C   UNL     1      44.182 136.642  18.666  1.00  0.00    -0.008 A 
ATOM     10  C   UNL     1      44.548 138.008  18.571  1.00  0.00     0.045 A 
ATOM     11  C   UNL     1      43.903 138.833  17.634  1.00  0.00     0.011 A 
ATOM     12  C   UNL     1      42.910 138.321  16.804  1.00  0.00     0.001 A 
ATOM     13  C   UNL     1      42.544 136.980  16.891  1.00  0.00     0.009 A 
ATOM     14  C   UNL     1      43.173 136.116  17.812  1.00  0.00    -0.008 A 
ENDROOT
BRANCH   1  15
ATOM     15  C   UNL     1      41.759 134.193  17.018  1.00  0.00     0.098 A 
ATOM     16  N   UNL     1      41.943 133.735  15.766  1.00  0.00    -0.219 N 
ATOM     17  N   UNL     1      40.769 133.324  15.310  1.00  0.00    -0.062 NA
ATOM     18  N   UNL     1      39.822 133.503  16.222  1.00  0.00    -0.135 NA
ATOM     19  C   UNL     1      40.417 134.057  17.297  1.00  0.00     0.088 A 
ATOM     20  C   UNL     1      39.721 134.382  18.577  1.00  0.00     0.071 C 
BRANCH  16  21
ATOM     21  C   UNL     1      43.194 133.671  15.057  1.00  0.00     0.126 C 
BRANCH  21  22
ATOM     22  C   UNL     1      44.067 132.659  15.178  1.00  0.00     0.059 C 
ATOM     23  C   UNL     1      43.976 131.402  14.471  1.00  0.00     0.335 C 
ATOM     24  C   UNL     1      45.275 132.584  16.059  1.00  0.00     0.089 C 
ATOM     25  O   UNL     1      45.007 130.561  14.826  1.00  0.00    -0.459 OA
ATOM     26  C   UNL     1      45.873 131.177  15.775  1.00  0.00     0.178 C 
ATOM     27  O   UNL     1      43.081 131.092  13.641  1.00  0.00    -0.247 OA
ATOM     28  C   UNL     1      45.959 130.318  17.034  1.00  0.00     0.053 C 
ENDBRANCH  21  22
ENDBRANCH  16  21
ENDBRANCH   1  15
BRANCH  10  29
ATOM     29  N   UNL     1      45.573 138.538  19.430  1.00  0.00    -0.060 NA
BRANCH  29  30
ATOM     30  N   UNL     1      46.751 138.630  19.081  1.00  0.00     0.005 N 
ATOM     31  N   UNL     1      47.927 138.723  18.733  1.00  0.00    -0.003 NA
ENDBRANCH  29  30
ENDBRANCH  10  29
TORSDOF 5
ENDMDL
MODEL 6
REMARK VINA RESULT:      -8.3      1.014      1.179
REMARK SMILES Cc1nnn(/C=C2\C[C@@H](C)OC2=O)c1-c1c2ccccc2cc2c(N=[N+]=[N-])cccc12
REMARK SMILES IDX 15 1 16 2 17 3 18 4 19 5 20 6 21 7 22 8 23 9 24 10 28 11
REMARK SMILES IDX 29 12 30 13 31 14 14 15 5 16 4 17 3 18 2 19 1 20 6 21 7 22
REMARK SMILES IDX 12 23 8 24 11 25 9 26 13 27 10 28 25 29 26 30 27 31
REMARK H PARENT
ROOT
ATOM      1  C   UNL     1      43.246 134.351  16.864  1.00  0.00     0.018 A 
ATOM      2  C   UNL     1      43.271 135.758  16.690  1.00  0.00    -0.008 A 
ATOM      3  C   UNL     1      42.887 136.367  15.475  1.00  0.00     0.009 A 
ATOM      4  C   UNL     1      42.924 137.755  15.329  1.00  0.00     0.001 A 
ATOM      5  C   UNL     1      43.337 138.561  16.389  1.00  0.00     0.001 A 
ATOM      6  C   UNL     1      43.712 137.982  17.602  1.00  0.00     0.009 A 
ATOM      7  C   UNL     1      43.679 136.587  17.764  1.00  0.00    -0.017 A 
ATOM      8  C   UNL     1      44.045 136.023  18.990  1.00  0.00     0.018 A 
ATOM      9  C   UNL     1      44.017 134.632  19.183  1.00  0.00    -0.008 A 
ATOM     10  C   UNL     1      44.385 134.071  20.431  1.00  0.00     0.045 A 
ATOM     11  C   UNL     1      44.355 132.676  20.597  1.00  0.00     0.011 A 
ATOM     12  C   UNL     1      43.972 131.846  19.547  1.00  0.00     0.001 A 
ATOM     13  C   UNL     1      43.610 132.390  18.318  1.00  0.00     0.009 A 
ATOM     14  C   UNL     1      43.618 133.785  18.113  1.00  0.00    -0.008 A 
ENDROOT
BRANCH   1  15
ATOM     15  C   UNL     1      42.827 133.471  15.745  1.00  0.00     0.098 A 
ATOM     16  N   UNL     1      43.629 132.649  15.045  1.00  0.00    -0.219 N 
ATOM     17  N   UNL     1      42.884 132.035  14.138  1.00  0.00    -0.062 NA
ATOM     18  N   UNL     1      41.621 132.435  14.218  1.00  0.00    -0.135 NA
ATOM     19  C   UNL     1      41.564 133.344  15.211  1.00  0.00     0.088 A 
ATOM     20  C   UNL     1      40.313 134.017  15.673  1.00  0.00     0.071 C 
BRANCH  16  21
ATOM     21  C   UNL     1      45.038 132.443  15.261  1.00  0.00     0.126 C 
BRANCH  21  22
ATOM     22  C   UNL     1      45.694 131.334  14.886  1.00  0.00     0.059 C 
ATOM     23  C   UNL     1      45.894 130.173  15.722  1.00  0.00     0.335 C 
ATOM     24  C   UNL     1      46.370 131.061  13.578  1.00  0.00     0.089 C 
ATOM     25  O   UNL     1      46.623 129.209  15.061  1.00  0.00    -0.459 OA
ATOM     26  C   UNL     1      46.957 129.630  13.741  1.00  0.00     0.178 C 
ATOM     27  O   UNL     1      45.471 130.037  16.901  1.00  0.00    -0.247 OA
ATOM     28  C   UNL     1      48.472 129.600  13.553  1.00  0.00     0.053 C 
ENDBRANCH  21  22
ENDBRANCH  16  21
ENDBRANCH   1  15
BRANCH  10  29
ATOM     29  N   UNL     1      44.783 134.928  21.516  1.00  0.00    -0.060 NA
BRANCH  29  30
ATOM     30  N   UNL     1      44.434 134.731  22.681  1.00  0.00     0.005 N 
ATOM     31  N   UNL     1      44.083 134.535  23.843  1.00  0.00    -0.003 NA
ENDBRANCH  29  30
ENDBRANCH  10  29
TORSDOF 5
ENDMDL
MODEL 7
REMARK VINA RESULT:      -8.3      2.014      3.926
REMARK SMILES Cc1nnn(/C=C2\C[C@@H](C)OC2=O)c1-c1c2ccccc2cc2c(N=[N+]=[N-])cccc12
REMARK SMILES IDX 15 1 16 2 17 3 18 4 19 5 20 6 21 7 22 8 23 9 24 10 28 11
REMARK SMILES IDX 29 12 30 13 31 14 14 15 5 16 4 17 3 18 2 19 1 20 6 21 7 22
REMARK SMILES IDX 12 23 8 24 11 25 9 26 13 27 10 28 25 29 26 30 27 31
REMARK H PARENT
ROOT
ATOM      1  C   UNL     1      43.347 134.223  16.932  1.00  0.00     0.018 A 
ATOM      2  C   UNL     1      43.800 133.602  18.124  1.00  0.00    -0.008 A 
ATOM      3  C   UNL     1      43.841 132.196  18.263  1.00  0.00     0.009 A 
ATOM      4  C   UNL     1      44.288 131.611  19.449  1.00  0.00     0.001 A 
ATOM      5  C   UNL     1      44.708 132.409  20.512  1.00  0.00     0.001 A 
ATOM      6  C   UNL     1      44.686 133.799  20.393  1.00  0.00     0.009 A 
ATOM      7  C   UNL     1      44.239 134.404  19.206  1.00  0.00    -0.017 A 
ATOM      8  C   UNL     1      44.235 135.797  19.097  1.00  0.00     0.018 A 
ATOM      9  C   UNL     1      43.799 136.430  17.922  1.00  0.00    -0.008 A 
ATOM     10  C   UNL     1      43.804 137.843  17.820  1.00  0.00     0.045 A 
ATOM     11  C   UNL     1      43.356 138.452  16.635  1.00  0.00     0.011 A 
ATOM     12  C   UNL     1      42.906 137.680  15.568  1.00  0.00     0.001 A 
ATOM     13  C   UNL     1      42.898 136.290  15.660  1.00  0.00     0.009 A 
ATOM     14  C   UNL     1      43.348 135.640  16.829  1.00  0.00    -0.008 A 
ENDROOT
BRANCH   1  15
ATOM     15  C   UNL     1      42.879 133.395  15.794  1.00  0.00     0.098 A 
ATOM     16  N   UNL     1      43.645 132.593  15.032  1.00  0.00    -0.219 N 
ATOM     17  N   UNL     1      42.860 132.024  14.129  1.00  0.00    -0.062 NA
ATOM     18  N   UNL     1      41.605 132.433  14.272  1.00  0.00    -0.135 NA
ATOM     19  C   UNL     1      41.595 133.302  15.302  1.00  0.00     0.088 A 
ATOM     20  C   UNL     1      40.370 133.967  15.838  1.00  0.00     0.071 C 
BRANCH  16  21
ATOM     21  C   UNL     1      45.058 132.365  15.187  1.00  0.00     0.126 C 
BRANCH  21  22
ATOM     22  C   UNL     1      45.695 131.288  14.702  1.00  0.00     0.059 C 
ATOM     23  C   UNL     1      45.621 129.962  15.269  1.00  0.00     0.335 C 
ATOM     24  C   UNL     1      46.618 131.216  13.526  1.00  0.00     0.089 C 
ATOM     25  O   UNL     1      46.403 129.078  14.560  1.00  0.00    -0.459 OA
ATOM     26  C   UNL     1      47.047 129.722  13.464  1.00  0.00     0.178 C 
ATOM     27  O   UNL     1      44.943 129.633  16.279  1.00  0.00    -0.247 OA
ATOM     28  C   UNL     1      48.560 129.549  13.575  1.00  0.00     0.053 C 
ENDBRANCH  21  22
ENDBRANCH  16  21
ENDBRANCH   1  15
BRANCH  10  29
ATOM     29  N   UNL     1      44.265 138.642  18.923  1.00  0.00    -0.060 NA
BRANCH  29  30
ATOM     30  N   UNL     1      43.499 139.134  19.754  1.00  0.00     0.005 N 
ATOM     31  N   UNL     1      42.733 139.625  20.581  1.00  0.00    -0.003 NA
ENDBRANCH  29  30
ENDBRANCH  10  29
TORSDOF 5
ENDMDL
MODEL 8
REMARK VINA RESULT:      -8.3      3.346      6.228
REMARK SMILES Cc1nnn(/C=C2\C[C@@H](C)OC2=O)c1-c1c2ccccc2cc2c(N=[N+]=[N-])cccc12
REMARK SMILES IDX 15 1 16 2 17 3 18 4 19 5 20 6 21 7 22 8 23 9 24 10 28 11
REMARK SMILES IDX 29 12 30 13 31 14 14 15 5 16 4 17 3 18 2 19 1 20 6 21 7 22
REMARK SMILES IDX 12 23 8 24 11 25 9 26 13 27 10 28 25 29 26 30 27 31
REMARK H PARENT
ROOT
ATOM      1  C   UNL     1      43.738 133.751  18.132  1.00  0.00     0.018 A 
ATOM      2  C   UNL     1      43.477 134.904  17.349  1.00  0.00    -0.008 A 
ATOM      3  C   UNL     1      42.735 135.996  17.853  1.00  0.00     0.009 A 
ATOM      4  C   UNL     1      42.491 137.118  17.060  1.00  0.00     0.001 A 
ATOM      5  C   UNL     1      42.984 137.180  15.758  1.00  0.00     0.001 A 
ATOM      6  C   UNL     1      43.729 136.118  15.243  1.00  0.00     0.009 A 
ATOM      7  C   UNL     1      43.983 134.981  16.028  1.00  0.00    -0.017 A 
ATOM      8  C   UNL     1      44.742 133.931  15.503  1.00  0.00     0.018 A 
ATOM      9  C   UNL     1      45.017 132.785  16.265  1.00  0.00    -0.008 A 
ATOM     10  C   UNL     1      45.792 131.729  15.725  1.00  0.00     0.045 A 
ATOM     11  C   UNL     1      46.047 130.589  16.508  1.00  0.00     0.011 A 
ATOM     12  C   UNL     1      45.544 130.491  17.801  1.00  0.00     0.001 A 
ATOM     13  C   UNL     1      44.782 131.524  18.339  1.00  0.00     0.009 A 
ATOM     14  C   UNL     1      44.510 132.689  17.591  1.00  0.00    -0.008 A 
ENDROOT
BRANCH   1  15
ATOM     15  C   UNL     1      43.207 133.655  19.514  1.00  0.00     0.098 A 
ATOM     16  N   UNL     1      41.974 133.244  19.860  1.00  0.00    -0.219 N 
ATOM     17  N   UNL     1      41.886 133.296  21.181  1.00  0.00    -0.062 NA
ATOM     18  N   UNL     1      43.022 133.735  21.709  1.00  0.00    -0.135 NA
ATOM     19  C   UNL     1      43.861 133.978  20.683  1.00  0.00     0.088 A 
ATOM     20  C   UNL     1      45.273 134.441  20.833  1.00  0.00     0.071 C 
BRANCH  16  21
ATOM     21  C   UNL     1      40.942 132.794  18.962  1.00  0.00     0.126 C 
BRANCH  21  22
ATOM     22  C   UNL     1      40.118 133.622  18.301  1.00  0.00     0.059 C 
ATOM     23  C   UNL     1      39.096 134.435  18.919  1.00  0.00     0.335 C 
ATOM     24  C   UNL     1      40.046 133.867  16.826  1.00  0.00     0.089 C 
ATOM     25  O   UNL     1      38.403 135.158  17.975  1.00  0.00    -0.459 OA
ATOM     26  C   UNL     1      38.902 134.908  16.664  1.00  0.00     0.178 C 
ATOM     27  O   UNL     1      38.850 134.489  20.154  1.00  0.00    -0.247 OA
ATOM     28  C   UNL     1      37.776 134.397  15.767  1.00  0.00     0.053 C 
ENDBRANCH  21  22
ENDBRANCH  16  21
ENDBRANCH   1  15
BRANCH  10  29
ATOM     29  N   UNL     1      46.310 131.828  14.387  1.00  0.00    -0.060 NA
BRANCH  29  30
ATOM     30  N   UNL     1      47.210 131.099  13.967  1.00  0.00     0.005 N 
ATOM     31  N   UNL     1      48.108 130.370  13.549  1.00  0.00    -0.003 NA
ENDBRANCH  29  30
ENDBRANCH  10  29
TORSDOF 5
ENDMDL
MODEL 9
REMARK VINA RESULT:      -8.2      3.517      6.582
REMARK SMILES Cc1nnn(/C=C2\C[C@@H](C)OC2=O)c1-c1c2ccccc2cc2c(N=[N+]=[N-])cccc12
REMARK SMILES IDX 15 1 16 2 17 3 18 4 19 5 20 6 21 7 22 8 23 9 24 10 28 11
REMARK SMILES IDX 29 12 30 13 31 14 14 15 5 16 4 17 3 18 2 19 1 20 6 21 7 22
REMARK SMILES IDX 12 23 8 24 11 25 9 26 13 27 10 28 25 29 26 30 27 31
REMARK H PARENT
ROOT
ATOM      1  C   UNL     1      43.388 132.258  17.548  1.00  0.00     0.018 A 
ATOM      2  C   UNL     1      44.109 132.003  18.742  1.00  0.00    -0.008 A 
ATOM      3  C   UNL     1      43.711 132.545  19.985  1.00  0.00     0.009 A 
ATOM      4  C   UNL     1      44.441 132.279  21.145  1.00  0.00     0.001 A 
ATOM      5  C   UNL     1      45.573 131.468  21.092  1.00  0.00     0.001 A 
ATOM      6  C   UNL     1      45.978 130.913  19.878  1.00  0.00     0.009 A 
ATOM      7  C   UNL     1      45.255 131.170  18.702  1.00  0.00    -0.017 A 
ATOM      8  C   UNL     1      45.666 130.597  17.495  1.00  0.00     0.018 A 
ATOM      9  C   UNL     1      44.959 130.831  16.304  1.00  0.00    -0.008 A 
ATOM     10  C   UNL     1      45.382 130.241  15.088  1.00  0.00     0.045 A 
ATOM     11  C   UNL     1      44.661 130.497  13.908  1.00  0.00     0.011 A 
ATOM     12  C   UNL     1      43.543 131.326  13.928  1.00  0.00     0.001 A 
ATOM     13  C   UNL     1      43.121 131.910  15.119  1.00  0.00     0.009 A 
ATOM     14  C   UNL     1      43.812 131.671  16.326  1.00  0.00    -0.008 A 
ENDROOT
BRANCH   1  15
ATOM     15  C   UNL     1      42.191 133.134  17.576  1.00  0.00     0.098 A 
ATOM     16  N   UNL     1      42.172 134.454  17.317  1.00  0.00    -0.219 N 
ATOM     17  N   UNL     1      40.921 134.872  17.441  1.00  0.00    -0.062 NA
ATOM     18  N   UNL     1      40.121 133.867  17.780  1.00  0.00    -0.135 NA
ATOM     19  C   UNL     1      40.897 132.771  17.882  1.00  0.00     0.088 A 
ATOM     20  C   UNL     1      40.392 131.401  18.197  1.00  0.00     0.071 C 
BRANCH  16  21
ATOM     21  C   UNL     1      43.299 135.265  16.939  1.00  0.00     0.126 C 
BRANCH  21  22
ATOM     22  C   UNL     1      43.190 136.512  16.454  1.00  0.00     0.059 C 
ATOM     23  C   UNL     1      43.260 137.715  17.251  1.00  0.00     0.335 C 
ATOM     24  C   UNL     1      42.952 136.932  15.037  1.00  0.00     0.089 C 
ATOM     25  O   UNL     1      43.091 138.835  16.468  1.00  0.00    -0.459 OA
ATOM     26  C   UNL     1      42.911 138.486  15.098  1.00  0.00     0.178 C 
ATOM     27  O   UNL     1      43.446 137.760  18.496  1.00  0.00    -0.247 OA
ATOM     28  C   UNL     1      41.588 139.051  14.587  1.00  0.00     0.053 C 
ENDBRANCH  21  22
ENDBRANCH  16  21
ENDBRANCH   1  15
BRANCH  10  29
ATOM     29  N   UNL     1      46.539 129.387  15.066  1.00  0.00    -0.060 NA
BRANCH  29  30
ATOM     30  N   UNL     1      47.319 129.350  14.113  1.00  0.00     0.005 N 
ATOM     31  N   UNL     1      48.099 129.312  13.163  1.00  0.00    -0.003 NA
ENDBRANCH  29  30
ENDBRANCH  10  29
TORSDOF 5
ENDMDL


