REMARK SMILES C=C(C)/C(O)=[N+]1/C[C@@H]2CC[C@H](Oc3ccc4c5c(ccc(N=[N+]=[N-])c35)CC4)[C@@H]2C1
REMARK SMILES IDX 12 1 11 2 6 3 29 4 7 5 28 6 8 7 9 8 10 9 4 10 5 11 2 13 1 14
REMARK SMILES IDX 3 15 13 16 14 17 25 18 15 19 21 20 17 21 16 22 20 23 18 24
REMARK SMILES IDX 27 25 19 26 26 27 22 28 23 29 24 30
REMARK H PARENT 5 12
ROOT
ATOM      1  O   UNL     1       0.646  -1.909  -0.586  1.00  0.00    -0.489 OA
ENDROOT
BRANCH   1   2
ATOM      2  C   UNL     1       0.083  -1.667  -1.877  1.00  0.00     0.183 C 
ATOM      3  N   UNL     1      -2.370   0.887  -1.123  1.00  0.00    -0.198 N 
ATOM      4  C   UNL     1      -1.079   0.334  -0.740  1.00  0.00     0.362 C 
ATOM      5  C   UNL     1      -2.719   0.580  -2.502  1.00  0.00     0.358 C 
ATOM      6  C   UNL     1      -0.461  -0.240  -2.026  1.00  0.00     0.105 C 
ATOM      7  C   UNL     1      -1.606  -0.333  -3.032  1.00  0.00     0.068 C 
ATOM      8  C   UNL     1      -1.998  -1.822  -3.110  1.00  0.00     0.014 C 
ATOM      9  C   UNL     1      -1.119  -2.565  -2.111  1.00  0.00     0.046 C 
BRANCH   3  10
ATOM     10  C   UNL     1      -3.121   1.637  -0.354  1.00  0.00     0.362 C 
BRANCH  10  11
ATOM     11  O   UNL     1      -4.295   2.189  -0.869  1.00  0.00    -0.460 OA
ATOM     12  H   UNL     1      -4.905   2.762  -0.299  1.00  0.00     0.300 HD
ENDBRANCH  10  11
BRANCH  10  13
ATOM     13  C   UNL     1      -2.754   1.942   1.052  1.00  0.00     0.053 C 
ATOM     14  C   UNL     1      -2.640   3.214   1.441  1.00  0.00     0.023 C 
ATOM     15  C   UNL     1      -2.530   0.838   2.047  1.00  0.00     0.055 C 
ENDBRANCH  10  13
ENDBRANCH   3  10
ENDBRANCH   1   2
BRANCH   1  16
ATOM     16  C   UNL     1       1.765  -1.247  -0.056  1.00  0.00     0.128 A 
ATOM     17  C   UNL     1       2.739  -0.645  -0.903  1.00  0.00     0.047 A 
ATOM     18  C   UNL     1       1.933  -1.171   1.351  1.00  0.00     0.034 A 
ATOM     19  C   UNL     1       3.860   0.014  -0.363  1.00  0.00     0.008 A 
ATOM     20  C   UNL     1       1.028  -1.683   2.321  1.00  0.00     0.049 A 
ATOM     21  C   UNL     1       3.065  -0.507   1.824  1.00  0.00    -0.008 A 
ATOM     22  C   UNL     1       4.000   0.066   1.022  1.00  0.00    -0.039 A 
ATOM     23  C   UNL     1       1.324  -1.506   3.703  1.00  0.00     0.011 A 
ATOM     24  C   UNL     1       3.352  -0.335   3.141  1.00  0.00    -0.039 A 
ATOM     25  C   UNL     1       5.073   0.709   1.842  1.00  0.00     0.041 C 
ATOM     26  C   UNL     1       2.489  -0.831   4.116  1.00  0.00     0.005 A 
ATOM     27  C   UNL     1       4.626   0.431   3.305  1.00  0.00     0.041 C 
BRANCH  20  28
ATOM     28  N   UNL     1      -0.172  -2.354   1.908  1.00  0.00    -0.060 NA
BRANCH  28  29
ATOM     29  N   UNL     1      -1.016  -2.754   2.710  1.00  0.00     0.005 N 
ATOM     30  N   UNL     1      -1.861  -3.154   3.510  1.00  0.00    -0.003 NA
ENDBRANCH  28  29
ENDBRANCH  20  28
ENDBRANCH   1  16
TORSDOF 7


