REMARK SMILES C[N+]1(C)Cc2cc3ccc(-n4cc(CCn5cc(CN)cn5)n[nH+]4)cc3cc2C1
REMARK SMILES IDX 15 1 14 2 13 3 11 4 12 5 24 6 23 7 10 9 2 10 4 11 29 12 5 13
REMARK SMILES IDX 28 14 6 15 27 16 7 17 26 18 8 19 25 20 9 21 1 22 3 23 16 24
REMARK SMILES IDX 17 25 22 26 18 27 21 28 19 29 20 30
REMARK H PARENT 24 8 20 31 20 32
ROOT
ATOM      1  C   UNL     1       0.212  -2.217  -5.926  1.00  0.00     0.151 C 
ENDROOT
BRANCH   1   2
ATOM      2  C   UNL     1       0.616  -3.285  -4.902  1.00  0.00     0.088 C 
BRANCH   2   3
ATOM      3  C   UNL     1      -0.212  -3.192  -3.656  1.00  0.00     0.134 A 
ATOM      4  N   UNL     1      -0.948  -2.596  -1.689  1.00  0.00    -0.104 N 
ATOM      5  C   UNL     1       0.118  -2.506  -2.506  1.00  0.00     0.190 A 
ATOM      6  N   UNL     1      -1.875  -3.304  -2.322  1.00  0.00    -0.012 N 
ATOM      7  N   UNL     1      -1.465  -3.671  -3.528  1.00  0.00     0.020 NA
ATOM      8  H   UNL     1      -2.828  -3.513  -1.952  1.00  0.00     0.527 HD
BRANCH   4   9
ATOM      9  C   UNL     1      -1.090  -2.012  -0.379  1.00  0.00     0.107 A 
ATOM     10  N   UNL     1       0.430   2.541   4.911  1.00  0.00    -0.321 N 
ATOM     11  C   UNL     1      -0.703   1.573   5.055  1.00  0.00     0.301 C 
ATOM     12  C   UNL     1       0.780   2.561   3.456  1.00  0.00     0.301 C 
ATOM     13  C   UNL     1      -0.732   0.812   3.786  1.00  0.00     0.016 A 
ATOM     14  C   UNL     1       0.114   1.374   2.877  1.00  0.00     0.016 A 
ATOM     15  C   UNL     1      -1.492  -0.317   3.477  1.00  0.00     0.018 A 
ATOM     16  C   UNL     1       0.260   0.850   1.593  1.00  0.00     0.019 A 
ATOM     17  C   UNL     1      -1.365  -0.883   2.193  1.00  0.00    -0.018 A 
ATOM     18  C   UNL     1      -0.481  -0.296   1.245  1.00  0.00    -0.016 A 
ATOM     19  C   UNL     1      -2.097  -2.023   1.840  1.00  0.00     0.011 A 
ATOM     20  C   UNL     1      -0.354  -0.866  -0.029  1.00  0.00     0.041 A 
ATOM     21  C   UNL     1      -1.960  -2.582   0.567  1.00  0.00     0.033 A 
ATOM     22  C   UNL     1       1.594   2.074   5.704  1.00  0.00     0.334 C 
ATOM     23  C   UNL     1       0.037   3.889   5.378  1.00  0.00     0.334 C 
ENDBRANCH   4   9
ENDBRANCH   2   3
ENDBRANCH   1   2
BRANCH   1  24
ATOM     24  N   UNL     1       0.254  -0.878  -5.339  1.00  0.00    -0.272 N 
ATOM     25  C   UNL     1       1.363  -0.205  -4.976  1.00  0.00     0.113 A 
ATOM     26  N   UNL     1      -0.827  -0.200  -4.981  1.00  0.00    -0.181 NA
ATOM     27  C   UNL     1       0.964   0.970  -4.375  1.00  0.00     0.004 A 
ATOM     28  C   UNL     1      -0.417   0.939  -4.389  1.00  0.00     0.140 A 
BRANCH  27  29
ATOM     29  C   UNL     1       1.835   1.980  -3.688  1.00  0.00     0.116 C 
BRANCH  29  30
ATOM     30  N   UNL     1       1.932   1.698  -2.257  1.00  0.00    -0.326 NA
ATOM     31  H   UNL     1       0.966   1.688  -1.857  1.00  0.00     0.119 HD
ATOM     32  H   UNL     1       2.336   0.740  -2.129  1.00  0.00     0.119 HD
ENDBRANCH  29  30
ENDBRANCH  27  29
ENDBRANCH   1  24
TORSDOF 6


