REMARK SMILES C#C/C(N=[N+]=[N-])=N/[C@H](c1c(C)nnn1-c1c2ccccc2c(C=O)c2ccccc12)C(C)C
REMARK SMILES IDX 7 1 3 2 2 3 1 4 4 5 5 6 6 7 8 8 9 9 10 10 14 11 12 12 13 13
REMARK SMILES IDX 11 14 15 15 16 16 30 17 17 18 21 19 29 20 25 21 18 22 20 23
REMARK SMILES IDX 22 24 28 25 26 26 19 27 27 28 23 29 24 30 31 31 32 32 33 33
REMARK H PARENT
ROOT
ATOM      1  N   UNL     1      -1.585   0.559  -0.683  1.00  0.00    -0.265 NA
ENDROOT
BRANCH   1   2
ATOM      2  C   UNL     1      -2.547  -0.282  -0.920  1.00  0.00     0.172 C 
BRANCH   2   3
ATOM      3  C   UNL     1      -3.443  -0.623   0.156  1.00  0.00    -0.049 C 
ATOM      4  C   UNL     1      -4.189  -0.910   1.058  1.00  0.00     0.011 C 
ENDBRANCH   2   3
BRANCH   2   5
ATOM      5  N   UNL     1      -2.707  -0.863  -2.221  1.00  0.00    -0.032 NA
BRANCH   5   6
ATOM      6  N   UNL     1      -3.587  -1.691  -2.457  1.00  0.00     0.008 N 
ATOM      7  N   UNL     1      -4.466  -2.519  -2.692  1.00  0.00    -0.003 NA
ENDBRANCH   5   6
ENDBRANCH   2   5
ENDBRANCH   1   2
BRANCH   1   8
ATOM      8  C   UNL     1      -0.611   1.017  -1.675  1.00  0.00     0.160 C 
BRANCH   8   9
ATOM      9  C   UNL     1       0.393  -0.085  -1.977  1.00  0.00     0.092 A 
ATOM     10  C   UNL     1       0.796  -0.517  -3.228  1.00  0.00     0.086 A 
ATOM     11  N   UNL     1       1.107  -0.813  -1.088  1.00  0.00    -0.214 N 
ATOM     12  N   UNL     1       1.721  -1.484  -3.066  1.00  0.00    -0.135 NA
ATOM     13  N   UNL     1       1.888  -1.643  -1.761  1.00  0.00    -0.062 NA
ATOM     14  C   UNL     1       0.305  -0.041  -4.556  1.00  0.00     0.071 C 
BRANCH  11  15
ATOM     15  C   UNL     1       1.034  -0.790   0.347  1.00  0.00     0.082 A 
ATOM     16  C   UNL     1       1.884   0.060   1.083  1.00  0.00     0.009 A 
ATOM     17  C   UNL     1       0.135  -1.644   1.018  1.00  0.00     0.009 A 
ATOM     18  C   UNL     1       2.874   0.824   0.430  1.00  0.00     0.011 A 
ATOM     19  C   UNL     1       1.758   0.144   2.496  1.00  0.00    -0.005 A 
ATOM     20  C   UNL     1      -0.634  -2.584   0.297  1.00  0.00     0.011 A 
ATOM     21  C   UNL     1      -0.009  -1.561   2.430  1.00  0.00    -0.005 A 
ATOM     22  C   UNL     1       3.705   1.680   1.148  1.00  0.00     0.001 A 
ATOM     23  C   UNL     1       2.623   1.016   3.201  1.00  0.00     0.009 A 
ATOM     24  C   UNL     1       0.803  -0.662   3.172  1.00  0.00     0.030 A 
ATOM     25  C   UNL     1      -1.560  -3.396   0.947  1.00  0.00     0.001 A 
ATOM     26  C   UNL     1      -0.989  -2.369   3.056  1.00  0.00     0.009 A 
ATOM     27  C   UNL     1       3.577   1.778   2.529  1.00  0.00     0.001 A 
ATOM     28  C   UNL     1      -1.747  -3.279   2.319  1.00  0.00     0.001 A 
BRANCH  24  29
ATOM     29  C   UNL     1       0.684  -0.574   4.648  1.00  0.00     0.261 C 
ATOM     30  O   UNL     1       0.789  -1.603   5.366  1.00  0.00    -0.298 OA
ENDBRANCH  24  29
ENDBRANCH  11  15
ENDBRANCH   8   9
BRANCH   8  31
ATOM     31  C   UNL     1       0.070   2.319  -1.177  1.00  0.00     0.014 C 
ATOM     32  C   UNL     1       1.099   2.852  -2.188  1.00  0.00     0.010 C 
ATOM     33  C   UNL     1      -0.974   3.412  -0.896  1.00  0.00     0.010 C 
ENDBRANCH   8  31
ENDBRANCH   1   8
TORSDOF 9


