MODEL 1
REMARK VINA RESULT:      -5.3      0.000      0.000
REMARK SMILES CCN(CC/N=C(\OC(=O)[C@H]1C[C@@H]1CO)C1(C#N)CC1)c1cc(N=[N+]=[N-])c2c3c(cccc13)C(=O)[N-]2
REMARK SMILES IDX 6 1 7 2 8 3 9 4 10 5 11 6 13 7 12 8 14 9 15 10 16 12 19 13
REMARK SMILES IDX 20 14 17 15 18 16 5 17 4 18 3 19 21 20 22 21 33 22 23 23
REMARK SMILES IDX 32 24 28 25 27 26 31 27 29 28 36 29 30 30 34 31 35 32 24 33
REMARK SMILES IDX 25 34 26 35 2 36 1 37
REMARK H PARENT 15 11
ROOT
ATOM      1  N   UNL     1      45.066 133.472  15.792  1.00  0.00    -0.252 NA
ENDROOT
BRANCH   1   2
ATOM      2  C   UNL     1      45.201 132.204  16.060  1.00  0.00     0.214 C 
BRANCH   2   3
ATOM      3  O   UNL     1      45.096 131.757  17.387  1.00  0.00    -0.410 OA
BRANCH   3   4
ATOM      4  C   UNL     1      43.950 131.845  18.183  1.00  0.00     0.315 C 
ATOM      5  O   UNL     1      42.802 131.611  17.707  1.00  0.00    -0.251 OA
BRANCH   4   6
ATOM      6  C   UNL     1      44.094 132.237  19.617  1.00  0.00     0.105 C 
ATOM      7  C   UNL     1      45.530 132.181  20.133  1.00  0.00     0.030 C 
ATOM      8  C   UNL     1      44.529 131.100  20.541  1.00  0.00     0.022 C 
BRANCH   7   9
ATOM      9  C   UNL     1      45.869 133.177  21.245  1.00  0.00     0.160 C 
BRANCH   9  10
ATOM     10  O   UNL     1      47.229 133.088  21.558  1.00  0.00    -0.396 OA
ATOM     11  H   UNL     1      47.725 133.151  20.702  1.00  0.00     0.210 HD
ENDBRANCH   9  10
ENDBRANCH   7   9
ENDBRANCH   4   6
ENDBRANCH   3   4
ENDBRANCH   2   3
BRANCH   2  12
ATOM     12  C   UNL     1      45.436 131.255  14.914  1.00  0.00     0.133 C 
ATOM     13  C   UNL     1      44.955 129.823  15.111  1.00  0.00     0.034 C 
ATOM     14  C   UNL     1      44.224 130.744  14.144  1.00  0.00     0.034 C 
BRANCH  12  15
ATOM     15  C   UNL     1      46.683 131.400  14.147  1.00  0.00     0.079 C 
ATOM     16  N   UNL     1      47.664 131.508  13.537  1.00  0.00    -0.197 NA
ENDBRANCH  12  15
ENDBRANCH   2  12
ENDBRANCH   1   2
BRANCH   1  17
ATOM     17  C   UNL     1      43.784 134.172  15.710  1.00  0.00     0.167 C 
BRANCH  17  18
ATOM     18  C   UNL     1      43.948 135.664  15.394  1.00  0.00     0.140 C 
BRANCH  18  19
ATOM     19  N   UNL     1      43.132 136.498  16.287  1.00  0.00    -0.369 N 
BRANCH  19  20
ATOM     20  C   UNL     1      43.289 136.369  17.716  1.00  0.00     0.045 A 
ATOM     21  C   UNL     1      44.399 136.989  18.358  1.00  0.00     0.035 A 
ATOM     22  C   UNL     1      42.381 135.605  18.493  1.00  0.00     0.005 A 
ATOM     23  C   UNL     1      44.618 136.863  19.751  1.00  0.00     0.026 A 
ATOM     24  C   UNL     1      41.215 134.956  18.018  1.00  0.00     0.011 A 
ATOM     25  C   UNL     1      42.645 135.500  19.852  1.00  0.00    -0.021 A 
ATOM     26  C   UNL     1      43.705 136.086  20.485  1.00  0.00    -0.116 A 
ATOM     27  C   UNL     1      40.392 134.231  18.921  1.00  0.00     0.001 A 
ATOM     28  C   UNL     1      41.871 134.809  20.726  1.00  0.00     0.006 A 
ATOM     29  N   UNL     1      43.698 135.792  21.889  1.00  0.00    -0.622 NA
ATOM     30  C   UNL     1      40.720 134.148  20.295  1.00  0.00     0.011 A 
ATOM     31  C   UNL     1      42.521 134.979  22.020  1.00  0.00     0.086 C 
ATOM     32  O   UNL     1      42.124 134.492  23.113  1.00  0.00    -0.315 OA
BRANCH  23  33
ATOM     33  N   UNL     1      45.752 137.514  20.344  1.00  0.00    -0.062 NA
BRANCH  33  34
ATOM     34  N   UNL     1      46.745 136.901  20.735  1.00  0.00     0.005 N 
ATOM     35  N   UNL     1      47.741 136.292  21.122  1.00  0.00    -0.003 NA
ENDBRANCH  33  34
ENDBRANCH  23  33
ENDBRANCH  19  20
BRANCH  19  36
ATOM     36  C   UNL     1      41.952 137.195  15.751  1.00  0.00     0.113 C 
ATOM     37  C   UNL     1      41.264 136.353  14.680  1.00  0.00     0.027 C 
ENDBRANCH  19  36
ENDBRANCH  18  19
ENDBRANCH  17  18
ENDBRANCH   1  17
TORSDOF 15
ENDMDL
MODEL 2
REMARK VINA RESULT:      -5.2      2.816      5.584
REMARK SMILES CCN(CC/N=C(\OC(=O)[C@H]1C[C@@H]1CO)C1(C#N)CC1)c1cc(N=[N+]=[N-])c2c3c(cccc13)C(=O)[N-]2
REMARK SMILES IDX 6 1 7 2 8 3 9 4 10 5 11 6 13 7 12 8 14 9 15 10 16 12 19 13
REMARK SMILES IDX 20 14 17 15 18 16 5 17 4 18 3 19 21 20 22 21 33 22 23 23
REMARK SMILES IDX 32 24 28 25 27 26 31 27 29 28 36 29 30 30 34 31 35 32 24 33
REMARK SMILES IDX 25 34 26 35 2 36 1 37
REMARK H PARENT 15 11
ROOT
ATOM      1  N   UNL     1      42.827 132.006  17.825  1.00  0.00    -0.252 NA
ENDROOT
BRANCH   1   2
ATOM      2  C   UNL     1      42.963 132.215  16.547  1.00  0.00     0.214 C 
BRANCH   2   3
ATOM      3  O   UNL     1      43.964 131.535  15.832  1.00  0.00    -0.410 OA
BRANCH   3   4
ATOM      4  C   UNL     1      45.218 132.057  15.502  1.00  0.00     0.315 C 
ATOM      5  O   UNL     1      45.516 133.259  15.757  1.00  0.00    -0.251 OA
BRANCH   4   6
ATOM      6  C   UNL     1      46.212 131.174  14.822  1.00  0.00     0.105 C 
ATOM      7  C   UNL     1      45.795 130.736  13.419  1.00  0.00     0.030 C 
ATOM      8  C   UNL     1      45.724 129.745  14.581  1.00  0.00     0.022 C 
BRANCH   7   9
ATOM      9  C   UNL     1      46.944 130.479  12.441  1.00  0.00     0.160 C 
BRANCH   9  10
ATOM     10  O   UNL     1      48.130 131.010  12.957  1.00  0.00    -0.396 OA
ATOM     11  H   UNL     1      48.868 130.432  12.633  1.00  0.00     0.210 HD
ENDBRANCH   9  10
ENDBRANCH   7   9
ENDBRANCH   4   6
ENDBRANCH   3   4
ENDBRANCH   2   3
BRANCH   2  12
ATOM     12  C   UNL     1      42.009 133.167  15.874  1.00  0.00     0.133 C 
ATOM     13  C   UNL     1      42.636 134.289  15.056  1.00  0.00     0.034 C 
ATOM     14  C   UNL     1      41.923 133.142  14.352  1.00  0.00     0.034 C 
BRANCH  12  15
ATOM     15  C   UNL     1      40.775 133.524  16.591  1.00  0.00     0.079 C 
ATOM     16  N   UNL     1      39.798 133.799  17.152  1.00  0.00    -0.197 NA
ENDBRANCH  12  15
ENDBRANCH   2  12
ENDBRANCH   1   2
BRANCH   1  17
ATOM     17  C   UNL     1      43.934 131.751  18.747  1.00  0.00     0.167 C 
BRANCH  17  18
ATOM     18  C   UNL     1      44.654 133.036  19.171  1.00  0.00     0.140 C 
BRANCH  18  19
ATOM     19  N   UNL     1      44.000 133.666  20.327  1.00  0.00    -0.369 N 
BRANCH  19  20
ATOM     20  C   UNL     1      42.837 134.493  20.118  1.00  0.00     0.045 A 
ATOM     21  C   UNL     1      41.658 134.252  20.881  1.00  0.00     0.035 A 
ATOM     22  C   UNL     1      42.827 135.522  19.141  1.00  0.00     0.005 A 
ATOM     23  C   UNL     1      40.480 135.011  20.689  1.00  0.00     0.026 A 
ATOM     24  C   UNL     1      43.918 135.911  18.327  1.00  0.00     0.011 A 
ATOM     25  C   UNL     1      41.644 136.230  18.982  1.00  0.00    -0.021 A 
ATOM     26  C   UNL     1      40.503 136.011  19.702  1.00  0.00    -0.116 A 
ATOM     27  C   UNL     1      43.762 136.971  17.394  1.00  0.00     0.001 A 
ATOM     28  C   UNL     1      41.477 137.243  18.092  1.00  0.00     0.006 A 
ATOM     29  N   UNL     1      39.457 136.908  19.303  1.00  0.00    -0.622 NA
ATOM     30  C   UNL     1      42.525 137.648  17.267  1.00  0.00     0.011 A 
ATOM     31  C   UNL     1      40.101 137.683  18.279  1.00  0.00     0.086 C 
ATOM     32  O   UNL     1      39.533 138.612  17.643  1.00  0.00    -0.315 OA
BRANCH  23  33
ATOM     33  N   UNL     1      39.323 134.724  21.490  1.00  0.00    -0.062 NA
BRANCH  33  34
ATOM     34  N   UNL     1      39.391 134.468  22.693  1.00  0.00     0.005 N 
ATOM     35  N   UNL     1      39.459 134.205  23.892  1.00  0.00    -0.003 NA
ENDBRANCH  33  34
ENDBRANCH  23  33
ENDBRANCH  19  20
BRANCH  19  36
ATOM     36  C   UNL     1      44.709 133.730  21.615  1.00  0.00     0.113 C 
ATOM     37  C   UNL     1      45.798 134.798  21.583  1.00  0.00     0.027 C 
ENDBRANCH  19  36
ENDBRANCH  18  19
ENDBRANCH  17  18
ENDBRANCH   1  17
TORSDOF 15
ENDMDL
MODEL 3
REMARK VINA RESULT:      -5.0      2.506      4.747
REMARK SMILES CCN(CC/N=C(\OC(=O)[C@H]1C[C@@H]1CO)C1(C#N)CC1)c1cc(N=[N+]=[N-])c2c3c(cccc13)C(=O)[N-]2
REMARK SMILES IDX 6 1 7 2 8 3 9 4 10 5 11 6 13 7 12 8 14 9 15 10 16 12 19 13
REMARK SMILES IDX 20 14 17 15 18 16 5 17 4 18 3 19 21 20 22 21 33 22 23 23
REMARK SMILES IDX 32 24 28 25 27 26 31 27 29 28 36 29 30 30 34 31 35 32 24 33
REMARK SMILES IDX 25 34 26 35 2 36 1 37
REMARK H PARENT 15 11
ROOT
ATOM      1  N   UNL     1      42.161 132.030  16.636  1.00  0.00    -0.252 NA
ENDROOT
BRANCH   1   2
ATOM      2  C   UNL     1      42.460 132.789  15.621  1.00  0.00     0.214 C 
BRANCH   2   3
ATOM      3  O   UNL     1      43.475 132.396  14.731  1.00  0.00    -0.410 OA
BRANCH   3   4
ATOM      4  C   UNL     1      44.833 132.294  15.048  1.00  0.00     0.315 C 
ATOM      5  O   UNL     1      45.465 133.268  15.548  1.00  0.00    -0.251 OA
BRANCH   4   6
ATOM      6  C   UNL     1      45.543 131.009  14.773  1.00  0.00     0.105 C 
ATOM      7  C   UNL     1      46.796 131.165  13.914  1.00  0.00     0.030 C 
ATOM      8  C   UNL     1      45.522 130.578  13.306  1.00  0.00     0.022 C 
BRANCH   7   9
ATOM      9  C   UNL     1      47.903 130.139  14.171  1.00  0.00     0.160 C 
BRANCH   9  10
ATOM     10  O   UNL     1      47.680 129.502  15.395  1.00  0.00    -0.396 OA
ATOM     11  H   UNL     1      47.213 130.155  15.978  1.00  0.00     0.210 HD
ENDBRANCH   9  10
ENDBRANCH   7   9
ENDBRANCH   4   6
ENDBRANCH   3   4
ENDBRANCH   2   3
BRANCH   2  12
ATOM     12  C   UNL     1      41.674 134.059  15.423  1.00  0.00     0.133 C 
ATOM     13  C   UNL     1      42.040 135.229  16.329  1.00  0.00     0.034 C 
ATOM     14  C   UNL     1      42.400 135.270  14.849  1.00  0.00     0.034 C 
BRANCH  12  15
ATOM     15  C   UNL     1      40.245 133.939  15.096  1.00  0.00     0.079 C 
ATOM     16  N   UNL     1      39.117 133.852  14.841  1.00  0.00    -0.197 NA
ENDBRANCH  12  15
ENDBRANCH   2  12
ENDBRANCH   1   2
BRANCH   1  17
ATOM     17  C   UNL     1      42.351 132.404  18.037  1.00  0.00     0.167 C 
BRANCH  17  18
ATOM     18  C   UNL     1      43.793 132.830  18.342  1.00  0.00     0.140 C 
BRANCH  18  19
ATOM     19  N   UNL     1      44.043 132.895  19.789  1.00  0.00    -0.369 N 
BRANCH  19  20
ATOM     20  C   UNL     1      44.198 134.181  20.423  1.00  0.00     0.045 A 
ATOM     21  C   UNL     1      45.478 134.572  20.911  1.00  0.00     0.035 A 
ATOM     22  C   UNL     1      43.094 135.053  20.608  1.00  0.00     0.005 A 
ATOM     23  C   UNL     1      45.676 135.807  21.573  1.00  0.00     0.026 A 
ATOM     24  C   UNL     1      41.770 134.831  20.155  1.00  0.00     0.011 A 
ATOM     25  C   UNL     1      43.336 136.246  21.273  1.00  0.00    -0.021 A 
ATOM     26  C   UNL     1      44.556 136.638  21.749  1.00  0.00    -0.116 A 
ATOM     27  C   UNL     1      40.766 135.804  20.406  1.00  0.00     0.001 A 
ATOM     28  C   UNL     1      42.387 137.184  21.523  1.00  0.00     0.006 A 
ATOM     29  N   UNL     1      44.478 137.922  22.385  1.00  0.00    -0.622 NA
ATOM     30  C   UNL     1      41.070 136.998  21.103  1.00  0.00     0.011 A 
ATOM     31  C   UNL     1      43.088 138.250  22.227  1.00  0.00     0.086 C 
ATOM     32  O   UNL     1      42.570 139.319  22.648  1.00  0.00    -0.315 OA
BRANCH  23  33
ATOM     33  N   UNL     1      46.990 136.150  22.039  1.00  0.00    -0.062 NA
BRANCH  33  34
ATOM     34  N   UNL     1      47.985 136.117  21.314  1.00  0.00     0.005 N 
ATOM     35  N   UNL     1      48.977 136.090  20.588  1.00  0.00    -0.003 NA
ENDBRANCH  33  34
ENDBRANCH  23  33
ENDBRANCH  19  20
BRANCH  19  36
ATOM     36  C   UNL     1      44.461 131.681  20.507  1.00  0.00     0.113 C 
ATOM     37  C   UNL     1      45.599 130.979  19.771  1.00  0.00     0.027 C 
ENDBRANCH  19  36
ENDBRANCH  18  19
ENDBRANCH  17  18
ENDBRANCH   1  17
TORSDOF 15
ENDMDL
MODEL 4
REMARK VINA RESULT:      -4.9      2.819      4.351
REMARK SMILES CCN(CC/N=C(\OC(=O)[C@H]1C[C@@H]1CO)C1(C#N)CC1)c1cc(N=[N+]=[N-])c2c3c(cccc13)C(=O)[N-]2
REMARK SMILES IDX 6 1 7 2 8 3 9 4 10 5 11 6 13 7 12 8 14 9 15 10 16 12 19 13
REMARK SMILES IDX 20 14 17 15 18 16 5 17 4 18 3 19 21 20 22 21 33 22 23 23
REMARK SMILES IDX 32 24 28 25 27 26 31 27 29 28 36 29 30 30 34 31 35 32 24 33
REMARK SMILES IDX 25 34 26 35 2 36 1 37
REMARK H PARENT 15 11
ROOT
ATOM      1  N   UNL     1      43.380 132.054  14.497  1.00  0.00    -0.252 NA
ENDROOT
BRANCH   1   2
ATOM      2  C   UNL     1      44.029 131.332  15.366  1.00  0.00     0.214 C 
BRANCH   2   3
ATOM      3  O   UNL     1      43.666 131.379  16.722  1.00  0.00    -0.410 OA
BRANCH   3   4
ATOM      4  C   UNL     1      44.547 131.584  17.789  1.00  0.00     0.315 C 
ATOM      5  O   UNL     1      45.593 130.886  17.918  1.00  0.00    -0.251 OA
BRANCH   4   6
ATOM      6  C   UNL     1      44.229 132.641  18.795  1.00  0.00     0.105 C 
ATOM      7  C   UNL     1      44.946 132.460  20.131  1.00  0.00     0.030 C 
ATOM      8  C   UNL     1      43.456 132.138  20.014  1.00  0.00     0.022 C 
BRANCH   7   9
ATOM      9  C   UNL     1      45.253 133.751  20.893  1.00  0.00     0.160 C 
BRANCH   9  10
ATOM     10  O   UNL     1      44.327 133.921  21.927  1.00  0.00    -0.396 OA
ATOM     11  H   UNL     1      44.465 134.834  22.288  1.00  0.00     0.210 HD
ENDBRANCH   9  10
ENDBRANCH   7   9
ENDBRANCH   4   6
ENDBRANCH   3   4
ENDBRANCH   2   3
BRANCH   2  12
ATOM     12  C   UNL     1      45.138 130.442  14.867  1.00  0.00     0.133 C 
ATOM     13  C   UNL     1      45.636 130.709  13.452  1.00  0.00     0.034 C 
ATOM     14  C   UNL     1      46.512 131.063  14.646  1.00  0.00     0.034 C 
BRANCH  12  15
ATOM     15  C   UNL     1      45.118 129.028  15.271  1.00  0.00     0.079 C 
ATOM     16  N   UNL     1      45.106 127.910  15.582  1.00  0.00    -0.197 NA
ENDBRANCH  12  15
ENDBRANCH   2  12
ENDBRANCH   1   2
BRANCH   1  17
ATOM     17  C   UNL     1      42.308 132.991  14.832  1.00  0.00     0.167 C 
BRANCH  17  18
ATOM     18  C   UNL     1      42.764 134.454  14.768  1.00  0.00     0.140 C 
BRANCH  18  19
ATOM     19  N   UNL     1      42.923 135.030  16.111  1.00  0.00    -0.369 N 
BRANCH  19  20
ATOM     20  C   UNL     1      41.767 135.552  16.798  1.00  0.00     0.045 A 
ATOM     21  C   UNL     1      41.101 134.744  17.764  1.00  0.00     0.035 A 
ATOM     22  C   UNL     1      41.252 136.842  16.507  1.00  0.00     0.005 A 
ATOM     23  C   UNL     1      39.942 135.194  18.439  1.00  0.00     0.026 A 
ATOM     24  C   UNL     1      41.811 137.778  15.603  1.00  0.00     0.011 A 
ATOM     25  C   UNL     1      40.108 137.234  17.186  1.00  0.00    -0.021 A 
ATOM     26  C   UNL     1      39.455 136.472  18.114  1.00  0.00    -0.116 A 
ATOM     27  C   UNL     1      41.188 139.042  15.420  1.00  0.00     0.001 A 
ATOM     28  C   UNL     1      39.499 138.436  17.019  1.00  0.00     0.006 A 
ATOM     29  N   UNL     1      38.308 137.159  18.636  1.00  0.00    -0.622 NA
ATOM     30  C   UNL     1      40.013 139.381  16.132  1.00  0.00     0.011 A 
ATOM     31  C   UNL     1      38.358 138.407  17.926  1.00  0.00     0.086 C 
ATOM     32  O   UNL     1      37.519 139.335  18.083  1.00  0.00    -0.315 OA
BRANCH  23  33
ATOM     33  N   UNL     1      39.316 134.337  19.407  1.00  0.00    -0.062 NA
BRANCH  33  34
ATOM     34  N   UNL     1      39.312 134.584  20.613  1.00  0.00     0.005 N 
ATOM     35  N   UNL     1      39.314 134.828  21.818  1.00  0.00    -0.003 NA
ENDBRANCH  33  34
ENDBRANCH  23  33
ENDBRANCH  19  20
BRANCH  19  36
ATOM     36  C   UNL     1      44.268 135.375  16.597  1.00  0.00     0.113 C 
ATOM     37  C   UNL     1      44.188 136.179  17.891  1.00  0.00     0.027 C 
ENDBRANCH  19  36
ENDBRANCH  18  19
ENDBRANCH  17  18
ENDBRANCH   1  17
TORSDOF 15
ENDMDL
MODEL 5
REMARK VINA RESULT:      -4.9      2.466      4.519
REMARK SMILES CCN(CC/N=C(\OC(=O)[C@H]1C[C@@H]1CO)C1(C#N)CC1)c1cc(N=[N+]=[N-])c2c3c(cccc13)C(=O)[N-]2
REMARK SMILES IDX 6 1 7 2 8 3 9 4 10 5 11 6 13 7 12 8 14 9 15 10 16 12 19 13
REMARK SMILES IDX 20 14 17 15 18 16 5 17 4 18 3 19 21 20 22 21 33 22 23 23
REMARK SMILES IDX 32 24 28 25 27 26 31 27 29 28 36 29 30 30 34 31 35 32 24 33
REMARK SMILES IDX 25 34 26 35 2 36 1 37
REMARK H PARENT 15 11
ROOT
ATOM      1  N   UNL     1      44.538 131.884  17.423  1.00  0.00    -0.252 NA
ENDROOT
BRANCH   1   2
ATOM      2  C   UNL     1      44.077 131.391  16.309  1.00  0.00     0.214 C 
BRANCH   2   3
ATOM      3  O   UNL     1      42.740 131.621  15.944  1.00  0.00    -0.410 OA
BRANCH   3   4
ATOM      4  C   UNL     1      42.266 132.760  15.285  1.00  0.00     0.315 C 
ATOM      5  O   UNL     1      41.736 132.681  14.140  1.00  0.00    -0.251 OA
BRANCH   4   6
ATOM      6  C   UNL     1      42.407 134.090  15.950  1.00  0.00     0.105 C 
ATOM      7  C   UNL     1      42.534 135.259  14.976  1.00  0.00     0.030 C 
ATOM      8  C   UNL     1      43.764 134.761  15.736  1.00  0.00     0.022 C 
BRANCH   7   9
ATOM      9  C   UNL     1      41.983 136.596  15.476  1.00  0.00     0.160 C 
BRANCH   9  10
ATOM     10  O   UNL     1      42.231 137.593  14.528  1.00  0.00    -0.396 OA
ATOM     11  H   UNL     1      41.719 138.393  14.812  1.00  0.00     0.210 HD
ENDBRANCH   9  10
ENDBRANCH   7   9
ENDBRANCH   4   6
ENDBRANCH   3   4
ENDBRANCH   2   3
BRANCH   2  12
ATOM     12  C   UNL     1      45.020 130.609  15.432  1.00  0.00     0.133 C 
ATOM     13  C   UNL     1      45.193 131.113  14.005  1.00  0.00     0.034 C 
ATOM     14  C   UNL     1      46.326 131.272  15.010  1.00  0.00     0.034 C 
BRANCH  12  15
ATOM     15  C   UNL     1      45.053 129.146  15.591  1.00  0.00     0.079 C 
ATOM     16  N   UNL     1      45.074 127.993  15.710  1.00  0.00    -0.197 NA
ENDBRANCH  12  15
ENDBRANCH   2  12
ENDBRANCH   1   2
BRANCH   1  17
ATOM     17  C   UNL     1      43.858 131.791  18.716  1.00  0.00     0.167 C 
BRANCH  17  18
ATOM     18  C   UNL     1      44.739 132.265  19.878  1.00  0.00     0.140 C 
BRANCH  18  19
ATOM     19  N   UNL     1      44.023 133.209  20.748  1.00  0.00    -0.369 N 
BRANCH  19  20
ATOM     20  C   UNL     1      43.521 134.442  20.193  1.00  0.00     0.045 A 
ATOM     21  C   UNL     1      44.416 135.327  19.525  1.00  0.00     0.035 A 
ATOM     22  C   UNL     1      42.159 134.814  20.329  1.00  0.00     0.005 A 
ATOM     23  C   UNL     1      43.981 136.565  18.995  1.00  0.00     0.026 A 
ATOM     24  C   UNL     1      41.138 134.039  20.931  1.00  0.00     0.011 A 
ATOM     25  C   UNL     1      41.783 136.042  19.803  1.00  0.00    -0.021 A 
ATOM     26  C   UNL     1      42.628 136.905  19.162  1.00  0.00    -0.116 A 
ATOM     27  C   UNL     1      39.809 134.540  20.986  1.00  0.00     0.001 A 
ATOM     28  C   UNL     1      40.519 136.536  19.851  1.00  0.00     0.006 A 
ATOM     29  N   UNL     1      41.936 138.087  18.734  1.00  0.00    -0.622 NA
ATOM     30  C   UNL     1      39.489 135.807  20.444  1.00  0.00     0.011 A 
ATOM     31  C   UNL     1      40.596 137.829  19.182  1.00  0.00     0.086 C 
ATOM     32  O   UNL     1      39.635 138.626  19.009  1.00  0.00    -0.315 OA
BRANCH  23  33
ATOM     33  N   UNL     1      44.929 137.414  18.328  1.00  0.00    -0.062 NA
BRANCH  33  34
ATOM     34  N   UNL     1      45.275 138.507  18.776  1.00  0.00     0.005 N 
ATOM     35  N   UNL     1      45.619 139.602  19.217  1.00  0.00    -0.003 NA
ENDBRANCH  33  34
ENDBRANCH  23  33
ENDBRANCH  19  20
BRANCH  19  36
ATOM     36  C   UNL     1      44.115 133.061  22.209  1.00  0.00     0.113 C 
ATOM     37  C   UNL     1      44.018 131.593  22.613  1.00  0.00     0.027 C 
ENDBRANCH  19  36
ENDBRANCH  18  19
ENDBRANCH  17  18
ENDBRANCH   1  17
TORSDOF 15
ENDMDL
MODEL 6
REMARK VINA RESULT:      -4.9      2.815      5.641
REMARK SMILES CCN(CC/N=C(\OC(=O)[C@H]1C[C@@H]1CO)C1(C#N)CC1)c1cc(N=[N+]=[N-])c2c3c(cccc13)C(=O)[N-]2
REMARK SMILES IDX 6 1 7 2 8 3 9 4 10 5 11 6 13 7 12 8 14 9 15 10 16 12 19 13
REMARK SMILES IDX 20 14 17 15 18 16 5 17 4 18 3 19 21 20 22 21 33 22 23 23
REMARK SMILES IDX 32 24 28 25 27 26 31 27 29 28 36 29 30 30 34 31 35 32 24 33
REMARK SMILES IDX 25 34 26 35 2 36 1 37
REMARK H PARENT 15 11
ROOT
ATOM      1  N   UNL     1      42.156 132.195  16.914  1.00  0.00    -0.252 NA
ENDROOT
BRANCH   1   2
ATOM      2  C   UNL     1      43.090 132.338  16.017  1.00  0.00     0.214 C 
BRANCH   2   3
ATOM      3  O   UNL     1      42.777 132.892  14.765  1.00  0.00    -0.410 OA
BRANCH   3   4
ATOM      4  C   UNL     1      42.221 134.158  14.557  1.00  0.00     0.315 C 
ATOM      5  O   UNL     1      42.815 135.206  14.940  1.00  0.00    -0.251 OA
BRANCH   4   6
ATOM      6  C   UNL     1      40.894 134.262  13.879  1.00  0.00     0.105 C 
ATOM      7  C   UNL     1      40.089 135.496  14.278  1.00  0.00     0.030 C 
ATOM      8  C   UNL     1      39.695 134.121  14.817  1.00  0.00     0.022 C 
BRANCH   7   9
ATOM      9  C   UNL     1      39.149 136.045  13.203  1.00  0.00     0.160 C 
BRANCH   9  10
ATOM     10  O   UNL     1      39.552 137.333  12.836  1.00  0.00    -0.396 OA
ATOM     11  H   UNL     1      40.347 137.228  12.251  1.00  0.00     0.210 HD
ENDBRANCH   9  10
ENDBRANCH   7   9
ENDBRANCH   4   6
ENDBRANCH   3   4
ENDBRANCH   2   3
BRANCH   2  12
ATOM     12  C   UNL     1      44.493 131.924  16.378  1.00  0.00     0.133 C 
ATOM     13  C   UNL     1      45.274 131.172  15.307  1.00  0.00     0.034 C 
ATOM     14  C   UNL     1      45.651 132.605  15.657  1.00  0.00     0.034 C 
BRANCH  12  15
ATOM     15  C   UNL     1      44.749 131.494  17.762  1.00  0.00     0.079 C 
ATOM     16  N   UNL     1      44.944 131.161  18.855  1.00  0.00    -0.197 NA
ENDBRANCH  12  15
ENDBRANCH   2  12
ENDBRANCH   1   2
BRANCH   1  17
ATOM     17  C   UNL     1      41.589 133.288  17.703  1.00  0.00     0.167 C 
BRANCH  17  18
ATOM     18  C   UNL     1      42.411 133.592  18.962  1.00  0.00     0.140 C 
BRANCH  18  19
ATOM     19  N   UNL     1      42.149 134.948  19.464  1.00  0.00    -0.369 N 
BRANCH  19  20
ATOM     20  C   UNL     1      43.134 135.982  19.258  1.00  0.00     0.045 A 
ATOM     21  C   UNL     1      42.887 137.006  18.299  1.00  0.00     0.035 A 
ATOM     22  C   UNL     1      44.364 135.982  19.965  1.00  0.00     0.005 A 
ATOM     23  C   UNL     1      43.836 138.021  18.034  1.00  0.00     0.026 A 
ATOM     24  C   UNL     1      44.750 135.062  20.970  1.00  0.00     0.011 A 
ATOM     25  C   UNL     1      45.267 136.991  19.661  1.00  0.00    -0.021 A 
ATOM     26  C   UNL     1      45.048 137.980  18.743  1.00  0.00    -0.116 A 
ATOM     27  C   UNL     1      46.017 135.193  21.600  1.00  0.00     0.001 A 
ATOM     28  C   UNL     1      46.482 137.129  20.252  1.00  0.00     0.006 A 
ATOM     29  N   UNL     1      46.170 138.871  18.662  1.00  0.00    -0.622 NA
ATOM     30  C   UNL     1      46.902 136.237  21.239  1.00  0.00     0.011 A 
ATOM     31  C   UNL     1      47.069 138.310  19.632  1.00  0.00     0.086 C 
ATOM     32  O   UNL     1      48.204 138.791  19.895  1.00  0.00    -0.315 OA
BRANCH  23  33
ATOM     33  N   UNL     1      43.529 139.030  17.059  1.00  0.00    -0.062 NA
BRANCH  33  34
ATOM     34  N   UNL     1      42.720 138.854  16.147  1.00  0.00     0.005 N 
ATOM     35  N   UNL     1      41.908 138.681  15.241  1.00  0.00    -0.003 NA
ENDBRANCH  33  34
ENDBRANCH  23  33
ENDBRANCH  19  20
BRANCH  19  36
ATOM     36  C   UNL     1      41.071 135.163  20.442  1.00  0.00     0.113 C 
ATOM     37  C   UNL     1      41.232 134.232  21.641  1.00  0.00     0.027 C 
ENDBRANCH  19  36
ENDBRANCH  18  19
ENDBRANCH  17  18
ENDBRANCH   1  17
TORSDOF 15
ENDMDL
MODEL 7
REMARK VINA RESULT:      -4.7      4.110      8.197
REMARK SMILES CCN(CC/N=C(\OC(=O)[C@H]1C[C@@H]1CO)C1(C#N)CC1)c1cc(N=[N+]=[N-])c2c3c(cccc13)C(=O)[N-]2
REMARK SMILES IDX 6 1 7 2 8 3 9 4 10 5 11 6 13 7 12 8 14 9 15 10 16 12 19 13
REMARK SMILES IDX 20 14 17 15 18 16 5 17 4 18 3 19 21 20 22 21 33 22 23 23
REMARK SMILES IDX 32 24 28 25 27 26 31 27 29 28 36 29 30 30 34 31 35 32 24 33
REMARK SMILES IDX 25 34 26 35 2 36 1 37
REMARK H PARENT 15 11
ROOT
ATOM      1  N   UNL     1      40.850 135.963  15.667  1.00  0.00    -0.252 NA
ENDROOT
BRANCH   1   2
ATOM      2  C   UNL     1      39.648 136.216  15.233  1.00  0.00     0.214 C 
BRANCH   2   3
ATOM      3  O   UNL     1      39.432 137.312  14.380  1.00  0.00    -0.410 OA
BRANCH   3   4
ATOM      4  C   UNL     1      38.298 137.507  13.586  1.00  0.00     0.315 C 
ATOM      5  O   UNL     1      37.167 137.736  14.102  1.00  0.00    -0.251 OA
BRANCH   4   6
ATOM      6  C   UNL     1      38.435 137.426  12.100  1.00  0.00     0.105 C 
ATOM      7  C   UNL     1      37.369 136.566  11.425  1.00  0.00     0.030 C 
ATOM      8  C   UNL     1      38.795 136.037  11.575  1.00  0.00     0.022 C 
BRANCH   7   9
ATOM      9  C   UNL     1      36.997 136.979   9.999  1.00  0.00     0.160 C 
BRANCH   9  10
ATOM     10  O   UNL     1      37.864 136.367   9.089  1.00  0.00    -0.396 OA
ATOM     11  H   UNL     1      38.482 137.072   8.764  1.00  0.00     0.210 HD
ENDBRANCH   9  10
ENDBRANCH   7   9
ENDBRANCH   4   6
ENDBRANCH   3   4
ENDBRANCH   2   3
BRANCH   2  12
ATOM     12  C   UNL     1      38.532 135.293  15.645  1.00  0.00     0.133 C 
ATOM     13  C   UNL     1      37.908 134.449  14.540  1.00  0.00     0.034 C 
ATOM     14  C   UNL     1      38.787 133.791  15.596  1.00  0.00     0.034 C 
BRANCH  12  15
ATOM     15  C   UNL     1      37.599 135.763  16.681  1.00  0.00     0.079 C 
ATOM     16  N   UNL     1      36.868 136.130  17.504  1.00  0.00    -0.197 NA
ENDBRANCH  12  15
ENDBRANCH   2  12
ENDBRANCH   1   2
BRANCH   1  17
ATOM     17  C   UNL     1      41.266 136.065  17.066  1.00  0.00     0.167 C 
BRANCH  17  18
ATOM     18  C   UNL     1      42.581 135.326  17.344  1.00  0.00     0.140 C 
BRANCH  18  19
ATOM     19  N   UNL     1      42.343 134.011  17.956  1.00  0.00    -0.369 N 
BRANCH  19  20
ATOM     20  C   UNL     1      43.253 132.926  17.679  1.00  0.00     0.045 A 
ATOM     21  C   UNL     1      44.097 132.436  18.717  1.00  0.00     0.035 A 
ATOM     22  C   UNL     1      43.355 132.359  16.383  1.00  0.00     0.005 A 
ATOM     23  C   UNL     1      45.032 131.400  18.488  1.00  0.00     0.026 A 
ATOM     24  C   UNL     1      42.570 132.706  15.255  1.00  0.00     0.011 A 
ATOM     25  C   UNL     1      44.294 131.353  16.205  1.00  0.00    -0.021 A 
ATOM     26  C   UNL     1      45.113 130.872  17.188  1.00  0.00    -0.116 A 
ATOM     27  C   UNL     1      42.780 132.040  14.017  1.00  0.00     0.001 A 
ATOM     28  C   UNL     1      44.509 130.711  15.028  1.00  0.00     0.006 A 
ATOM     29  N   UNL     1      45.970 129.835  16.689  1.00  0.00    -0.622 NA
ATOM     30  C   UNL     1      43.764 131.031  13.894  1.00  0.00     0.011 A 
ATOM     31  C   UNL     1      45.566 129.749  15.313  1.00  0.00     0.086 C 
ATOM     32  O   UNL     1      46.070 128.943  14.485  1.00  0.00    -0.315 OA
BRANCH  23  33
ATOM     33  N   UNL     1      45.853 130.943  19.575  1.00  0.00    -0.062 NA
BRANCH  33  34
ATOM     34  N   UNL     1      45.566 131.139  20.756  1.00  0.00     0.005 N 
ATOM     35  N   UNL     1      45.274 131.338  21.934  1.00  0.00    -0.003 NA
ENDBRANCH  33  34
ENDBRANCH  23  33
ENDBRANCH  19  20
BRANCH  19  36
ATOM     36  C   UNL     1      41.032 133.717  18.556  1.00  0.00     0.113 C 
ATOM     37  C   UNL     1      41.051 133.981  20.058  1.00  0.00     0.027 C 
ENDBRANCH  19  36
ENDBRANCH  18  19
ENDBRANCH  17  18
ENDBRANCH   1  17
TORSDOF 15
ENDMDL
MODEL 8
REMARK VINA RESULT:      -4.6      2.705      5.899
REMARK SMILES CCN(CC/N=C(\OC(=O)[C@H]1C[C@@H]1CO)C1(C#N)CC1)c1cc(N=[N+]=[N-])c2c3c(cccc13)C(=O)[N-]2
REMARK SMILES IDX 6 1 7 2 8 3 9 4 10 5 11 6 13 7 12 8 14 9 15 10 16 12 19 13
REMARK SMILES IDX 20 14 17 15 18 16 5 17 4 18 3 19 21 20 22 21 33 22 23 23
REMARK SMILES IDX 32 24 28 25 27 26 31 27 29 28 36 29 30 30 34 31 35 32 24 33
REMARK SMILES IDX 25 34 26 35 2 36 1 37
REMARK H PARENT 15 11
ROOT
ATOM      1  N   UNL     1      44.771 131.518  17.349  1.00  0.00    -0.252 NA
ENDROOT
BRANCH   1   2
ATOM      2  C   UNL     1      44.035 131.516  16.274  1.00  0.00     0.214 C 
BRANCH   2   3
ATOM      3  O   UNL     1      44.111 130.436  15.378  1.00  0.00    -0.410 OA
BRANCH   3   4
ATOM      4  C   UNL     1      45.195 129.562  15.255  1.00  0.00     0.315 C 
ATOM      5  O   UNL     1      45.120 128.364  15.650  1.00  0.00    -0.251 OA
BRANCH   4   6
ATOM      6  C   UNL     1      46.466 130.069  14.656  1.00  0.00     0.105 C 
ATOM      7  C   UNL     1      46.542 129.915  13.139  1.00  0.00     0.030 C 
ATOM      8  C   UNL     1      47.351 128.984  14.041  1.00  0.00     0.022 C 
BRANCH   7   9
ATOM      9  C   UNL     1      47.378 130.970  12.410  1.00  0.00     0.160 C 
BRANCH   9  10
ATOM     10  O   UNL     1      47.977 131.823  13.343  1.00  0.00    -0.396 OA
ATOM     11  H   UNL     1      48.117 132.693  12.887  1.00  0.00     0.210 HD
ENDBRANCH   9  10
ENDBRANCH   7   9
ENDBRANCH   4   6
ENDBRANCH   3   4
ENDBRANCH   2   3
BRANCH   2  12
ATOM     12  C   UNL     1      43.099 132.675  16.049  1.00  0.00     0.133 C 
ATOM     13  C   UNL     1      43.748 134.025  15.769  1.00  0.00     0.034 C 
ATOM     14  C   UNL     1      43.029 133.281  14.652  1.00  0.00     0.034 C 
BRANCH  12  15
ATOM     15  C   UNL     1      41.862 132.723  16.843  1.00  0.00     0.079 C 
ATOM     16  N   UNL     1      40.890 132.756  17.476  1.00  0.00    -0.197 NA
ENDBRANCH  12  15
ENDBRANCH   2  12
ENDBRANCH   1   2
BRANCH   1  17
ATOM     17  C   UNL     1      44.262 131.732  18.703  1.00  0.00     0.167 C 
BRANCH  17  18
ATOM     18  C   UNL     1      45.172 131.123  19.777  1.00  0.00     0.140 C 
BRANCH  18  19
ATOM     19  N   UNL     1      44.990 131.783  21.077  1.00  0.00    -0.369 N 
BRANCH  19  20
ATOM     20  C   UNL     1      44.837 133.216  21.128  1.00  0.00     0.045 A 
ATOM     21  C   UNL     1      43.549 133.792  20.925  1.00  0.00     0.035 A 
ATOM     22  C   UNL     1      45.948 134.072  21.340  1.00  0.00     0.005 A 
ATOM     23  C   UNL     1      43.352 135.193  20.929  1.00  0.00     0.026 A 
ATOM     24  C   UNL     1      47.281 133.664  21.591  1.00  0.00     0.011 A 
ATOM     25  C   UNL     1      45.706 135.438  21.323  1.00  0.00    -0.021 A 
ATOM     26  C   UNL     1      44.479 136.008  21.127  1.00  0.00    -0.116 A 
ATOM     27  C   UNL     1      48.293 134.640  21.795  1.00  0.00     0.001 A 
ATOM     28  C   UNL     1      46.662 136.383  21.513  1.00  0.00     0.006 A 
ATOM     29  N   UNL     1      44.559 137.440  21.169  1.00  0.00    -0.622 NA
ATOM     30  C   UNL     1      47.988 136.021  21.753  1.00  0.00     0.011 A 
ATOM     31  C   UNL     1      45.957 137.656  21.417  1.00  0.00     0.086 C 
ATOM     32  O   UNL     1      46.480 138.797  21.532  1.00  0.00    -0.315 OA
BRANCH  23  33
ATOM     33  N   UNL     1      42.030 135.715  20.722  1.00  0.00    -0.062 NA
BRANCH  33  34
ATOM     34  N   UNL     1      41.106 135.525  21.513  1.00  0.00     0.005 N 
ATOM     35  N   UNL     1      40.188 135.333  22.308  1.00  0.00    -0.003 NA
ENDBRANCH  33  34
ENDBRANCH  23  33
ENDBRANCH  19  20
BRANCH  19  36
ATOM     36  C   UNL     1      45.298 131.046  22.313  1.00  0.00     0.113 C 
ATOM     37  C   UNL     1      44.194 131.238  23.349  1.00  0.00     0.027 C 
ENDBRANCH  19  36
ENDBRANCH  18  19
ENDBRANCH  17  18
ENDBRANCH   1  17
TORSDOF 15
ENDMDL
MODEL 9
REMARK VINA RESULT:      -4.6      2.322      4.906
REMARK SMILES CCN(CC/N=C(\OC(=O)[C@H]1C[C@@H]1CO)C1(C#N)CC1)c1cc(N=[N+]=[N-])c2c3c(cccc13)C(=O)[N-]2
REMARK SMILES IDX 6 1 7 2 8 3 9 4 10 5 11 6 13 7 12 8 14 9 15 10 16 12 19 13
REMARK SMILES IDX 20 14 17 15 18 16 5 17 4 18 3 19 21 20 22 21 33 22 23 23
REMARK SMILES IDX 32 24 28 25 27 26 31 27 29 28 36 29 30 30 34 31 35 32 24 33
REMARK SMILES IDX 25 34 26 35 2 36 1 37
REMARK H PARENT 15 11
ROOT
ATOM      1  N   UNL     1      43.403 132.843  17.270  1.00  0.00    -0.252 NA
ENDROOT
BRANCH   1   2
ATOM      2  C   UNL     1      43.459 132.976  15.975  1.00  0.00     0.214 C 
BRANCH   2   3
ATOM      3  O   UNL     1      44.392 132.229  15.237  1.00  0.00    -0.410 OA
BRANCH   3   4
ATOM      4  C   UNL     1      45.437 131.476  15.781  1.00  0.00     0.315 C 
ATOM      5  O   UNL     1      45.531 131.289  17.028  1.00  0.00    -0.251 OA
BRANCH   4   6
ATOM      6  C   UNL     1      46.464 130.897  14.864  1.00  0.00     0.105 C 
ATOM      7  C   UNL     1      45.927 130.540  13.479  1.00  0.00     0.030 C 
ATOM      8  C   UNL     1      46.223 129.433  14.492  1.00  0.00     0.022 C 
BRANCH   7   9
ATOM      9  C   UNL     1      46.940 130.636  12.336  1.00  0.00     0.160 C 
BRANCH   9  10
ATOM     10  O   UNL     1      48.081 131.316  12.772  1.00  0.00    -0.396 OA
ATOM     11  H   UNL     1      48.842 130.686  12.683  1.00  0.00     0.210 HD
ENDBRANCH   9  10
ENDBRANCH   7   9
ENDBRANCH   4   6
ENDBRANCH   3   4
ENDBRANCH   2   3
BRANCH   2  12
ATOM     12  C   UNL     1      42.487 133.917  15.313  1.00  0.00     0.133 C 
ATOM     13  C   UNL     1      41.689 133.354  14.144  1.00  0.00     0.034 C 
ATOM     14  C   UNL     1      40.997 133.639  15.470  1.00  0.00     0.034 C 
BRANCH  12  15
ATOM     15  C   UNL     1      42.877 135.330  15.186  1.00  0.00     0.079 C 
ATOM     16  N   UNL     1      43.190 136.443  15.092  1.00  0.00    -0.197 NA
ENDBRANCH  12  15
ENDBRANCH   2  12
ENDBRANCH   1   2
BRANCH   1  17
ATOM     17  C   UNL     1      43.606 133.931  18.227  1.00  0.00     0.167 C 
BRANCH  17  18
ATOM     18  C   UNL     1      42.288 134.457  18.808  1.00  0.00     0.140 C 
BRANCH  18  19
ATOM     19  N   UNL     1      42.521 135.494  19.823  1.00  0.00    -0.369 N 
BRANCH  19  20
ATOM     20  C   UNL     1      43.873 135.892  20.131  1.00  0.00     0.045 A 
ATOM     21  C   UNL     1      44.455 136.995  19.441  1.00  0.00     0.035 A 
ATOM     22  C   UNL     1      44.654 135.185  21.082  1.00  0.00     0.005 A 
ATOM     23  C   UNL     1      45.788 137.402  19.680  1.00  0.00     0.026 A 
ATOM     24  C   UNL     1      44.218 134.095  21.874  1.00  0.00     0.011 A 
ATOM     25  C   UNL     1      45.959 135.615  21.273  1.00  0.00    -0.021 A 
ATOM     26  C   UNL     1      46.534 136.669  20.619  1.00  0.00    -0.116 A 
ATOM     27  C   UNL     1      45.114 133.490  22.797  1.00  0.00     0.001 A 
ATOM     28  C   UNL     1      46.828 135.045  22.147  1.00  0.00     0.006 A 
ATOM     29  N   UNL     1      47.893 136.861  21.039  1.00  0.00    -0.622 NA
ATOM     30  C   UNL     1      46.440 133.964  22.938  1.00  0.00     0.011 A 
ATOM     31  C   UNL     1      48.056 135.818  22.013  1.00  0.00     0.086 C 
ATOM     32  O   UNL     1      49.125 135.617  22.651  1.00  0.00    -0.315 OA
BRANCH  23  33
ATOM     33  N   UNL     1      46.319 138.524  18.958  1.00  0.00    -0.062 NA
BRANCH  33  34
ATOM     34  N   UNL     1      47.458 138.538  18.490  1.00  0.00     0.005 N 
ATOM     35  N   UNL     1      48.593 138.555  18.017  1.00  0.00    -0.003 NA
ENDBRANCH  33  34
ENDBRANCH  23  33
ENDBRANCH  19  20
BRANCH  19  36
ATOM     36  C   UNL     1      41.432 135.870  20.738  1.00  0.00     0.113 C 
ATOM     37  C   UNL     1      40.764 134.631  21.325  1.00  0.00     0.027 C 
ENDBRANCH  19  36
ENDBRANCH  18  19
ENDBRANCH  17  18
ENDBRANCH   1  17
TORSDOF 15
ENDMDL


