REMARK SMILES C#CCOC(=O)C[C@@H]1[CH][C]2C=CC=C[C@H]2CC1
REMARK SMILES IDX 4 1 3 2 2 3 1 4 5 5 6 6 7 7 8 8 9 9 17 10 10 11 16 12 11 13
REMARK SMILES IDX 15 14 12 15 14 16 13 17
REMARK H PARENT
ROOT
ATOM      1  O   UNL     1      -3.664  -0.280   1.498  1.00  0.00    -0.452 OA
ENDROOT
BRANCH   1   2
ATOM      2  C   UNL     1      -4.439   0.214   2.583  1.00  0.00     0.322 C 
BRANCH   2   3
ATOM      3  C   UNL     1      -4.274  -0.672   3.736  1.00  0.00    -0.065 C 
ATOM      4  C   UNL     1      -4.138  -1.402   4.686  1.00  0.00     0.007 C 
ENDBRANCH   2   3
ENDBRANCH   1   2
BRANCH   1   5
ATOM      5  C   UNL     1      -3.609   0.362   0.258  1.00  0.00     0.307 C 
ATOM      6  O   UNL     1      -4.261   1.423   0.052  1.00  0.00    -0.252 OA
BRANCH   5   7
ATOM      7  C   UNL     1      -2.729  -0.192  -0.821  1.00  0.00     0.130 C 
BRANCH   7   8
ATOM      8  C   UNL     1      -1.358   0.510  -0.855  1.00  0.00     0.023 C 
ATOM      9  C   UNL     1      -0.581   0.054  -2.075  1.00  0.00    -0.019 C 
ATOM     10  C   UNL     1      -0.573   0.283   0.458  1.00  0.00     0.009 C 
ATOM     11  C   UNL     1       0.814  -0.092  -2.060  1.00  0.00    -0.045 C 
ATOM     12  C   UNL     1       0.888   0.722   0.317  1.00  0.00     0.013 C 
ATOM     13  C   UNL     1       1.552  -0.296  -3.324  1.00  0.00     0.004 C 
ATOM     14  C   UNL     1       1.583  -0.131  -0.752  1.00  0.00     0.041 C 
ATOM     15  C   UNL     1       2.880  -0.160  -3.348  1.00  0.00    -0.000 C 
ATOM     16  C   UNL     1       3.021   0.297  -0.940  1.00  0.00    -0.019 C 
ATOM     17  C   UNL     1       3.627   0.214  -2.131  1.00  0.00    -0.004 C 
ENDBRANCH   7   8
ENDBRANCH   5   7
ENDBRANCH   1   5
TORSDOF 5


