REMARK SMILES C#CCOC(=O)C[C@@H]1CC[C@H]2C(=O)[N-]c3c(N=[N+]=[N-])cc(Cl)c1c32
REMARK SMILES IDX 5 1 6 2 4 3 3 4 2 5 1 6 7 7 8 8 23 9 9 10 21 11 24 12 10 13
REMARK SMILES IDX 20 14 15 15 11 16 16 17 14 18 12 19 22 20 13 21 17 22 18 23
REMARK SMILES IDX 19 24
REMARK H PARENT
ROOT
ATOM      1  C   UNL     1       0.594   1.975   1.731  1.00  0.00     0.307 C 
ATOM      2  O   UNL     1       1.724   2.463   1.459  1.00  0.00    -0.252 OA
ENDROOT
BRANCH   1   3
ATOM      3  O   UNL     1      -0.510   2.234   0.915  1.00  0.00    -0.452 OA
BRANCH   3   4
ATOM      4  C   UNL     1      -0.418   2.967  -0.299  1.00  0.00     0.322 C 
BRANCH   4   5
ATOM      5  C   UNL     1      -1.706   2.906  -0.990  1.00  0.00    -0.065 C 
ATOM      6  C   UNL     1      -2.768   2.849  -1.558  1.00  0.00     0.007 C 
ENDBRANCH   4   5
ENDBRANCH   3   4
ENDBRANCH   1   3
BRANCH   1   7
ATOM      7  C   UNL     1       0.431   1.077   2.924  1.00  0.00     0.131 C 
BRANCH   7   8
ATOM      8  C   UNL     1       0.256  -0.410   2.532  1.00  0.00     0.032 C 
ATOM      9  C   UNL     1      -0.977  -0.603   1.653  1.00  0.00    -0.023 A 
ATOM     10  C   UNL     1       1.582  -1.002   1.922  1.00  0.00     0.010 C 
ATOM     11  C   UNL     1      -2.302  -0.631   2.153  1.00  0.00     0.045 A 
ATOM     12  C   UNL     1      -0.796  -0.844   0.294  1.00  0.00    -0.048 A 
ATOM     13  C   UNL     1       1.405  -1.815   0.618  1.00  0.00     0.015 C 
ATOM     14  C   UNL     1      -3.371  -0.967   1.295  1.00  0.00     0.029 A 
ATOM     15  C   UNL     1      -1.818  -1.279  -0.518  1.00  0.00    -0.120 A 
ATOM     16  C   UNL     1       0.521  -1.030  -0.350  1.00  0.00     0.066 C 
ATOM     17  C   UNL     1      -3.140  -1.327  -0.045  1.00  0.00     0.025 A 
ATOM     18  N   UNL     1      -1.327  -1.860  -1.719  1.00  0.00    -0.626 NA
ATOM     19  C   UNL     1       0.091  -1.763  -1.583  1.00  0.00     0.062 C 
ATOM     20  Cl  UNL     1      -2.657  -0.327   3.849  1.00  0.00    -0.084 Cl
ATOM     21  O   UNL     1       0.887  -2.215  -2.447  1.00  0.00    -0.320 OA
BRANCH  17  22
ATOM     22  N   UNL     1      -4.245  -1.759  -0.852  1.00  0.00    -0.062 NA
BRANCH  22  23
ATOM     23  N   UNL     1      -4.131  -2.026  -2.049  1.00  0.00     0.005 N 
ATOM     24  N   UNL     1      -4.022  -2.294  -3.245  1.00  0.00    -0.003 NA
ENDBRANCH  22  23
ENDBRANCH  17  22
ENDBRANCH   7   8
ENDBRANCH   1   7
TORSDOF 7


