REMARK SMILES Cc1n[nH+]n(C/C(O)=N\c2cccc(C#N)c2C)c1-c1cc2ccccc2c2ccccc12
REMARK SMILES IDX 7 1 8 2 9 4 10 5 11 6 17 7 12 8 14 9 13 10 18 11 15 12 16 13
REMARK SMILES IDX 6 14 5 15 19 16 4 17 2 18 3 19 1 21 20 22 21 23 33 24 22 25
REMARK SMILES IDX 32 26 28 27 23 28 27 29 31 30 29 31 24 32 26 33 30 34 25 35
REMARK H PARENT 8 3 4 20
ROOT
ATOM      1  C   UNL     1      -1.095  -3.216   1.671  1.00  0.00     0.212 C 
ENDROOT
BRANCH   1   2
ATOM      2  O   UNL     1      -1.788  -3.711   2.773  1.00  0.00    -0.495 OA
ATOM      3  H   UNL     1      -1.321  -3.902   3.650  1.00  0.00     0.295 HD
ENDBRANCH   1   2
BRANCH   1   4
ATOM      4  N   UNL     1      -1.769  -3.000   0.576  1.00  0.00    -0.216 NA
BRANCH   4   5
ATOM      5  C   UNL     1      -1.287  -2.552  -0.703  1.00  0.00     0.071 A 
ATOM      6  C   UNL     1      -0.232  -3.225  -1.342  1.00  0.00     0.029 A 
ATOM      7  C   UNL     1      -1.978  -1.528  -1.392  1.00  0.00    -0.007 A 
ATOM      8  C   UNL     1       0.201  -2.828  -2.606  1.00  0.00     0.004 A 
ATOM      9  C   UNL     1      -1.552  -1.157  -2.691  1.00  0.00     0.057 A 
ATOM     10  C   UNL     1      -0.451  -1.794  -3.275  1.00  0.00     0.020 A 
ATOM     11  C   UNL     1      -3.210  -0.906  -0.774  1.00  0.00     0.048 C 
BRANCH   9  12
ATOM     12  C   UNL     1      -2.231  -0.132  -3.448  1.00  0.00     0.099 C 
ATOM     13  N   UNL     1      -2.773   0.691  -4.054  1.00  0.00    -0.192 NA
ENDBRANCH   9  12
ENDBRANCH   4   5
ENDBRANCH   1   4
BRANCH   1  14
ATOM     14  C   UNL     1       0.379  -2.918   1.824  1.00  0.00     0.289 C 
BRANCH  14  15
ATOM     15  N   UNL     1       0.577  -1.786   2.730  1.00  0.00    -0.119 N 
ATOM     16  C   UNL     1       0.601  -0.470   2.429  1.00  0.00     0.137 A 
ATOM     17  N   UNL     1       0.725  -1.895   4.042  1.00  0.00    -0.016 N 
ATOM     18  C   UNL     1       0.809   0.202   3.623  1.00  0.00     0.137 A 
ATOM     19  N   UNL     1       0.867  -0.709   4.616  1.00  0.00     0.020 NA
ATOM     20  H   UNL     1       0.735  -2.798   4.565  1.00  0.00     0.526 HD
ATOM     21  C   UNL     1       0.927   1.677   3.831  1.00  0.00     0.076 C 
BRANCH  16  22
ATOM     22  C   UNL     1       0.514   0.119   1.072  1.00  0.00     0.014 A 
ATOM     23  C   UNL     1       1.534  -0.180   0.169  1.00  0.00     0.020 A 
ATOM     24  C   UNL     1      -0.522   1.005   0.695  1.00  0.00    -0.008 A 
ATOM     25  C   UNL     1       1.546   0.367  -1.115  1.00  0.00    -0.017 A 
ATOM     26  C   UNL     1      -1.591   1.281   1.576  1.00  0.00     0.009 A 
ATOM     27  C   UNL     1      -0.506   1.614  -0.598  1.00  0.00    -0.010 A 
ATOM     28  C   UNL     1       2.572   0.003  -2.003  1.00  0.00     0.009 A 
ATOM     29  C   UNL     1       0.535   1.280  -1.518  1.00  0.00    -0.010 A 
ATOM     30  C   UNL     1      -2.597   2.173   1.221  1.00  0.00     0.001 A 
ATOM     31  C   UNL     1      -1.542   2.526  -0.921  1.00  0.00     0.009 A 
ATOM     32  C   UNL     1       2.607   0.526  -3.292  1.00  0.00     0.001 A 
ATOM     33  C   UNL     1       0.602   1.800  -2.836  1.00  0.00     0.009 A 
ATOM     34  C   UNL     1      -2.567   2.800  -0.017  1.00  0.00     0.001 A 
ATOM     35  C   UNL     1       1.626   1.421  -3.707  1.00  0.00     0.001 A 
ENDBRANCH  16  22
ENDBRANCH  14  15
ENDBRANCH   1  14
TORSDOF 7


