MODEL 1
REMARK VINA RESULT:      -9.6      0.000      0.000
REMARK SMILES Cc1nnn(Cc2nc3cc4ccccc4cc3[n-]2)c1-c1nnc([C@@H]2C[C@@H]2C)o1
REMARK SMILES IDX 1 1 2 2 3 3 4 4 5 5 20 6 21 7 22 8 29 9 23 10 24 11 25 12
REMARK SMILES IDX 26 13 27 14 28 15 6 16 7 17 8 18 19 19 9 20 18 21 10 22
REMARK SMILES IDX 17 23 11 24 16 25 12 26 15 27 13 28 14 29
REMARK H PARENT
ROOT
ATOM      1  C   UNL     1      41.416 137.165  18.481  1.00  0.00     0.071 C 
ATOM      2  C   UNL     1      41.970 135.835  18.878  1.00  0.00     0.093 A 
ATOM      3  N   UNL     1      43.006 135.673  19.724  1.00  0.00    -0.135 NA
ATOM      4  N   UNL     1      43.217 134.369  19.831  1.00  0.00    -0.066 NA
ATOM      5  N   UNL     1      42.349 133.692  19.094  1.00  0.00    -0.236 N 
ATOM      6  C   UNL     1      41.549 134.582  18.466  1.00  0.00     0.149 A 
ENDROOT
BRANCH   6   7
ATOM      7  C   UNL     1      40.460 134.271  17.516  1.00  0.00     0.267 A 
ATOM      8  N   UNL     1      39.831 133.081  17.448  1.00  0.00    -0.106 NA
ATOM      9  O   UNL     1      39.977 135.107  16.629  1.00  0.00    -0.419 OA
ATOM     10  N   UNL     1      38.926 133.187  16.488  1.00  0.00    -0.112 NA
ATOM     11  C   UNL     1      39.035 134.440  16.009  1.00  0.00     0.220 A 
BRANCH  11  12
ATOM     12  C   UNL     1      38.196 134.982  14.891  1.00  0.00     0.081 C 
ATOM     13  C   UNL     1      37.987 134.026  13.720  1.00  0.00     0.017 C 
ATOM     14  C   UNL     1      38.894 135.238  13.553  1.00  0.00    -0.001 C 
ATOM     15  C   UNL     1      40.387 134.912  13.427  1.00  0.00     0.008 C 
ENDBRANCH  11  12
ENDBRANCH   6   7
BRANCH   5  16
ATOM     16  C   UNL     1      42.395 132.239  18.944  1.00  0.00     0.173 C 
BRANCH  16  17
ATOM     17  C   UNL     1      43.369 131.869  17.872  1.00  0.00    -0.060 A 
ATOM     18  N   UNL     1      43.105 132.045  16.551  1.00  0.00    -0.438 NA
ATOM     19  N   UNL     1      44.553 131.259  18.135  1.00  0.00    -0.438 NA
ATOM     20  C   UNL     1      44.197 131.531  15.966  1.00  0.00    -0.038 A 
ATOM     21  C   UNL     1      45.059 131.062  16.910  1.00  0.00    -0.038 A 
ATOM     22  C   UNL     1      44.471 131.445  14.604  1.00  0.00     0.012 A 
ATOM     23  C   UNL     1      46.270 130.466  16.578  1.00  0.00     0.012 A 
ATOM     24  C   UNL     1      45.689 130.847  14.216  1.00  0.00    -0.018 A 
ATOM     25  C   UNL     1      46.593 130.351  15.209  1.00  0.00    -0.018 A 
ATOM     26  C   UNL     1      46.024 130.729  12.858  1.00  0.00     0.009 A 
ATOM     27  C   UNL     1      47.799 129.753  14.809  1.00  0.00     0.009 A 
ATOM     28  C   UNL     1      47.230 130.130  12.481  1.00  0.00     0.001 A 
ATOM     29  C   UNL     1      48.111 129.645  13.452  1.00  0.00     0.001 A 
ENDBRANCH  16  17
ENDBRANCH   5  16
TORSDOF 4
ENDMDL
MODEL 2
REMARK VINA RESULT:      -9.3      1.267      1.985
REMARK SMILES Cc1nnn(Cc2nc3cc4ccccc4cc3[n-]2)c1-c1nnc([C@@H]2C[C@@H]2C)o1
REMARK SMILES IDX 1 1 2 2 3 3 4 4 5 5 20 6 21 7 22 8 29 9 23 10 24 11 25 12
REMARK SMILES IDX 26 13 27 14 28 15 6 16 7 17 8 18 19 19 9 20 18 21 10 22
REMARK SMILES IDX 17 23 11 24 16 25 12 26 15 27 13 28 14 29
REMARK H PARENT
ROOT
ATOM      1  C   UNL     1      42.844 137.315  19.514  1.00  0.00     0.071 C 
ATOM      2  C   UNL     1      42.692 135.829  19.467  1.00  0.00     0.093 A 
ATOM      3  N   UNL     1      43.284 134.984  20.333  1.00  0.00    -0.135 NA
ATOM      4  N   UNL     1      42.929 133.758  19.980  1.00  0.00    -0.066 NA
ATOM      5  N   UNL     1      42.124 133.787  18.928  1.00  0.00    -0.236 N 
ATOM      6  C   UNL     1      41.957 135.079  18.565  1.00  0.00     0.149 A 
ENDROOT
BRANCH   6   7
ATOM      7  C   UNL     1      41.164 135.577  17.421  1.00  0.00     0.267 A 
ATOM      8  N   UNL     1      40.140 136.445  17.530  1.00  0.00    -0.106 NA
ATOM      9  O   UNL     1      41.359 135.237  16.170  1.00  0.00    -0.419 OA
ATOM     10  N   UNL     1      39.688 136.651  16.303  1.00  0.00    -0.112 NA
ATOM     11  C   UNL     1      40.457 135.902  15.492  1.00  0.00     0.220 A 
BRANCH  11  12
ATOM     12  C   UNL     1      40.277 135.829  14.005  1.00  0.00     0.081 C 
ATOM     13  C   UNL     1      38.896 136.241  13.502  1.00  0.00     0.017 C 
ATOM     14  C   UNL     1      39.307 134.775  13.468  1.00  0.00    -0.001 C 
ATOM     15  C   UNL     1      38.568 133.877  14.469  1.00  0.00     0.008 C 
ENDBRANCH  11  12
ENDBRANCH   6   7
BRANCH   5  16
ATOM     16  C   UNL     1      41.642 132.580  18.261  1.00  0.00     0.173 C 
BRANCH  16  17
ATOM     17  C   UNL     1      42.702 132.042  17.354  1.00  0.00    -0.060 A 
ATOM     18  N   UNL     1      43.874 131.534  17.817  1.00  0.00    -0.438 NA
ATOM     19  N   UNL     1      42.604 132.094  16.001  1.00  0.00    -0.438 NA
ATOM     20  C   UNL     1      44.529 131.239  16.685  1.00  0.00    -0.038 A 
ATOM     21  C   UNL     1      43.773 131.573  15.604  1.00  0.00    -0.038 A 
ATOM     22  C   UNL     1      45.799 130.683  16.559  1.00  0.00     0.012 A 
ATOM     23  C   UNL     1      44.219 131.383  14.300  1.00  0.00     0.012 A 
ATOM     24  C   UNL     1      46.296 130.470  15.255  1.00  0.00    -0.018 A 
ATOM     25  C   UNL     1      45.502 130.825  14.119  1.00  0.00    -0.018 A 
ATOM     26  C   UNL     1      47.570 129.916  15.060  1.00  0.00     0.009 A 
ATOM     27  C   UNL     1      46.010 130.614  12.827  1.00  0.00     0.009 A 
ATOM     28  C   UNL     1      48.057 129.713  13.766  1.00  0.00     0.001 A 
ATOM     29  C   UNL     1      47.282 130.061  12.656  1.00  0.00     0.001 A 
ENDBRANCH  16  17
ENDBRANCH   5  16
TORSDOF 4
ENDMDL
MODEL 3
REMARK VINA RESULT:      -9.1      0.873      1.111
REMARK SMILES Cc1nnn(Cc2nc3cc4ccccc4cc3[n-]2)c1-c1nnc([C@@H]2C[C@@H]2C)o1
REMARK SMILES IDX 1 1 2 2 3 3 4 4 5 5 20 6 21 7 22 8 29 9 23 10 24 11 25 12
REMARK SMILES IDX 26 13 27 14 28 15 6 16 7 17 8 18 19 19 9 20 18 21 10 22
REMARK SMILES IDX 17 23 11 24 16 25 12 26 15 27 13 28 14 29
REMARK H PARENT
ROOT
ATOM      1  C   UNL     1      40.783 137.569  18.302  1.00  0.00     0.071 C 
ATOM      2  C   UNL     1      41.405 136.272  18.709  1.00  0.00     0.093 A 
ATOM      3  N   UNL     1      42.555 136.173  19.402  1.00  0.00    -0.135 NA
ATOM      4  N   UNL     1      42.795 134.882  19.571  1.00  0.00    -0.066 NA
ATOM      5  N   UNL     1      41.836 134.151  19.022  1.00  0.00    -0.236 N 
ATOM      6  C   UNL     1      40.942 134.992  18.456  1.00  0.00     0.149 A 
ENDROOT
BRANCH   6   7
ATOM      7  C   UNL     1      39.729 134.610  17.702  1.00  0.00     0.267 A 
ATOM      8  N   UNL     1      38.574 134.217  18.274  1.00  0.00    -0.106 NA
ATOM      9  O   UNL     1      39.629 134.607  16.395  1.00  0.00    -0.419 OA
ATOM     10  N   UNL     1      37.731 133.965  17.286  1.00  0.00    -0.112 NA
ATOM     11  C   UNL     1      38.403 134.217  16.148  1.00  0.00     0.220 A 
BRANCH  11  12
ATOM     12  C   UNL     1      37.818 134.047  14.778  1.00  0.00     0.081 C 
ATOM     13  C   UNL     1      38.552 134.791  13.666  1.00  0.00     0.017 C 
ATOM     14  C   UNL     1      37.185 135.279  14.128  1.00  0.00    -0.001 C 
ATOM     15  C   UNL     1      37.202 136.606  14.897  1.00  0.00     0.008 C 
ENDBRANCH  11  12
ENDBRANCH   6   7
BRANCH   5  16
ATOM     16  C   UNL     1      41.877 132.691  18.974  1.00  0.00     0.173 C 
BRANCH  16  17
ATOM     17  C   UNL     1      42.877 132.243  17.956  1.00  0.00    -0.060 A 
ATOM     18  N   UNL     1      42.630 132.285  16.620  1.00  0.00    -0.438 NA
ATOM     19  N   UNL     1      44.070 131.692  18.294  1.00  0.00    -0.438 NA
ATOM     20  C   UNL     1      43.743 131.744  16.104  1.00  0.00    -0.038 A 
ATOM     21  C   UNL     1      44.600 131.390  17.101  1.00  0.00    -0.038 A 
ATOM     22  C   UNL     1      44.042 131.534  14.761  1.00  0.00     0.012 A 
ATOM     23  C   UNL     1      45.831 130.795  16.845  1.00  0.00     0.012 A 
ATOM     24  C   UNL     1      45.280 130.931  14.449  1.00  0.00    -0.018 A 
ATOM     25  C   UNL     1      46.179 130.557  15.498  1.00  0.00    -0.018 A 
ATOM     26  C   UNL     1      45.639 130.691  13.114  1.00  0.00     0.009 A 
ATOM     27  C   UNL     1      47.404 129.953  15.176  1.00  0.00     0.009 A 
ATOM     28  C   UNL     1      46.865 130.089  12.814  1.00  0.00     0.001 A 
ATOM     29  C   UNL     1      47.741 129.722  13.840  1.00  0.00     0.001 A 
ENDBRANCH  16  17
ENDBRANCH   5  16
TORSDOF 4
ENDMDL
MODEL 4
REMARK VINA RESULT:      -8.8      3.258      5.154
REMARK SMILES Cc1nnn(Cc2nc3cc4ccccc4cc3[n-]2)c1-c1nnc([C@@H]2C[C@@H]2C)o1
REMARK SMILES IDX 1 1 2 2 3 3 4 4 5 5 20 6 21 7 22 8 29 9 23 10 24 11 25 12
REMARK SMILES IDX 26 13 27 14 28 15 6 16 7 17 8 18 19 19 9 20 18 21 10 22
REMARK SMILES IDX 17 23 11 24 16 25 12 26 15 27 13 28 14 29
REMARK H PARENT
ROOT
ATOM      1  C   UNL     1      45.283 133.523  23.009  1.00  0.00     0.071 C 
ATOM      2  C   UNL     1      44.512 132.802  21.951  1.00  0.00     0.093 A 
ATOM      3  N   UNL     1      44.345 131.466  21.920  1.00  0.00    -0.135 NA
ATOM      4  N   UNL     1      43.620 131.193  20.845  1.00  0.00    -0.066 NA
ATOM      5  N   UNL     1      43.308 132.304  20.195  1.00  0.00    -0.236 N 
ATOM      6  C   UNL     1      43.862 133.345  20.856  1.00  0.00     0.149 A 
ENDROOT
BRANCH   6   7
ATOM      7  C   UNL     1      43.799 134.769  20.467  1.00  0.00     0.267 A 
ATOM      8  N   UNL     1      42.663 135.492  20.419  1.00  0.00    -0.106 NA
ATOM      9  O   UNL     1      44.832 135.498  20.122  1.00  0.00    -0.419 OA
ATOM     10  N   UNL     1      43.007 136.711  20.034  1.00  0.00    -0.112 NA
ATOM     11  C   UNL     1      44.341 136.686  19.865  1.00  0.00     0.220 A 
BRANCH  11  12
ATOM     12  C   UNL     1      45.148 137.867  19.416  1.00  0.00     0.081 C 
ATOM     13  C   UNL     1      46.660 137.695  19.527  1.00  0.00     0.017 C 
ATOM     14  C   UNL     1      45.933 138.628  20.486  1.00  0.00    -0.001 C 
ATOM     15  C   UNL     1      45.866 138.134  21.937  1.00  0.00     0.008 C 
ENDBRANCH  11  12
ENDBRANCH   6   7
BRANCH   5  16
ATOM     16  C   UNL     1      42.588 132.306  18.923  1.00  0.00     0.173 C 
BRANCH  16  17
ATOM     17  C   UNL     1      43.484 131.815  17.831  1.00  0.00    -0.060 A 
ATOM     18  N   UNL     1      44.672 131.203  18.079  1.00  0.00    -0.438 NA
ATOM     19  N   UNL     1      43.214 132.013  16.516  1.00  0.00    -0.438 NA
ATOM     20  C   UNL     1      45.154 130.996  16.845  1.00  0.00    -0.038 A 
ATOM     21  C   UNL     1      44.286 131.479  15.914  1.00  0.00    -0.038 A 
ATOM     22  C   UNL     1      46.358 130.394  16.492  1.00  0.00     0.012 A 
ATOM     23  C   UNL     1      44.543 131.405  14.550  1.00  0.00     0.012 A 
ATOM     24  C   UNL     1      46.666 130.295  15.118  1.00  0.00    -0.018 A 
ATOM     25  C   UNL     1      45.754 130.806  14.141  1.00  0.00    -0.018 A 
ATOM     26  C   UNL     1      47.866 129.701  14.698  1.00  0.00     0.009 A 
ATOM     27  C   UNL     1      46.074 130.707  12.778  1.00  0.00     0.009 A 
ATOM     28  C   UNL     1      48.165 129.611  13.336  1.00  0.00     0.001 A 
ATOM     29  C   UNL     1      47.275 130.112  12.382  1.00  0.00     0.001 A 
ENDBRANCH  16  17
ENDBRANCH   5  16
TORSDOF 4
ENDMDL
MODEL 5
REMARK VINA RESULT:      -8.7      2.715      3.963
REMARK SMILES Cc1nnn(Cc2nc3cc4ccccc4cc3[n-]2)c1-c1nnc([C@@H]2C[C@@H]2C)o1
REMARK SMILES IDX 1 1 2 2 3 3 4 4 5 5 20 6 21 7 22 8 29 9 23 10 24 11 25 12
REMARK SMILES IDX 26 13 27 14 28 15 6 16 7 17 8 18 19 19 9 20 18 21 10 22
REMARK SMILES IDX 17 23 11 24 16 25 12 26 15 27 13 28 14 29
REMARK H PARENT
ROOT
ATOM      1  C   UNL     1      44.850 134.535  22.071  1.00  0.00     0.071 C 
ATOM      2  C   UNL     1      43.992 133.596  21.287  1.00  0.00     0.093 A 
ATOM      3  N   UNL     1      43.580 132.396  21.740  1.00  0.00    -0.135 NA
ATOM      4  N   UNL     1      42.852 131.849  20.779  1.00  0.00    -0.066 NA
ATOM      5  N   UNL     1      42.772 132.658  19.732  1.00  0.00    -0.236 N 
ATOM      6  C   UNL     1      43.490 133.770  20.009  1.00  0.00     0.149 A 
ENDROOT
BRANCH   6   7
ATOM      7  C   UNL     1      43.705 134.925  19.112  1.00  0.00     0.267 A 
ATOM      8  N   UNL     1      44.281 134.843  17.897  1.00  0.00    -0.106 NA
ATOM      9  O   UNL     1      43.366 136.161  19.387  1.00  0.00    -0.419 OA
ATOM     10  N   UNL     1      44.295 136.071  17.402  1.00  0.00    -0.112 NA
ATOM     11  C   UNL     1      43.723 136.855  18.334  1.00  0.00     0.220 A 
BRANCH  11  12
ATOM     12  C   UNL     1      43.547 138.337  18.185  1.00  0.00     0.081 C 
ATOM     13  C   UNL     1      42.631 138.984  19.219  1.00  0.00     0.017 C 
ATOM     14  C   UNL     1      42.161 138.839  17.778  1.00  0.00    -0.001 C 
ATOM     15  C   UNL     1      41.039 137.814  17.568  1.00  0.00     0.008 C 
ENDBRANCH  11  12
ENDBRANCH   6   7
BRANCH   5  16
ATOM     16  C   UNL     1      42.107 132.285  18.486  1.00  0.00     0.173 C 
BRANCH  16  17
ATOM     17  C   UNL     1      43.117 131.795  17.497  1.00  0.00    -0.060 A 
ATOM     18  N   UNL     1      44.291 131.223  17.873  1.00  0.00    -0.438 NA
ATOM     19  N   UNL     1      42.969 131.956  16.158  1.00  0.00    -0.438 NA
ATOM     20  C   UNL     1      44.894 131.003  16.695  1.00  0.00    -0.038 A 
ATOM     21  C   UNL     1      44.107 131.440  15.675  1.00  0.00    -0.038 A 
ATOM     22  C   UNL     1      46.142 130.428  16.475  1.00  0.00     0.012 A 
ATOM     23  C   UNL     1      44.496 131.343  14.343  1.00  0.00     0.012 A 
ATOM     24  C   UNL     1      46.584 130.307  15.139  1.00  0.00    -0.018 A 
ATOM     25  C   UNL     1      45.756 130.770  14.067  1.00  0.00    -0.018 A 
ATOM     26  C   UNL     1      47.833 129.739  14.851  1.00  0.00     0.009 A 
ATOM     27  C   UNL     1      46.209 130.650  12.744  1.00  0.00     0.009 A 
ATOM     28  C   UNL     1      48.265 129.627  13.526  1.00  0.00     0.001 A 
ATOM     29  C   UNL     1      47.457 130.081  12.479  1.00  0.00     0.001 A 
ENDBRANCH  16  17
ENDBRANCH   5  16
TORSDOF 4
ENDMDL
MODEL 6
REMARK VINA RESULT:      -8.7      2.136      2.814
REMARK SMILES Cc1nnn(Cc2nc3cc4ccccc4cc3[n-]2)c1-c1nnc([C@@H]2C[C@@H]2C)o1
REMARK SMILES IDX 1 1 2 2 3 3 4 4 5 5 20 6 21 7 22 8 29 9 23 10 24 11 25 12
REMARK SMILES IDX 26 13 27 14 28 15 6 16 7 17 8 18 19 19 9 20 18 21 10 22
REMARK SMILES IDX 17 23 11 24 16 25 12 26 15 27 13 28 14 29
REMARK H PARENT
ROOT
ATOM      1  C   UNL     1      43.063 136.905  20.213  1.00  0.00     0.071 C 
ATOM      2  C   UNL     1      42.432 135.601  19.847  1.00  0.00     0.093 A 
ATOM      3  N   UNL     1      42.095 134.650  20.741  1.00  0.00    -0.135 NA
ATOM      4  N   UNL     1      41.573 133.644  20.056  1.00  0.00    -0.066 NA
ATOM      5  N   UNL     1      41.553 133.919  18.760  1.00  0.00    -0.236 N 
ATOM      6  C   UNL     1      42.098 135.144  18.584  1.00  0.00     0.149 A 
ENDROOT
BRANCH   6   7
ATOM      7  C   UNL     1      42.308 135.838  17.296  1.00  0.00     0.267 A 
ATOM      8  N   UNL     1      43.411 135.703  16.534  1.00  0.00    -0.106 NA
ATOM      9  O   UNL     1      41.454 136.663  16.741  1.00  0.00    -0.419 OA
ATOM     10  N   UNL     1      43.231 136.470  15.470  1.00  0.00    -0.112 NA
ATOM     11  C   UNL     1      42.023 137.041  15.623  1.00  0.00     0.220 A 
BRANCH  11  12
ATOM     12  C   UNL     1      41.425 138.004  14.641  1.00  0.00     0.081 C 
ATOM     13  C   UNL     1      42.232 139.279  14.416  1.00  0.00     0.017 C 
ATOM     14  C   UNL     1      40.921 139.340  15.189  1.00  0.00    -0.001 C 
ATOM     15  C   UNL     1      41.071 139.624  16.688  1.00  0.00     0.008 C 
ENDBRANCH  11  12
ENDBRANCH   6   7
BRANCH   5  16
ATOM     16  C   UNL     1      41.114 132.960  17.749  1.00  0.00     0.173 C 
BRANCH  16  17
ATOM     17  C   UNL     1      42.295 132.444  16.991  1.00  0.00    -0.060 A 
ATOM     18  N   UNL     1      42.292 132.304  15.639  1.00  0.00    -0.438 NA
ATOM     19  N   UNL     1      43.424 132.006  17.602  1.00  0.00    -0.438 NA
ATOM     20  C   UNL     1      43.497 131.765  15.401  1.00  0.00    -0.038 A 
ATOM     21  C   UNL     1      44.170 131.587  16.571  1.00  0.00    -0.038 A 
ATOM     22  C   UNL     1      44.039 131.405  14.171  1.00  0.00     0.012 A 
ATOM     23  C   UNL     1      45.445 131.033  16.615  1.00  0.00     0.012 A 
ATOM     24  C   UNL     1      45.331 130.838  14.163  1.00  0.00    -0.018 A 
ATOM     25  C   UNL     1      46.038 130.647  15.394  1.00  0.00    -0.018 A 
ATOM     26  C   UNL     1      45.933 130.452  12.956  1.00  0.00     0.009 A 
ATOM     27  C   UNL     1      47.320 130.077  15.374  1.00  0.00     0.009 A 
ATOM     28  C   UNL     1      47.211 129.886  12.958  1.00  0.00     0.001 A 
ATOM     29  C   UNL     1      47.900 129.699  14.160  1.00  0.00     0.001 A 
ENDBRANCH  16  17
ENDBRANCH   5  16
TORSDOF 4
ENDMDL
MODEL 7
REMARK VINA RESULT:      -8.7      2.882      5.420
REMARK SMILES Cc1nnn(Cc2nc3cc4ccccc4cc3[n-]2)c1-c1nnc([C@@H]2C[C@@H]2C)o1
REMARK SMILES IDX 1 1 2 2 3 3 4 4 5 5 20 6 21 7 22 8 29 9 23 10 24 11 25 12
REMARK SMILES IDX 26 13 27 14 28 15 6 16 7 17 8 18 19 19 9 20 18 21 10 22
REMARK SMILES IDX 17 23 11 24 16 25 12 26 15 27 13 28 14 29
REMARK H PARENT
ROOT
ATOM      1  C   UNL     1      43.502 136.205  20.935  1.00  0.00     0.071 C 
ATOM      2  C   UNL     1      42.886 135.366  19.862  1.00  0.00     0.093 A 
ATOM      3  N   UNL     1      42.113 135.857  18.873  1.00  0.00    -0.135 NA
ATOM      4  N   UNL     1      41.747 134.828  18.124  1.00  0.00    -0.066 NA
ATOM      5  N   UNL     1      42.264 133.701  18.588  1.00  0.00    -0.236 N 
ATOM      6  C   UNL     1      42.983 133.996  19.694  1.00  0.00     0.149 A 
ENDROOT
BRANCH   6   7
ATOM      7  C   UNL     1      43.707 133.036  20.556  1.00  0.00     0.267 A 
ATOM      8  N   UNL     1      45.044 133.026  20.721  1.00  0.00    -0.106 NA
ATOM      9  O   UNL     1      43.140 132.085  21.257  1.00  0.00    -0.419 OA
ATOM     10  N   UNL     1      45.312 132.036  21.558  1.00  0.00    -0.112 NA
ATOM     11  C   UNL     1      44.128 131.482  21.872  1.00  0.00     0.220 A 
BRANCH  11  12
ATOM     12  C   UNL     1      43.973 130.307  22.792  1.00  0.00     0.081 C 
ATOM     13  C   UNL     1      43.023 130.528  23.966  1.00  0.00     0.017 C 
ATOM     14  C   UNL     1      44.524 130.453  24.212  1.00  0.00    -0.001 C 
ATOM     15  C   UNL     1      45.177 131.781  24.615  1.00  0.00     0.008 C 
ENDBRANCH  11  12
ENDBRANCH   6   7
BRANCH   5  16
ATOM     16  C   UNL     1      41.960 132.391  18.017  1.00  0.00     0.173 C 
BRANCH  16  17
ATOM     17  C   UNL     1      43.067 131.964  17.106  1.00  0.00    -0.060 A 
ATOM     18  N   UNL     1      42.979 132.059  15.753  1.00  0.00    -0.438 NA
ATOM     19  N   UNL     1      44.206 131.381  17.559  1.00  0.00    -0.438 NA
ATOM     20  C   UNL     1      44.138 131.519  15.350  1.00  0.00    -0.038 A 
ATOM     21  C   UNL     1      44.868 131.115  16.425  1.00  0.00    -0.038 A 
ATOM     22  C   UNL     1      44.590 131.353  14.044  1.00  0.00     0.012 A 
ATOM     23  C   UNL     1      46.113 130.509  16.292  1.00  0.00     0.012 A 
ATOM     24  C   UNL     1      45.848 130.742  13.855  1.00  0.00    -0.018 A 
ATOM     25  C   UNL     1      46.613 130.314  14.987  1.00  0.00    -0.018 A 
ATOM     26  C   UNL     1      46.358 130.544  12.563  1.00  0.00     0.009 A 
ATOM     27  C   UNL     1      47.861 129.703  14.787  1.00  0.00     0.009 A 
ATOM     28  C   UNL     1      47.603 129.934  12.386  1.00  0.00     0.001 A 
ATOM     29  C   UNL     1      48.349 129.515  13.491  1.00  0.00     0.001 A 
ENDBRANCH  16  17
ENDBRANCH   5  16
TORSDOF 4
ENDMDL
MODEL 8
REMARK VINA RESULT:      -8.5      1.583      3.431
REMARK SMILES Cc1nnn(Cc2nc3cc4ccccc4cc3[n-]2)c1-c1nnc([C@@H]2C[C@@H]2C)o1
REMARK SMILES IDX 1 1 2 2 3 3 4 4 5 5 20 6 21 7 22 8 29 9 23 10 24 11 25 12
REMARK SMILES IDX 26 13 27 14 28 15 6 16 7 17 8 18 19 19 9 20 18 21 10 22
REMARK SMILES IDX 17 23 11 24 16 25 12 26 15 27 13 28 14 29
REMARK H PARENT
ROOT
ATOM      1  C   UNL     1      37.891 134.720  16.563  1.00  0.00     0.071 C 
ATOM      2  C   UNL     1      38.886 133.782  17.165  1.00  0.00     0.093 A 
ATOM      3  N   UNL     1      38.647 132.477  17.396  1.00  0.00    -0.135 NA
ATOM      4  N   UNL     1      39.745 131.972  17.937  1.00  0.00    -0.066 NA
ATOM      5  N   UNL     1      40.681 132.903  18.052  1.00  0.00    -0.236 N 
ATOM      6  C   UNL     1      40.175 134.066  17.585  1.00  0.00     0.149 A 
ENDROOT
BRANCH   6   7
ATOM      7  C   UNL     1      40.860 135.375  17.553  1.00  0.00     0.267 A 
ATOM      8  N   UNL     1      42.191 135.530  17.412  1.00  0.00    -0.106 NA
ATOM      9  O   UNL     1      40.261 136.536  17.658  1.00  0.00    -0.419 OA
ATOM     10  N   UNL     1      42.422 136.833  17.427  1.00  0.00    -0.112 NA
ATOM     11  C   UNL     1      41.222 137.423  17.574  1.00  0.00     0.220 A 
BRANCH  11  12
ATOM     12  C   UNL     1      41.026 138.908  17.654  1.00  0.00     0.081 C 
ATOM     13  C   UNL     1      39.582 139.377  17.505  1.00  0.00     0.017 C 
ATOM     14  C   UNL     1      40.577 139.625  16.379  1.00  0.00    -0.001 C 
ATOM     15  C   UNL     1      40.337 138.793  15.113  1.00  0.00     0.008 C 
ENDBRANCH  11  12
ENDBRANCH   6   7
BRANCH   5  16
ATOM     16  C   UNL     1      41.970 132.659  18.697  1.00  0.00     0.173 C 
BRANCH  16  17
ATOM     17  C   UNL     1      42.940 132.108  17.702  1.00  0.00    -0.060 A 
ATOM     18  N   UNL     1      44.165 131.637  18.057  1.00  0.00    -0.438 NA
ATOM     19  N   UNL     1      42.701 132.109  16.366  1.00  0.00    -0.438 NA
ATOM     20  C   UNL     1      44.704 131.313  16.873  1.00  0.00    -0.038 A 
ATOM     21  C   UNL     1      43.833 131.595  15.866  1.00  0.00    -0.038 A 
ATOM     22  C   UNL     1      45.965 130.775  16.632  1.00  0.00     0.012 A 
ATOM     23  C   UNL     1      44.143 131.366  14.530  1.00  0.00     0.012 A 
ATOM     24  C   UNL     1      46.328 130.524  15.292  1.00  0.00    -0.018 A 
ATOM     25  C   UNL     1      45.412 130.825  14.234  1.00  0.00    -0.018 A 
ATOM     26  C   UNL     1      47.586 129.985  14.983  1.00  0.00     0.009 A 
ATOM     27  C   UNL     1      45.787 130.576  12.904  1.00  0.00     0.009 A 
ATOM     28  C   UNL     1      47.940 129.744  13.652  1.00  0.00     0.001 A 
ATOM     29  C   UNL     1      47.046 130.040  12.619  1.00  0.00     0.001 A 
ENDBRANCH  16  17
ENDBRANCH   5  16
TORSDOF 4
ENDMDL
MODEL 9
REMARK VINA RESULT:      -8.4      2.202      2.993
REMARK SMILES Cc1nnn(Cc2nc3cc4ccccc4cc3[n-]2)c1-c1nnc([C@@H]2C[C@@H]2C)o1
REMARK SMILES IDX 1 1 2 2 3 3 4 4 5 5 20 6 21 7 22 8 29 9 23 10 24 11 25 12
REMARK SMILES IDX 26 13 27 14 28 15 6 16 7 17 8 18 19 19 9 20 18 21 10 22
REMARK SMILES IDX 17 23 11 24 16 25 12 26 15 27 13 28 14 29
REMARK H PARENT
ROOT
ATOM      1  C   UNL     1      44.951 135.820  21.542  1.00  0.00     0.071 C 
ATOM      2  C   UNL     1      44.363 134.535  21.054  1.00  0.00     0.093 A 
ATOM      3  N   UNL     1      44.501 133.355  21.689  1.00  0.00    -0.135 NA
ATOM      4  N   UNL     1      43.858 132.451  20.967  1.00  0.00    -0.066 NA
ATOM      5  N   UNL     1      43.305 133.009  19.900  1.00  0.00    -0.236 N 
ATOM      6  C   UNL     1      43.610 134.326  19.912  1.00  0.00     0.149 A 
ENDROOT
BRANCH   6   7
ATOM      7  C   UNL     1      43.228 135.328  18.894  1.00  0.00     0.267 A 
ATOM      8  N   UNL     1      43.974 136.401  18.571  1.00  0.00    -0.106 NA
ATOM      9  O   UNL     1      42.124 135.295  18.188  1.00  0.00    -0.419 OA
ATOM     10  N   UNL     1      43.310 137.053  17.629  1.00  0.00    -0.112 NA
ATOM     11  C   UNL     1      42.185 136.349  17.412  1.00  0.00     0.220 A 
BRANCH  11  12
ATOM     12  C   UNL     1      41.130 136.746  16.423  1.00  0.00     0.081 C 
ATOM     13  C   UNL     1      41.071 138.237  16.107  1.00  0.00     0.017 C 
ATOM     14  C   UNL     1      39.969 137.597  16.940  1.00  0.00    -0.001 C 
ATOM     15  C   UNL     1      39.959 138.008  18.418  1.00  0.00     0.008 C 
ENDBRANCH  11  12
ENDBRANCH   6   7
BRANCH   5  16
ATOM     16  C   UNL     1      42.605 132.241  18.872  1.00  0.00     0.173 C 
BRANCH  16  17
ATOM     17  C   UNL     1      43.560 131.854  17.788  1.00  0.00    -0.060 A 
ATOM     18  N   UNL     1      43.289 132.045  16.471  1.00  0.00    -0.438 NA
ATOM     19  N   UNL     1      44.732 131.215  18.037  1.00  0.00    -0.438 NA
ATOM     20  C   UNL     1      44.362 131.509  15.873  1.00  0.00    -0.038 A 
ATOM     21  C   UNL     1      45.221 131.014  16.806  1.00  0.00    -0.038 A 
ATOM     22  C   UNL     1      44.622 131.424  14.508  1.00  0.00     0.012 A 
ATOM     23  C   UNL     1      46.415 130.390  16.459  1.00  0.00     0.012 A 
ATOM     24  C   UNL     1      45.822 130.800  14.105  1.00  0.00    -0.018 A 
ATOM     25  C   UNL     1      46.722 130.277  15.087  1.00  0.00    -0.018 A 
ATOM     26  C   UNL     1      46.141 130.682  12.744  1.00  0.00     0.009 A 
ATOM     27  C   UNL     1      47.909 129.652  14.673  1.00  0.00     0.009 A 
ATOM     28  C   UNL     1      47.328 130.057  12.352  1.00  0.00     0.001 A 
ATOM     29  C   UNL     1      48.207 129.544  13.311  1.00  0.00     0.001 A 
ENDBRANCH  16  17
ENDBRANCH   5  16
TORSDOF 4
ENDMDL


