REMARK SMILES C#CCO/C([O-])=C\[C@@H]1CC[C@@H]2C(OC(=O)[C@H](C)C(F)(F)F)=Nc3c(N=[N+]=[N-])cc(Cl)c1c32
REMARK SMILES IDX 8 1 31 2 29 3 30 4 28 5 24 6 23 7 32 8 11 9 12 10 22 11
REMARK SMILES IDX 10 12 9 13 7 14 5 15 6 16 4 17 3 18 2 19 1 20 25 21 26 22
REMARK SMILES IDX 27 23 13 24 14 25 15 26 16 27 17 28 18 29 19 30 20 31 21 32
REMARK H PARENT
ROOT
ATOM      1  C   UNL     1      -1.179   1.317  -3.462  1.00  0.00     0.045 C 
ATOM      2  C   UNL     1      -0.741   1.871  -2.107  1.00  0.00    -0.016 A 
ATOM      3  C   UNL     1      -1.471   2.853  -1.391  1.00  0.00     0.045 A 
ATOM      4  Cl  UNL     1      -2.711   3.828  -2.171  1.00  0.00    -0.084 Cl
ATOM      5  C   UNL     1      -1.244   3.029  -0.006  1.00  0.00     0.033 A 
ATOM      6  C   UNL     1      -0.316   2.210   0.679  1.00  0.00     0.065 A 
ATOM      7  C   UNL     1       0.449   1.324  -0.079  1.00  0.00     0.081 A 
ATOM      8  C   UNL     1       0.306   1.246  -1.435  1.00  0.00    -0.004 A 
ATOM      9  C   UNL     1       1.153   0.152  -1.945  1.00  0.00     0.109 C 
ATOM     10  C   UNL     1       1.583  -0.453  -0.635  1.00  0.00     0.206 C 
ATOM     11  N   UNL     1       1.231   0.244   0.408  1.00  0.00    -0.216 NA
ATOM     12  C   UNL     1       0.332  -0.737  -2.876  1.00  0.00     0.019 C 
ATOM     13  C   UNL     1      -0.287   0.142  -3.987  1.00  0.00     0.014 C 
ENDROOT
BRANCH   1  14
ATOM     14  C   UNL     1      -2.640   0.903  -3.472  1.00  0.00     0.005 C 
BRANCH  14  15
ATOM     15  C   UNL     1      -3.230   0.157  -2.531  1.00  0.00     0.049 C 
ATOM     16  O   UNL     1      -4.577  -0.168  -2.670  1.00  0.00    -0.547 OA
BRANCH  15  17
ATOM     17  O   UNL     1      -2.520  -0.283  -1.412  1.00  0.00    -0.601 OA
BRANCH  17  18
ATOM     18  C   UNL     1      -3.113  -1.063  -0.384  1.00  0.00     0.160 C 
BRANCH  18  19
ATOM     19  C   UNL     1      -2.095  -1.399   0.611  1.00  0.00    -0.095 C 
ATOM     20  C   UNL     1      -1.253  -1.677   1.428  1.00  0.00     0.005 C 
ENDBRANCH  18  19
ENDBRANCH  17  18
ENDBRANCH  15  17
ENDBRANCH  14  15
ENDBRANCH   1  14
BRANCH   6  21
ATOM     21  N   UNL     1      -0.162   2.246   2.104  1.00  0.00    -0.058 NA
BRANCH  21  22
ATOM     22  N   UNL     1      -0.832   2.995   2.816  1.00  0.00     0.005 N 
ATOM     23  N   UNL     1      -1.500   3.742   3.528  1.00  0.00    -0.003 NA
ENDBRANCH  21  22
ENDBRANCH   6  21
BRANCH  10  24
ATOM     24  O   UNL     1       2.324  -1.638  -0.558  1.00  0.00    -0.410 OA
BRANCH  24  25
ATOM     25  C   UNL     1       2.730  -2.258   0.632  1.00  0.00     0.324 C 
ATOM     26  O   UNL     1       2.491  -1.735   1.754  1.00  0.00    -0.251 OA
BRANCH  25  27
ATOM     27  C   UNL     1       3.439  -3.584   0.570  1.00  0.00     0.201 C 
ATOM     28  C   UNL     1       4.685  -3.478  -0.318  1.00  0.00     0.030 C 
BRANCH  27  29
ATOM     29  C   UNL     1       2.484  -4.685   0.079  1.00  0.00     0.401 C 
ATOM     30  F   UNL     1       3.124  -5.912   0.108  1.00  0.00    -0.170 F 
ATOM     31  F   UNL     1       1.376  -4.750   0.906  1.00  0.00    -0.170 F 
ATOM     32  F   UNL     1       2.062  -4.429  -1.215  1.00  0.00    -0.170 F 
ENDBRANCH  27  29
ENDBRANCH  25  27
ENDBRANCH  24  25
ENDBRANCH  10  24
TORSDOF 11


