REMARK SMILES CC/C=C(\O)N(C)C(=O)C1(C)CC1
REMARK SMILES IDX 4 1 5 2 3 4 2 5 1 6 6 7 7 8 8 9 9 10 10 11 12 12 13 13 11 14
REMARK H PARENT 5 3
ROOT
ATOM      1  C   UNL     1       0.325  -0.114  -1.816  1.00  0.00     0.189 C 
ENDROOT
BRANCH   1   2
ATOM      2  O   UNL     1       0.618   0.904  -2.731  1.00  0.00    -0.495 OA
ATOM      3  H   UNL     1       1.259   0.792  -3.506  1.00  0.00     0.295 HD
ENDBRANCH   1   2
BRANCH   1   4
ATOM      4  C   UNL     1       0.881  -1.335  -1.925  1.00  0.00     0.039 C 
BRANCH   4   5
ATOM      5  C   UNL     1       1.870  -1.694  -3.000  1.00  0.00     0.029 C 
ATOM      6  C   UNL     1       2.335  -3.141  -2.867  1.00  0.00     0.008 C 
ENDBRANCH   4   5
ENDBRANCH   1   4
BRANCH   1   7
ATOM      7  N   UNL     1      -0.615   0.162  -0.758  1.00  0.00    -0.286 N 
ATOM      8  C   UNL     1      -1.697   1.116  -1.017  1.00  0.00     0.156 C 
BRANCH   7   9
ATOM      9  C   UNL     1      -0.347  -0.274   0.593  1.00  0.00     0.234 C 
ATOM     10  O   UNL     1       0.837  -0.520   0.951  1.00  0.00    -0.274 OA
BRANCH   9  11
ATOM     11  C   UNL     1      -1.447  -0.410   1.610  1.00  0.00     0.047 C 
ATOM     12  C   UNL     1      -2.593  -1.348   1.253  1.00  0.00     0.018 C 
ATOM     13  C   UNL     1      -1.545  -1.781   2.270  1.00  0.00     0.018 C 
ATOM     14  C   UNL     1      -1.764   0.784   2.513  1.00  0.00     0.022 C 
ENDBRANCH   9  11
ENDBRANCH   7   9
ENDBRANCH   1   7
TORSDOF 6


