MODEL 1
REMARK VINA RESULT:      -6.1      0.000      0.000
REMARK SMILES C#Cc1ccc(-n2cc(CCCCN(C)[C@@H](C)C#N)[nH+]n2)cc(N)ccc2ccccc12
REMARK SMILES IDX 11 1 10 2 9 3 7 4 8 5 21 6 20 7 6 9 3 10 4 11 32 12 5 13
REMARK SMILES IDX 31 14 27 15 30 16 26 17 28 18 22 19 29 20 25 21 23 22 2 23
REMARK SMILES IDX 1 24 24 25 12 28 13 29 14 30 15 31 16 32 17 33 18 34 19 35
REMARK H PARENT 20 8 24 26 24 27
ROOT
ATOM      1  C   UNL     1      44.629 132.042  17.934  1.00  0.00     0.010 C 
ENDROOT
BRANCH   1   2
ATOM      2  C   UNL     1      44.419 133.411  17.274  1.00  0.00     0.086 C 
BRANCH   2   3
ATOM      3  C   UNL     1      43.069 133.514  16.633  1.00  0.00     0.165 A 
ATOM      4  N   UNL     1      41.369 134.149  15.416  1.00  0.00    -0.102 N 
ATOM      5  C   UNL     1      42.629 134.490  15.765  1.00  0.00     0.281 A 
ATOM      6  N   UNL     1      41.062 133.014  16.027  1.00  0.00     0.093 NA
ATOM      7  N   UNL     1      42.081 132.612  16.769  1.00  0.00    -0.147 N 
ATOM      8  H   UNL     1      42.092 131.742  17.347  1.00  0.00     0.342 HD
BRANCH   4   9
ATOM      9  C   UNL     1      40.471 134.871  14.552  1.00  0.00     0.157 A 
ATOM     10  C   UNL     1      40.473 136.950  16.799  1.00  0.00     0.032 A 
ATOM     11  C   UNL     1      40.792 137.175  15.442  1.00  0.00     0.022 A 
ATOM     12  C   UNL     1      39.573 135.945  17.251  1.00  0.00    -0.003 A 
ATOM     13  C   UNL     1      40.592 136.264  14.391  1.00  0.00     0.056 A 
ATOM     14  C   UNL     1      39.873 135.250  18.443  1.00  0.00     0.010 A 
ATOM     15  C   UNL     1      38.451 135.512  16.479  1.00  0.00    -0.017 A 
ATOM     16  C   UNL     1      39.179 134.089  18.787  1.00  0.00     0.001 A 
ATOM     17  C   UNL     1      37.923 136.299  15.438  1.00  0.00     0.011 A 
ATOM     18  C   UNL     1      37.807 134.306  16.813  1.00  0.00     0.009 A 
ATOM     19  C   UNL     1      39.452 134.162  13.888  1.00  0.00     0.079 A 
ATOM     20  C   UNL     1      38.171 133.602  17.960  1.00  0.00     0.001 A 
ATOM     21  C   UNL     1      37.593 135.805  14.166  1.00  0.00     0.026 A 
ATOM     22  C   UNL     1      38.185 134.683  13.544  1.00  0.00     0.036 A 
BRANCH  10  23
ATOM     23  C   UNL     1      41.123 137.807  17.764  1.00  0.00    -0.070 C 
ATOM     24  C   UNL     1      41.663 138.523  18.568  1.00  0.00     0.010 C 
ENDBRANCH  10  23
BRANCH  22  25
ATOM     25  N   UNL     1      37.453 134.032  12.499  1.00  0.00    -0.399 N 
ATOM     26  H   UNL     1      36.997 133.107  12.659  1.00  0.00     0.156 HD
ATOM     27  H   UNL     1      37.374 134.462  11.551  1.00  0.00     0.156 HD
ENDBRANCH  22  25
ENDBRANCH   4   9
ENDBRANCH   2   3
ENDBRANCH   1   2
BRANCH   1  28
ATOM     28  C   UNL     1      45.645 131.178  17.171  1.00  0.00     0.016 C 
BRANCH  28  29
ATOM     29  C   UNL     1      46.027 131.806  15.825  1.00  0.00     0.085 C 
BRANCH  29  30
ATOM     30  N   UNL     1      46.489 130.766  14.871  1.00  0.00    -0.291 NA
ATOM     31  C   UNL     1      47.327 131.353  13.810  1.00  0.00     0.106 C 
BRANCH  30  32
ATOM     32  C   UNL     1      45.397 129.940  14.292  1.00  0.00     0.157 C 
ATOM     33  C   UNL     1      45.090 128.738  15.191  1.00  0.00     0.041 C 
BRANCH  32  34
ATOM     34  C   UNL     1      44.170 130.719  14.025  1.00  0.00     0.081 C 
ATOM     35  N   UNL     1      43.209 131.330  13.816  1.00  0.00    -0.197 NA
ENDBRANCH  32  34
ENDBRANCH  30  32
ENDBRANCH  29  30
ENDBRANCH  28  29
ENDBRANCH   1  28
TORSDOF 10
ENDMDL
MODEL 2
REMARK VINA RESULT:      -6.1      1.399      1.853
REMARK SMILES C#Cc1ccc(-n2cc(CCCCN(C)[C@@H](C)C#N)[nH+]n2)cc(N)ccc2ccccc12
REMARK SMILES IDX 11 1 10 2 9 3 7 4 8 5 21 6 20 7 6 9 3 10 4 11 32 12 5 13
REMARK SMILES IDX 31 14 27 15 30 16 26 17 28 18 22 19 29 20 25 21 23 22 2 23
REMARK SMILES IDX 1 24 24 25 12 28 13 29 14 30 15 31 16 32 17 33 18 34 19 35
REMARK H PARENT 20 8 24 26 24 27
ROOT
ATOM      1  C   UNL     1      45.104 130.650  17.650  1.00  0.00     0.010 C 
ENDROOT
BRANCH   1   2
ATOM      2  C   UNL     1      44.695 132.071  18.056  1.00  0.00     0.086 C 
BRANCH   2   3
ATOM      3  C   UNL     1      43.415 132.486  17.398  1.00  0.00     0.165 A 
ATOM      4  N   UNL     1      41.941 133.422  16.084  1.00  0.00    -0.102 N 
ATOM      5  C   UNL     1      43.258 133.406  16.383  1.00  0.00     0.281 A 
ATOM      6  N   UNL     1      41.327 132.544  16.864  1.00  0.00     0.093 NA
ATOM      7  N   UNL     1      42.205 131.966  17.667  1.00  0.00    -0.147 N 
ATOM      8  H   UNL     1      41.974 131.233  18.376  1.00  0.00     0.342 HD
BRANCH   4   9
ATOM      9  C   UNL     1      41.270 134.244  15.110  1.00  0.00     0.157 A 
ATOM     10  C   UNL     1      41.967 136.534  17.019  1.00  0.00     0.032 A 
ATOM     11  C   UNL     1      42.293 136.451  15.647  1.00  0.00     0.022 A 
ATOM     12  C   UNL     1      40.824 135.922  17.605  1.00  0.00    -0.003 A 
ATOM     13  C   UNL     1      41.796 135.498  14.742  1.00  0.00     0.056 A 
ATOM     14  C   UNL     1      40.941 135.352  18.892  1.00  0.00     0.010 A 
ATOM     15  C   UNL     1      39.599 135.737  16.893  1.00  0.00    -0.017 A 
ATOM     16  C   UNL     1      39.945 134.517  19.398  1.00  0.00     0.001 A 
ATOM     17  C   UNL     1      39.295 136.484  15.740  1.00  0.00     0.011 A 
ATOM     18  C   UNL     1      38.635 134.842  17.396  1.00  0.00     0.009 A 
ATOM     19  C   UNL     1      40.065 133.784  14.547  1.00  0.00     0.079 A 
ATOM     20  C   UNL     1      38.811 134.238  18.640  1.00  0.00     0.001 A 
ATOM     21  C   UNL     1      38.791 135.931  14.552  1.00  0.00     0.026 A 
ATOM     22  C   UNL     1      39.000 134.605  14.112  1.00  0.00     0.036 A 
BRANCH  10  23
ATOM     23  C   UNL     1      42.875 137.288  17.852  1.00  0.00    -0.070 C 
ATOM     24  C   UNL     1      43.629 137.918  18.549  1.00  0.00     0.010 C 
ENDBRANCH  10  23
BRANCH  22  25
ATOM     25  N   UNL     1      38.073 134.057  13.168  1.00  0.00    -0.399 N 
ATOM     26  H   UNL     1      38.341 133.927  12.167  1.00  0.00     0.156 HD
ATOM     27  H   UNL     1      37.107 133.790  13.458  1.00  0.00     0.156 HD
ENDBRANCH  22  25
ENDBRANCH   4   9
ENDBRANCH   2   3
ENDBRANCH   1   2
BRANCH   1  28
ATOM     28  C   UNL     1      45.227 130.493  16.126  1.00  0.00     0.016 C 
BRANCH  28  29
ATOM     29  C   UNL     1      46.374 131.338  15.560  1.00  0.00     0.085 C 
BRANCH  29  30
ATOM     30  N   UNL     1      46.330 131.357  14.076  1.00  0.00    -0.291 NA
ATOM     31  C   UNL     1      45.158 130.620  13.569  1.00  0.00     0.106 C 
BRANCH  30  32
ATOM     32  C   UNL     1      47.579 130.887  13.421  1.00  0.00     0.157 C 
ATOM     33  C   UNL     1      48.132 129.648  14.132  1.00  0.00     0.041 C 
BRANCH  32  34
ATOM     34  C   UNL     1      47.405 130.627  11.977  1.00  0.00     0.081 C 
ATOM     35  N   UNL     1      47.269 130.423  10.846  1.00  0.00    -0.197 NA
ENDBRANCH  32  34
ENDBRANCH  30  32
ENDBRANCH  29  30
ENDBRANCH  28  29
ENDBRANCH   1  28
TORSDOF 10
ENDMDL
MODEL 3
REMARK VINA RESULT:      -6.1      0.975      1.447
REMARK SMILES C#Cc1ccc(-n2cc(CCCCN(C)[C@@H](C)C#N)[nH+]n2)cc(N)ccc2ccccc12
REMARK SMILES IDX 11 1 10 2 9 3 7 4 8 5 21 6 20 7 6 9 3 10 4 11 32 12 5 13
REMARK SMILES IDX 31 14 27 15 30 16 26 17 28 18 22 19 29 20 25 21 23 22 2 23
REMARK SMILES IDX 1 24 24 25 12 28 13 29 14 30 15 31 16 32 17 33 18 34 19 35
REMARK H PARENT 20 8 24 26 24 27
ROOT
ATOM      1  C   UNL     1      44.315 132.142  18.555  1.00  0.00     0.010 C 
ENDROOT
BRANCH   1   2
ATOM      2  C   UNL     1      43.753 133.569  18.521  1.00  0.00     0.086 C 
BRANCH   2   3
ATOM      3  C   UNL     1      42.514 133.655  17.684  1.00  0.00     0.165 A 
ATOM      4  N   UNL     1      41.029 134.239  16.190  1.00  0.00    -0.102 N 
ATOM      5  C   UNL     1      42.235 134.576  16.697  1.00  0.00     0.281 A 
ATOM      6  N   UNL     1      40.601 133.156  16.823  1.00  0.00     0.093 NA
ATOM      7  N   UNL     1      41.489 132.787  17.732  1.00  0.00    -0.147 N 
ATOM      8  H   UNL     1      41.388 131.960  18.363  1.00  0.00     0.342 HD
BRANCH   4   9
ATOM      9  C   UNL     1      40.289 134.916  15.157  1.00  0.00     0.157 A 
ATOM     10  C   UNL     1      40.062 137.164  17.222  1.00  0.00     0.032 A 
ATOM     11  C   UNL     1      40.574 137.273  15.911  1.00  0.00     0.022 A 
ATOM     12  C   UNL     1      39.069 136.224  17.615  1.00  0.00    -0.003 A 
ATOM     13  C   UNL     1      40.486 136.288  14.912  1.00  0.00     0.056 A 
ATOM     14  C   UNL     1      39.171 135.616  18.885  1.00  0.00     0.010 A 
ATOM     15  C   UNL     1      38.048 135.764  16.726  1.00  0.00    -0.017 A 
ATOM     16  C   UNL     1      38.391 134.506  19.212  1.00  0.00     0.001 A 
ATOM     17  C   UNL     1      37.702 136.482  15.566  1.00  0.00     0.011 A 
ATOM     18  C   UNL     1      37.316 134.607  17.053  1.00  0.00     0.009 A 
ATOM     19  C   UNL     1      39.345 134.187  14.409  1.00  0.00     0.079 A 
ATOM     20  C   UNL     1      37.489 133.985  18.288  1.00  0.00     0.001 A 
ATOM     21  C   UNL     1      37.532 135.899  14.300  1.00  0.00     0.026 A 
ATOM     22  C   UNL     1      38.160 134.716  13.851  1.00  0.00     0.036 A 
BRANCH  10  23
ATOM     23  C   UNL     1      40.605 138.075  18.204  1.00  0.00    -0.070 C 
ATOM     24  C   UNL     1      41.055 138.835  19.023  1.00  0.00     0.010 C 
ENDBRANCH  10  23
BRANCH  22  25
ATOM     25  N   UNL     1      37.555 134.006  12.764  1.00  0.00    -0.399 N 
ATOM     26  H   UNL     1      38.140 133.519  12.050  1.00  0.00     0.156 HD
ATOM     27  H   UNL     1      36.517 133.974  12.655  1.00  0.00     0.156 HD
ENDBRANCH  22  25
ENDBRANCH   4   9
ENDBRANCH   2   3
ENDBRANCH   1   2
BRANCH   1  28
ATOM     28  C   UNL     1      44.336 131.492  17.163  1.00  0.00     0.016 C 
BRANCH  28  29
ATOM     29  C   UNL     1      45.383 132.141  16.250  1.00  0.00     0.085 C 
BRANCH  29  30
ATOM     30  N   UNL     1      44.984 132.021  14.824  1.00  0.00    -0.291 NA
ATOM     31  C   UNL     1      43.519 131.925  14.688  1.00  0.00     0.106 C 
BRANCH  30  32
ATOM     32  C   UNL     1      45.662 130.920  14.091  1.00  0.00     0.157 C 
ATOM     33  C   UNL     1      47.157 131.211  13.933  1.00  0.00     0.041 C 
BRANCH  32  34
ATOM     34  C   UNL     1      45.449 129.599  14.719  1.00  0.00     0.081 C 
ATOM     35  N   UNL     1      45.282 128.565  15.211  1.00  0.00    -0.197 NA
ENDBRANCH  32  34
ENDBRANCH  30  32
ENDBRANCH  29  30
ENDBRANCH  28  29
ENDBRANCH   1  28
TORSDOF 10
ENDMDL
MODEL 4
REMARK VINA RESULT:      -5.8      2.624      4.097
REMARK SMILES C#Cc1ccc(-n2cc(CCCCN(C)[C@@H](C)C#N)[nH+]n2)cc(N)ccc2ccccc12
REMARK SMILES IDX 11 1 10 2 9 3 7 4 8 5 21 6 20 7 6 9 3 10 4 11 32 12 5 13
REMARK SMILES IDX 31 14 27 15 30 16 26 17 28 18 22 19 29 20 25 21 23 22 2 23
REMARK SMILES IDX 1 24 24 25 12 28 13 29 14 30 15 31 16 32 17 33 18 34 19 35
REMARK H PARENT 20 8 24 26 24 27
ROOT
ATOM      1  C   UNL     1      45.381 130.836  17.346  1.00  0.00     0.010 C 
ENDROOT
BRANCH   1   2
ATOM      2  C   UNL     1      45.545 131.605  16.028  1.00  0.00     0.086 C 
BRANCH   2   3
ATOM      3  C   UNL     1      44.293 132.338  15.656  1.00  0.00     0.165 A 
ATOM      4  N   UNL     1      42.864 133.884  15.073  1.00  0.00    -0.102 N 
ATOM      5  C   UNL     1      44.157 133.687  15.412  1.00  0.00     0.281 A 
ATOM      6  N   UNL     1      42.246 132.712  15.093  1.00  0.00     0.093 NA
ATOM      7  N   UNL     1      43.097 131.762  15.444  1.00  0.00    -0.147 N 
ATOM      8  H   UNL     1      42.858 130.748  15.531  1.00  0.00     0.342 HD
BRANCH   4   9
ATOM      9  C   UNL     1      42.218 135.132  14.757  1.00  0.00     0.157 A 
ATOM     10  C   UNL     1      42.913 135.869  17.646  1.00  0.00     0.032 A 
ATOM     11  C   UNL     1      43.259 136.594  16.484  1.00  0.00     0.022 A 
ATOM     12  C   UNL     1      41.754 135.052  17.760  1.00  0.00    -0.003 A 
ATOM     13  C   UNL     1      42.764 136.356  15.191  1.00  0.00     0.056 A 
ATOM     14  C   UNL     1      41.845 133.838  18.475  1.00  0.00     0.010 A 
ATOM     15  C   UNL     1      40.538 135.339  17.067  1.00  0.00    -0.017 A 
ATOM     16  C   UNL     1      40.831 132.883  18.394  1.00  0.00     0.001 A 
ATOM     17  C   UNL     1      40.261 136.624  16.562  1.00  0.00     0.011 A 
ATOM     18  C   UNL     1      39.556 134.337  16.950  1.00  0.00     0.009 A 
ATOM     19  C   UNL     1      41.016 135.108  14.025  1.00  0.00     0.079 A 
ATOM     20  C   UNL     1      39.705 133.118  17.610  1.00  0.00     0.001 A 
ATOM     21  C   UNL     1      39.768 136.874  15.272  1.00  0.00     0.026 A 
ATOM     22  C   UNL     1      39.968 136.048  14.143  1.00  0.00     0.036 A 
BRANCH  10  23
ATOM     23  C   UNL     1      43.817 135.980  18.768  1.00  0.00    -0.070 C 
ATOM     24  C   UNL     1      44.571 136.076  19.703  1.00  0.00     0.010 C 
ENDBRANCH  10  23
BRANCH  22  25
ATOM     25  N   UNL     1      39.049 136.170  13.051  1.00  0.00    -0.399 N 
ATOM     26  H   UNL     1      38.446 137.015  12.949  1.00  0.00     0.156 HD
ATOM     27  H   UNL     1      38.954 135.409  12.343  1.00  0.00     0.156 HD
ENDBRANCH  22  25
ENDBRANCH   4   9
ENDBRANCH   2   3
ENDBRANCH   1   2
BRANCH   1  28
ATOM     28  C   UNL     1      44.627 131.655  18.406  1.00  0.00     0.016 C 
BRANCH  28  29
ATOM     29  C   UNL     1      45.250 131.491  19.797  1.00  0.00     0.085 C 
BRANCH  29  30
ATOM     30  N   UNL     1      44.797 132.574  20.707  1.00  0.00    -0.291 NA
ATOM     31  C   UNL     1      45.808 132.857  21.742  1.00  0.00     0.106 C 
BRANCH  30  32
ATOM     32  C   UNL     1      43.461 132.340  21.317  1.00  0.00     0.157 C 
ATOM     33  C   UNL     1      43.476 131.084  22.195  1.00  0.00     0.041 C 
BRANCH  32  34
ATOM     34  C   UNL     1      42.969 133.505  22.079  1.00  0.00     0.081 C 
ATOM     35  N   UNL     1      42.583 134.418  22.678  1.00  0.00    -0.197 NA
ENDBRANCH  32  34
ENDBRANCH  30  32
ENDBRANCH  29  30
ENDBRANCH  28  29
ENDBRANCH   1  28
TORSDOF 10
ENDMDL
MODEL 5
REMARK VINA RESULT:      -5.7      1.845      2.860
REMARK SMILES C#Cc1ccc(-n2cc(CCCCN(C)[C@@H](C)C#N)[nH+]n2)cc(N)ccc2ccccc12
REMARK SMILES IDX 11 1 10 2 9 3 7 4 8 5 21 6 20 7 6 9 3 10 4 11 32 12 5 13
REMARK SMILES IDX 31 14 27 15 30 16 26 17 28 18 22 19 29 20 25 21 23 22 2 23
REMARK SMILES IDX 1 24 24 25 12 28 13 29 14 30 15 31 16 32 17 33 18 34 19 35
REMARK H PARENT 20 8 24 26 24 27
ROOT
ATOM      1  C   UNL     1      45.656 130.932  16.868  1.00  0.00     0.010 C 
ENDROOT
BRANCH   1   2
ATOM      2  C   UNL     1      45.081 131.567  18.141  1.00  0.00     0.086 C 
BRANCH   2   3
ATOM      3  C   UNL     1      43.724 132.155  17.900  1.00  0.00     0.165 A 
ATOM      4  N   UNL     1      42.050 133.301  17.089  1.00  0.00    -0.102 N 
ATOM      5  C   UNL     1      43.383 133.114  16.971  1.00  0.00     0.281 A 
ATOM      6  N   UNL     1      41.598 132.484  18.029  1.00  0.00     0.093 NA
ATOM      7  N   UNL     1      42.599 131.780  18.533  1.00  0.00    -0.147 N 
ATOM      8  H   UNL     1      42.505 131.063  19.287  1.00  0.00     0.342 HD
BRANCH   4   9
ATOM      9  C   UNL     1      41.224 134.226  16.357  1.00  0.00     0.157 A 
ATOM     10  C   UNL     1      42.814 136.362  17.867  1.00  0.00     0.032 A 
ATOM     11  C   UNL     1      42.665 136.254  16.466  1.00  0.00     0.022 A 
ATOM     12  C   UNL     1      41.848 135.911  18.808  1.00  0.00    -0.003 A 
ATOM     13  C   UNL     1      41.774 135.397  15.800  1.00  0.00     0.056 A 
ATOM     14  C   UNL     1      42.293 135.311  20.007  1.00  0.00     0.010 A 
ATOM     15  C   UNL     1      40.445 135.914  18.534  1.00  0.00    -0.017 A 
ATOM     16  C   UNL     1      41.406 134.618  20.832  1.00  0.00     0.001 A 
ATOM     17  C   UNL     1      39.894 136.716  17.517  1.00  0.00     0.011 A 
ATOM     18  C   UNL     1      39.580 135.160  19.349  1.00  0.00     0.009 A 
ATOM     19  C   UNL     1      39.849 133.952  16.226  1.00  0.00     0.079 A 
ATOM     20  C   UNL     1      40.060 134.517  20.488  1.00  0.00     0.001 A 
ATOM     21  C   UNL     1      38.961 136.259  16.572  1.00  0.00     0.026 A 
ATOM     22  C   UNL     1      38.828 134.923  16.131  1.00  0.00     0.036 A 
BRANCH  10  23
ATOM     23  C   UNL     1      44.039 136.965  18.340  1.00  0.00    -0.070 C 
ATOM     24  C   UNL     1      45.062 137.467  18.732  1.00  0.00     0.010 C 
ENDBRANCH  10  23
BRANCH  22  25
ATOM     25  N   UNL     1      37.579 134.529  15.552  1.00  0.00    -0.399 N 
ATOM     26  H   UNL     1      36.691 135.010  15.814  1.00  0.00     0.156 HD
ATOM     27  H   UNL     1      37.529 133.741  14.869  1.00  0.00     0.156 HD
ENDBRANCH  22  25
ENDBRANCH   4   9
ENDBRANCH   2   3
ENDBRANCH   1   2
BRANCH   1  28
ATOM     28  C   UNL     1      45.298 129.442  16.749  1.00  0.00     0.016 C 
BRANCH  28  29
ATOM     29  C   UNL     1      45.464 128.932  15.312  1.00  0.00     0.085 C 
BRANCH  29  30
ATOM     30  N   UNL     1      45.780 130.052  14.390  1.00  0.00    -0.291 NA
ATOM     31  C   UNL     1      44.550 130.659  13.850  1.00  0.00     0.106 C 
BRANCH  30  32
ATOM     32  C   UNL     1      46.723 129.695  13.297  1.00  0.00     0.157 C 
ATOM     33  C   UNL     1      46.681 130.742  12.180  1.00  0.00     0.041 C 
BRANCH  32  34
ATOM     34  C   UNL     1      48.107 129.499  13.778  1.00  0.00     0.081 C 
ATOM     35  N   UNL     1      49.190 129.346  14.155  1.00  0.00    -0.197 NA
ENDBRANCH  32  34
ENDBRANCH  30  32
ENDBRANCH  29  30
ENDBRANCH  28  29
ENDBRANCH   1  28
TORSDOF 10
ENDMDL
MODEL 6
REMARK VINA RESULT:      -5.6      3.394      5.369
REMARK SMILES C#Cc1ccc(-n2cc(CCCCN(C)[C@@H](C)C#N)[nH+]n2)cc(N)ccc2ccccc12
REMARK SMILES IDX 11 1 10 2 9 3 7 4 8 5 21 6 20 7 6 9 3 10 4 11 32 12 5 13
REMARK SMILES IDX 31 14 27 15 30 16 26 17 28 18 22 19 29 20 25 21 23 22 2 23
REMARK SMILES IDX 1 24 24 25 12 28 13 29 14 30 15 31 16 32 17 33 18 34 19 35
REMARK H PARENT 20 8 24 26 24 27
ROOT
ATOM      1  C   UNL     1      44.159 131.597  17.012  1.00  0.00     0.010 C 
ENDROOT
BRANCH   1   2
ATOM      2  C   UNL     1      42.800 132.110  16.519  1.00  0.00     0.086 C 
BRANCH   2   3
ATOM      3  C   UNL     1      42.369 133.336  17.263  1.00  0.00     0.165 A 
ATOM      4  N   UNL     1      41.620 134.705  18.792  1.00  0.00    -0.102 N 
ATOM      5  C   UNL     1      41.798 133.395  18.516  1.00  0.00     0.281 A 
ATOM      6  N   UNL     1      42.075 135.411  17.767  1.00  0.00     0.093 NA
ATOM      7  N   UNL     1      42.534 134.598  16.830  1.00  0.00    -0.147 N 
ATOM      8  H   UNL     1      42.950 134.907  15.922  1.00  0.00     0.342 HD
BRANCH   4   9
ATOM      9  C   UNL     1      41.026 135.283  19.971  1.00  0.00     0.157 A 
ATOM     10  C   UNL     1      43.862 136.294  20.526  1.00  0.00     0.032 A 
ATOM     11  C   UNL     1      42.689 137.076  20.442  1.00  0.00     0.022 A 
ATOM     12  C   UNL     1      43.885 134.934  20.944  1.00  0.00    -0.003 A 
ATOM     13  C   UNL     1      41.376 136.581  20.389  1.00  0.00     0.056 A 
ATOM     14  C   UNL     1      44.766 134.039  20.298  1.00  0.00     0.010 A 
ATOM     15  C   UNL     1      42.959 134.404  21.893  1.00  0.00    -0.017 A 
ATOM     16  C   UNL     1      44.643 132.661  20.478  1.00  0.00     0.001 A 
ATOM     17  C   UNL     1      42.241 135.239  22.770  1.00  0.00     0.011 A 
ATOM     18  C   UNL     1      42.813 133.009  22.012  1.00  0.00     0.009 A 
ATOM     19  C   UNL     1      40.107 134.518  20.713  1.00  0.00     0.079 A 
ATOM     20  C   UNL     1      43.650 132.146  21.308  1.00  0.00     0.001 A 
ATOM     21  C   UNL     1      40.863 135.129  23.012  1.00  0.00     0.026 A 
ATOM     22  C   UNL     1      39.911 134.605  22.109  1.00  0.00     0.036 A 
BRANCH  10  23
ATOM     23  C   UNL     1      45.098 136.943  20.151  1.00  0.00    -0.070 C 
ATOM     24  C   UNL     1      46.129 137.482  19.840  1.00  0.00     0.010 C 
ENDBRANCH  10  23
BRANCH  22  25
ATOM     25  N   UNL     1      38.670 134.129  22.643  1.00  0.00    -0.399 N 
ATOM     26  H   UNL     1      37.851 133.953  22.021  1.00  0.00     0.156 HD
ATOM     27  H   UNL     1      38.555 133.963  23.668  1.00  0.00     0.156 HD
ENDBRANCH  22  25
ENDBRANCH   4   9
ENDBRANCH   2   3
ENDBRANCH   1   2
BRANCH   1  28
ATOM     28  C   UNL     1      45.333 132.255  16.269  1.00  0.00     0.016 C 
BRANCH  28  29
ATOM     29  C   UNL     1      45.524 131.658  14.870  1.00  0.00     0.085 C 
BRANCH  29  30
ATOM     30  N   UNL     1      45.912 130.227  14.956  1.00  0.00    -0.291 NA
ATOM     31  C   UNL     1      46.820 129.991  16.094  1.00  0.00     0.106 C 
BRANCH  30  32
ATOM     32  C   UNL     1      46.475 129.670  13.699  1.00  0.00     0.157 C 
ATOM     33  C   UNL     1      46.104 130.549  12.500  1.00  0.00     0.041 C 
BRANCH  32  34
ATOM     34  C   UNL     1      47.937 129.469  13.767  1.00  0.00     0.081 C 
ATOM     35  N   UNL     1      49.083 129.312  13.821  1.00  0.00    -0.197 NA
ENDBRANCH  32  34
ENDBRANCH  30  32
ENDBRANCH  29  30
ENDBRANCH  28  29
ENDBRANCH   1  28
TORSDOF 10
ENDMDL
MODEL 7
REMARK VINA RESULT:      -5.6      2.182      3.469
REMARK SMILES C#Cc1ccc(-n2cc(CCCCN(C)[C@@H](C)C#N)[nH+]n2)cc(N)ccc2ccccc12
REMARK SMILES IDX 11 1 10 2 9 3 7 4 8 5 21 6 20 7 6 9 3 10 4 11 32 12 5 13
REMARK SMILES IDX 31 14 27 15 30 16 26 17 28 18 22 19 29 20 25 21 23 22 2 23
REMARK SMILES IDX 1 24 24 25 12 28 13 29 14 30 15 31 16 32 17 33 18 34 19 35
REMARK H PARENT 20 8 24 26 24 27
ROOT
ATOM      1  C   UNL     1      45.172 131.279  16.100  1.00  0.00     0.010 C 
ENDROOT
BRANCH   1   2
ATOM      2  C   UNL     1      45.057 132.779  15.801  1.00  0.00     0.086 C 
BRANCH   2   3
ATOM      3  C   UNL     1      43.659 133.161  15.422  1.00  0.00     0.165 A 
ATOM      4  N   UNL     1      41.897 134.263  14.747  1.00  0.00    -0.102 N 
ATOM      5  C   UNL     1      43.211 134.403  15.026  1.00  0.00     0.281 A 
ATOM      6  N   UNL     1      41.564 132.996  14.945  1.00  0.00     0.093 NA
ATOM      7  N   UNL     1      42.619 132.312  15.354  1.00  0.00    -0.147 N 
ATOM      8  H   UNL     1      42.620 131.291  15.576  1.00  0.00     0.342 HD
BRANCH   4   9
ATOM      9  C   UNL     1      40.974 135.285  14.324  1.00  0.00     0.157 A 
ATOM     10  C   UNL     1      41.496 136.472  17.097  1.00  0.00     0.032 A 
ATOM     11  C   UNL     1      41.654 137.127  15.856  1.00  0.00     0.022 A 
ATOM     12  C   UNL     1      40.562 135.424  17.332  1.00  0.00    -0.003 A 
ATOM     13  C   UNL     1      41.221 136.641  14.611  1.00  0.00     0.056 A 
ATOM     14  C   UNL     1      40.940 134.349  18.166  1.00  0.00     0.010 A 
ATOM     15  C   UNL     1      39.308 135.343  16.652  1.00  0.00    -0.017 A 
ATOM     16  C   UNL     1      40.179 133.182  18.217  1.00  0.00     0.001 A 
ATOM     17  C   UNL     1      38.734 136.466  16.026  1.00  0.00     0.011 A 
ATOM     18  C   UNL     1      38.588 134.134  16.671  1.00  0.00     0.009 A 
ATOM     19  C   UNL     1      39.807 134.903  13.637  1.00  0.00     0.079 A 
ATOM     20  C   UNL     1      39.023 133.062  17.448  1.00  0.00     0.001 A 
ATOM     21  C   UNL     1      38.187 136.454  14.733  1.00  0.00     0.026 A 
ATOM     22  C   UNL     1      38.568 135.580  13.690  1.00  0.00     0.036 A 
BRANCH  10  23
ATOM     23  C   UNL     1      42.356 136.911  18.172  1.00  0.00    -0.070 C 
ATOM     24  C   UNL     1      43.073 137.274  19.070  1.00  0.00     0.010 C 
ENDBRANCH  10  23
BRANCH  22  25
ATOM     25  N   UNL     1      37.639 135.366  12.621  1.00  0.00    -0.399 N 
ATOM     26  H   UNL     1      36.927 136.088  12.377  1.00  0.00     0.156 HD
ATOM     27  H   UNL     1      37.647 134.477  12.074  1.00  0.00     0.156 HD
ENDBRANCH  22  25
ENDBRANCH   4   9
ENDBRANCH   2   3
ENDBRANCH   1   2
BRANCH   1  28
ATOM     28  C   UNL     1      45.463 131.002  17.584  1.00  0.00     0.016 C 
BRANCH  28  29
ATOM     29  C   UNL     1      44.494 131.755  18.503  1.00  0.00     0.085 C 
BRANCH  29  30
ATOM     30  N   UNL     1      45.137 132.065  19.805  1.00  0.00    -0.291 NA
ATOM     31  C   UNL     1      45.822 130.880  20.354  1.00  0.00     0.106 C 
BRANCH  30  32
ATOM     32  C   UNL     1      44.222 132.666  20.810  1.00  0.00     0.157 C 
ATOM     33  C   UNL     1      42.992 131.779  21.025  1.00  0.00     0.041 C 
BRANCH  32  34
ATOM     34  C   UNL     1      44.892 132.951  22.095  1.00  0.00     0.081 C 
ATOM     35  N   UNL     1      45.419 133.173  23.102  1.00  0.00    -0.197 NA
ENDBRANCH  32  34
ENDBRANCH  30  32
ENDBRANCH  29  30
ENDBRANCH  28  29
ENDBRANCH   1  28
TORSDOF 10
ENDMDL
MODEL 8
REMARK VINA RESULT:      -5.6      1.874      2.811
REMARK SMILES C#Cc1ccc(-n2cc(CCCCN(C)[C@@H](C)C#N)[nH+]n2)cc(N)ccc2ccccc12
REMARK SMILES IDX 11 1 10 2 9 3 7 4 8 5 21 6 20 7 6 9 3 10 4 11 32 12 5 13
REMARK SMILES IDX 31 14 27 15 30 16 26 17 28 18 22 19 29 20 25 21 23 22 2 23
REMARK SMILES IDX 1 24 24 25 12 28 13 29 14 30 15 31 16 32 17 33 18 34 19 35
REMARK H PARENT 20 8 24 26 24 27
ROOT
ATOM      1  C   UNL     1      43.007 133.232  16.333  1.00  0.00     0.010 C 
ENDROOT
BRANCH   1   2
ATOM      2  C   UNL     1      42.993 133.566  14.836  1.00  0.00     0.086 C 
BRANCH   2   3
ATOM      3  C   UNL     1      41.890 134.521  14.494  1.00  0.00     0.165 A 
ATOM      4  N   UNL     1      40.671 136.319  14.263  1.00  0.00    -0.102 N 
ATOM      5  C   UNL     1      41.817 135.860  14.811  1.00  0.00     0.281 A 
ATOM      6  N   UNL     1      40.084 135.316  13.627  1.00  0.00     0.093 NA
ATOM      7  N   UNL     1      40.809 134.217  13.756  1.00  0.00    -0.147 N 
ATOM      8  H   UNL     1      40.564 133.288  13.344  1.00  0.00     0.342 HD
BRANCH   4   9
ATOM      9  C   UNL     1      40.130 137.652  14.342  1.00  0.00     0.157 A 
ATOM     10  C   UNL     1      40.035 137.101  17.352  1.00  0.00     0.032 A 
ATOM     11  C   UNL     1      40.675 138.186  16.714  1.00  0.00     0.022 A 
ATOM     12  C   UNL     1      38.888 136.435  16.836  1.00  0.00    -0.003 A 
ATOM     13  C   UNL     1      40.540 138.535  15.359  1.00  0.00     0.056 A 
ATOM     14  C   UNL     1      38.788 135.035  16.986  1.00  0.00     0.010 A 
ATOM     15  C   UNL     1      37.898 137.103  16.050  1.00  0.00    -0.017 A 
ATOM     16  C   UNL     1      37.834 134.306  16.277  1.00  0.00     0.001 A 
ATOM     17  C   UNL     1      37.763 138.504  16.069  1.00  0.00     0.011 A 
ATOM     18  C   UNL     1      36.984 136.342  15.298  1.00  0.00     0.009 A 
ATOM     19  C   UNL     1      39.165 138.051  13.398  1.00  0.00     0.079 A 
ATOM     20  C   UNL     1      36.955 134.954  15.412  1.00  0.00     0.001 A 
ATOM     21  C   UNL     1      37.629 139.298  14.919  1.00  0.00     0.026 A 
ATOM     22  C   UNL     1      38.122 138.973  13.636  1.00  0.00     0.036 A 
BRANCH  10  23
ATOM     23  C   UNL     1      40.610 136.659  18.602  1.00  0.00    -0.070 C 
ATOM     24  C   UNL     1      41.086 136.290  19.646  1.00  0.00     0.010 C 
ENDBRANCH  10  23
BRANCH  22  25
ATOM     25  N   UNL     1      37.525 139.617  12.505  1.00  0.00    -0.399 N 
ATOM     26  H   UNL     1      36.680 139.214  12.043  1.00  0.00     0.156 HD
ATOM     27  H   UNL     1      37.931 140.493  12.110  1.00  0.00     0.156 HD
ENDBRANCH  22  25
ENDBRANCH   4   9
ENDBRANCH   2   3
ENDBRANCH   1   2
BRANCH   1  28
ATOM     28  C   UNL     1      44.434 133.146  16.897  1.00  0.00     0.016 C 
BRANCH  28  29
ATOM     29  C   UNL     1      45.407 132.528  15.886  1.00  0.00     0.085 C 
BRANCH  29  30
ATOM     30  N   UNL     1      45.273 131.050  15.862  1.00  0.00    -0.291 NA
ATOM     31  C   UNL     1      46.118 130.422  16.894  1.00  0.00     0.106 C 
BRANCH  30  32
ATOM     32  C   UNL     1      45.513 130.436  14.530  1.00  0.00     0.157 C 
ATOM     33  C   UNL     1      44.296 130.619  13.618  1.00  0.00     0.041 C 
BRANCH  32  34
ATOM     34  C   UNL     1      46.736 130.947  13.877  1.00  0.00     0.081 C 
ATOM     35  N   UNL     1      47.695 131.348  13.367  1.00  0.00    -0.197 NA
ENDBRANCH  32  34
ENDBRANCH  30  32
ENDBRANCH  29  30
ENDBRANCH  28  29
ENDBRANCH   1  28
TORSDOF 10
ENDMDL
MODEL 9
REMARK VINA RESULT:      -5.5      2.406      4.129
REMARK SMILES C#Cc1ccc(-n2cc(CCCCN(C)[C@@H](C)C#N)[nH+]n2)cc(N)ccc2ccccc12
REMARK SMILES IDX 11 1 10 2 9 3 7 4 8 5 21 6 20 7 6 9 3 10 4 11 32 12 5 13
REMARK SMILES IDX 31 14 27 15 30 16 26 17 28 18 22 19 29 20 25 21 23 22 2 23
REMARK SMILES IDX 1 24 24 25 12 28 13 29 14 30 15 31 16 32 17 33 18 34 19 35
REMARK H PARENT 20 8 24 26 24 27
ROOT
ATOM      1  C   UNL     1      44.222 131.715  17.769  1.00  0.00     0.010 C 
ENDROOT
BRANCH   1   2
ATOM      2  C   UNL     1      44.349 132.448  19.111  1.00  0.00     0.086 C 
BRANCH   2   3
ATOM      3  C   UNL     1      43.188 133.362  19.353  1.00  0.00     0.165 A 
ATOM      4  N   UNL     1      41.180 134.220  19.454  1.00  0.00    -0.102 N 
ATOM      5  C   UNL     1      41.872 133.154  18.996  1.00  0.00     0.281 A 
ATOM      6  N   UNL     1      42.027 135.029  20.074  1.00  0.00     0.093 NA
ATOM      7  N   UNL     1      43.249 134.526  20.023  1.00  0.00    -0.147 N 
ATOM      8  H   UNL     1      44.097 134.972  20.442  1.00  0.00     0.342 HD
BRANCH   4   9
ATOM      9  C   UNL     1      39.773 134.485  19.303  1.00  0.00     0.157 A 
ATOM     10  C   UNL     1      40.413 134.508  16.309  1.00  0.00     0.032 A 
ATOM     11  C   UNL     1      39.447 133.708  16.959  1.00  0.00     0.022 A 
ATOM     12  C   UNL     1      40.824 135.791  16.767  1.00  0.00    -0.003 A 
ATOM     13  C   UNL     1      39.026 133.851  18.291  1.00  0.00     0.056 A 
ATOM     14  C   UNL     1      42.184 136.153  16.648  1.00  0.00     0.010 A 
ATOM     15  C   UNL     1      39.948 136.676  17.467  1.00  0.00    -0.017 A 
ATOM     16  C   UNL     1      42.687 137.271  17.313  1.00  0.00     0.001 A 
ATOM     17  C   UNL     1      38.548 136.535  17.402  1.00  0.00     0.011 A 
ATOM     18  C   UNL     1      40.488 137.764  18.179  1.00  0.00     0.009 A 
ATOM     19  C   UNL     1      39.159 135.408  20.170  1.00  0.00     0.079 A 
ATOM     20  C   UNL     1      41.848 138.057  18.100  1.00  0.00     0.001 A 
ATOM     21  C   UNL     1      37.699 136.579  18.519  1.00  0.00     0.026 A 
ATOM     22  C   UNL     1      38.063 136.236  19.840  1.00  0.00     0.036 A 
BRANCH  10  23
ATOM     23  C   UNL     1      41.006 133.958  15.112  1.00  0.00    -0.070 C 
ATOM     24  C   UNL     1      41.501 133.496  14.115  1.00  0.00     0.010 C 
ENDBRANCH  10  23
BRANCH  22  25
ATOM     25  N   UNL     1      37.272 136.762  20.912  1.00  0.00    -0.399 N 
ATOM     26  H   UNL     1      37.722 137.208  21.741  1.00  0.00     0.156 HD
ATOM     27  H   UNL     1      36.230 136.697  20.892  1.00  0.00     0.156 HD
ENDBRANCH  22  25
ENDBRANCH   4   9
ENDBRANCH   2   3
ENDBRANCH   1   2
BRANCH   1  28
ATOM     28  C   UNL     1      44.719 132.569  16.591  1.00  0.00     0.016 C 
BRANCH  28  29
ATOM     29  C   UNL     1      44.964 131.719  15.338  1.00  0.00     0.085 C 
BRANCH  29  30
ATOM     30  N   UNL     1      46.367 131.235  15.297  1.00  0.00    -0.291 NA
ATOM     31  C   UNL     1      47.107 131.846  14.177  1.00  0.00     0.106 C 
BRANCH  30  32
ATOM     32  C   UNL     1      46.503 129.755  15.282  1.00  0.00     0.157 C 
ATOM     33  C   UNL     1      45.135 129.085  15.121  1.00  0.00     0.041 C 
BRANCH  32  34
ATOM     34  C   UNL     1      47.444 129.278  14.248  1.00  0.00     0.081 C 
ATOM     35  N   UNL     1      48.182 128.905  13.438  1.00  0.00    -0.197 NA
ENDBRANCH  32  34
ENDBRANCH  30  32
ENDBRANCH  29  30
ENDBRANCH  28  29
ENDBRANCH   1  28
TORSDOF 10
ENDMDL


