MODEL 1
REMARK VINA RESULT:      -5.5      0.000      0.000
REMARK SMILES [N-]=[N+]=Nc1cc(Cl)cc2c(C[NH2+]O)c(OCCc3cn(C[C@H](N=[N+]=[N-])C(=O)[O-])[nH+]n3)ccc12
REMARK SMILES IDX 16 1 15 2 14 3 10 4 9 5 31 6 8 7 33 8 32 9 6 10 4 11 5 12
REMARK SMILES IDX 7 13 11 14 12 15 13 18 3 20 2 21 1 22 17 23 18 24 30 25
REMARK SMILES IDX 19 26 29 27 20 28 21 30 22 31 23 32 24 33 25 34 26 35 27 36
REMARK SMILES IDX 28 37
REMARK H PARENT 12 16 12 17 13 19 29 29
ROOT
ATOM      1  C   UNL     1      41.430 133.327  18.251  1.00  0.00     0.236 C 
ENDROOT
BRANCH   1   2
ATOM      2  O   UNL     1      41.804 134.521  18.936  1.00  0.00    -0.493 OA
BRANCH   2   3
ATOM      3  C   UNL     1      43.022 134.721  19.608  1.00  0.00     0.128 A 
ATOM      4  C   UNL     1      43.788 135.867  19.303  1.00  0.00     0.059 A 
ATOM      5  C   UNL     1      44.999 136.114  20.020  1.00  0.00    -0.004 A 
ATOM      6  C   UNL     1      43.484 133.804  20.560  1.00  0.00     0.047 A 
ATOM      7  C   UNL     1      45.803 137.249  19.763  1.00  0.00     0.030 A 
ATOM      8  C   UNL     1      45.427 135.192  21.021  1.00  0.00    -0.008 A 
ATOM      9  C   UNL     1      44.673 134.027  21.242  1.00  0.00     0.013 A 
ATOM     10  C   UNL     1      47.004 137.447  20.441  1.00  0.00     0.042 A 
ATOM     11  C   UNL     1      46.624 135.443  21.748  1.00  0.00     0.047 A 
ATOM     12  C   UNL     1      47.414 136.546  21.417  1.00  0.00     0.031 A 
ATOM     13  Cl  UNL     1      47.992 138.851  20.081  1.00  0.00    -0.084 Cl
BRANCH   4  14
ATOM     14  C   UNL     1      43.263 136.805  18.221  1.00  0.00     0.337 C 
BRANCH  14  15
ATOM     15  N   UNL     1      41.987 137.415  18.609  1.00  0.00    -0.200 N 
ATOM     16  H   UNL     1      41.602 136.901  19.437  1.00  0.00     0.386 HD
ATOM     17  H   UNL     1      42.127 138.426  18.848  1.00  0.00     0.386 HD
BRANCH  15  18
ATOM     18  O   UNL     1      41.110 137.306  17.576  1.00  0.00    -0.220 OA
ATOM     19  H   UNL     1      41.650 137.075  16.775  1.00  0.00     0.288 HD
ENDBRANCH  15  18
ENDBRANCH  14  15
ENDBRANCH   4  14
BRANCH  11  20
ATOM     20  N   UNL     1      47.074 134.614  22.829  1.00  0.00    -0.060 NA
BRANCH  20  21
ATOM     21  N   UNL     1      48.134 134.829  23.419  1.00  0.00     0.005 N 
ATOM     22  N   UNL     1      49.191 135.043  24.009  1.00  0.00    -0.003 NA
ENDBRANCH  20  21
ENDBRANCH  11  20
ENDBRANCH   2   3
ENDBRANCH   1   2
BRANCH   1  23
ATOM     23  C   UNL     1      40.837 133.679  16.888  1.00  0.00     0.106 C 
BRANCH  23  24
ATOM     24  C   UNL     1      41.669 133.109  15.781  1.00  0.00     0.135 A 
ATOM     25  N   UNL     1      41.255 132.981  14.503  1.00  0.00     0.020 NA
ATOM     26  C   UNL     1      42.906 132.508  15.907  1.00  0.00     0.183 A 
ATOM     27  N   UNL     1      42.223 132.338  13.868  1.00  0.00    -0.017 N 
ATOM     28  N   UNL     1      43.223 132.047  14.686  1.00  0.00    -0.136 N 
ATOM     29  H   UNL     1      42.185 132.076  12.857  1.00  0.00     0.526 HD
BRANCH  28  30
ATOM     30  C   UNL     1      44.404 131.266  14.322  1.00  0.00     0.207 C 
BRANCH  30  31
ATOM     31  C   UNL     1      45.550 131.509  15.313  1.00  0.00     0.145 C 
BRANCH  31  32
ATOM     32  N   UNL     1      46.807 131.623  14.581  1.00  0.00    -0.083 NA
BRANCH  32  33
ATOM     33  N   UNL     1      46.921 131.171  13.442  1.00  0.00     0.002 N 
ATOM     34  N   UNL     1      47.035 130.720  12.303  1.00  0.00    -0.003 NA
ENDBRANCH  32  33
ENDBRANCH  31  32
BRANCH  31  35
ATOM     35  C   UNL     1      45.635 130.395  16.320  1.00  0.00     0.052 C 
ATOM     36  O   UNL     1      45.704 130.651  17.551  1.00  0.00    -0.550 OA
ATOM     37  O   UNL     1      45.671 129.073  15.891  1.00  0.00    -0.550 OA
ENDBRANCH  31  35
ENDBRANCH  30  31
ENDBRANCH  28  30
ENDBRANCH  23  24
ENDBRANCH   1  23
TORSDOF 14
ENDMDL
MODEL 2
REMARK VINA RESULT:      -5.5      1.933      2.305
REMARK SMILES [N-]=[N+]=Nc1cc(Cl)cc2c(C[NH2+]O)c(OCCc3cn(C[C@H](N=[N+]=[N-])C(=O)[O-])[nH+]n3)ccc12
REMARK SMILES IDX 16 1 15 2 14 3 10 4 9 5 31 6 8 7 33 8 32 9 6 10 4 11 5 12
REMARK SMILES IDX 7 13 11 14 12 15 13 18 3 20 2 21 1 22 17 23 18 24 30 25
REMARK SMILES IDX 19 26 29 27 20 28 21 30 22 31 23 32 24 33 25 34 26 35 27 36
REMARK SMILES IDX 28 37
REMARK H PARENT 12 16 12 17 13 19 29 29
ROOT
ATOM      1  C   UNL     1      41.243 132.880  17.731  1.00  0.00     0.236 C 
ENDROOT
BRANCH   1   2
ATOM      2  O   UNL     1      41.404 133.362  19.063  1.00  0.00    -0.493 OA
BRANCH   2   3
ATOM      3  C   UNL     1      42.611 133.820  19.618  1.00  0.00     0.128 A 
ATOM      4  C   UNL     1      42.662 135.124  20.158  1.00  0.00     0.059 A 
ATOM      5  C   UNL     1      43.865 135.582  20.778  1.00  0.00    -0.004 A 
ATOM      6  C   UNL     1      43.754 133.011  19.637  1.00  0.00     0.047 A 
ATOM      7  C   UNL     1      43.971 136.874  21.341  1.00  0.00     0.030 A 
ATOM      8  C   UNL     1      45.003 134.723  20.829  1.00  0.00    -0.008 A 
ATOM      9  C   UNL     1      44.934 133.461  20.216  1.00  0.00     0.013 A 
ATOM     10  C   UNL     1      45.168 137.317  21.901  1.00  0.00     0.042 A 
ATOM     11  C   UNL     1      46.198 135.170  21.460  1.00  0.00     0.047 A 
ATOM     12  C   UNL     1      46.273 136.475  21.950  1.00  0.00     0.031 A 
ATOM     13  Cl  UNL     1      45.276 138.936  22.569  1.00  0.00    -0.084 Cl
BRANCH   4  14
ATOM     14  C   UNL     1      41.403 135.980  20.065  1.00  0.00     0.337 C 
BRANCH  14  15
ATOM     15  N   UNL     1      41.169 136.448  18.695  1.00  0.00    -0.200 N 
ATOM     16  H   UNL     1      40.961 135.622  18.085  1.00  0.00     0.386 HD
ATOM     17  H   UNL     1      40.364 137.120  18.674  1.00  0.00     0.386 HD
BRANCH  15  18
ATOM     18  O   UNL     1      42.291 137.064  18.237  1.00  0.00    -0.220 OA
ATOM     19  H   UNL     1      42.780 137.384  19.041  1.00  0.00     0.288 HD
ENDBRANCH  15  18
ENDBRANCH  14  15
ENDBRANCH   4  14
BRANCH  11  20
ATOM     20  N   UNL     1      47.353 134.336  21.633  1.00  0.00    -0.060 NA
BRANCH  20  21
ATOM     21  N   UNL     1      48.203 134.570  22.493  1.00  0.00     0.005 N 
ATOM     22  N   UNL     1      49.054 134.804  23.350  1.00  0.00    -0.003 NA
ENDBRANCH  20  21
ENDBRANCH  11  20
ENDBRANCH   2   3
ENDBRANCH   1   2
BRANCH   1  23
ATOM     23  C   UNL     1      41.922 133.835  16.751  1.00  0.00     0.106 C 
BRANCH  23  24
ATOM     24  C   UNL     1      42.896 133.104  15.880  1.00  0.00     0.135 A 
ATOM     25  N   UNL     1      42.554 132.163  14.975  1.00  0.00     0.020 NA
ATOM     26  C   UNL     1      44.274 133.164  15.956  1.00  0.00     0.183 A 
ATOM     27  N   UNL     1      43.693 131.681  14.501  1.00  0.00    -0.017 N 
ATOM     28  N   UNL     1      44.735 132.266  15.070  1.00  0.00    -0.136 N 
ATOM     29  H   UNL     1      43.753 130.920  13.788  1.00  0.00     0.526 HD
BRANCH  28  30
ATOM     30  C   UNL     1      46.132 131.904  14.835  1.00  0.00     0.207 C 
BRANCH  30  31
ATOM     31  C   UNL     1      46.300 130.380  14.763  1.00  0.00     0.145 C 
BRANCH  31  32
ATOM     32  N   UNL     1      46.893 129.899  16.006  1.00  0.00    -0.083 NA
BRANCH  32  33
ATOM     33  N   UNL     1      46.372 130.143  17.094  1.00  0.00     0.002 N 
ATOM     34  N   UNL     1      45.851 130.388  18.182  1.00  0.00    -0.003 NA
ENDBRANCH  32  33
ENDBRANCH  31  32
BRANCH  31  35
ATOM     35  C   UNL     1      47.160 129.990  13.592  1.00  0.00     0.052 C 
ATOM     36  O   UNL     1      46.936 130.467  12.448  1.00  0.00    -0.550 OA
ATOM     37  O   UNL     1      48.189 129.071  13.762  1.00  0.00    -0.550 OA
ENDBRANCH  31  35
ENDBRANCH  30  31
ENDBRANCH  28  30
ENDBRANCH  23  24
ENDBRANCH   1  23
TORSDOF 14
ENDMDL
MODEL 3
REMARK VINA RESULT:      -5.0      4.162      6.809
REMARK SMILES [N-]=[N+]=Nc1cc(Cl)cc2c(C[NH2+]O)c(OCCc3cn(C[C@H](N=[N+]=[N-])C(=O)[O-])[nH+]n3)ccc12
REMARK SMILES IDX 16 1 15 2 14 3 10 4 9 5 31 6 8 7 33 8 32 9 6 10 4 11 5 12
REMARK SMILES IDX 7 13 11 14 12 15 13 18 3 20 2 21 1 22 17 23 18 24 30 25
REMARK SMILES IDX 19 26 29 27 20 28 21 30 22 31 23 32 24 33 25 34 26 35 27 36
REMARK SMILES IDX 28 37
REMARK H PARENT 12 16 12 17 13 19 29 29
ROOT
ATOM      1  C   UNL     1      44.468 132.818  15.543  1.00  0.00     0.236 C 
ENDROOT
BRANCH   1   2
ATOM      2  O   UNL     1      44.700 131.938  16.641  1.00  0.00    -0.493 OA
BRANCH   2   3
ATOM      3  C   UNL     1      44.165 132.094  17.931  1.00  0.00     0.128 A 
ATOM      4  C   UNL     1      44.823 131.480  19.020  1.00  0.00     0.059 A 
ATOM      5  C   UNL     1      44.325 131.679  20.344  1.00  0.00    -0.004 A 
ATOM      6  C   UNL     1      42.998 132.837  18.148  1.00  0.00     0.047 A 
ATOM      7  C   UNL     1      44.945 131.095  21.473  1.00  0.00     0.030 A 
ATOM      8  C   UNL     1      43.161 132.480  20.548  1.00  0.00    -0.008 A 
ATOM      9  C   UNL     1      42.496 133.012  19.431  1.00  0.00     0.013 A 
ATOM     10  C   UNL     1      44.416 131.264  22.751  1.00  0.00     0.042 A 
ATOM     11  C   UNL     1      42.671 132.693  21.867  1.00  0.00     0.047 A 
ATOM     12  C   UNL     1      43.284 132.047  22.943  1.00  0.00     0.031 A 
ATOM     13  Cl  UNL     1      45.195 130.505  24.128  1.00  0.00    -0.084 Cl
BRANCH   4  14
ATOM     14  C   UNL     1      46.060 130.640  18.720  1.00  0.00     0.337 C 
BRANCH  14  15
ATOM     15  N   UNL     1      45.857 129.779  17.550  1.00  0.00    -0.200 N 
ATOM     16  H   UNL     1      45.777 128.785  17.870  1.00  0.00     0.386 HD
ATOM     17  H   UNL     1      44.986 130.062  17.039  1.00  0.00     0.386 HD
BRANCH  15  18
ATOM     18  O   UNL     1      46.930 129.893  16.723  1.00  0.00    -0.220 OA
ATOM     19  H   UNL     1      47.468 129.067  16.849  1.00  0.00     0.288 HD
ENDBRANCH  15  18
ENDBRANCH  14  15
ENDBRANCH   4  14
BRANCH  11  20
ATOM     20  N   UNL     1      41.565 133.556  22.163  1.00  0.00    -0.060 NA
BRANCH  20  21
ATOM     21  N   UNL     1      41.683 134.539  22.897  1.00  0.00     0.005 N 
ATOM     22  N   UNL     1      41.799 135.520  23.630  1.00  0.00    -0.003 NA
ENDBRANCH  20  21
ENDBRANCH  11  20
ENDBRANCH   2   3
ENDBRANCH   1   2
BRANCH   1  23
ATOM     23  C   UNL     1      43.348 132.264  14.665  1.00  0.00     0.106 C 
BRANCH  23  24
ATOM     24  C   UNL     1      42.218 133.241  14.562  1.00  0.00     0.135 A 
ATOM     25  N   UNL     1      40.990 132.941  14.087  1.00  0.00     0.020 NA
ATOM     26  C   UNL     1      42.283 134.601  14.793  1.00  0.00     0.183 A 
ATOM     27  N   UNL     1      40.323 134.085  14.051  1.00  0.00    -0.017 N 
ATOM     28  N   UNL     1      41.074 135.091  14.472  1.00  0.00    -0.136 N 
ATOM     29  H   UNL     1      39.340 134.177  13.711  1.00  0.00     0.526 HD
BRANCH  28  30
ATOM     30  C   UNL     1      40.668 136.495  14.474  1.00  0.00     0.207 C 
BRANCH  30  31
ATOM     31  C   UNL     1      39.370 136.692  15.269  1.00  0.00     0.145 C 
BRANCH  31  32
ATOM     32  N   UNL     1      39.252 135.636  16.270  1.00  0.00    -0.083 NA
BRANCH  32  33
ATOM     33  N   UNL     1      38.449 135.728  17.198  1.00  0.00     0.002 N 
ATOM     34  N   UNL     1      37.645 135.821  18.125  1.00  0.00    -0.003 NA
ENDBRANCH  32  33
ENDBRANCH  31  32
BRANCH  31  35
ATOM     35  C   UNL     1      38.174 136.678  14.357  1.00  0.00     0.052 C 
ATOM     36  O   UNL     1      37.601 135.593  14.074  1.00  0.00    -0.550 OA
ATOM     37  O   UNL     1      37.716 137.864  13.795  1.00  0.00    -0.550 OA
ENDBRANCH  31  35
ENDBRANCH  30  31
ENDBRANCH  28  30
ENDBRANCH  23  24
ENDBRANCH   1  23
TORSDOF 14
ENDMDL
MODEL 4
REMARK VINA RESULT:      -4.8      3.208      6.411
REMARK SMILES [N-]=[N+]=Nc1cc(Cl)cc2c(C[NH2+]O)c(OCCc3cn(C[C@H](N=[N+]=[N-])C(=O)[O-])[nH+]n3)ccc12
REMARK SMILES IDX 16 1 15 2 14 3 10 4 9 5 31 6 8 7 33 8 32 9 6 10 4 11 5 12
REMARK SMILES IDX 7 13 11 14 12 15 13 18 3 20 2 21 1 22 17 23 18 24 30 25
REMARK SMILES IDX 19 26 29 27 20 28 21 30 22 31 23 32 24 33 25 34 26 35 27 36
REMARK SMILES IDX 28 37
REMARK H PARENT 12 16 12 17 13 19 29 29
ROOT
ATOM      1  C   UNL     1      43.635 131.542  15.110  1.00  0.00     0.236 C 
ENDROOT
BRANCH   1   2
ATOM      2  O   UNL     1      44.635 132.235  15.854  1.00  0.00    -0.493 OA
BRANCH   2   3
ATOM      3  C   UNL     1      44.523 132.618  17.201  1.00  0.00     0.128 A 
ATOM      4  C   UNL     1      44.844 131.679  18.206  1.00  0.00     0.059 A 
ATOM      5  C   UNL     1      44.791 132.073  19.579  1.00  0.00    -0.004 A 
ATOM      6  C   UNL     1      44.093 133.903  17.557  1.00  0.00     0.047 A 
ATOM      7  C   UNL     1      45.109 131.179  20.627  1.00  0.00     0.030 A 
ATOM      8  C   UNL     1      44.397 133.402  19.916  1.00  0.00    -0.008 A 
ATOM      9  C   UNL     1      44.015 134.282  18.890  1.00  0.00     0.013 A 
ATOM     10  C   UNL     1      45.005 131.570  21.960  1.00  0.00     0.042 A 
ATOM     11  C   UNL     1      44.357 133.803  21.281  1.00  0.00     0.047 A 
ATOM     12  C   UNL     1      44.624 132.867  22.283  1.00  0.00     0.031 A 
ATOM     13  Cl  UNL     1      45.383 130.429  23.238  1.00  0.00    -0.084 Cl
BRANCH   4  14
ATOM     14  C   UNL     1      45.257 130.280  17.764  1.00  0.00     0.337 C 
BRANCH  14  15
ATOM     15  N   UNL     1      46.538 130.296  17.050  1.00  0.00    -0.200 N 
ATOM     16  H   UNL     1      46.740 131.274  16.735  1.00  0.00     0.386 HD
ATOM     17  H   UNL     1      47.307 129.955  17.677  1.00  0.00     0.386 HD
BRANCH  15  18
ATOM     18  O   UNL     1      46.448 129.490  15.958  1.00  0.00    -0.220 OA
ATOM     19  H   UNL     1      47.371 129.404  15.599  1.00  0.00     0.288 HD
ENDBRANCH  15  18
ENDBRANCH  14  15
ENDBRANCH   4  14
BRANCH  11  20
ATOM     20  N   UNL     1      44.060 135.143  21.697  1.00  0.00    -0.060 NA
BRANCH  20  21
ATOM     21  N   UNL     1      44.748 135.735  22.531  1.00  0.00     0.005 N 
ATOM     22  N   UNL     1      45.434 136.327  23.363  1.00  0.00    -0.003 NA
ENDBRANCH  20  21
ENDBRANCH  11  20
ENDBRANCH   2   3
ENDBRANCH   1   2
BRANCH   1  23
ATOM     23  C   UNL     1      43.008 132.485  14.086  1.00  0.00     0.106 C 
BRANCH  23  24
ATOM     24  C   UNL     1      41.964 133.348  14.725  1.00  0.00     0.135 A 
ATOM     25  N   UNL     1      41.195 132.971  15.767  1.00  0.00     0.020 NA
ATOM     26  C   UNL     1      41.530 134.581  14.278  1.00  0.00     0.183 A 
ATOM     27  N   UNL     1      40.331 133.956  15.960  1.00  0.00    -0.017 N 
ATOM     28  N   UNL     1      40.514 134.932  15.084  1.00  0.00    -0.136 N 
ATOM     29  H   UNL     1      39.589 133.947  16.694  1.00  0.00     0.526 HD
BRANCH  28  30
ATOM     30  C   UNL     1      39.673 136.122  14.968  1.00  0.00     0.207 C 
BRANCH  30  31
ATOM     31  C   UNL     1      40.524 137.371  14.695  1.00  0.00     0.145 C 
BRANCH  31  32
ATOM     32  N   UNL     1      40.890 137.993  15.963  1.00  0.00    -0.083 NA
BRANCH  32  33
ATOM     33  N   UNL     1      41.960 138.587  16.093  1.00  0.00     0.002 N 
ATOM     34  N   UNL     1      43.030 139.181  16.222  1.00  0.00    -0.003 NA
ENDBRANCH  32  33
ENDBRANCH  31  32
BRANCH  31  35
ATOM     35  C   UNL     1      39.776 138.351  13.833  1.00  0.00     0.052 C 
ATOM     36  O   UNL     1      38.696 138.017  13.277  1.00  0.00    -0.550 OA
ATOM     37  O   UNL     1      40.294 139.623  13.618  1.00  0.00    -0.550 OA
ENDBRANCH  31  35
ENDBRANCH  30  31
ENDBRANCH  28  30
ENDBRANCH  23  24
ENDBRANCH   1  23
TORSDOF 14
ENDMDL
MODEL 5
REMARK VINA RESULT:      -4.7      3.895      7.886
REMARK SMILES [N-]=[N+]=Nc1cc(Cl)cc2c(C[NH2+]O)c(OCCc3cn(C[C@H](N=[N+]=[N-])C(=O)[O-])[nH+]n3)ccc12
REMARK SMILES IDX 16 1 15 2 14 3 10 4 9 5 31 6 8 7 33 8 32 9 6 10 4 11 5 12
REMARK SMILES IDX 7 13 11 14 12 15 13 18 3 20 2 21 1 22 17 23 18 24 30 25
REMARK SMILES IDX 19 26 29 27 20 28 21 30 22 31 23 32 24 33 25 34 26 35 27 36
REMARK SMILES IDX 28 37
REMARK H PARENT 12 16 12 17 13 19 29 29
ROOT
ATOM      1  C   UNL     1      45.684 132.233  15.944  1.00  0.00     0.236 C 
ENDROOT
BRANCH   1   2
ATOM      2  O   UNL     1      44.973 133.466  15.861  1.00  0.00    -0.493 OA
BRANCH   2   3
ATOM      3  C   UNL     1      43.592 133.591  15.627  1.00  0.00     0.128 A 
ATOM      4  C   UNL     1      42.840 134.471  16.436  1.00  0.00     0.059 A 
ATOM      5  C   UNL     1      41.448 134.652  16.173  1.00  0.00    -0.004 A 
ATOM      6  C   UNL     1      42.958 132.856  14.618  1.00  0.00     0.047 A 
ATOM      7  C   UNL     1      40.647 135.524  16.945  1.00  0.00     0.030 A 
ATOM      8  C   UNL     1      40.832 133.929  15.108  1.00  0.00    -0.008 A 
ATOM      9  C   UNL     1      41.600 133.009  14.374  1.00  0.00     0.013 A 
ATOM     10  C   UNL     1      39.281 135.651  16.700  1.00  0.00     0.042 A 
ATOM     11  C   UNL     1      39.449 134.118  14.832  1.00  0.00     0.047 A 
ATOM     12  C   UNL     1      38.687 134.946  15.659  1.00  0.00     0.031 A 
ATOM     13  Cl  UNL     1      38.310 136.723  17.693  1.00  0.00    -0.084 Cl
BRANCH   4  14
ATOM     14  C   UNL     1      43.572 135.207  17.553  1.00  0.00     0.337 C 
BRANCH  14  15
ATOM     15  N   UNL     1      43.965 136.559  17.142  1.00  0.00    -0.200 N 
ATOM     16  H   UNL     1      44.918 136.519  16.709  1.00  0.00     0.386 HD
ATOM     17  H   UNL     1      43.274 136.943  16.452  1.00  0.00     0.386 HD
BRANCH  15  18
ATOM     18  O   UNL     1      44.011 137.362  18.238  1.00  0.00    -0.220 OA
ATOM     19  H   UNL     1      43.801 136.782  19.017  1.00  0.00     0.288 HD
ENDBRANCH  15  18
ENDBRANCH  14  15
ENDBRANCH   4  14
BRANCH  11  20
ATOM     20  N   UNL     1      38.778 133.500  13.725  1.00  0.00    -0.060 NA
BRANCH  20  21
ATOM     21  N   UNL     1      37.906 134.086  13.081  1.00  0.00     0.005 N 
ATOM     22  N   UNL     1      37.037 134.672  12.438  1.00  0.00    -0.003 NA
ENDBRANCH  20  21
ENDBRANCH  11  20
ENDBRANCH   2   3
ENDBRANCH   1   2
BRANCH   1  23
ATOM     23  C   UNL     1      44.791 131.164  16.571  1.00  0.00     0.106 C 
BRANCH  23  24
ATOM     24  C   UNL     1      44.776 131.290  18.063  1.00  0.00     0.135 A 
ATOM     25  N   UNL     1      45.718 130.777  18.882  1.00  0.00     0.020 NA
ATOM     26  C   UNL     1      43.755 131.811  18.835  1.00  0.00     0.183 A 
ATOM     27  N   UNL     1      45.289 130.999  20.116  1.00  0.00    -0.017 N 
ATOM     28  N   UNL     1      44.120 131.619  20.113  1.00  0.00    -0.136 N 
ATOM     29  H   UNL     1      45.802 130.699  20.975  1.00  0.00     0.526 HD
BRANCH  28  30
ATOM     30  C   UNL     1      43.334 131.932  21.305  1.00  0.00     0.207 C 
BRANCH  30  31
ATOM     31  C   UNL     1      43.737 133.294  21.888  1.00  0.00     0.145 C 
BRANCH  31  32
ATOM     32  N   UNL     1      43.459 134.340  20.909  1.00  0.00    -0.083 NA
BRANCH  32  33
ATOM     33  N   UNL     1      43.251 135.501  21.262  1.00  0.00     0.002 N 
ATOM     34  N   UNL     1      43.044 136.661  21.615  1.00  0.00    -0.003 NA
ENDBRANCH  32  33
ENDBRANCH  31  32
BRANCH  31  35
ATOM     35  C   UNL     1      45.194 133.308  22.262  1.00  0.00     0.052 C 
ATOM     36  O   UNL     1      45.561 132.948  23.412  1.00  0.00    -0.550 OA
ATOM     37  O   UNL     1      46.142 133.752  21.347  1.00  0.00    -0.550 OA
ENDBRANCH  31  35
ENDBRANCH  30  31
ENDBRANCH  28  30
ENDBRANCH  23  24
ENDBRANCH   1  23
TORSDOF 14
ENDMDL
MODEL 6
REMARK VINA RESULT:      -4.6      3.760      8.109
REMARK SMILES [N-]=[N+]=Nc1cc(Cl)cc2c(C[NH2+]O)c(OCCc3cn(C[C@H](N=[N+]=[N-])C(=O)[O-])[nH+]n3)ccc12
REMARK SMILES IDX 16 1 15 2 14 3 10 4 9 5 31 6 8 7 33 8 32 9 6 10 4 11 5 12
REMARK SMILES IDX 7 13 11 14 12 15 13 18 3 20 2 21 1 22 17 23 18 24 30 25
REMARK SMILES IDX 19 26 29 27 20 28 21 30 22 31 23 32 24 33 25 34 26 35 27 36
REMARK SMILES IDX 28 37
REMARK H PARENT 12 16 12 17 13 19 29 29
ROOT
ATOM      1  C   UNL     1      44.519 132.563  15.262  1.00  0.00     0.236 C 
ENDROOT
BRANCH   1   2
ATOM      2  O   UNL     1      43.793 133.777  15.440  1.00  0.00    -0.493 OA
BRANCH   2   3
ATOM      3  C   UNL     1      42.396 133.906  15.351  1.00  0.00     0.128 A 
ATOM      4  C   UNL     1      41.674 134.306  16.497  1.00  0.00     0.059 A 
ATOM      5  C   UNL     1      40.262 134.498  16.407  1.00  0.00    -0.004 A 
ATOM      6  C   UNL     1      41.717 133.638  14.156  1.00  0.00     0.047 A 
ATOM      7  C   UNL     1      39.489 134.905  17.518  1.00  0.00     0.030 A 
ATOM      8  C   UNL     1      39.597 134.266  15.166  1.00  0.00    -0.008 A 
ATOM      9  C   UNL     1      40.341 133.799  14.070  1.00  0.00     0.013 A 
ATOM     10  C   UNL     1      38.106 135.041  17.420  1.00  0.00     0.042 A 
ATOM     11  C   UNL     1      38.192 134.471  15.068  1.00  0.00     0.047 A 
ATOM     12  C   UNL     1      37.464 134.817  16.208  1.00  0.00     0.031 A 
ATOM     13  Cl  UNL     1      37.172 135.523  18.825  1.00  0.00    -0.084 Cl
BRANCH   4  14
ATOM     14  C   UNL     1      42.458 134.535  17.785  1.00  0.00     0.337 C 
BRANCH  14  15
ATOM     15  N   UNL     1      42.940 135.916  17.886  1.00  0.00    -0.200 N 
ATOM     16  H   UNL     1      42.202 136.502  18.344  1.00  0.00     0.386 HD
ATOM     17  H   UNL     1      43.825 135.951  18.446  1.00  0.00     0.386 HD
BRANCH  15  18
ATOM     18  O   UNL     1      43.171 136.398  16.635  1.00  0.00    -0.220 OA
ATOM     19  H   UNL     1      42.396 136.979  16.413  1.00  0.00     0.288 HD
ENDBRANCH  15  18
ENDBRANCH  14  15
ENDBRANCH   4  14
BRANCH  11  20
ATOM     20  N   UNL     1      37.465 134.349  13.837  1.00  0.00    -0.060 NA
BRANCH  20  21
ATOM     21  N   UNL     1      37.029 135.332  13.236  1.00  0.00     0.005 N 
ATOM     22  N   UNL     1      36.593 136.314  12.639  1.00  0.00    -0.003 NA
ENDBRANCH  20  21
ENDBRANCH  11  20
ENDBRANCH   2   3
ENDBRANCH   1   2
BRANCH   1  23
ATOM     23  C   UNL     1      43.913 131.466  16.135  1.00  0.00     0.106 C 
BRANCH  23  24
ATOM     24  C   UNL     1      44.740 131.244  17.363  1.00  0.00     0.135 A 
ATOM     25  N   UNL     1      45.780 130.388  17.439  1.00  0.00     0.020 NA
ATOM     26  C   UNL     1      44.495 131.756  18.623  1.00  0.00     0.183 A 
ATOM     27  N   UNL     1      46.168 130.396  18.705  1.00  0.00    -0.017 N 
ATOM     28  N   UNL     1      45.417 131.208  19.432  1.00  0.00    -0.136 N 
ATOM     29  H   UNL     1      46.951 129.814  19.079  1.00  0.00     0.526 HD
BRANCH  28  30
ATOM     30  C   UNL     1      45.526 131.379  20.880  1.00  0.00     0.207 C 
BRANCH  30  31
ATOM     31  C   UNL     1      45.038 132.770  21.307  1.00  0.00     0.145 C 
BRANCH  31  32
ATOM     32  N   UNL     1      46.165 133.698  21.312  1.00  0.00    -0.083 NA
BRANCH  32  33
ATOM     33  N   UNL     1      46.080 134.797  21.859  1.00  0.00     0.002 N 
ATOM     34  N   UNL     1      45.995 135.895  22.406  1.00  0.00    -0.003 NA
ENDBRANCH  32  33
ENDBRANCH  31  32
BRANCH  31  35
ATOM     35  C   UNL     1      44.402 132.721  22.669  1.00  0.00     0.052 C 
ATOM     36  O   UNL     1      43.335 133.351  22.898  1.00  0.00    -0.550 OA
ATOM     37  O   UNL     1      45.008 132.004  23.694  1.00  0.00    -0.550 OA
ENDBRANCH  31  35
ENDBRANCH  30  31
ENDBRANCH  28  30
ENDBRANCH  23  24
ENDBRANCH   1  23
TORSDOF 14
ENDMDL
MODEL 7
REMARK VINA RESULT:      -4.6      4.584      7.596
REMARK SMILES [N-]=[N+]=Nc1cc(Cl)cc2c(C[NH2+]O)c(OCCc3cn(C[C@H](N=[N+]=[N-])C(=O)[O-])[nH+]n3)ccc12
REMARK SMILES IDX 16 1 15 2 14 3 10 4 9 5 31 6 8 7 33 8 32 9 6 10 4 11 5 12
REMARK SMILES IDX 7 13 11 14 12 15 13 18 3 20 2 21 1 22 17 23 18 24 30 25
REMARK SMILES IDX 19 26 29 27 20 28 21 30 22 31 23 32 24 33 25 34 26 35 27 36
REMARK SMILES IDX 28 37
REMARK H PARENT 12 16 12 17 13 19 29 29
ROOT
ATOM      1  C   UNL     1      40.544 134.961  13.632  1.00  0.00     0.236 C 
ENDROOT
BRANCH   1   2
ATOM      2  O   UNL     1      40.585 133.646  14.182  1.00  0.00    -0.493 OA
BRANCH   2   3
ATOM      3  C   UNL     1      41.669 133.096  14.887  1.00  0.00     0.128 A 
ATOM      4  C   UNL     1      41.769 133.330  16.276  1.00  0.00     0.059 A 
ATOM      5  C   UNL     1      42.833 132.729  17.016  1.00  0.00    -0.004 A 
ATOM      6  C   UNL     1      42.646 132.333  14.235  1.00  0.00     0.047 A 
ATOM      7  C   UNL     1      42.978 132.922  18.409  1.00  0.00     0.030 A 
ATOM      8  C   UNL     1      43.790 131.915  16.340  1.00  0.00    -0.008 A 
ATOM      9  C   UNL     1      43.697 131.768  14.946  1.00  0.00     0.013 A 
ATOM     10  C   UNL     1      44.050 132.364  19.104  1.00  0.00     0.042 A 
ATOM     11  C   UNL     1      44.843 131.302  17.076  1.00  0.00     0.047 A 
ATOM     12  C   UNL     1      44.978 131.570  18.440  1.00  0.00     0.031 A 
ATOM     13  Cl  UNL     1      44.216 132.643  20.828  1.00  0.00    -0.084 Cl
BRANCH   4  14
ATOM     14  C   UNL     1      40.706 134.210  16.925  1.00  0.00     0.337 C 
BRANCH  14  15
ATOM     15  N   UNL     1      39.670 133.408  17.585  1.00  0.00    -0.200 N 
ATOM     16  H   UNL     1      40.116 132.558  18.007  1.00  0.00     0.386 HD
ATOM     17  H   UNL     1      39.196 133.971  18.331  1.00  0.00     0.386 HD
BRANCH  15  18
ATOM     18  O   UNL     1      38.756 133.013  16.659  1.00  0.00    -0.220 OA
ATOM     19  H   UNL     1      39.109 133.306  15.777  1.00  0.00     0.288 HD
ENDBRANCH  15  18
ENDBRANCH  14  15
ENDBRANCH   4  14
BRANCH  11  20
ATOM     20  N   UNL     1      45.789 130.399  16.487  1.00  0.00    -0.060 NA
BRANCH  20  21
ATOM     21  N   UNL     1      45.440 129.346  15.952  1.00  0.00     0.005 N 
ATOM     22  N   UNL     1      45.090 128.295  15.419  1.00  0.00    -0.003 NA
ENDBRANCH  20  21
ENDBRANCH  11  20
ENDBRANCH   2   3
ENDBRANCH   1   2
BRANCH   1  23
ATOM     23  C   UNL     1      39.121 135.291  13.189  1.00  0.00     0.106 C 
BRANCH  23  24
ATOM     24  C   UNL     1      38.242 135.557  14.372  1.00  0.00     0.135 A 
ATOM     25  N   UNL     1      37.357 134.674  14.879  1.00  0.00     0.020 NA
ATOM     26  C   UNL     1      38.093 136.762  15.031  1.00  0.00     0.183 A 
ATOM     27  N   UNL     1      36.703 135.319  15.834  1.00  0.00    -0.017 N 
ATOM     28  N   UNL     1      37.128 136.568  15.945  1.00  0.00    -0.136 N 
ATOM     29  H   UNL     1      35.936 134.898  16.403  1.00  0.00     0.526 HD
BRANCH  28  30
ATOM     30  C   UNL     1      36.555 137.571  16.842  1.00  0.00     0.207 C 
BRANCH  30  31
ATOM     31  C   UNL     1      37.479 137.828  18.041  1.00  0.00     0.145 C 
BRANCH  31  32
ATOM     32  N   UNL     1      38.811 138.178  17.559  1.00  0.00    -0.083 NA
BRANCH  32  33
ATOM     33  N   UNL     1      39.821 137.753  18.121  1.00  0.00     0.002 N 
ATOM     34  N   UNL     1      40.830 137.329  18.682  1.00  0.00    -0.003 NA
ENDBRANCH  32  33
ENDBRANCH  31  32
BRANCH  31  35
ATOM     35  C   UNL     1      37.550 136.618  18.932  1.00  0.00     0.052 C 
ATOM     36  O   UNL     1      37.773 136.746  20.165  1.00  0.00    -0.550 OA
ATOM     37  O   UNL     1      37.404 135.347  18.390  1.00  0.00    -0.550 OA
ENDBRANCH  31  35
ENDBRANCH  30  31
ENDBRANCH  28  30
ENDBRANCH  23  24
ENDBRANCH   1  23
TORSDOF 14
ENDMDL
MODEL 8
REMARK VINA RESULT:      -4.6      3.445      6.627
REMARK SMILES [N-]=[N+]=Nc1cc(Cl)cc2c(C[NH2+]O)c(OCCc3cn(C[C@H](N=[N+]=[N-])C(=O)[O-])[nH+]n3)ccc12
REMARK SMILES IDX 16 1 15 2 14 3 10 4 9 5 31 6 8 7 33 8 32 9 6 10 4 11 5 12
REMARK SMILES IDX 7 13 11 14 12 15 13 18 3 20 2 21 1 22 17 23 18 24 30 25
REMARK SMILES IDX 19 26 29 27 20 28 21 30 22 31 23 32 24 33 25 34 26 35 27 36
REMARK SMILES IDX 28 37
REMARK H PARENT 12 16 12 17 13 19 29 29
ROOT
ATOM      1  C   UNL     1      44.617 131.113  16.613  1.00  0.00     0.236 C 
ENDROOT
BRANCH   1   2
ATOM      2  O   UNL     1      44.295 131.404  17.971  1.00  0.00    -0.493 OA
BRANCH   2   3
ATOM      3  C   UNL     1      43.197 132.170  18.397  1.00  0.00     0.128 A 
ATOM      4  C   UNL     1      43.393 133.142  19.404  1.00  0.00     0.059 A 
ATOM      5  C   UNL     1      42.299 133.969  19.804  1.00  0.00    -0.004 A 
ATOM      6  C   UNL     1      41.923 131.981  17.847  1.00  0.00     0.047 A 
ATOM      7  C   UNL     1      42.438 134.962  20.801  1.00  0.00     0.030 A 
ATOM      8  C   UNL     1      41.020 133.791  19.196  1.00  0.00    -0.008 A 
ATOM      9  C   UNL     1      40.851 132.765  18.252  1.00  0.00     0.013 A 
ATOM     10  C   UNL     1      41.347 135.726  21.210  1.00  0.00     0.042 A 
ATOM     11  C   UNL     1      39.932 134.623  19.582  1.00  0.00     0.047 A 
ATOM     12  C   UNL     1      40.104 135.551  20.612  1.00  0.00     0.031 A 
ATOM     13  Cl  UNL     1      41.546 136.933  22.468  1.00  0.00    -0.084 Cl
BRANCH   4  14
ATOM     14  C   UNL     1      44.789 133.270  20.003  1.00  0.00     0.337 C 
BRANCH  14  15
ATOM     15  N   UNL     1      45.268 131.990  20.533  1.00  0.00    -0.200 N 
ATOM     16  H   UNL     1      45.598 131.395  19.736  1.00  0.00     0.386 HD
ATOM     17  H   UNL     1      46.053 132.149  21.210  1.00  0.00     0.386 HD
BRANCH  15  18
ATOM     18  O   UNL     1      44.242 131.356  21.161  1.00  0.00    -0.220 OA
ATOM     19  H   UNL     1      44.480 130.391  21.180  1.00  0.00     0.288 HD
ENDBRANCH  15  18
ENDBRANCH  14  15
ENDBRANCH   4  14
BRANCH  11  20
ATOM     20  N   UNL     1      38.643 134.570  18.956  1.00  0.00    -0.060 NA
BRANCH  20  21
ATOM     21  N   UNL     1      38.084 135.580  18.525  1.00  0.00     0.005 N 
ATOM     22  N   UNL     1      37.526 136.587  18.094  1.00  0.00    -0.003 NA
ENDBRANCH  20  21
ENDBRANCH  11  20
ENDBRANCH   2   3
ENDBRANCH   1   2
BRANCH   1  23
ATOM     23  C   UNL     1      45.424 132.264  16.017  1.00  0.00     0.106 C 
BRANCH  23  24
ATOM     24  C   UNL     1      44.527 133.398  15.626  1.00  0.00     0.135 A 
ATOM     25  N   UNL     1      44.695 134.676  16.023  1.00  0.00     0.020 NA
ATOM     26  C   UNL     1      43.336 133.303  14.933  1.00  0.00     0.183 A 
ATOM     27  N   UNL     1      43.645 135.342  15.566  1.00  0.00    -0.017 N 
ATOM     28  N   UNL     1      42.820 134.543  14.909  1.00  0.00    -0.136 N 
ATOM     29  H   UNL     1      43.484 136.361  15.729  1.00  0.00     0.526 HD
BRANCH  28  30
ATOM     30  C   UNL     1      41.527 134.944  14.356  1.00  0.00     0.207 C 
BRANCH  30  31
ATOM     31  C   UNL     1      40.663 135.631  15.422  1.00  0.00     0.145 C 
BRANCH  31  32
ATOM     32  N   UNL     1      39.291 135.143  15.321  1.00  0.00    -0.083 NA
BRANCH  32  33
ATOM     33  N   UNL     1      38.999 134.227  14.553  1.00  0.00     0.002 N 
ATOM     34  N   UNL     1      38.705 133.311  13.785  1.00  0.00    -0.003 NA
ENDBRANCH  32  33
ENDBRANCH  31  32
BRANCH  31  35
ATOM     35  C   UNL     1      40.695 137.126  15.258  1.00  0.00     0.052 C 
ATOM     36  O   UNL     1      41.560 137.815  15.861  1.00  0.00    -0.550 OA
ATOM     37  O   UNL     1      39.746 137.758  14.463  1.00  0.00    -0.550 OA
ENDBRANCH  31  35
ENDBRANCH  30  31
ENDBRANCH  28  30
ENDBRANCH  23  24
ENDBRANCH   1  23
TORSDOF 14
ENDMDL
MODEL 9
REMARK VINA RESULT:      -4.6      3.220      6.662
REMARK SMILES [N-]=[N+]=Nc1cc(Cl)cc2c(C[NH2+]O)c(OCCc3cn(C[C@H](N=[N+]=[N-])C(=O)[O-])[nH+]n3)ccc12
REMARK SMILES IDX 16 1 15 2 14 3 10 4 9 5 31 6 8 7 33 8 32 9 6 10 4 11 5 12
REMARK SMILES IDX 7 13 11 14 12 15 13 18 3 20 2 21 1 22 17 23 18 24 30 25
REMARK SMILES IDX 19 26 29 27 20 28 21 30 22 31 23 32 24 33 25 34 26 35 27 36
REMARK SMILES IDX 28 37
REMARK H PARENT 12 16 12 17 13 19 29 29
ROOT
ATOM      1  C   UNL     1      43.827 131.900  14.422  1.00  0.00     0.236 C 
ENDROOT
BRANCH   1   2
ATOM      2  O   UNL     1      44.874 132.075  15.374  1.00  0.00    -0.493 OA
BRANCH   2   3
ATOM      3  C   UNL     1      44.700 132.504  16.701  1.00  0.00     0.128 A 
ATOM      4  C   UNL     1      44.940 131.590  17.750  1.00  0.00     0.059 A 
ATOM      5  C   UNL     1      44.823 132.029  19.105  1.00  0.00    -0.004 A 
ATOM      6  C   UNL     1      44.286 133.810  16.992  1.00  0.00     0.047 A 
ATOM      7  C   UNL     1      45.059 131.161  20.195  1.00  0.00     0.030 A 
ATOM      8  C   UNL     1      44.448 133.378  19.380  1.00  0.00    -0.008 A 
ATOM      9  C   UNL     1      44.146 134.234  18.307  1.00  0.00     0.013 A 
ATOM     10  C   UNL     1      44.895 131.597  21.509  1.00  0.00     0.042 A 
ATOM     11  C   UNL     1      44.346 133.823  20.727  1.00  0.00     0.047 A 
ATOM     12  C   UNL     1      44.532 132.913  21.770  1.00  0.00     0.031 A 
ATOM     13  Cl  UNL     1      45.171 130.488  22.840  1.00  0.00    -0.084 Cl
BRANCH   4  14
ATOM     14  C   UNL     1      45.338 130.167  17.375  1.00  0.00     0.337 C 
BRANCH  14  15
ATOM     15  N   UNL     1      46.723 130.103  16.896  1.00  0.00    -0.200 N 
ATOM     16  H   UNL     1      47.085 131.077  16.770  1.00  0.00     0.386 HD
ATOM     17  H   UNL     1      47.320 129.584  17.584  1.00  0.00     0.386 HD
BRANCH  15  18
ATOM     18  O   UNL     1      46.749 129.464  15.695  1.00  0.00    -0.220 OA
ATOM     19  H   UNL     1      47.400 128.720  15.790  1.00  0.00     0.288 HD
ENDBRANCH  15  18
ENDBRANCH  14  15
ENDBRANCH   4  14
BRANCH  11  20
ATOM     20  N   UNL     1      44.064 135.183  21.085  1.00  0.00    -0.060 NA
BRANCH  20  21
ATOM     21  N   UNL     1      44.682 135.764  21.979  1.00  0.00     0.005 N 
ATOM     22  N   UNL     1      45.300 136.342  22.871  1.00  0.00    -0.003 NA
ENDBRANCH  20  21
ENDBRANCH  11  20
ENDBRANCH   2   3
ENDBRANCH   1   2
BRANCH   1  23
ATOM     23  C   UNL     1      42.476 131.912  15.133  1.00  0.00     0.106 C 
BRANCH  23  24
ATOM     24  C   UNL     1      41.710 133.156  14.802  1.00  0.00     0.135 A 
ATOM     25  N   UNL     1      41.512 133.620  13.551  1.00  0.00     0.020 NA
ATOM     26  C   UNL     1      41.217 134.082  15.701  1.00  0.00     0.183 A 
ATOM     27  N   UNL     1      40.897 134.785  13.686  1.00  0.00    -0.017 N 
ATOM     28  N   UNL     1      40.707 135.081  14.962  1.00  0.00    -0.136 N 
ATOM     29  H   UNL     1      40.623 135.397  12.885  1.00  0.00     0.526 HD
BRANCH  28  30
ATOM     30  C   UNL     1      40.136 136.333  15.456  1.00  0.00     0.207 C 
BRANCH  30  31
ATOM     31  C   UNL     1      40.431 137.490  14.490  1.00  0.00     0.145 C 
BRANCH  31  32
ATOM     32  N   UNL     1      41.041 138.592  15.227  1.00  0.00    -0.083 NA
BRANCH  32  33
ATOM     33  N   UNL     1      40.469 139.107  16.187  1.00  0.00     0.002 N 
ATOM     34  N   UNL     1      39.897 139.623  17.147  1.00  0.00    -0.003 NA
ENDBRANCH  32  33
ENDBRANCH  31  32
BRANCH  31  35
ATOM     35  C   UNL     1      39.172 137.955  13.810  1.00  0.00     0.052 C 
ATOM     36  O   UNL     1      39.233 138.704  12.800  1.00  0.00    -0.550 OA
ATOM     37  O   UNL     1      37.932 137.586  14.317  1.00  0.00    -0.550 OA
ENDBRANCH  31  35
ENDBRANCH  30  31
ENDBRANCH  28  30
ENDBRANCH  23  24
ENDBRANCH   1  23
TORSDOF 14
ENDMDL


