MODEL 1
REMARK VINA RESULT:      -6.5      0.000      0.000
REMARK SMILES C#C/C(N=[N+]=[N-])=N\[C@H](c1c(C)n[nH+]n1-c1c2ccccc2c(C=O)c2ccccc12)C(C)C
REMARK SMILES IDX 7 1 3 2 2 3 1 4 4 5 5 6 6 7 8 8 9 9 10 10 14 11 12 12 13 13
REMARK SMILES IDX 11 14 15 16 16 17 30 18 17 19 21 20 29 21 25 22 18 23 20 24
REMARK SMILES IDX 22 25 28 26 26 27 19 28 27 29 23 30 24 31 31 32 32 33 33 34
REMARK H PARENT 13 15
ROOT
ATOM      1  N   UNL     1      42.604 135.722  15.614  1.00  0.00    -0.264 NA
ENDROOT
BRANCH   1   2
ATOM      2  C   UNL     1      41.544 136.098  14.960  1.00  0.00     0.172 C 
BRANCH   2   3
ATOM      3  C   UNL     1      40.952 137.403  15.157  1.00  0.00    -0.049 C 
ATOM      4  C   UNL     1      40.464 138.495  15.296  1.00  0.00     0.011 C 
ENDBRANCH   2   3
BRANCH   2   5
ATOM      5  N   UNL     1      40.965 135.183  14.024  1.00  0.00    -0.032 NA
BRANCH   5   6
ATOM      6  N   UNL     1      40.027 134.446  14.331  1.00  0.00     0.008 N 
ATOM      7  N   UNL     1      39.091 133.708  14.637  1.00  0.00    -0.003 NA
ENDBRANCH   5   6
ENDBRANCH   2   5
ENDBRANCH   1   2
BRANCH   1   8
ATOM      8  C   UNL     1      42.684 135.372  17.038  1.00  0.00     0.164 C 
BRANCH   8   9
ATOM      9  C   UNL     1      41.568 134.423  17.452  1.00  0.00     0.137 A 
ATOM     10  C   UNL     1      40.274 134.715  17.884  1.00  0.00     0.135 A 
ATOM     11  N   UNL     1      41.694 133.081  17.560  1.00  0.00    -0.097 N 
ATOM     12  N   UNL     1      39.661 133.556  18.203  1.00  0.00     0.020 NA
ATOM     13  N   UNL     1      40.546 132.594  17.999  1.00  0.00    -0.012 N 
ATOM     14  C   UNL     1      39.603 136.047  17.992  1.00  0.00     0.076 C 
ATOM     15  H   UNL     1      40.363 131.583  18.186  1.00  0.00     0.527 HD
BRANCH  11  16
ATOM     16  C   UNL     1      42.875 132.286  17.354  1.00  0.00     0.123 A 
ATOM     17  C   UNL     1      43.680 131.924  18.455  1.00  0.00     0.013 A 
ATOM     18  C   UNL     1      43.223 131.862  16.055  1.00  0.00     0.013 A 
ATOM     19  C   UNL     1      43.322 132.315  19.764  1.00  0.00     0.011 A 
ATOM     20  C   UNL     1      44.880 131.189  18.252  1.00  0.00    -0.005 A 
ATOM     21  C   UNL     1      42.382 132.151  14.961  1.00  0.00     0.011 A 
ATOM     22  C   UNL     1      44.412 131.113  15.842  1.00  0.00    -0.005 A 
ATOM     23  C   UNL     1      44.140 132.013  20.849  1.00  0.00     0.001 A 
ATOM     24  C   UNL     1      45.706 130.922  19.371  1.00  0.00     0.009 A 
ATOM     25  C   UNL     1      45.243 130.774  16.943  1.00  0.00     0.030 A 
ATOM     26  C   UNL     1      42.711 131.726  13.676  1.00  0.00     0.001 A 
ATOM     27  C   UNL     1      44.719 130.693  14.526  1.00  0.00     0.009 A 
ATOM     28  C   UNL     1      45.332 131.326  20.652  1.00  0.00     0.001 A 
ATOM     29  C   UNL     1      43.878 131.004  13.458  1.00  0.00     0.001 A 
BRANCH  25  30
ATOM     30  C   UNL     1      46.472 129.974  16.714  1.00  0.00     0.261 C 
ATOM     31  O   UNL     1      47.287 130.291  15.808  1.00  0.00    -0.298 OA
ENDBRANCH  25  30
ENDBRANCH  11  16
ENDBRANCH   8   9
BRANCH   8  32
ATOM     32  C   UNL     1      42.686 136.666  17.894  1.00  0.00     0.014 C 
ATOM     33  C   UNL     1      42.954 136.348  19.371  1.00  0.00     0.010 C 
ATOM     34  C   UNL     1      43.687 137.716  17.387  1.00  0.00     0.010 C 
ENDBRANCH   8  32
ENDBRANCH   1   8
TORSDOF 9
ENDMDL
MODEL 2
REMARK VINA RESULT:      -6.4      2.915      5.885
REMARK SMILES C#C/C(N=[N+]=[N-])=N\[C@H](c1c(C)n[nH+]n1-c1c2ccccc2c(C=O)c2ccccc12)C(C)C
REMARK SMILES IDX 7 1 3 2 2 3 1 4 4 5 5 6 6 7 8 8 9 9 10 10 14 11 12 12 13 13
REMARK SMILES IDX 11 14 15 16 16 17 30 18 17 19 21 20 29 21 25 22 18 23 20 24
REMARK SMILES IDX 22 25 28 26 26 27 19 28 27 29 23 30 24 31 31 32 32 33 33 34
REMARK H PARENT 13 15
ROOT
ATOM      1  N   UNL     1      44.179 134.039  15.709  1.00  0.00    -0.264 NA
ENDROOT
BRANCH   1   2
ATOM      2  C   UNL     1      43.366 134.815  15.053  1.00  0.00     0.172 C 
BRANCH   2   3
ATOM      3  C   UNL     1      42.081 134.344  14.583  1.00  0.00    -0.049 C 
ATOM      4  C   UNL     1      41.001 133.976  14.200  1.00  0.00     0.011 C 
ENDBRANCH   2   3
BRANCH   2   5
ATOM      5  N   UNL     1      43.771 136.164  14.801  1.00  0.00    -0.032 NA
BRANCH   5   6
ATOM      6  N   UNL     1      42.957 137.088  14.757  1.00  0.00     0.008 N 
ATOM      7  N   UNL     1      42.144 138.010  14.710  1.00  0.00    -0.003 NA
ENDBRANCH   5   6
ENDBRANCH   2   5
ENDBRANCH   1   2
BRANCH   1   8
ATOM      8  C   UNL     1      43.879 132.714  16.266  1.00  0.00     0.164 C 
BRANCH   8   9
ATOM      9  C   UNL     1      44.090 132.672  17.774  1.00  0.00     0.137 A 
ATOM     10  C   UNL     1      44.770 131.730  18.545  1.00  0.00     0.135 A 
ATOM     11  N   UNL     1      43.541 133.537  18.656  1.00  0.00    -0.097 N 
ATOM     12  N   UNL     1      44.640 132.070  19.844  1.00  0.00     0.020 NA
ATOM     13  N   UNL     1      43.891 133.161  19.873  1.00  0.00    -0.012 N 
ATOM     14  C   UNL     1      45.543 130.532  18.090  1.00  0.00     0.076 C 
ATOM     15  H   UNL     1      43.597 133.643  20.752  1.00  0.00     0.527 HD
BRANCH  11  16
ATOM     16  C   UNL     1      42.641 134.626  18.382  1.00  0.00     0.123 A 
ATOM     17  C   UNL     1      43.122 135.952  18.379  1.00  0.00     0.013 A 
ATOM     18  C   UNL     1      41.283 134.367  18.109  1.00  0.00     0.013 A 
ATOM     19  C   UNL     1      44.488 136.219  18.618  1.00  0.00     0.011 A 
ATOM     20  C   UNL     1      42.228 137.037  18.168  1.00  0.00    -0.005 A 
ATOM     21  C   UNL     1      40.811 133.040  18.031  1.00  0.00     0.011 A 
ATOM     22  C   UNL     1      40.381 135.442  17.881  1.00  0.00    -0.005 A 
ATOM     23  C   UNL     1      44.961 137.527  18.674  1.00  0.00     0.001 A 
ATOM     24  C   UNL     1      42.733 138.356  18.260  1.00  0.00     0.009 A 
ATOM     25  C   UNL     1      40.855 136.781  17.908  1.00  0.00     0.030 A 
ATOM     26  C   UNL     1      39.472 132.774  17.750  1.00  0.00     0.001 A 
ATOM     27  C   UNL     1      39.028 135.141  17.594  1.00  0.00     0.009 A 
ATOM     28  C   UNL     1      44.085 138.592  18.505  1.00  0.00     0.001 A 
ATOM     29  C   UNL     1      38.583 133.821  17.537  1.00  0.00     0.001 A 
BRANCH  25  30
ATOM     30  C   UNL     1      39.911 137.897  17.649  1.00  0.00     0.261 C 
ATOM     31  O   UNL     1      39.305 138.461  18.598  1.00  0.00    -0.298 OA
ENDBRANCH  25  30
ENDBRANCH  11  16
ENDBRANCH   8   9
BRANCH   8  32
ATOM     32  C   UNL     1      44.724 131.638  15.536  1.00  0.00     0.014 C 
ATOM     33  C   UNL     1      43.962 131.061  14.335  1.00  0.00     0.010 C 
ATOM     34  C   UNL     1      46.099 132.159  15.092  1.00  0.00     0.010 C 
ENDBRANCH   8  32
ENDBRANCH   1   8
TORSDOF 9
ENDMDL
MODEL 3
REMARK VINA RESULT:      -6.2      2.751      5.161
REMARK SMILES C#C/C(N=[N+]=[N-])=N\[C@H](c1c(C)n[nH+]n1-c1c2ccccc2c(C=O)c2ccccc12)C(C)C
REMARK SMILES IDX 7 1 3 2 2 3 1 4 4 5 5 6 6 7 8 8 9 9 10 10 14 11 12 12 13 13
REMARK SMILES IDX 11 14 15 16 16 17 30 18 17 19 21 20 29 21 25 22 18 23 20 24
REMARK SMILES IDX 22 25 28 26 26 27 19 28 27 29 23 30 24 31 31 32 32 33 33 34
REMARK H PARENT 13 15
ROOT
ATOM      1  N   UNL     1      44.113 133.919  15.370  1.00  0.00    -0.264 NA
ENDROOT
BRANCH   1   2
ATOM      2  C   UNL     1      44.607 132.726  15.203  1.00  0.00     0.172 C 
BRANCH   2   3
ATOM      3  C   UNL     1      43.889 131.701  14.478  1.00  0.00    -0.049 C 
ATOM      4  C   UNL     1      43.277 130.866  13.862  1.00  0.00     0.011 C 
ENDBRANCH   2   3
BRANCH   2   5
ATOM      5  N   UNL     1      45.896 132.443  15.756  1.00  0.00    -0.032 NA
BRANCH   5   6
ATOM      6  N   UNL     1      46.385 131.313  15.718  1.00  0.00     0.008 N 
ATOM      7  N   UNL     1      46.875 130.184  15.682  1.00  0.00    -0.003 NA
ENDBRANCH   5   6
ENDBRANCH   2   5
ENDBRANCH   1   2
BRANCH   1   8
ATOM      8  C   UNL     1      43.629 134.505  16.626  1.00  0.00     0.164 C 
BRANCH   8   9
ATOM      9  C   UNL     1      42.357 133.827  17.116  1.00  0.00     0.137 A 
ATOM     10  C   UNL     1      41.178 133.553  16.423  1.00  0.00     0.135 A 
ATOM     11  N   UNL     1      42.125 133.448  18.393  1.00  0.00    -0.097 N 
ATOM     12  N   UNL     1      40.299 132.997  17.282  1.00  0.00     0.020 NA
ATOM     13  N   UNL     1      40.902 132.952  18.459  1.00  0.00    -0.012 N 
ATOM     14  C   UNL     1      40.866 133.791  14.979  1.00  0.00     0.076 C 
ATOM     15  H   UNL     1      40.453 132.592  19.331  1.00  0.00     0.527 HD
BRANCH  11  16
ATOM     16  C   UNL     1      42.980 133.628  19.536  1.00  0.00     0.123 A 
ATOM     17  C   UNL     1      42.719 134.671  20.451  1.00  0.00     0.013 A 
ATOM     18  C   UNL     1      44.069 132.760  19.748  1.00  0.00     0.013 A 
ATOM     19  C   UNL     1      41.610 135.526  20.266  1.00  0.00     0.011 A 
ATOM     20  C   UNL     1      43.593 134.893  21.550  1.00  0.00    -0.005 A 
ATOM     21  C   UNL     1      44.288 131.667  18.884  1.00  0.00     0.011 A 
ATOM     22  C   UNL     1      44.941 132.961  20.852  1.00  0.00    -0.005 A 
ATOM     23  C   UNL     1      41.379 136.593  21.129  1.00  0.00     0.001 A 
ATOM     24  C   UNL     1      43.349 136.003  22.394  1.00  0.00     0.009 A 
ATOM     25  C   UNL     1      44.702 134.029  21.757  1.00  0.00     0.030 A 
ATOM     26  C   UNL     1      45.356 130.796  19.092  1.00  0.00     0.001 A 
ATOM     27  C   UNL     1      46.015 132.058  21.040  1.00  0.00     0.009 A 
ATOM     28  C   UNL     1      42.250 136.836  22.184  1.00  0.00     0.001 A 
ATOM     29  C   UNL     1      46.219 130.994  20.163  1.00  0.00     0.001 A 
BRANCH  25  30
ATOM     30  C   UNL     1      45.605 134.221  22.919  1.00  0.00     0.261 C 
ATOM     31  O   UNL     1      46.630 134.946  22.826  1.00  0.00    -0.298 OA
ENDBRANCH  25  30
ENDBRANCH  11  16
ENDBRANCH   8   9
BRANCH   8  32
ATOM     32  C   UNL     1      43.433 136.034  16.446  1.00  0.00     0.014 C 
ATOM     33  C   UNL     1      43.290 136.398  14.962  1.00  0.00     0.010 C 
ATOM     34  C   UNL     1      42.240 136.581  17.244  1.00  0.00     0.010 C 
ENDBRANCH   8  32
ENDBRANCH   1   8
TORSDOF 9
ENDMDL
MODEL 4
REMARK VINA RESULT:      -6.2      2.949      5.663
REMARK SMILES C#C/C(N=[N+]=[N-])=N\[C@H](c1c(C)n[nH+]n1-c1c2ccccc2c(C=O)c2ccccc12)C(C)C
REMARK SMILES IDX 7 1 3 2 2 3 1 4 4 5 5 6 6 7 8 8 9 9 10 10 14 11 12 12 13 13
REMARK SMILES IDX 11 14 15 16 16 17 30 18 17 19 21 20 29 21 25 22 18 23 20 24
REMARK SMILES IDX 22 25 28 26 26 27 19 28 27 29 23 30 24 31 31 32 32 33 33 34
REMARK H PARENT 13 15
ROOT
ATOM      1  N   UNL     1      42.759 132.629  16.669  1.00  0.00    -0.264 NA
ENDROOT
BRANCH   1   2
ATOM      2  C   UNL     1      43.743 131.876  16.273  1.00  0.00     0.172 C 
BRANCH   2   3
ATOM      3  C   UNL     1      44.689 131.307  17.209  1.00  0.00    -0.049 C 
ATOM      4  C   UNL     1      45.495 130.850  17.978  1.00  0.00     0.011 C 
ENDBRANCH   2   3
BRANCH   2   5
ATOM      5  N   UNL     1      43.875 131.612  14.873  1.00  0.00    -0.032 NA
BRANCH   5   6
ATOM      6  N   UNL     1      44.808 130.945  14.423  1.00  0.00     0.008 N 
ATOM      7  N   UNL     1      45.740 130.279  13.975  1.00  0.00    -0.003 NA
ENDBRANCH   5   6
ENDBRANCH   2   5
ENDBRANCH   1   2
BRANCH   1   8
ATOM      8  C   UNL     1      42.841 134.025  17.118  1.00  0.00     0.164 C 
BRANCH   8   9
ATOM      9  C   UNL     1      41.968 134.281  18.338  1.00  0.00     0.137 A 
ATOM     10  C   UNL     1      40.637 133.928  18.563  1.00  0.00     0.135 A 
ATOM     11  N   UNL     1      42.338 135.012  19.414  1.00  0.00    -0.097 N 
ATOM     12  N   UNL     1      40.263 134.420  19.762  1.00  0.00     0.020 NA
ATOM     13  N   UNL     1      41.311 135.070  20.244  1.00  0.00    -0.012 N 
ATOM     14  C   UNL     1      39.720 133.134  17.687  1.00  0.00     0.076 C 
ATOM     15  H   UNL     1      41.311 135.582  21.155  1.00  0.00     0.527 HD
BRANCH  11  16
ATOM     16  C   UNL     1      43.576 135.714  19.622  1.00  0.00     0.123 A 
ATOM     17  C   UNL     1      44.618 135.102  20.350  1.00  0.00     0.013 A 
ATOM     18  C   UNL     1      43.751 137.008  19.091  1.00  0.00     0.013 A 
ATOM     19  C   UNL     1      44.464 133.792  20.857  1.00  0.00     0.011 A 
ATOM     20  C   UNL     1      45.822 135.811  20.610  1.00  0.00    -0.005 A 
ATOM     21  C   UNL     1      42.747 137.594  18.294  1.00  0.00     0.011 A 
ATOM     22  C   UNL     1      44.957 137.722  19.330  1.00  0.00    -0.005 A 
ATOM     23  C   UNL     1      45.463 133.202  21.626  1.00  0.00     0.001 A 
ATOM     24  C   UNL     1      46.807 135.197  21.420  1.00  0.00     0.009 A 
ATOM     25  C   UNL     1      45.996 137.122  20.090  1.00  0.00     0.030 A 
ATOM     26  C   UNL     1      42.916 138.868  17.755  1.00  0.00     0.001 A 
ATOM     27  C   UNL     1      45.101 139.012  18.767  1.00  0.00     0.009 A 
ATOM     28  C   UNL     1      46.627 133.905  21.914  1.00  0.00     0.001 A 
ATOM     29  C   UNL     1      44.087 139.576  17.995  1.00  0.00     0.001 A 
BRANCH  25  30
ATOM     30  C   UNL     1      47.259 137.866  20.319  1.00  0.00     0.261 C 
ATOM     31  O   UNL     1      48.225 137.758  19.518  1.00  0.00    -0.298 OA
ENDBRANCH  25  30
ENDBRANCH  11  16
ENDBRANCH   8   9
BRANCH   8  32
ATOM     32  C   UNL     1      42.481 134.972  15.943  1.00  0.00     0.014 C 
ATOM     33  C   UNL     1      43.745 135.575  15.315  1.00  0.00     0.010 C 
ATOM     34  C   UNL     1      41.627 134.287  14.865  1.00  0.00     0.010 C 
ENDBRANCH   8  32
ENDBRANCH   1   8
TORSDOF 9
ENDMDL
MODEL 5
REMARK VINA RESULT:      -6.1      2.704      5.581
REMARK SMILES C#C/C(N=[N+]=[N-])=N\[C@H](c1c(C)n[nH+]n1-c1c2ccccc2c(C=O)c2ccccc12)C(C)C
REMARK SMILES IDX 7 1 3 2 2 3 1 4 4 5 5 6 6 7 8 8 9 9 10 10 14 11 12 12 13 13
REMARK SMILES IDX 11 14 15 16 16 17 30 18 17 19 21 20 29 21 25 22 18 23 20 24
REMARK SMILES IDX 22 25 28 26 26 27 19 28 27 29 23 30 24 31 31 32 32 33 33 34
REMARK H PARENT 13 15
ROOT
ATOM      1  N   UNL     1      43.061 132.351  16.733  1.00  0.00    -0.264 NA
ENDROOT
BRANCH   1   2
ATOM      2  C   UNL     1      44.114 131.598  16.601  1.00  0.00     0.172 C 
BRANCH   2   3
ATOM      3  C   UNL     1      44.900 131.184  17.743  1.00  0.00    -0.049 C 
ATOM      4  C   UNL     1      45.545 130.815  18.690  1.00  0.00     0.011 C 
ENDBRANCH   2   3
BRANCH   2   5
ATOM      5  N   UNL     1      44.486 131.178  15.284  1.00  0.00    -0.032 NA
BRANCH   5   6
ATOM      6  N   UNL     1      45.587 131.450  14.803  1.00  0.00     0.008 N 
ATOM      7  N   UNL     1      46.687 131.719  14.322  1.00  0.00    -0.003 NA
ENDBRANCH   5   6
ENDBRANCH   2   5
ENDBRANCH   1   2
BRANCH   1   8
ATOM      8  C   UNL     1      43.015 133.718  17.267  1.00  0.00     0.164 C 
BRANCH   8   9
ATOM      9  C   UNL     1      41.904 133.888  18.295  1.00  0.00     0.137 A 
ATOM     10  C   UNL     1      40.527 133.991  18.100  1.00  0.00     0.135 A 
ATOM     11  N   UNL     1      42.100 134.069  19.621  1.00  0.00    -0.097 N 
ATOM     12  N   UNL     1      39.942 134.196  19.298  1.00  0.00     0.020 NA
ATOM     13  N   UNL     1      40.919 134.240  20.190  1.00  0.00    -0.012 N 
ATOM     14  C   UNL     1      39.754 133.893  16.823  1.00  0.00     0.076 C 
ATOM     15  H   UNL     1      40.771 134.414  21.209  1.00  0.00     0.527 HD
BRANCH  11  16
ATOM     16  C   UNL     1      43.350 134.175  20.323  1.00  0.00     0.123 A 
ATOM     17  C   UNL     1      44.070 135.389  20.298  1.00  0.00     0.013 A 
ATOM     18  C   UNL     1      43.853 133.072  21.041  1.00  0.00     0.013 A 
ATOM     19  C   UNL     1      43.558 136.511  19.609  1.00  0.00     0.011 A 
ATOM     20  C   UNL     1      45.335 135.484  20.939  1.00  0.00    -0.005 A 
ATOM     21  C   UNL     1      43.103 131.882  21.138  1.00  0.00     0.011 A 
ATOM     22  C   UNL     1      45.109 133.159  21.700  1.00  0.00    -0.005 A 
ATOM     23  C   UNL     1      44.287 137.694  19.530  1.00  0.00     0.001 A 
ATOM     24  C   UNL     1      46.066 136.691  20.817  1.00  0.00     0.009 A 
ATOM     25  C   UNL     1      45.852 134.369  21.651  1.00  0.00     0.030 A 
ATOM     26  C   UNL     1      43.585 130.790  21.856  1.00  0.00     0.001 A 
ATOM     27  C   UNL     1      45.573 132.035  22.424  1.00  0.00     0.009 A 
ATOM     28  C   UNL     1      45.541 137.781  20.124  1.00  0.00     0.001 A 
ATOM     29  C   UNL     1      44.818 130.865  22.492  1.00  0.00     0.001 A 
BRANCH  25  30
ATOM     30  C   UNL     1      47.154 134.458  22.358  1.00  0.00     0.261 C 
ATOM     31  O   UNL     1      48.235 134.252  21.746  1.00  0.00    -0.298 OA
ENDBRANCH  25  30
ENDBRANCH  11  16
ENDBRANCH   8   9
BRANCH   8  32
ATOM     32  C   UNL     1      42.877 134.729  16.098  1.00  0.00     0.014 C 
ATOM     33  C   UNL     1      42.348 136.080  16.600  1.00  0.00     0.010 C 
ATOM     34  C   UNL     1      44.188 134.928  15.323  1.00  0.00     0.010 C 
ENDBRANCH   8  32
ENDBRANCH   1   8
TORSDOF 9
ENDMDL
MODEL 6
REMARK VINA RESULT:      -6.1      2.962      6.606
REMARK SMILES C#C/C(N=[N+]=[N-])=N\[C@H](c1c(C)n[nH+]n1-c1c2ccccc2c(C=O)c2ccccc12)C(C)C
REMARK SMILES IDX 7 1 3 2 2 3 1 4 4 5 5 6 6 7 8 8 9 9 10 10 14 11 12 12 13 13
REMARK SMILES IDX 11 14 15 16 16 17 30 18 17 19 21 20 29 21 25 22 18 23 20 24
REMARK SMILES IDX 22 25 28 26 26 27 19 28 27 29 23 30 24 31 31 32 32 33 33 34
REMARK H PARENT 13 15
ROOT
ATOM      1  N   UNL     1      44.661 132.704  18.388  1.00  0.00    -0.264 NA
ENDROOT
BRANCH   1   2
ATOM      2  C   UNL     1      44.283 132.377  17.186  1.00  0.00     0.172 C 
BRANCH   2   3
ATOM      3  C   UNL     1      45.241 132.135  16.128  1.00  0.00    -0.049 C 
ATOM      4  C   UNL     1      46.021 131.945  15.230  1.00  0.00     0.011 C 
ENDBRANCH   2   3
BRANCH   2   5
ATOM      5  N   UNL     1      42.881 132.256  16.924  1.00  0.00    -0.032 NA
BRANCH   5   6
ATOM      6  N   UNL     1      42.417 132.403  15.792  1.00  0.00     0.008 N 
ATOM      7  N   UNL     1      41.953 132.552  14.663  1.00  0.00    -0.003 NA
ENDBRANCH   5   6
ENDBRANCH   2   5
ENDBRANCH   1   2
BRANCH   1   8
ATOM      8  C   UNL     1      43.794 133.053  19.520  1.00  0.00     0.164 C 
BRANCH   8   9
ATOM      9  C   UNL     1      43.974 134.504  19.945  1.00  0.00     0.137 A 
ATOM     10  C   UNL     1      44.935 135.067  20.784  1.00  0.00     0.135 A 
ATOM     11  N   UNL     1      43.127 135.512  19.633  1.00  0.00    -0.097 N 
ATOM     12  N   UNL     1      44.662 136.381  20.923  1.00  0.00     0.020 NA
ATOM     13  N   UNL     1      43.565 136.612  20.219  1.00  0.00    -0.012 N 
ATOM     14  C   UNL     1      46.102 134.405  21.445  1.00  0.00     0.076 C 
ATOM     15  H   UNL     1      43.096 137.544  20.159  1.00  0.00     0.527 HD
BRANCH  11  16
ATOM     16  C   UNL     1      41.897 135.434  18.892  1.00  0.00     0.123 A 
ATOM     17  C   UNL     1      41.906 135.627  17.494  1.00  0.00     0.013 A 
ATOM     18  C   UNL     1      40.687 135.156  19.558  1.00  0.00     0.013 A 
ATOM     19  C   UNL     1      43.118 135.872  16.812  1.00  0.00     0.011 A 
ATOM     20  C   UNL     1      40.687 135.611  16.762  1.00  0.00    -0.005 A 
ATOM     21  C   UNL     1      40.681 134.882  20.941  1.00  0.00     0.011 A 
ATOM     22  C   UNL     1      39.464 135.121  18.835  1.00  0.00    -0.005 A 
ATOM     23  C   UNL     1      43.130 136.123  15.442  1.00  0.00     0.001 A 
ATOM     24  C   UNL     1      40.728 135.897  15.376  1.00  0.00     0.009 A 
ATOM     25  C   UNL     1      39.463 135.347  17.433  1.00  0.00     0.030 A 
ATOM     26  C   UNL     1      39.491 134.595  21.607  1.00  0.00     0.001 A 
ATOM     27  C   UNL     1      38.271 134.824  19.537  1.00  0.00     0.009 A 
ATOM     28  C   UNL     1      41.938 136.144  14.728  1.00  0.00     0.001 A 
ATOM     29  C   UNL     1      38.290 134.571  20.908  1.00  0.00     0.001 A 
BRANCH  25  30
ATOM     30  C   UNL     1      38.184 135.290  16.682  1.00  0.00     0.261 C 
ATOM     31  O   UNL     1      37.844 134.244  16.068  1.00  0.00    -0.298 OA
ENDBRANCH  25  30
ENDBRANCH  11  16
ENDBRANCH   8   9
BRANCH   8  32
ATOM     32  C   UNL     1      44.052 132.073  20.695  1.00  0.00     0.014 C 
ATOM     33  C   UNL     1      42.744 131.421  21.164  1.00  0.00     0.010 C 
ATOM     34  C   UNL     1      45.092 130.994  20.355  1.00  0.00     0.010 C 
ENDBRANCH   8  32
ENDBRANCH   1   8
TORSDOF 9
ENDMDL
MODEL 7
REMARK VINA RESULT:      -6.1      3.451      6.137
REMARK SMILES C#C/C(N=[N+]=[N-])=N\[C@H](c1c(C)n[nH+]n1-c1c2ccccc2c(C=O)c2ccccc12)C(C)C
REMARK SMILES IDX 7 1 3 2 2 3 1 4 4 5 5 6 6 7 8 8 9 9 10 10 14 11 12 12 13 13
REMARK SMILES IDX 11 14 15 16 16 17 30 18 17 19 21 20 29 21 25 22 18 23 20 24
REMARK SMILES IDX 22 25 28 26 26 27 19 28 27 29 23 30 24 31 31 32 32 33 33 34
REMARK H PARENT 13 15
ROOT
ATOM      1  N   UNL     1      44.909 132.404  18.928  1.00  0.00    -0.264 NA
ENDROOT
BRANCH   1   2
ATOM      2  C   UNL     1      44.217 132.024  17.893  1.00  0.00     0.172 C 
BRANCH   2   3
ATOM      3  C   UNL     1      42.793 131.782  17.980  1.00  0.00    -0.049 C 
ATOM      4  C   UNL     1      41.609 131.565  18.030  1.00  0.00     0.011 C 
ENDBRANCH   2   3
BRANCH   2   5
ATOM      5  N   UNL     1      44.899 131.848  16.648  1.00  0.00    -0.032 NA
BRANCH   5   6
ATOM      6  N   UNL     1      45.799 131.017  16.513  1.00  0.00     0.008 N 
ATOM      7  N   UNL     1      46.698 130.188  16.376  1.00  0.00    -0.003 NA
ENDBRANCH   5   6
ENDBRANCH   2   5
ENDBRANCH   1   2
BRANCH   1   8
ATOM      8  C   UNL     1      44.386 132.924  20.197  1.00  0.00     0.164 C 
BRANCH   8   9
ATOM      9  C   UNL     1      44.642 134.418  20.347  1.00  0.00     0.137 A 
ATOM     10  C   UNL     1      45.624 135.077  21.087  1.00  0.00     0.135 A 
ATOM     11  N   UNL     1      43.858 135.392  19.832  1.00  0.00    -0.097 N 
ATOM     12  N   UNL     1      45.423 136.406  20.971  1.00  0.00     0.020 NA
ATOM     13  N   UNL     1      44.350 136.558  20.211  1.00  0.00    -0.012 N 
ATOM     14  C   UNL     1      46.743 134.489  21.886  1.00  0.00     0.076 C 
ATOM     15  H   UNL     1      43.936 137.486  19.967  1.00  0.00     0.527 HD
BRANCH  11  16
ATOM     16  C   UNL     1      42.635 135.241  19.090  1.00  0.00     0.123 A 
ATOM     17  C   UNL     1      41.412 135.082  19.776  1.00  0.00     0.013 A 
ATOM     18  C   UNL     1      42.656 135.262  17.681  1.00  0.00     0.013 A 
ATOM     19  C   UNL     1      41.375 135.093  21.188  1.00  0.00     0.011 A 
ATOM     20  C   UNL     1      40.207 134.873  19.051  1.00  0.00    -0.005 A 
ATOM     21  C   UNL     1      43.861 135.502  16.990  1.00  0.00     0.011 A 
ATOM     22  C   UNL     1      41.456 135.070  16.945  1.00  0.00    -0.005 A 
ATOM     23  C   UNL     1      40.183 134.878  21.874  1.00  0.00     0.001 A 
ATOM     24  C   UNL     1      39.016 134.628  19.776  1.00  0.00     0.009 A 
ATOM     25  C   UNL     1      40.227 134.877  17.630  1.00  0.00     0.030 A 
ATOM     26  C   UNL     1      43.891 135.536  15.597  1.00  0.00     0.001 A 
ATOM     27  C   UNL     1      41.516 135.113  15.531  1.00  0.00     0.009 A 
ATOM     28  C   UNL     1      39.009 134.637  21.171  1.00  0.00     0.001 A 
ATOM     29  C   UNL     1      42.723 135.337  14.871  1.00  0.00     0.001 A 
BRANCH  25  30
ATOM     30  C   UNL     1      38.975 134.697  16.854  1.00  0.00     0.261 C 
ATOM     31  O   UNL     1      38.638 133.561  16.430  1.00  0.00    -0.298 OA
ENDBRANCH  25  30
ENDBRANCH  11  16
ENDBRANCH   8   9
BRANCH   8  32
ATOM     32  C   UNL     1      44.986 132.116  21.378  1.00  0.00     0.014 C 
ATOM     33  C   UNL     1      43.883 131.398  22.169  1.00  0.00     0.010 C 
ATOM     34  C   UNL     1      46.058 131.111  20.930  1.00  0.00     0.010 C 
ENDBRANCH   8  32
ENDBRANCH   1   8
TORSDOF 9
ENDMDL
MODEL 8
REMARK VINA RESULT:      -6.0      2.993      5.909
REMARK SMILES C#C/C(N=[N+]=[N-])=N\[C@H](c1c(C)n[nH+]n1-c1c2ccccc2c(C=O)c2ccccc12)C(C)C
REMARK SMILES IDX 7 1 3 2 2 3 1 4 4 5 5 6 6 7 8 8 9 9 10 10 14 11 12 12 13 13
REMARK SMILES IDX 11 14 15 16 16 17 30 18 17 19 21 20 29 21 25 22 18 23 20 24
REMARK SMILES IDX 22 25 28 26 26 27 19 28 27 29 23 30 24 31 31 32 32 33 33 34
REMARK H PARENT 13 15
ROOT
ATOM      1  N   UNL     1      44.146 133.236  15.418  1.00  0.00    -0.264 NA
ENDROOT
BRANCH   1   2
ATOM      2  C   UNL     1      44.439 131.976  15.554  1.00  0.00     0.172 C 
BRANCH   2   3
ATOM      3  C   UNL     1      44.962 131.447  16.795  1.00  0.00    -0.049 C 
ATOM      4  C   UNL     1      45.415 130.992  17.814  1.00  0.00     0.011 C 
ENDBRANCH   2   3
BRANCH   2   5
ATOM      5  N   UNL     1      44.229 131.106  14.437  1.00  0.00    -0.032 NA
BRANCH   5   6
ATOM      6  N   UNL     1      45.151 130.777  13.688  1.00  0.00     0.008 N 
ATOM      7  N   UNL     1      46.073 130.449  12.943  1.00  0.00    -0.003 NA
ENDBRANCH   5   6
ENDBRANCH   2   5
ENDBRANCH   1   2
BRANCH   1   8
ATOM      8  C   UNL     1      43.511 134.107  16.415  1.00  0.00     0.164 C 
BRANCH   8   9
ATOM      9  C   UNL     1      41.993 133.984  16.391  1.00  0.00     0.137 A 
ATOM     10  C   UNL     1      41.143 133.741  15.312  1.00  0.00     0.135 A 
ATOM     11  N   UNL     1      41.184 134.194  17.453  1.00  0.00    -0.097 N 
ATOM     12  N   UNL     1      39.870 133.780  15.757  1.00  0.00     0.020 NA
ATOM     13  N   UNL     1      39.932 134.058  17.049  1.00  0.00    -0.012 N 
ATOM     14  C   UNL     1      41.499 133.465  13.886  1.00  0.00     0.076 C 
ATOM     15  H   UNL     1      39.094 134.179  17.661  1.00  0.00     0.527 HD
BRANCH  11  16
ATOM     16  C   UNL     1      41.557 134.603  18.781  1.00  0.00     0.123 A 
ATOM     17  C   UNL     1      41.392 135.948  19.175  1.00  0.00     0.013 A 
ATOM     18  C   UNL     1      42.079 133.660  19.689  1.00  0.00     0.013 A 
ATOM     19  C   UNL     1      40.838 136.893  18.284  1.00  0.00     0.011 A 
ATOM     20  C   UNL     1      41.813 136.372  20.465  1.00  0.00    -0.005 A 
ATOM     21  C   UNL     1      42.172 132.300  19.331  1.00  0.00     0.011 A 
ATOM     22  C   UNL     1      42.489 134.069  20.988  1.00  0.00    -0.005 A 
ATOM     23  C   UNL     1      40.725 138.233  18.642  1.00  0.00     0.001 A 
ATOM     24  C   UNL     1      41.712 137.746  20.790  1.00  0.00     0.009 A 
ATOM     25  C   UNL     1      42.355 135.428  21.378  1.00  0.00     0.030 A 
ATOM     26  C   UNL     1      42.676 131.359  20.226  1.00  0.00     0.001 A 
ATOM     27  C   UNL     1      42.994 133.090  21.876  1.00  0.00     0.009 A 
ATOM     28  C   UNL     1      41.169 138.660  19.888  1.00  0.00     0.001 A 
ATOM     29  C   UNL     1      43.090 131.753  21.493  1.00  0.00     0.001 A 
BRANCH  25  30
ATOM     30  C   UNL     1      42.767 135.843  22.742  1.00  0.00     0.261 C 
ATOM     31  O   UNL     1      43.938 136.248  22.965  1.00  0.00    -0.298 OA
ENDBRANCH  25  30
ENDBRANCH  11  16
ENDBRANCH   8   9
BRANCH   8  32
ATOM     32  C   UNL     1      43.973 135.572  16.198  1.00  0.00     0.014 C 
ATOM     33  C   UNL     1      42.889 136.389  15.480  1.00  0.00     0.010 C 
ATOM     34  C   UNL     1      44.384 136.269  17.504  1.00  0.00     0.010 C 
ENDBRANCH   8  32
ENDBRANCH   1   8
TORSDOF 9
ENDMDL
MODEL 9
REMARK VINA RESULT:      -6.0      3.126      5.727
REMARK SMILES C#C/C(N=[N+]=[N-])=N\[C@H](c1c(C)n[nH+]n1-c1c2ccccc2c(C=O)c2ccccc12)C(C)C
REMARK SMILES IDX 7 1 3 2 2 3 1 4 4 5 5 6 6 7 8 8 9 9 10 10 14 11 12 12 13 13
REMARK SMILES IDX 11 14 15 16 16 17 30 18 17 19 21 20 29 21 25 22 18 23 20 24
REMARK SMILES IDX 22 25 28 26 26 27 19 28 27 29 23 30 24 31 31 32 32 33 33 34
REMARK H PARENT 13 15
ROOT
ATOM      1  N   UNL     1      44.664 133.129  15.380  1.00  0.00    -0.264 NA
ENDROOT
BRANCH   1   2
ATOM      2  C   UNL     1      45.466 132.106  15.332  1.00  0.00     0.172 C 
BRANCH   2   3
ATOM      3  C   UNL     1      45.108 130.831  15.916  1.00  0.00    -0.049 C 
ATOM      4  C   UNL     1      44.834 129.767  16.409  1.00  0.00     0.011 C 
ENDBRANCH   2   3
BRANCH   2   5
ATOM      5  N   UNL     1      46.730 132.265  14.679  1.00  0.00    -0.032 NA
BRANCH   5   6
ATOM      6  N   UNL     1      47.161 131.426  13.887  1.00  0.00     0.008 N 
ATOM      7  N   UNL     1      47.594 130.589  13.095  1.00  0.00    -0.003 NA
ENDBRANCH   5   6
ENDBRANCH   2   5
ENDBRANCH   1   2
BRANCH   1   8
ATOM      8  C   UNL     1      44.208 133.837  16.583  1.00  0.00     0.164 C 
BRANCH   8   9
ATOM      9  C   UNL     1      42.802 133.416  16.991  1.00  0.00     0.137 A 
ATOM     10  C   UNL     1      41.717 133.065  16.188  1.00  0.00     0.135 A 
ATOM     11  N   UNL     1      42.336 133.407  18.259  1.00  0.00    -0.097 N 
ATOM     12  N   UNL     1      40.656 132.828  16.987  1.00  0.00     0.020 NA
ATOM     13  N   UNL     1      41.064 133.046  18.227  1.00  0.00    -0.012 N 
ATOM     14  C   UNL     1      41.658 132.939  14.698  1.00  0.00     0.076 C 
ATOM     15  H   UNL     1      40.448 132.966  19.066  1.00  0.00     0.527 HD
BRANCH  11  16
ATOM     16  C   UNL     1      43.023 133.813  19.456  1.00  0.00     0.123 A 
ATOM     17  C   UNL     1      44.077 133.024  19.963  1.00  0.00     0.013 A 
ATOM     18  C   UNL     1      42.649 135.000  20.117  1.00  0.00     0.013 A 
ATOM     19  C   UNL     1      44.481 131.849  19.290  1.00  0.00     0.011 A 
ATOM     20  C   UNL     1      44.722 133.386  21.177  1.00  0.00    -0.005 A 
ATOM     21  C   UNL     1      41.652 135.836  19.573  1.00  0.00     0.011 A 
ATOM     22  C   UNL     1      43.297 135.382  21.323  1.00  0.00    -0.005 A 
ATOM     23  C   UNL     1      45.480 131.034  19.813  1.00  0.00     0.001 A 
ATOM     24  C   UNL     1      45.714 132.521  21.699  1.00  0.00     0.009 A 
ATOM     25  C   UNL     1      44.337 134.574  21.855  1.00  0.00     0.030 A 
ATOM     26  C   UNL     1      41.284 137.018  20.213  1.00  0.00     0.001 A 
ATOM     27  C   UNL     1      42.905 136.589  21.949  1.00  0.00     0.009 A 
ATOM     28  C   UNL     1      46.089 131.364  21.018  1.00  0.00     0.001 A 
ATOM     29  C   UNL     1      41.905 137.390  21.399  1.00  0.00     0.001 A 
BRANCH  25  30
ATOM     30  C   UNL     1      45.022 134.989  23.104  1.00  0.00     0.261 C 
ATOM     31  O   UNL     1      44.617 134.585  24.226  1.00  0.00    -0.298 OA
ENDBRANCH  25  30
ENDBRANCH  11  16
ENDBRANCH   8   9
BRANCH   8  32
ATOM     32  C   UNL     1      44.307 135.369  16.355  1.00  0.00     0.014 C 
ATOM     33  C   UNL     1      43.017 135.915  15.725  1.00  0.00     0.010 C 
ATOM     34  C   UNL     1      44.639 136.143  17.640  1.00  0.00     0.010 C 
ENDBRANCH   8  32
ENDBRANCH   1   8
TORSDOF 9
ENDMDL


