REMARK SMILES C[C@@H](OC(=O)[C@H](C)C(F)(F)F)C(=O)[N-]N
REMARK SMILES IDX 3 1 4 2 5 3 6 4 7 5 8 6 9 7 10 8 11 9 2 10 1 11 12 12 13 13
REMARK SMILES IDX 14 14 15 15
REMARK H PARENT 15 16 15 17
ROOT
ATOM      1  O   UNL     1       0.616   0.812  -2.179  1.00  0.00    -0.456 OA
ENDROOT
BRANCH   1   2
ATOM      2  C   UNL     1       0.547   0.305  -0.876  1.00  0.00     0.318 C 
ATOM      3  O   UNL     1       0.242  -0.903  -0.673  1.00  0.00    -0.252 OA
BRANCH   2   4
ATOM      4  C   UNL     1       0.808   1.226   0.284  1.00  0.00     0.201 C 
ATOM      5  C   UNL     1       1.867   0.630   1.221  1.00  0.00     0.030 C 
BRANCH   4   6
ATOM      6  C   UNL     1      -0.499   1.544   1.031  1.00  0.00     0.401 C 
ATOM      7  F   UNL     1      -1.419   2.092   0.155  1.00  0.00    -0.170 F 
ATOM      8  F   UNL     1      -1.038   0.397   1.588  1.00  0.00    -0.170 F 
ATOM      9  F   UNL     1      -0.255   2.460   2.039  1.00  0.00    -0.170 F 
ENDBRANCH   4   6
ENDBRANCH   2   4
ENDBRANCH   1   2
BRANCH   1  10
ATOM     10  C   UNL     1       0.312   0.037  -3.339  1.00  0.00     0.222 C 
ATOM     11  C   UNL     1       0.745   0.806  -4.583  1.00  0.00     0.060 C 
BRANCH  10  12
ATOM     12  C   UNL     1      -1.161  -0.253  -3.400  1.00  0.00     0.103 C 
ATOM     13  O   UNL     1      -1.561  -1.393  -3.759  1.00  0.00    -0.315 OA
BRANCH  12  14
ATOM     14  N   UNL     1      -2.105   0.776  -3.084  1.00  0.00    -0.591 NA
BRANCH  14  15
ATOM     15  N   UNL     1      -3.491   0.559  -3.127  1.00  0.00    -0.410 NA
ATOM     16  H   UNL     1      -3.734   0.249  -4.096  1.00  0.00     0.100 HD
ATOM     17  H   UNL     1      -3.710  -0.228  -2.474  1.00  0.00     0.100 HD
ENDBRANCH  14  15
ENDBRANCH  12  14
ENDBRANCH  10  12
ENDBRANCH   1  10
TORSDOF 7


