MODEL 1
REMARK VINA RESULT:      -9.4      0.000      0.000
REMARK SMILES Cc1nnn(Cc2nc3cc4ccccc4cc3[n-]2)c1-c1nnc([C@@H]2C[C@@H]2C)o1
REMARK SMILES IDX 1 1 2 2 3 3 4 4 5 5 20 6 21 7 22 8 29 9 23 10 24 11 25 12
REMARK SMILES IDX 26 13 27 14 28 15 6 16 7 17 8 18 19 19 9 20 18 21 10 22
REMARK SMILES IDX 17 23 11 24 16 25 12 26 15 27 13 28 14 29
REMARK H PARENT
ROOT
ATOM      1  C   UNL     1      42.633 137.441  18.293  1.00  0.00     0.071 C 
ATOM      2  C   UNL     1      42.698 135.998  18.677  1.00  0.00     0.093 A 
ATOM      3  N   UNL     1      43.272 135.546  19.810  1.00  0.00    -0.135 NA
ATOM      4  N   UNL     1      43.148 134.226  19.803  1.00  0.00    -0.066 NA
ATOM      5  N   UNL     1      42.519 133.819  18.709  1.00  0.00    -0.236 N 
ATOM      6  C   UNL     1      42.215 134.909  17.972  1.00  0.00     0.149 A 
ENDROOT
BRANCH   6   7
ATOM      7  C   UNL     1      41.491 134.918  16.687  1.00  0.00     0.267 A 
ATOM      8  N   UNL     1      41.919 135.549  15.574  1.00  0.00    -0.106 NA
ATOM      9  O   UNL     1      40.340 134.327  16.477  1.00  0.00    -0.419 OA
ATOM     10  N   UNL     1      40.998 135.340  14.646  1.00  0.00    -0.112 NA
ATOM     11  C   UNL     1      40.040 134.596  15.230  1.00  0.00     0.220 A 
BRANCH  11  12
ATOM     12  C   UNL     1      38.791 134.124  14.549  1.00  0.00     0.081 C 
ATOM     13  C   UNL     1      37.924 135.219  13.933  1.00  0.00     0.017 C 
ATOM     14  C   UNL     1      37.461 134.511  15.202  1.00  0.00    -0.001 C 
ATOM     15  C   UNL     1      37.491 135.375  16.471  1.00  0.00     0.008 C 
ENDBRANCH  11  12
ENDBRANCH   6   7
BRANCH   5  16
ATOM     16  C   UNL     1      42.268 132.413  18.398  1.00  0.00     0.173 C 
BRANCH  16  17
ATOM     17  C   UNL     1      43.273 131.898  17.419  1.00  0.00    -0.060 A 
ATOM     18  N   UNL     1      43.096 131.993  16.074  1.00  0.00    -0.438 NA
ATOM     19  N   UNL     1      44.460 131.351  17.796  1.00  0.00    -0.438 NA
ATOM     20  C   UNL     1      44.229 131.460  15.595  1.00  0.00    -0.038 A 
ATOM     21  C   UNL     1      45.039 131.077  16.619  1.00  0.00    -0.038 A 
ATOM     22  C   UNL     1      44.589 131.295  14.262  1.00  0.00     0.012 A 
ATOM     23  C   UNL     1      46.287 130.497  16.400  1.00  0.00     0.012 A 
ATOM     24  C   UNL     1      45.844 130.711  13.985  1.00  0.00    -0.018 A 
ATOM     25  C   UNL     1      46.699 130.309  15.063  1.00  0.00    -0.018 A 
ATOM     26  C   UNL     1      46.264 130.518  12.661  1.00  0.00     0.009 A 
ATOM     27  C   UNL     1      47.946 129.736  14.776  1.00  0.00     0.009 A 
ATOM     28  C   UNL     1      47.511 129.942  12.398  1.00  0.00     0.001 A 
ATOM     29  C   UNL     1      48.349 129.557  13.448  1.00  0.00     0.001 A 
ENDBRANCH  16  17
ENDBRANCH   5  16
TORSDOF 4
ENDMDL
MODEL 2
REMARK VINA RESULT:      -9.0      3.295      7.096
REMARK SMILES Cc1nnn(Cc2nc3cc4ccccc4cc3[n-]2)c1-c1nnc([C@@H]2C[C@@H]2C)o1
REMARK SMILES IDX 1 1 2 2 3 3 4 4 5 5 20 6 21 7 22 8 29 9 23 10 24 11 25 12
REMARK SMILES IDX 26 13 27 14 28 15 6 16 7 17 8 18 19 19 9 20 18 21 10 22
REMARK SMILES IDX 17 23 11 24 16 25 12 26 15 27 13 28 14 29
REMARK H PARENT
ROOT
ATOM      1  C   UNL     1      41.998 133.836  13.770  1.00  0.00     0.071 C 
ATOM      2  C   UNL     1      41.730 133.357  15.160  1.00  0.00     0.093 A 
ATOM      3  N   UNL     1      40.575 133.571  15.821  1.00  0.00    -0.135 NA
ATOM      4  N   UNL     1      40.708 133.015  17.018  1.00  0.00    -0.066 NA
ATOM      5  N   UNL     1      41.903 132.457  17.145  1.00  0.00    -0.236 N 
ATOM      6  C   UNL     1      42.579 132.648  15.992  1.00  0.00     0.149 A 
ENDROOT
BRANCH   6   7
ATOM      7  C   UNL     1      43.942 132.169  15.691  1.00  0.00     0.267 A 
ATOM      8  N   UNL     1      45.020 132.969  15.554  1.00  0.00    -0.106 NA
ATOM      9  O   UNL     1      44.265 130.912  15.506  1.00  0.00    -0.419 OA
ATOM     10  N   UNL     1      46.042 132.176  15.274  1.00  0.00    -0.112 NA
ATOM     11  C   UNL     1      45.548 130.924  15.243  1.00  0.00     0.220 A 
BRANCH  11  12
ATOM     12  C   UNL     1      46.355 129.695  14.953  1.00  0.00     0.081 C 
ATOM     13  C   UNL     1      47.828 129.935  14.632  1.00  0.00     0.017 C 
ATOM     14  C   UNL     1      46.867 129.528  13.520  1.00  0.00    -0.001 C 
ATOM     15  C   UNL     1      46.559 130.630  12.497  1.00  0.00     0.008 C 
ENDBRANCH  11  12
ENDBRANCH   6   7
BRANCH   5  16
ATOM     16  C   UNL     1      42.361 131.799  18.368  1.00  0.00     0.173 C 
BRANCH  16  17
ATOM     17  C   UNL     1      43.351 132.653  19.092  1.00  0.00    -0.060 A 
ATOM     18  N   UNL     1      43.305 134.012  19.057  1.00  0.00    -0.438 NA
ATOM     19  N   UNL     1      44.331 132.141  19.884  1.00  0.00    -0.438 NA
ATOM     20  C   UNL     1      44.324 134.356  19.857  1.00  0.00    -0.038 A 
ATOM     21  C   UNL     1      44.935 133.244  20.347  1.00  0.00    -0.038 A 
ATOM     22  C   UNL     1      44.747 135.641  20.184  1.00  0.00     0.012 A 
ATOM     23  C   UNL     1      46.024 133.317  21.213  1.00  0.00     0.012 A 
ATOM     24  C   UNL     1      45.848 135.770  21.057  1.00  0.00    -0.018 A 
ATOM     25  C   UNL     1      46.491 134.599  21.576  1.00  0.00    -0.018 A 
ATOM     26  C   UNL     1      46.321 137.038  21.424  1.00  0.00     0.009 A 
ATOM     27  C   UNL     1      47.580 134.740  22.448  1.00  0.00     0.009 A 
ATOM     28  C   UNL     1      47.411 137.155  22.294  1.00  0.00     0.001 A 
ATOM     29  C   UNL     1      48.033 136.014  22.806  1.00  0.00     0.001 A 
ENDBRANCH  16  17
ENDBRANCH   5  16
TORSDOF 4
ENDMDL
MODEL 3
REMARK VINA RESULT:      -9.0      1.403      2.166
REMARK SMILES Cc1nnn(Cc2nc3cc4ccccc4cc3[n-]2)c1-c1nnc([C@@H]2C[C@@H]2C)o1
REMARK SMILES IDX 1 1 2 2 3 3 4 4 5 5 20 6 21 7 22 8 29 9 23 10 24 11 25 12
REMARK SMILES IDX 26 13 27 14 28 15 6 16 7 17 8 18 19 19 9 20 18 21 10 22
REMARK SMILES IDX 17 23 11 24 16 25 12 26 15 27 13 28 14 29
REMARK H PARENT
ROOT
ATOM      1  C   UNL     1      42.812 136.967  20.092  1.00  0.00     0.071 C 
ATOM      2  C   UNL     1      43.111 135.505  20.008  1.00  0.00     0.093 A 
ATOM      3  N   UNL     1      44.177 134.920  20.588  1.00  0.00    -0.135 NA
ATOM      4  N   UNL     1      44.116 133.629  20.291  1.00  0.00    -0.066 NA
ATOM      5  N   UNL     1      43.054 133.370  19.542  1.00  0.00    -0.236 N 
ATOM      6  C   UNL     1      42.389 134.528  19.343  1.00  0.00     0.149 A 
ENDROOT
BRANCH   6   7
ATOM      7  C   UNL     1      41.134 134.695  18.585  1.00  0.00     0.267 A 
ATOM      8  N   UNL     1      39.977 134.068  18.878  1.00  0.00    -0.106 NA
ATOM      9  O   UNL     1      41.000 135.460  17.529  1.00  0.00    -0.419 OA
ATOM     10  N   UNL     1      39.097 134.461  17.969  1.00  0.00    -0.112 NA
ATOM     11  C   UNL     1      39.754 135.306  17.153  1.00  0.00     0.220 A 
BRANCH  11  12
ATOM     12  C   UNL     1      39.147 135.993  15.967  1.00  0.00     0.081 C 
ATOM     13  C   UNL     1      37.976 135.263  15.313  1.00  0.00     0.017 C 
ATOM     14  C   UNL     1      39.328 135.311  14.608  1.00  0.00    -0.001 C 
ATOM     15  C   UNL     1      40.074 133.971  14.553  1.00  0.00     0.008 C 
ENDBRANCH  11  12
ENDBRANCH   6   7
BRANCH   5  16
ATOM     16  C   UNL     1      42.737 132.040  19.022  1.00  0.00     0.173 C 
BRANCH  16  17
ATOM     17  C   UNL     1      43.652 131.679  17.896  1.00  0.00    -0.060 A 
ATOM     18  N   UNL     1      44.834 131.038  18.094  1.00  0.00    -0.438 NA
ATOM     19  N   UNL     1      43.345 131.912  16.591  1.00  0.00    -0.438 NA
ATOM     20  C   UNL     1      45.290 130.881  16.843  1.00  0.00    -0.038 A 
ATOM     21  C   UNL     1      44.406 131.402  15.950  1.00  0.00    -0.038 A 
ATOM     22  C   UNL     1      46.481 130.280  16.446  1.00  0.00     0.012 A 
ATOM     23  C   UNL     1      44.632 131.365  14.576  1.00  0.00     0.012 A 
ATOM     24  C   UNL     1      46.758 130.219  15.063  1.00  0.00    -0.018 A 
ATOM     25  C   UNL     1      45.827 130.766  14.121  1.00  0.00    -0.018 A 
ATOM     26  C   UNL     1      47.942 129.627  14.600  1.00  0.00     0.009 A 
ATOM     27  C   UNL     1      46.111 130.693  12.750  1.00  0.00     0.009 A 
ATOM     28  C   UNL     1      48.206 129.567  13.227  1.00  0.00     0.001 A 
ATOM     29  C   UNL     1      47.294 130.093  12.308  1.00  0.00     0.001 A 
ENDBRANCH  16  17
ENDBRANCH   5  16
TORSDOF 4
ENDMDL
MODEL 4
REMARK VINA RESULT:      -9.0      2.143      3.093
REMARK SMILES Cc1nnn(Cc2nc3cc4ccccc4cc3[n-]2)c1-c1nnc([C@@H]2C[C@@H]2C)o1
REMARK SMILES IDX 1 1 2 2 3 3 4 4 5 5 20 6 21 7 22 8 29 9 23 10 24 11 25 12
REMARK SMILES IDX 26 13 27 14 28 15 6 16 7 17 8 18 19 19 9 20 18 21 10 22
REMARK SMILES IDX 17 23 11 24 16 25 12 26 15 27 13 28 14 29
REMARK H PARENT
ROOT
ATOM      1  C   UNL     1      43.476 135.111  21.857  1.00  0.00     0.071 C 
ATOM      2  C   UNL     1      43.063 133.939  21.027  1.00  0.00     0.093 A 
ATOM      3  N   UNL     1      43.207 132.655  21.413  1.00  0.00    -0.135 NA
ATOM      4  N   UNL     1      42.745 131.903  20.425  1.00  0.00    -0.066 NA
ATOM      5  N   UNL     1      42.312 132.656  19.424  1.00  0.00    -0.236 N 
ATOM      6  C   UNL     1      42.493 133.950  19.766  1.00  0.00     0.149 A 
ENDROOT
BRANCH   6   7
ATOM      7  C   UNL     1      42.127 135.126  18.953  1.00  0.00     0.267 A 
ATOM      8  N   UNL     1      40.933 135.751  19.009  1.00  0.00    -0.106 NA
ATOM      9  O   UNL     1      42.914 135.694  18.072  1.00  0.00    -0.419 OA
ATOM     10  N   UNL     1      40.985 136.739  18.129  1.00  0.00    -0.112 NA
ATOM     11  C   UNL     1      42.206 136.674  17.565  1.00  0.00     0.220 A 
BRANCH  11  12
ATOM     12  C   UNL     1      42.706 137.602  16.500  1.00  0.00     0.081 C 
ATOM     13  C   UNL     1      41.632 138.199  15.592  1.00  0.00     0.017 C 
ATOM     14  C   UNL     1      42.571 137.125  15.051  1.00  0.00    -0.001 C 
ATOM     15  C   UNL     1      41.910 135.766  14.785  1.00  0.00     0.008 C 
ENDBRANCH  11  12
ENDBRANCH   6   7
BRANCH   5  16
ATOM     16  C   UNL     1      41.780 132.112  18.175  1.00  0.00     0.173 C 
BRANCH  16  17
ATOM     17  C   UNL     1      42.887 131.756  17.236  1.00  0.00    -0.060 A 
ATOM     18  N   UNL     1      44.091 131.296  17.671  1.00  0.00    -0.438 NA
ATOM     19  N   UNL     1      42.756 131.810  15.884  1.00  0.00    -0.438 NA
ATOM     20  C   UNL     1      44.744 131.069  16.522  1.00  0.00    -0.038 A 
ATOM     21  C   UNL     1      43.952 131.376  15.460  1.00  0.00    -0.038 A 
ATOM     22  C   UNL     1      46.040 130.588  16.367  1.00  0.00     0.012 A 
ATOM     23  C   UNL     1      44.384 131.226  14.144  1.00  0.00     0.012 A 
ATOM     24  C   UNL     1      46.528 130.419  15.053  1.00  0.00    -0.018 A 
ATOM     25  C   UNL     1      45.693 130.740  13.934  1.00  0.00    -0.018 A 
ATOM     26  C   UNL     1      47.826 129.938  14.831  1.00  0.00     0.009 A 
ATOM     27  C   UNL     1      46.185 130.562  12.633  1.00  0.00     0.009 A 
ATOM     28  C   UNL     1      48.298 129.770  13.525  1.00  0.00     0.001 A 
ATOM     29  C   UNL     1      47.482 130.075  12.433  1.00  0.00     0.001 A 
ENDBRANCH  16  17
ENDBRANCH   5  16
TORSDOF 4
ENDMDL
MODEL 5
REMARK VINA RESULT:      -8.8      3.006      5.286
REMARK SMILES Cc1nnn(Cc2nc3cc4ccccc4cc3[n-]2)c1-c1nnc([C@@H]2C[C@@H]2C)o1
REMARK SMILES IDX 1 1 2 2 3 3 4 4 5 5 20 6 21 7 22 8 29 9 23 10 24 11 25 12
REMARK SMILES IDX 26 13 27 14 28 15 6 16 7 17 8 18 19 19 9 20 18 21 10 22
REMARK SMILES IDX 17 23 11 24 16 25 12 26 15 27 13 28 14 29
REMARK H PARENT
ROOT
ATOM      1  C   UNL     1      42.997 136.814  20.391  1.00  0.00     0.071 C 
ATOM      2  C   UNL     1      42.567 135.642  19.570  1.00  0.00     0.093 A 
ATOM      3  N   UNL     1      41.828 135.741  18.447  1.00  0.00    -0.135 NA
ATOM      4  N   UNL     1      41.636 134.506  18.004  1.00  0.00    -0.066 NA
ATOM      5  N   UNL     1      42.223 133.625  18.801  1.00  0.00    -0.236 N 
ATOM      6  C   UNL     1      42.825 134.302  19.802  1.00  0.00     0.149 A 
ENDROOT
BRANCH   6   7
ATOM      7  C   UNL     1      43.616 133.715  20.901  1.00  0.00     0.267 A 
ATOM      8  N   UNL     1      44.917 133.371  20.807  1.00  0.00    -0.106 NA
ATOM      9  O   UNL     1      43.145 133.445  22.094  1.00  0.00    -0.419 OA
ATOM     10  N   UNL     1      45.259 132.870  21.983  1.00  0.00    -0.112 NA
ATOM     11  C   UNL     1      44.152 132.921  22.748  1.00  0.00     0.220 A 
BRANCH  11  12
ATOM     12  C   UNL     1      44.072 132.448  24.168  1.00  0.00     0.081 C 
ATOM     13  C   UNL     1      44.901 131.208  24.495  1.00  0.00     0.017 C 
ATOM     14  C   UNL     1      43.382 131.103  24.409  1.00  0.00    -0.001 C 
ATOM     15  C   UNL     1      42.857 130.320  23.197  1.00  0.00     0.008 C 
ENDBRANCH  11  12
ENDBRANCH   6   7
BRANCH   5  16
ATOM     16  C   UNL     1      42.156 132.179  18.596  1.00  0.00     0.173 C 
BRANCH  16  17
ATOM     17  C   UNL     1      43.163 131.739  17.582  1.00  0.00    -0.060 A 
ATOM     18  N   UNL     1      42.971 131.903  16.246  1.00  0.00    -0.438 NA
ATOM     19  N   UNL     1      44.365 131.199  17.920  1.00  0.00    -0.438 NA
ATOM     20  C   UNL     1      44.111 131.421  15.730  1.00  0.00    -0.038 A 
ATOM     21  C   UNL     1      44.939 131.001  16.725  1.00  0.00    -0.038 A 
ATOM     22  C   UNL     1      44.462 131.337  14.387  1.00  0.00     0.012 A 
ATOM     23  C   UNL     1      46.197 130.461  16.465  1.00  0.00     0.012 A 
ATOM     24  C   UNL     1      45.727 130.795  14.069  1.00  0.00    -0.018 A 
ATOM     25  C   UNL     1      46.600 130.354  15.116  1.00  0.00    -0.018 A 
ATOM     26  C   UNL     1      46.138 130.683  12.733  1.00  0.00     0.009 A 
ATOM     27  C   UNL     1      47.856 129.825  14.789  1.00  0.00     0.009 A 
ATOM     28  C   UNL     1      47.396 130.150  12.429  1.00  0.00     0.001 A 
ATOM     29  C   UNL     1      48.251 129.727  13.450  1.00  0.00     0.001 A 
ENDBRANCH  16  17
ENDBRANCH   5  16
TORSDOF 4
ENDMDL
MODEL 6
REMARK VINA RESULT:      -8.8      1.918      2.528
REMARK SMILES Cc1nnn(Cc2nc3cc4ccccc4cc3[n-]2)c1-c1nnc([C@@H]2C[C@@H]2C)o1
REMARK SMILES IDX 1 1 2 2 3 3 4 4 5 5 20 6 21 7 22 8 29 9 23 10 24 11 25 12
REMARK SMILES IDX 26 13 27 14 28 15 6 16 7 17 8 18 19 19 9 20 18 21 10 22
REMARK SMILES IDX 17 23 11 24 16 25 12 26 15 27 13 28 14 29
REMARK H PARENT
ROOT
ATOM      1  C   UNL     1      43.126 136.715  20.491  1.00  0.00     0.071 C 
ATOM      2  C   UNL     1      43.449 135.258  20.396  1.00  0.00     0.093 A 
ATOM      3  N   UNL     1      44.532 134.689  20.961  1.00  0.00    -0.135 NA
ATOM      4  N   UNL     1      44.490 133.399  20.658  1.00  0.00    -0.066 NA
ATOM      5  N   UNL     1      43.423 133.124  19.922  1.00  0.00    -0.236 N 
ATOM      6  C   UNL     1      42.736 134.272  19.737  1.00  0.00     0.149 A 
ENDROOT
BRANCH   6   7
ATOM      7  C   UNL     1      41.469 134.420  18.995  1.00  0.00     0.267 A 
ATOM      8  N   UNL     1      41.252 135.336  18.029  1.00  0.00    -0.106 NA
ATOM      9  O   UNL     1      40.399 133.690  19.197  1.00  0.00    -0.419 OA
ATOM     10  N   UNL     1      40.004 135.165  17.622  1.00  0.00    -0.112 NA
ATOM     11  C   UNL     1      39.505 134.156  18.360  1.00  0.00     0.220 A 
BRANCH  11  12
ATOM     12  C   UNL     1      38.110 133.621  18.244  1.00  0.00     0.081 C 
ATOM     13  C   UNL     1      37.050 134.637  17.825  1.00  0.00     0.017 C 
ATOM     14  C   UNL     1      37.088 134.131  19.264  1.00  0.00    -0.001 C 
ATOM     15  C   UNL     1      37.542 135.168  20.301  1.00  0.00     0.008 C 
ENDBRANCH  11  12
ENDBRANCH   6   7
BRANCH   5  16
ATOM     16  C   UNL     1      43.123 131.792  19.400  1.00  0.00     0.173 C 
BRANCH  16  17
ATOM     17  C   UNL     1      43.953 131.495  18.193  1.00  0.00    -0.060 A 
ATOM     18  N   UNL     1      45.129 130.816  18.267  1.00  0.00    -0.438 NA
ATOM     19  N   UNL     1      43.570 131.828  16.932  1.00  0.00    -0.438 NA
ATOM     20  C   UNL     1      45.500 130.741  16.981  1.00  0.00    -0.038 A 
ATOM     21  C   UNL     1      44.574 131.344  16.187  1.00  0.00    -0.038 A 
ATOM     22  C   UNL     1      46.647 130.146  16.465  1.00  0.00     0.012 A 
ATOM     23  C   UNL     1      44.710 131.403  14.802  1.00  0.00     0.012 A 
ATOM     24  C   UNL     1      46.834 130.180  15.066  1.00  0.00    -0.018 A 
ATOM     25  C   UNL     1      45.858 130.813  14.228  1.00  0.00    -0.018 A 
ATOM     26  C   UNL     1      47.970 129.598  14.485  1.00  0.00     0.009 A 
ATOM     27  C   UNL     1      46.051 130.835  12.840  1.00  0.00     0.009 A 
ATOM     28  C   UNL     1      48.143 129.633  13.097  1.00  0.00     0.001 A 
ATOM     29  C   UNL     1      47.189 130.243  12.279  1.00  0.00     0.001 A 
ENDBRANCH  16  17
ENDBRANCH   5  16
TORSDOF 4
ENDMDL
MODEL 7
REMARK VINA RESULT:      -8.8      2.505      4.771
REMARK SMILES Cc1nnn(Cc2nc3cc4ccccc4cc3[n-]2)c1-c1nnc([C@@H]2C[C@@H]2C)o1
REMARK SMILES IDX 1 1 2 2 3 3 4 4 5 5 20 6 21 7 22 8 29 9 23 10 24 11 25 12
REMARK SMILES IDX 26 13 27 14 28 15 6 16 7 17 8 18 19 19 9 20 18 21 10 22
REMARK SMILES IDX 17 23 11 24 16 25 12 26 15 27 13 28 14 29
REMARK H PARENT
ROOT
ATOM      1  C   UNL     1      41.606 137.732  19.194  1.00  0.00     0.071 C 
ATOM      2  C   UNL     1      41.306 136.420  18.545  1.00  0.00     0.093 A 
ATOM      3  N   UNL     1      40.700 136.293  17.348  1.00  0.00    -0.135 NA
ATOM      4  N   UNL     1      40.595 134.994  17.106  1.00  0.00    -0.066 NA
ATOM      5  N   UNL     1      41.110 134.288  18.102  1.00  0.00    -0.236 N 
ATOM      6  C   UNL     1      41.574 135.152  19.031  1.00  0.00     0.149 A 
ENDROOT
BRANCH   6   7
ATOM      7  C   UNL     1      42.248 134.795  20.294  1.00  0.00     0.267 A 
ATOM      8  N   UNL     1      41.711 134.965  21.520  1.00  0.00    -0.106 NA
ATOM      9  O   UNL     1      43.452 134.285  20.376  1.00  0.00    -0.419 OA
ATOM     10  N   UNL     1      42.618 134.545  22.388  1.00  0.00    -0.112 NA
ATOM     11  C   UNL     1      43.676 134.142  21.659  1.00  0.00     0.220 A 
BRANCH  11  12
ATOM     12  C   UNL     1      44.948 133.594  22.231  1.00  0.00     0.081 C 
ATOM     13  C   UNL     1      45.866 132.889  21.234  1.00  0.00     0.017 C 
ATOM     14  C   UNL     1      45.090 132.069  22.260  1.00  0.00    -0.001 C 
ATOM     15  C   UNL     1      43.955 131.215  21.678  1.00  0.00     0.008 C 
ENDBRANCH  11  12
ENDBRANCH   6   7
BRANCH   5  16
ATOM     16  C   UNL     1      41.107 132.826  18.142  1.00  0.00     0.173 C 
BRANCH  16  17
ATOM     17  C   UNL     1      42.228 132.270  17.324  1.00  0.00    -0.060 A 
ATOM     18  N   UNL     1      42.191 132.237  15.965  1.00  0.00    -0.438 NA
ATOM     19  N   UNL     1      43.386 131.813  17.871  1.00  0.00    -0.438 NA
ATOM     20  C   UNL     1      43.387 131.714  15.657  1.00  0.00    -0.038 A 
ATOM     21  C   UNL     1      44.096 131.460  16.790  1.00  0.00    -0.038 A 
ATOM     22  C   UNL     1      43.892 131.447  14.389  1.00  0.00     0.012 A 
ATOM     23  C   UNL     1      45.380 130.919  16.756  1.00  0.00     0.012 A 
ATOM     24  C   UNL     1      45.188 130.895  14.299  1.00  0.00    -0.018 A 
ATOM     25  C   UNL     1      45.938 130.630  15.491  1.00  0.00    -0.018 A 
ATOM     26  C   UNL     1      45.753 130.604  13.049  1.00  0.00     0.009 A 
ATOM     27  C   UNL     1      47.227 130.089  15.389  1.00  0.00     0.009 A 
ATOM     28  C   UNL     1      47.041 130.062  12.970  1.00  0.00     0.001 A 
ATOM     29  C   UNL     1      47.775 129.810  14.132  1.00  0.00     0.001 A 
ENDBRANCH  16  17
ENDBRANCH   5  16
TORSDOF 4
ENDMDL
MODEL 8
REMARK VINA RESULT:      -8.6      2.522      5.010
REMARK SMILES Cc1nnn(Cc2nc3cc4ccccc4cc3[n-]2)c1-c1nnc([C@@H]2C[C@@H]2C)o1
REMARK SMILES IDX 1 1 2 2 3 3 4 4 5 5 20 6 21 7 22 8 29 9 23 10 24 11 25 12
REMARK SMILES IDX 26 13 27 14 28 15 6 16 7 17 8 18 19 19 9 20 18 21 10 22
REMARK SMILES IDX 17 23 11 24 16 25 12 26 15 27 13 28 14 29
REMARK H PARENT
ROOT
ATOM      1  C   UNL     1      43.101 137.949  19.330  1.00  0.00     0.071 C 
ATOM      2  C   UNL     1      42.596 136.743  18.608  1.00  0.00     0.093 A 
ATOM      3  N   UNL     1      41.895 136.792  17.457  1.00  0.00    -0.135 NA
ATOM      4  N   UNL     1      41.614 135.540  17.125  1.00  0.00    -0.066 NA
ATOM      5  N   UNL     1      42.107 134.695  18.018  1.00  0.00    -0.236 N 
ATOM      6  C   UNL     1      42.738 135.414  18.971  1.00  0.00     0.149 A 
ENDROOT
BRANCH   6   7
ATOM      7  C   UNL     1      43.451 134.873  20.144  1.00  0.00     0.267 A 
ATOM      8  N   UNL     1      43.251 135.281  21.414  1.00  0.00    -0.106 NA
ATOM      9  O   UNL     1      44.373 133.943  20.090  1.00  0.00    -0.419 OA
ATOM     10  N   UNL     1      44.079 134.578  22.169  1.00  0.00    -0.112 NA
ATOM     11  C   UNL     1      44.759 133.773  21.331  1.00  0.00     0.220 A 
BRANCH  11  12
ATOM     12  C   UNL     1      45.817 132.799  21.752  1.00  0.00     0.081 C 
ATOM     13  C   UNL     1      46.138 131.700  20.741  1.00  0.00     0.017 C 
ATOM     14  C   UNL     1      45.366 131.359  22.012  1.00  0.00    -0.001 C 
ATOM     15  C   UNL     1      43.889 131.003  21.794  1.00  0.00     0.008 C 
ENDBRANCH  11  12
ENDBRANCH   6   7
BRANCH   5  16
ATOM     16  C   UNL     1      41.926 133.246  17.945  1.00  0.00     0.173 C 
BRANCH  16  17
ATOM     17  C   UNL     1      42.989 132.620  17.100  1.00  0.00    -0.060 A 
ATOM     18  N   UNL     1      44.042 131.946  17.635  1.00  0.00    -0.438 NA
ATOM     19  N   UNL     1      42.952 132.626  15.741  1.00  0.00    -0.438 NA
ATOM     20  C   UNL     1      44.701 131.529  16.545  1.00  0.00    -0.038 A 
ATOM     21  C   UNL     1      44.054 131.935  15.419  1.00  0.00    -0.038 A 
ATOM     22  C   UNL     1      45.876 130.785  16.499  1.00  0.00     0.012 A 
ATOM     23  C   UNL     1      44.523 131.628  14.143  1.00  0.00     0.012 A 
ATOM     24  C   UNL     1      46.394 130.450  15.230  1.00  0.00    -0.018 A 
ATOM     25  C   UNL     1      45.712 130.874  14.043  1.00  0.00    -0.018 A 
ATOM     26  C   UNL     1      47.575 129.701  15.117  1.00  0.00     0.009 A 
ATOM     27  C   UNL     1      46.233 130.529  12.788  1.00  0.00     0.009 A 
ATOM     28  C   UNL     1      48.078 129.370  13.855  1.00  0.00     0.001 A 
ATOM     29  C   UNL     1      47.409 129.777  12.697  1.00  0.00     0.001 A 
ENDBRANCH  16  17
ENDBRANCH   5  16
TORSDOF 4
ENDMDL
MODEL 9
REMARK VINA RESULT:      -8.6      1.682      4.329
REMARK SMILES Cc1nnn(Cc2nc3cc4ccccc4cc3[n-]2)c1-c1nnc([C@@H]2C[C@@H]2C)o1
REMARK SMILES IDX 1 1 2 2 3 3 4 4 5 5 20 6 21 7 22 8 29 9 23 10 24 11 25 12
REMARK SMILES IDX 26 13 27 14 28 15 6 16 7 17 8 18 19 19 9 20 18 21 10 22
REMARK SMILES IDX 17 23 11 24 16 25 12 26 15 27 13 28 14 29
REMARK H PARENT
ROOT
ATOM      1  C   UNL     1      39.671 137.149  16.076  1.00  0.00     0.071 C 
ATOM      2  C   UNL     1      39.868 135.699  16.381  1.00  0.00     0.093 A 
ATOM      3  N   UNL     1      39.079 134.715  15.905  1.00  0.00    -0.135 NA
ATOM      4  N   UNL     1      39.551 133.576  16.391  1.00  0.00    -0.066 NA
ATOM      5  N   UNL     1      40.609 133.795  17.158  1.00  0.00    -0.236 N 
ATOM      6  C   UNL     1      40.845 135.124  17.176  1.00  0.00     0.149 A 
ENDROOT
BRANCH   6   7
ATOM      7  C   UNL     1      41.943 135.806  17.887  1.00  0.00     0.267 A 
ATOM      8  N   UNL     1      42.296 135.556  19.165  1.00  0.00    -0.106 NA
ATOM      9  O   UNL     1      42.696 136.745  17.368  1.00  0.00    -0.419 OA
ATOM     10  N   UNL     1      43.302 136.370  19.443  1.00  0.00    -0.112 NA
ATOM     11  C   UNL     1      43.519 137.092  18.327  1.00  0.00     0.220 A 
BRANCH  11  12
ATOM     12  C   UNL     1      44.568 138.153  18.186  1.00  0.00     0.081 C 
ATOM     13  C   UNL     1      45.331 138.497  19.463  1.00  0.00     0.017 C 
ATOM     14  C   UNL     1      44.308 139.480  18.903  1.00  0.00    -0.001 C 
ATOM     15  C   UNL     1      43.028 139.624  19.737  1.00  0.00     0.008 C 
ENDBRANCH  11  12
ENDBRANCH   6   7
BRANCH   5  16
ATOM     16  C   UNL     1      41.326 132.736  17.868  1.00  0.00     0.173 C 
BRANCH  16  17
ATOM     17  C   UNL     1      42.482 132.243  17.058  1.00  0.00    -0.060 A 
ATOM     18  N   UNL     1      43.613 131.749  17.628  1.00  0.00    -0.438 NA
ATOM     19  N   UNL     1      42.467 132.198  15.699  1.00  0.00    -0.438 NA
ATOM     20  C   UNL     1      44.343 131.395  16.562  1.00  0.00    -0.038 A 
ATOM     21  C   UNL     1      43.663 131.663  15.414  1.00  0.00    -0.038 A 
ATOM     22  C   UNL     1      45.614 130.829  16.556  1.00  0.00     0.012 A 
ATOM     23  C   UNL     1      44.192 131.385  14.156  1.00  0.00     0.012 A 
ATOM     24  C   UNL     1      46.197 130.529  15.306  1.00  0.00    -0.018 A 
ATOM     25  C   UNL     1      45.480 130.809  14.097  1.00  0.00    -0.018 A 
ATOM     26  C   UNL     1      47.475 129.958  15.234  1.00  0.00     0.009 A 
ATOM     27  C   UNL     1      46.066 130.501  12.861  1.00  0.00     0.009 A 
ATOM     28  C   UNL     1      48.042 129.660  13.990  1.00  0.00     0.001 A 
ATOM     29  C   UNL     1      47.341 129.925  12.811  1.00  0.00     0.001 A 
ENDBRANCH  16  17
ENDBRANCH   5  16
TORSDOF 4
ENDMDL


