MODEL 1
REMARK VINA RESULT:      -6.1      0.000      0.000
REMARK SMILES [N-]=[N+]=NC(=O)c1cc2c3c(ccc(N=[N+]=[N-])c3c1OCCc1cn(C[C@H](N=C=S)C(=O)[O-])n[nH+]1)CC2
REMARK SMILES IDX 20 1 19 2 18 3 12 4 11 5 13 6 10 7 17 8 9 9 35 10 8 11 36 12
REMARK SMILES IDX 6 13 7 14 14 15 15 16 16 17 4 18 5 19 3 20 2 21 1 22 21 23
REMARK SMILES IDX 22 24 23 25 34 26 24 27 33 28 25 30 26 31 27 32 28 33 29 34
REMARK SMILES IDX 30 35 31 36 32 37
REMARK H PARENT 34 29
ROOT
ATOM      1  C   UNL     1      43.486 133.019  14.884  1.00  0.00     0.238 C 
ENDROOT
BRANCH   1   2
ATOM      2  O   UNL     1      43.024 132.072  15.853  1.00  0.00    -0.492 OA
BRANCH   2   3
ATOM      3  C   UNL     1      43.770 131.659  16.968  1.00  0.00     0.138 A 
ATOM      4  C   UNL     1      41.873 133.093  19.926  1.00  0.00     0.011 A 
ATOM      5  C   UNL     1      42.773 132.759  20.956  1.00  0.00     0.005 A 
ATOM      6  C   UNL     1      42.139 132.731  18.574  1.00  0.00     0.049 A 
ATOM      7  C   UNL     1      43.935 132.066  20.624  1.00  0.00    -0.039 A 
ATOM      8  C   UNL     1      43.335 132.025  18.270  1.00  0.00     0.035 A 
ATOM      9  C   UNL     1      44.183 131.723  19.333  1.00  0.00    -0.008 A 
ATOM     10  C   UNL     1      45.057 131.621  21.510  1.00  0.00     0.041 C 
ATOM     11  C   UNL     1      45.374 131.088  19.197  1.00  0.00    -0.039 A 
ATOM     12  C   UNL     1      46.052 130.949  20.524  1.00  0.00     0.041 C 
ATOM     13  C   UNL     1      44.982 130.909  16.818  1.00  0.00     0.067 A 
ATOM     14  C   UNL     1      45.801 130.659  17.943  1.00  0.00     0.020 A 
BRANCH   6  15
ATOM     15  N   UNL     1      41.214 133.072  17.531  1.00  0.00    -0.060 NA
BRANCH  15  16
ATOM     16  N   UNL     1      39.995 132.945  17.657  1.00  0.00     0.005 N 
ATOM     17  N   UNL     1      38.777 132.821  17.785  1.00  0.00    -0.003 NA
ENDBRANCH  15  16
ENDBRANCH   6  15
BRANCH  13  18
ATOM     18  C   UNL     1      45.402 130.354  15.513  1.00  0.00     0.252 C 
ATOM     19  O   UNL     1      44.688 129.478  14.959  1.00  0.00    -0.287 OA
BRANCH  18  20
ATOM     20  N   UNL     1      46.590 130.796  14.846  1.00  0.00    -0.017 NA
BRANCH  20  21
ATOM     21  N   UNL     1      47.355 130.009  14.289  1.00  0.00     0.009 N 
ATOM     22  N   UNL     1      48.124 129.223  13.737  1.00  0.00    -0.003 NA
ENDBRANCH  20  21
ENDBRANCH  18  20
ENDBRANCH  13  18
ENDBRANCH   2   3
ENDBRANCH   1   2
BRANCH   1  23
ATOM     23  C   UNL     1      42.333 133.847  14.301  1.00  0.00     0.128 C 
BRANCH  23  24
ATOM     24  C   UNL     1      42.166 135.154  15.016  1.00  0.00     0.168 A 
ATOM     25  C   UNL     1      43.022 135.704  15.947  1.00  0.00     0.274 A 
ATOM     26  N   UNL     1      41.196 136.056  14.771  1.00  0.00    -0.148 N 
ATOM     27  N   UNL     1      42.542 136.933  16.220  1.00  0.00    -0.135 N 
ATOM     28  N   UNL     1      41.443 137.128  15.507  1.00  0.00     0.088 NA
ATOM     29  H   UNL     1      40.401 135.963  14.100  1.00  0.00     0.342 HD
BRANCH  27  30
ATOM     30  C   UNL     1      43.139 137.928  17.109  1.00  0.00     0.303 C 
BRANCH  30  31
ATOM     31  C   UNL     1      43.849 137.273  18.310  1.00  0.00     0.206 C 
BRANCH  31  32
ATOM     32  N   UNL     1      42.954 137.155  19.460  1.00  0.00    -0.219 NA
BRANCH  32  33
ATOM     33  C   UNL     1      41.729 136.832  19.333  1.00  0.00     0.059 C 
ATOM     34  S   UNL     1      40.178 136.418  19.181  1.00  0.00    -0.006 S 
ENDBRANCH  32  33
ENDBRANCH  31  32
BRANCH  31  35
ATOM     35  C   UNL     1      45.068 138.058  18.701  1.00  0.00     0.071 C 
ATOM     36  O   UNL     1      45.141 139.285  18.430  1.00  0.00    -0.548 OA
ATOM     37  O   UNL     1      46.099 137.453  19.407  1.00  0.00    -0.548 OA
ENDBRANCH  31  35
ENDBRANCH  30  31
ENDBRANCH  27  30
ENDBRANCH  23  24
ENDBRANCH   1  23
TORSDOF 14
ENDMDL
MODEL 2
REMARK VINA RESULT:      -6.0      2.091      2.418
REMARK SMILES [N-]=[N+]=NC(=O)c1cc2c3c(ccc(N=[N+]=[N-])c3c1OCCc1cn(C[C@H](N=C=S)C(=O)[O-])n[nH+]1)CC2
REMARK SMILES IDX 20 1 19 2 18 3 12 4 11 5 13 6 10 7 17 8 9 9 35 10 8 11 36 12
REMARK SMILES IDX 6 13 7 14 14 15 15 16 16 17 4 18 5 19 3 20 2 21 1 22 21 23
REMARK SMILES IDX 22 24 23 25 34 26 24 27 33 28 25 30 26 31 27 32 28 33 29 34
REMARK SMILES IDX 30 35 31 36 32 37
REMARK H PARENT 34 29
ROOT
ATOM      1  C   UNL     1      42.651 132.269  14.959  1.00  0.00     0.238 C 
ENDROOT
BRANCH   1   2
ATOM      2  O   UNL     1      43.320 132.915  16.048  1.00  0.00    -0.492 OA
BRANCH   2   3
ATOM      3  C   UNL     1      43.957 132.232  17.096  1.00  0.00     0.138 A 
ATOM      4  C   UNL     1      41.793 132.974  20.124  1.00  0.00     0.011 A 
ATOM      5  C   UNL     1      42.591 132.385  21.123  1.00  0.00     0.005 A 
ATOM      6  C   UNL     1      42.184 132.934  18.755  1.00  0.00     0.049 A 
ATOM      7  C   UNL     1      43.778 131.761  20.744  1.00  0.00    -0.039 A 
ATOM      8  C   UNL     1      43.402 132.292  18.403  1.00  0.00     0.035 A 
ATOM      9  C   UNL     1      44.146 131.727  19.436  1.00  0.00    -0.008 A 
ATOM     10  C   UNL     1      44.810 131.093  21.597  1.00  0.00     0.041 C 
ATOM     11  C   UNL     1      45.343 131.112  19.262  1.00  0.00    -0.039 A 
ATOM     12  C   UNL     1      45.892 130.649  20.575  1.00  0.00     0.041 C 
ATOM     13  C   UNL     1      45.176 131.509  16.884  1.00  0.00     0.067 A 
ATOM     14  C   UNL     1      45.885 130.981  17.988  1.00  0.00     0.020 A 
BRANCH   6  15
ATOM     15  N   UNL     1      41.362 133.534  17.742  1.00  0.00    -0.060 NA
BRANCH  15  16
ATOM     16  N   UNL     1      40.187 133.211  17.564  1.00  0.00     0.005 N 
ATOM     17  N   UNL     1      39.014 132.886  17.383  1.00  0.00    -0.003 NA
ENDBRANCH  15  16
ENDBRANCH   6  15
BRANCH  13  18
ATOM     18  C   UNL     1      45.717 131.267  15.528  1.00  0.00     0.252 C 
ATOM     19  O   UNL     1      46.241 132.222  14.896  1.00  0.00    -0.287 OA
BRANCH  18  20
ATOM     20  N   UNL     1      45.682 129.973  14.916  1.00  0.00    -0.017 NA
BRANCH  20  21
ATOM     21  N   UNL     1      46.659 129.500  14.337  1.00  0.00     0.009 N 
ATOM     22  N   UNL     1      47.640 129.028  13.763  1.00  0.00    -0.003 NA
ENDBRANCH  20  21
ENDBRANCH  18  20
ENDBRANCH  13  18
ENDBRANCH   2   3
ENDBRANCH   1   2
BRANCH   1  23
ATOM     23  C   UNL     1      41.752 133.242  14.186  1.00  0.00     0.128 C 
BRANCH  23  24
ATOM     24  C   UNL     1      42.025 134.669  14.553  1.00  0.00     0.168 A 
ATOM     25  C   UNL     1      41.110 135.601  14.996  1.00  0.00     0.274 A 
ATOM     26  N   UNL     1      43.246 135.236  14.614  1.00  0.00    -0.148 N 
ATOM     27  N   UNL     1      41.818 136.698  15.324  1.00  0.00    -0.135 N 
ATOM     28  N   UNL     1      43.101 136.464  15.087  1.00  0.00     0.088 NA
ATOM     29  H   UNL     1      44.161 134.795  14.370  1.00  0.00     0.342 HD
BRANCH  27  30
ATOM     30  C   UNL     1      41.297 137.938  15.898  1.00  0.00     0.303 C 
BRANCH  30  31
ATOM     31  C   UNL     1      40.970 137.784  17.397  1.00  0.00     0.206 C 
BRANCH  31  32
ATOM     32  N   UNL     1      41.985 136.990  18.086  1.00  0.00    -0.219 NA
BRANCH  32  33
ATOM     33  C   UNL     1      43.029 137.517  18.589  1.00  0.00     0.059 C 
ATOM     34  S   UNL     1      44.357 138.177  19.222  1.00  0.00    -0.006 S 
ENDBRANCH  32  33
ENDBRANCH  31  32
BRANCH  31  35
ATOM     35  C   UNL     1      39.622 137.149  17.585  1.00  0.00     0.071 C 
ATOM     36  O   UNL     1      39.411 136.399  18.574  1.00  0.00    -0.548 OA
ATOM     37  O   UNL     1      38.585 137.422  16.702  1.00  0.00    -0.548 OA
ENDBRANCH  31  35
ENDBRANCH  30  31
ENDBRANCH  27  30
ENDBRANCH  23  24
ENDBRANCH   1  23
TORSDOF 14
ENDMDL
MODEL 3
REMARK VINA RESULT:      -5.9      2.533      3.053
REMARK SMILES [N-]=[N+]=NC(=O)c1cc2c3c(ccc(N=[N+]=[N-])c3c1OCCc1cn(C[C@H](N=C=S)C(=O)[O-])n[nH+]1)CC2
REMARK SMILES IDX 20 1 19 2 18 3 12 4 11 5 13 6 10 7 17 8 9 9 35 10 8 11 36 12
REMARK SMILES IDX 6 13 7 14 14 15 15 16 16 17 4 18 5 19 3 20 2 21 1 22 21 23
REMARK SMILES IDX 22 24 23 25 34 26 24 27 33 28 25 30 26 31 27 32 28 33 29 34
REMARK SMILES IDX 30 35 31 36 32 37
REMARK H PARENT 34 29
ROOT
ATOM      1  C   UNL     1      43.949 132.200  15.157  1.00  0.00     0.238 C 
ENDROOT
BRANCH   1   2
ATOM      2  O   UNL     1      43.366 131.517  16.272  1.00  0.00    -0.492 OA
BRANCH   2   3
ATOM      3  C   UNL     1      44.007 131.336  17.508  1.00  0.00     0.138 A 
ATOM      4  C   UNL     1      41.686 133.011  20.000  1.00  0.00     0.011 A 
ATOM      5  C   UNL     1      42.483 132.909  21.156  1.00  0.00     0.005 A 
ATOM      6  C   UNL     1      42.130 132.482  18.755  1.00  0.00     0.049 A 
ATOM      7  C   UNL     1      43.722 132.280  21.056  1.00  0.00    -0.039 A 
ATOM      8  C   UNL     1      43.400 131.847  18.687  1.00  0.00     0.035 A 
ATOM      9  C   UNL     1      44.140 131.777  19.865  1.00  0.00    -0.008 A 
ATOM     10  C   UNL     1      44.763 132.068  22.110  1.00  0.00     0.041 C 
ATOM     11  C   UNL     1      45.381 131.235  19.951  1.00  0.00    -0.039 A 
ATOM     12  C   UNL     1      45.910 131.350  21.346  1.00  0.00     0.041 C 
ATOM     13  C   UNL     1      45.278 130.681  17.600  1.00  0.00     0.067 A 
ATOM     14  C   UNL     1      45.979 130.669  18.829  1.00  0.00     0.020 A 
BRANCH   6  15
ATOM     15  N   UNL     1      41.309 132.586  17.581  1.00  0.00    -0.060 NA
BRANCH  15  16
ATOM     16  N   UNL     1      40.196 133.115  17.596  1.00  0.00     0.005 N 
ATOM     17  N   UNL     1      39.084 133.641  17.611  1.00  0.00    -0.003 NA
ENDBRANCH  15  16
ENDBRANCH   6  15
BRANCH  13  18
ATOM     18  C   UNL     1      45.884 129.982  16.446  1.00  0.00     0.252 C 
ATOM     19  O   UNL     1      45.352 128.924  16.020  1.00  0.00    -0.287 OA
BRANCH  18  20
ATOM     20  N   UNL     1      47.050 130.482  15.782  1.00  0.00    -0.017 NA
BRANCH  20  21
ATOM     21  N   UNL     1      47.139 130.509  14.554  1.00  0.00     0.009 N 
ATOM     22  N   UNL     1      47.234 130.538  13.327  1.00  0.00    -0.003 NA
ENDBRANCH  20  21
ENDBRANCH  18  20
ENDBRANCH  13  18
ENDBRANCH   2   3
ENDBRANCH   1   2
BRANCH   1  23
ATOM     23  C   UNL     1      44.464 133.591  15.547  1.00  0.00     0.128 C 
BRANCH  23  24
ATOM     24  C   UNL     1      43.344 134.574  15.720  1.00  0.00     0.168 A 
ATOM     25  C   UNL     1      42.446 134.984  14.756  1.00  0.00     0.274 A 
ATOM     26  N   UNL     1      42.971 135.129  16.889  1.00  0.00    -0.148 N 
ATOM     27  N   UNL     1      41.548 135.764  15.387  1.00  0.00    -0.135 N 
ATOM     28  N   UNL     1      41.879 135.844  16.668  1.00  0.00     0.088 NA
ATOM     29  H   UNL     1      43.423 135.005  17.822  1.00  0.00     0.342 HD
BRANCH  27  30
ATOM     30  C   UNL     1      40.367 136.392  14.797  1.00  0.00     0.303 C 
BRANCH  30  31
ATOM     31  C   UNL     1      39.794 137.501  15.701  1.00  0.00     0.206 C 
BRANCH  31  32
ATOM     32  N   UNL     1      38.601 137.047  16.413  1.00  0.00    -0.219 NA
BRANCH  32  33
ATOM     33  C   UNL     1      37.720 136.313  15.857  1.00  0.00     0.059 C 
ATOM     34  S   UNL     1      36.606 135.390  15.146  1.00  0.00    -0.006 S 
ENDBRANCH  32  33
ENDBRANCH  31  32
BRANCH  31  35
ATOM     35  C   UNL     1      39.463 138.725  14.896  1.00  0.00     0.071 C 
ATOM     36  O   UNL     1      38.732 139.625  15.388  1.00  0.00    -0.548 OA
ATOM     37  O   UNL     1      40.001 138.900  13.628  1.00  0.00    -0.548 OA
ENDBRANCH  31  35
ENDBRANCH  30  31
ENDBRANCH  27  30
ENDBRANCH  23  24
ENDBRANCH   1  23
TORSDOF 14
ENDMDL
MODEL 4
REMARK VINA RESULT:      -5.6      2.712      3.278
REMARK SMILES [N-]=[N+]=NC(=O)c1cc2c3c(ccc(N=[N+]=[N-])c3c1OCCc1cn(C[C@H](N=C=S)C(=O)[O-])n[nH+]1)CC2
REMARK SMILES IDX 20 1 19 2 18 3 12 4 11 5 13 6 10 7 17 8 9 9 35 10 8 11 36 12
REMARK SMILES IDX 6 13 7 14 14 15 15 16 16 17 4 18 5 19 3 20 2 21 1 22 21 23
REMARK SMILES IDX 22 24 23 25 34 26 24 27 33 28 25 30 26 31 27 32 28 33 29 34
REMARK SMILES IDX 30 35 31 36 32 37
REMARK H PARENT 34 29
ROOT
ATOM      1  C   UNL     1      43.216 132.083  14.686  1.00  0.00     0.238 C 
ENDROOT
BRANCH   1   2
ATOM      2  O   UNL     1      42.795 131.477  15.913  1.00  0.00    -0.492 OA
BRANCH   2   3
ATOM      3  C   UNL     1      43.628 131.292  17.027  1.00  0.00     0.138 A 
ATOM      4  C   UNL     1      41.783 133.023  19.855  1.00  0.00     0.011 A 
ATOM      5  C   UNL     1      42.759 132.913  20.864  1.00  0.00     0.005 A 
ATOM      6  C   UNL     1      42.004 132.479  18.558  1.00  0.00     0.049 A 
ATOM      7  C   UNL     1      43.953 132.260  20.564  1.00  0.00    -0.039 A 
ATOM      8  C   UNL     1      43.235 131.820  18.285  1.00  0.00     0.035 A 
ATOM      9  C   UNL     1      44.159 131.743  19.325  1.00  0.00    -0.008 A 
ATOM     10  C   UNL     1      45.151 132.034  21.433  1.00  0.00     0.041 C 
ATOM     11  C   UNL     1      45.387 131.178  19.208  1.00  0.00    -0.039 A 
ATOM     12  C   UNL     1      46.142 131.291  20.496  1.00  0.00     0.041 C 
ATOM     13  C   UNL     1      44.886 130.613  16.912  1.00  0.00     0.067 A 
ATOM     14  C   UNL     1      45.780 130.595  18.008  1.00  0.00     0.020 A 
BRANCH   6  15
ATOM     15  N   UNL     1      41.002 132.592  17.536  1.00  0.00    -0.060 NA
BRANCH  15  16
ATOM     16  N   UNL     1      39.852 132.963  17.774  1.00  0.00     0.005 N 
ATOM     17  N   UNL     1      38.702 133.335  18.009  1.00  0.00    -0.003 NA
ENDBRANCH  15  16
ENDBRANCH   6  15
BRANCH  13  18
ATOM     18  C   UNL     1      45.280 129.897  15.679  1.00  0.00     0.252 C 
ATOM     19  O   UNL     1      44.766 128.775  15.430  1.00  0.00    -0.287 OA
BRANCH  18  20
ATOM     20  N   UNL     1      46.215 130.448  14.746  1.00  0.00    -0.017 NA
BRANCH  20  21
ATOM     21  N   UNL     1      47.070 129.755  14.194  1.00  0.00     0.009 N 
ATOM     22  N   UNL     1      47.929 129.066  13.645  1.00  0.00    -0.003 NA
ENDBRANCH  20  21
ENDBRANCH  18  20
ENDBRANCH  13  18
ENDBRANCH   2   3
ENDBRANCH   1   2
BRANCH   1  23
ATOM     23  C   UNL     1      43.285 133.612  14.800  1.00  0.00     0.128 C 
BRANCH  23  24
ATOM     24  C   UNL     1      41.921 134.229  14.876  1.00  0.00     0.168 A 
ATOM     25  C   UNL     1      41.615 135.517  15.261  1.00  0.00     0.274 A 
ATOM     26  N   UNL     1      40.779 133.643  14.467  1.00  0.00    -0.148 N 
ATOM     27  N   UNL     1      40.293 135.668  15.054  1.00  0.00    -0.135 N 
ATOM     28  N   UNL     1      39.804 134.532  14.579  1.00  0.00     0.088 NA
ATOM     29  H   UNL     1      40.662 132.675  14.092  1.00  0.00     0.342 HD
BRANCH  27  30
ATOM     30  C   UNL     1      39.508 136.884  15.259  1.00  0.00     0.303 C 
BRANCH  30  31
ATOM     31  C   UNL     1      38.463 136.712  16.379  1.00  0.00     0.206 C 
BRANCH  31  32
ATOM     32  N   UNL     1      37.112 136.586  15.835  1.00  0.00    -0.219 NA
BRANCH  32  33
ATOM     33  C   UNL     1      36.793 137.071  14.702  1.00  0.00     0.059 C 
ATOM     34  S   UNL     1      36.384 137.677  13.264  1.00  0.00    -0.006 S 
ENDBRANCH  32  33
ENDBRANCH  31  32
BRANCH  31  35
ATOM     35  C   UNL     1      38.513 137.867  17.337  1.00  0.00     0.071 C 
ATOM     36  O   UNL     1      39.003 137.712  18.487  1.00  0.00    -0.548 OA
ATOM     37  O   UNL     1      38.070 139.124  16.948  1.00  0.00    -0.548 OA
ENDBRANCH  31  35
ENDBRANCH  30  31
ENDBRANCH  27  30
ENDBRANCH  23  24
ENDBRANCH   1  23
TORSDOF 14
ENDMDL
MODEL 5
REMARK VINA RESULT:      -5.4      1.867      2.273
REMARK SMILES [N-]=[N+]=NC(=O)c1cc2c3c(ccc(N=[N+]=[N-])c3c1OCCc1cn(C[C@H](N=C=S)C(=O)[O-])n[nH+]1)CC2
REMARK SMILES IDX 20 1 19 2 18 3 12 4 11 5 13 6 10 7 17 8 9 9 35 10 8 11 36 12
REMARK SMILES IDX 6 13 7 14 14 15 15 16 16 17 4 18 5 19 3 20 2 21 1 22 21 23
REMARK SMILES IDX 22 24 23 25 34 26 24 27 33 28 25 30 26 31 27 32 28 33 29 34
REMARK SMILES IDX 30 35 31 36 32 37
REMARK H PARENT 34 29
ROOT
ATOM      1  C   UNL     1      43.219 132.065  14.689  1.00  0.00     0.238 C 
ENDROOT
BRANCH   1   2
ATOM      2  O   UNL     1      43.379 132.673  15.975  1.00  0.00    -0.492 OA
BRANCH   2   3
ATOM      3  C   UNL     1      44.031 132.064  17.058  1.00  0.00     0.138 A 
ATOM      4  C   UNL     1      41.762 132.775  20.016  1.00  0.00     0.011 A 
ATOM      5  C   UNL     1      42.572 132.266  21.050  1.00  0.00     0.005 A 
ATOM      6  C   UNL     1      42.185 132.714  18.657  1.00  0.00     0.049 A 
ATOM      7  C   UNL     1      43.801 131.702  20.715  1.00  0.00    -0.039 A 
ATOM      8  C   UNL     1      43.446 132.133  18.351  1.00  0.00     0.035 A 
ATOM      9  C   UNL     1      44.198 131.647  19.417  1.00  0.00    -0.008 A 
ATOM     10  C   UNL     1      44.851 131.124  21.611  1.00  0.00     0.041 C 
ATOM     11  C   UNL     1      45.433 131.099  19.288  1.00  0.00    -0.039 A 
ATOM     12  C   UNL     1      45.980 130.711  20.626  1.00  0.00     0.041 C 
ATOM     13  C   UNL     1      45.295 131.407  16.894  1.00  0.00     0.067 A 
ATOM     14  C   UNL     1      46.010 130.958  18.029  1.00  0.00     0.020 A 
BRANCH   6  15
ATOM     15  N   UNL     1      41.352 133.231  17.609  1.00  0.00    -0.060 NA
BRANCH  15  16
ATOM     16  N   UNL     1      40.575 134.171  17.782  1.00  0.00     0.005 N 
ATOM     17  N   UNL     1      39.797 135.109  17.955  1.00  0.00    -0.003 NA
ENDBRANCH  15  16
ENDBRANCH   6  15
BRANCH  13  18
ATOM     18  C   UNL     1      45.878 131.154  15.558  1.00  0.00     0.252 C 
ATOM     19  O   UNL     1      46.389 132.110  14.919  1.00  0.00    -0.287 OA
BRANCH  18  20
ATOM     20  N   UNL     1      45.898 129.847  14.974  1.00  0.00    -0.017 NA
BRANCH  20  21
ATOM     21  N   UNL     1      46.872 129.428  14.348  1.00  0.00     0.009 N 
ATOM     22  N   UNL     1      47.842 129.004  13.721  1.00  0.00    -0.003 NA
ENDBRANCH  20  21
ENDBRANCH  18  20
ENDBRANCH  13  18
ENDBRANCH   2   3
ENDBRANCH   1   2
BRANCH   1  23
ATOM     23  C   UNL     1      41.965 132.576  13.968  1.00  0.00     0.128 C 
BRANCH  23  24
ATOM     24  C   UNL     1      41.655 133.998  14.327  1.00  0.00     0.168 A 
ATOM     25  C   UNL     1      42.558 134.985  14.660  1.00  0.00     0.274 A 
ATOM     26  N   UNL     1      40.434 134.565  14.268  1.00  0.00    -0.148 N 
ATOM     27  N   UNL     1      41.848 136.123  14.776  1.00  0.00    -0.135 N 
ATOM     28  N   UNL     1      40.572 135.854  14.540  1.00  0.00     0.088 NA
ATOM     29  H   UNL     1      39.532 134.102  14.022  1.00  0.00     0.342 HD
BRANCH  27  30
ATOM     30  C   UNL     1      42.373 137.457  15.061  1.00  0.00     0.303 C 
BRANCH  30  31
ATOM     31  C   UNL     1      41.546 138.180  16.143  1.00  0.00     0.206 C 
BRANCH  31  32
ATOM     32  N   UNL     1      40.988 139.434  15.640  1.00  0.00    -0.219 NA
BRANCH  32  33
ATOM     33  C   UNL     1      40.012 139.460  14.823  1.00  0.00     0.059 C 
ATOM     34  S   UNL     1      38.769 139.489  13.796  1.00  0.00    -0.006 S 
ENDBRANCH  32  33
ENDBRANCH  31  32
BRANCH  31  35
ATOM     35  C   UNL     1      42.385 138.455  17.358  1.00  0.00     0.071 C 
ATOM     36  O   UNL     1      43.606 138.151  17.363  1.00  0.00    -0.548 OA
ATOM     37  O   UNL     1      41.836 139.093  18.463  1.00  0.00    -0.548 OA
ENDBRANCH  31  35
ENDBRANCH  30  31
ENDBRANCH  27  30
ENDBRANCH  23  24
ENDBRANCH   1  23
TORSDOF 14
ENDMDL
MODEL 6
REMARK VINA RESULT:      -5.3      2.625      3.685
REMARK SMILES [N-]=[N+]=NC(=O)c1cc2c3c(ccc(N=[N+]=[N-])c3c1OCCc1cn(C[C@H](N=C=S)C(=O)[O-])n[nH+]1)CC2
REMARK SMILES IDX 20 1 19 2 18 3 12 4 11 5 13 6 10 7 17 8 9 9 35 10 8 11 36 12
REMARK SMILES IDX 6 13 7 14 14 15 15 16 16 17 4 18 5 19 3 20 2 21 1 22 21 23
REMARK SMILES IDX 22 24 23 25 34 26 24 27 33 28 25 30 26 31 27 32 28 33 29 34
REMARK SMILES IDX 30 35 31 36 32 37
REMARK H PARENT 34 29
ROOT
ATOM      1  C   UNL     1      43.942 132.549  15.000  1.00  0.00     0.238 C 
ENDROOT
BRANCH   1   2
ATOM      2  O   UNL     1      44.537 133.122  16.169  1.00  0.00    -0.492 OA
BRANCH   2   3
ATOM      3  C   UNL     1      44.743 132.426  17.370  1.00  0.00     0.138 A 
ATOM      4  C   UNL     1      43.314 134.729  20.025  1.00  0.00     0.011 A 
ATOM      5  C   UNL     1      43.705 134.018  21.176  1.00  0.00     0.005 A 
ATOM      6  C   UNL     1      43.610 134.235  18.723  1.00  0.00     0.049 A 
ATOM      7  C   UNL     1      44.394 132.818  21.014  1.00  0.00    -0.039 A 
ATOM      8  C   UNL     1      44.316 133.008  18.593  1.00  0.00     0.035 A 
ATOM      9  C   UNL     1      44.674 132.352  19.769  1.00  0.00    -0.008 A 
ATOM     10  C   UNL     1      44.943 131.894  22.056  1.00  0.00     0.041 C 
ATOM     11  C   UNL     1      45.379 131.193  19.807  1.00  0.00    -0.039 A 
ATOM     12  C   UNL     1      45.626 130.775  21.223  1.00  0.00     0.041 C 
ATOM     13  C   UNL     1      45.410 131.157  17.391  1.00  0.00     0.067 A 
ATOM     14  C   UNL     1      45.759 130.563  18.626  1.00  0.00     0.020 A 
BRANCH   6  15
ATOM     15  N   UNL     1      43.204 134.964  17.555  1.00  0.00    -0.060 NA
BRANCH  15  16
ATOM     16  N   UNL     1      42.835 136.138  17.601  1.00  0.00     0.005 N 
ATOM     17  N   UNL     1      42.465 137.311  17.650  1.00  0.00    -0.003 NA
ENDBRANCH  15  16
ENDBRANCH   6  15
BRANCH  13  18
ATOM     18  C   UNL     1      45.730 130.420  16.149  1.00  0.00     0.252 C 
ATOM     19  O   UNL     1      44.939 129.528  15.742  1.00  0.00    -0.287 OA
BRANCH  18  20
ATOM     20  N   UNL     1      46.904 130.701  15.379  1.00  0.00    -0.017 NA
BRANCH  20  21
ATOM     21  N   UNL     1      47.392 129.873  14.609  1.00  0.00     0.009 N 
ATOM     22  N   UNL     1      47.881 129.051  13.835  1.00  0.00    -0.003 NA
ENDBRANCH  20  21
ENDBRANCH  18  20
ENDBRANCH  13  18
ENDBRANCH   2   3
ENDBRANCH   1   2
BRANCH   1  23
ATOM     23  C   UNL     1      42.416 132.458  15.124  1.00  0.00     0.128 C 
BRANCH  23  24
ATOM     24  C   UNL     1      41.745 133.743  14.742  1.00  0.00     0.168 A 
ATOM     25  C   UNL     1      40.390 133.967  14.623  1.00  0.00     0.274 A 
ATOM     26  N   UNL     1      42.371 134.923  14.563  1.00  0.00    -0.148 N 
ATOM     27  N   UNL     1      40.245 135.286  14.390  1.00  0.00    -0.135 N 
ATOM     28  N   UNL     1      41.445 135.846  14.355  1.00  0.00     0.088 NA
ATOM     29  H   UNL     1      43.398 135.108  14.609  1.00  0.00     0.342 HD
BRANCH  27  30
ATOM     30  C   UNL     1      38.987 136.016  14.248  1.00  0.00     0.303 C 
BRANCH  30  31
ATOM     31  C   UNL     1      38.566 136.698  15.565  1.00  0.00     0.206 C 
BRANCH  31  32
ATOM     32  N   UNL     1      39.344 136.198  16.697  1.00  0.00    -0.219 NA
BRANCH  32  33
ATOM     33  C   UNL     1      38.913 136.258  17.893  1.00  0.00     0.059 C 
ATOM     34  S   UNL     1      38.360 136.326  19.407  1.00  0.00    -0.006 S 
ENDBRANCH  32  33
ENDBRANCH  31  32
BRANCH  31  35
ATOM     35  C   UNL     1      37.103 136.488  15.830  1.00  0.00     0.071 C 
ATOM     36  O   UNL     1      36.376 137.461  16.161  1.00  0.00    -0.548 OA
ATOM     37  O   UNL     1      36.530 135.235  15.661  1.00  0.00    -0.548 OA
ENDBRANCH  31  35
ENDBRANCH  30  31
ENDBRANCH  27  30
ENDBRANCH  23  24
ENDBRANCH   1  23
TORSDOF 14
ENDMDL
MODEL 7
REMARK VINA RESULT:      -5.2      2.093      2.387
REMARK SMILES [N-]=[N+]=NC(=O)c1cc2c3c(ccc(N=[N+]=[N-])c3c1OCCc1cn(C[C@H](N=C=S)C(=O)[O-])n[nH+]1)CC2
REMARK SMILES IDX 20 1 19 2 18 3 12 4 11 5 13 6 10 7 17 8 9 9 35 10 8 11 36 12
REMARK SMILES IDX 6 13 7 14 14 15 15 16 16 17 4 18 5 19 3 20 2 21 1 22 21 23
REMARK SMILES IDX 22 24 23 25 34 26 24 27 33 28 25 30 26 31 27 32 28 33 29 34
REMARK SMILES IDX 30 35 31 36 32 37
REMARK H PARENT 34 29
ROOT
ATOM      1  C   UNL     1      43.779 133.279  15.261  1.00  0.00     0.238 C 
ENDROOT
BRANCH   1   2
ATOM      2  O   UNL     1      43.261 132.236  16.094  1.00  0.00    -0.492 OA
BRANCH   2   3
ATOM      3  C   UNL     1      43.901 131.759  17.248  1.00  0.00     0.138 A 
ATOM      4  C   UNL     1      41.688 132.959  20.088  1.00  0.00     0.011 A 
ATOM      5  C   UNL     1      42.487 132.569  21.179  1.00  0.00     0.005 A 
ATOM      6  C   UNL     1      42.094 132.694  18.749  1.00  0.00     0.049 A 
ATOM      7  C   UNL     1      43.692 131.918  20.921  1.00  0.00    -0.039 A 
ATOM      8  C   UNL     1      43.331 132.029  18.521  1.00  0.00     0.035 A 
ATOM      9  C   UNL     1      44.075 131.668  19.642  1.00  0.00    -0.008 A 
ATOM     10  C   UNL     1      44.729 131.431  21.884  1.00  0.00     0.041 C 
ATOM     11  C   UNL     1      45.287 131.061  19.584  1.00  0.00    -0.039 A 
ATOM     12  C   UNL     1      45.832 130.843  20.961  1.00  0.00     0.041 C 
ATOM     13  C   UNL     1      45.138 131.039  17.172  1.00  0.00     0.067 A 
ATOM     14  C   UNL     1      45.846 130.726  18.355  1.00  0.00     0.020 A 
BRANCH   6  15
ATOM     15  N   UNL     1      41.271 133.091  17.642  1.00  0.00    -0.060 NA
BRANCH  15  16
ATOM     16  N   UNL     1      40.040 133.062  17.687  1.00  0.00     0.005 N 
ATOM     17  N   UNL     1      38.811 133.032  17.730  1.00  0.00    -0.003 NA
ENDBRANCH  15  16
ENDBRANCH   6  15
BRANCH  13  18
ATOM     18  C   UNL     1      45.699 130.581  15.882  1.00  0.00     0.252 C 
ATOM     19  O   UNL     1      46.776 131.083  15.467  1.00  0.00    -0.287 OA
BRANCH  18  20
ATOM     20  N   UNL     1      45.064 129.566  15.096  1.00  0.00    -0.017 NA
BRANCH  20  21
ATOM     21  N   UNL     1      44.962 128.404  15.492  1.00  0.00     0.009 N 
ATOM     22  N   UNL     1      44.853 127.244  15.885  1.00  0.00    -0.003 NA
ENDBRANCH  20  21
ENDBRANCH  18  20
ENDBRANCH  13  18
ENDBRANCH   2   3
ENDBRANCH   1   2
BRANCH   1  23
ATOM     23  C   UNL     1      44.654 134.259  16.053  1.00  0.00     0.128 C 
BRANCH  23  24
ATOM     24  C   UNL     1      43.905 135.504  16.424  1.00  0.00     0.168 A 
ATOM     25  C   UNL     1      43.801 136.065  17.679  1.00  0.00     0.274 A 
ATOM     26  N   UNL     1      43.305 136.338  15.552  1.00  0.00    -0.148 N 
ATOM     27  N   UNL     1      43.150 137.233  17.517  1.00  0.00    -0.135 N 
ATOM     28  N   UNL     1      42.857 137.381  16.233  1.00  0.00     0.088 NA
ATOM     29  H   UNL     1      43.224 136.222  14.518  1.00  0.00     0.342 HD
BRANCH  27  30
ATOM     30  C   UNL     1      42.849 138.218  18.554  1.00  0.00     0.303 C 
BRANCH  30  31
ATOM     31  C   UNL     1      44.129 138.825  19.159  1.00  0.00     0.206 C 
BRANCH  31  32
ATOM     32  N   UNL     1      45.284 137.952  18.952  1.00  0.00    -0.219 NA
BRANCH  32  33
ATOM     33  C   UNL     1      46.464 138.411  18.822  1.00  0.00     0.059 C 
ATOM     34  S   UNL     1      47.961 138.988  18.665  1.00  0.00    -0.006 S 
ENDBRANCH  32  33
ENDBRANCH  31  32
BRANCH  31  35
ATOM     35  C   UNL     1      43.953 139.085  20.627  1.00  0.00     0.071 C 
ATOM     36  O   UNL     1      44.878 139.625  21.288  1.00  0.00    -0.548 OA
ATOM     37  O   UNL     1      42.753 138.781  21.257  1.00  0.00    -0.548 OA
ENDBRANCH  31  35
ENDBRANCH  30  31
ENDBRANCH  27  30
ENDBRANCH  23  24
ENDBRANCH   1  23
TORSDOF 14
ENDMDL
MODEL 8
REMARK VINA RESULT:      -5.2      3.408      5.934
REMARK SMILES [N-]=[N+]=NC(=O)c1cc2c3c(ccc(N=[N+]=[N-])c3c1OCCc1cn(C[C@H](N=C=S)C(=O)[O-])n[nH+]1)CC2
REMARK SMILES IDX 20 1 19 2 18 3 12 4 11 5 13 6 10 7 17 8 9 9 35 10 8 11 36 12
REMARK SMILES IDX 6 13 7 14 14 15 15 16 16 17 4 18 5 19 3 20 2 21 1 22 21 23
REMARK SMILES IDX 22 24 23 25 34 26 24 27 33 28 25 30 26 31 27 32 28 33 29 34
REMARK SMILES IDX 30 35 31 36 32 37
REMARK H PARENT 34 29
ROOT
ATOM      1  C   UNL     1      42.841 132.737  14.273  1.00  0.00     0.238 C 
ENDROOT
BRANCH   1   2
ATOM      2  O   UNL     1      43.702 133.606  15.017  1.00  0.00    -0.492 OA
BRANCH   2   3
ATOM      3  C   UNL     1      43.843 133.569  16.413  1.00  0.00     0.138 A 
ATOM      4  C   UNL     1      45.853 130.414  17.050  1.00  0.00     0.011 A 
ATOM      5  C   UNL     1      45.803 130.393  18.457  1.00  0.00     0.005 A 
ATOM      6  C   UNL     1      45.238 131.463  16.310  1.00  0.00     0.049 A 
ATOM      7  C   UNL     1      45.134 131.424  19.113  1.00  0.00    -0.039 A 
ATOM      8  C   UNL     1      44.561 132.499  17.011  1.00  0.00     0.035 A 
ATOM      9  C   UNL     1      44.548 132.423  18.401  1.00  0.00    -0.008 A 
ATOM     10  C   UNL     1      44.909 131.623  20.580  1.00  0.00     0.041 C 
ATOM     11  C   UNL     1      43.915 133.314  19.205  1.00  0.00    -0.039 A 
ATOM     12  C   UNL     1      44.065 132.926  20.642  1.00  0.00     0.041 C 
ATOM     13  C   UNL     1      43.246 134.568  17.250  1.00  0.00     0.067 A 
ATOM     14  C   UNL     1      43.256 134.409  18.655  1.00  0.00     0.020 A 
BRANCH   6  15
ATOM     15  N   UNL     1      45.297 131.479  14.876  1.00  0.00    -0.060 NA
BRANCH  15  16
ATOM     16  N   UNL     1      46.360 131.434  14.255  1.00  0.00     0.005 N 
ATOM     17  N   UNL     1      47.422 131.388  13.634  1.00  0.00    -0.003 NA
ENDBRANCH  15  16
ENDBRANCH   6  15
BRANCH  13  18
ATOM     18  C   UNL     1      42.631 135.792  16.691  1.00  0.00     0.252 C 
ATOM     19  O   UNL     1      43.349 136.602  16.048  1.00  0.00    -0.287 OA
BRANCH  18  20
ATOM     20  N   UNL     1      41.236 136.078  16.840  1.00  0.00    -0.017 NA
BRANCH  20  21
ATOM     21  N   UNL     1      40.452 135.261  17.323  1.00  0.00     0.009 N 
ATOM     22  N   UNL     1      39.664 134.447  17.802  1.00  0.00    -0.003 NA
ENDBRANCH  20  21
ENDBRANCH  18  20
ENDBRANCH  13  18
ENDBRANCH   2   3
ENDBRANCH   1   2
BRANCH   1  23
ATOM     23  C   UNL     1      41.398 132.785  14.792  1.00  0.00     0.128 C 
BRANCH  23  24
ATOM     24  C   UNL     1      40.620 133.911  14.180  1.00  0.00     0.168 A 
ATOM     25  C   UNL     1      39.251 134.071  14.184  1.00  0.00     0.274 A 
ATOM     26  N   UNL     1      41.158 135.013  13.620  1.00  0.00    -0.148 N 
ATOM     27  N   UNL     1      39.011 135.278  13.638  1.00  0.00    -0.135 N 
ATOM     28  N   UNL     1      40.167 135.831  13.302  1.00  0.00     0.088 NA
ATOM     29  H   UNL     1      42.172 135.222  13.483  1.00  0.00     0.342 HD
BRANCH  27  30
ATOM     30  C   UNL     1      37.708 135.923  13.477  1.00  0.00     0.303 C 
BRANCH  30  31
ATOM     31  C   UNL     1      37.765 137.426  13.815  1.00  0.00     0.206 C 
BRANCH  31  32
ATOM     32  N   UNL     1      36.735 137.793  14.785  1.00  0.00    -0.219 NA
BRANCH  32  33
ATOM     33  C   UNL     1      36.880 137.594  16.034  1.00  0.00     0.059 C 
ATOM     34  S   UNL     1      37.072 137.335  17.614  1.00  0.00    -0.006 S 
ENDBRANCH  32  33
ENDBRANCH  31  32
BRANCH  31  35
ATOM     35  C   UNL     1      37.606 138.257  12.574  1.00  0.00     0.071 C 
ATOM     36  O   UNL     1      38.571 138.389  11.776  1.00  0.00    -0.548 OA
ATOM     37  O   UNL     1      36.384 138.842  12.270  1.00  0.00    -0.548 OA
ENDBRANCH  31  35
ENDBRANCH  30  31
ENDBRANCH  27  30
ENDBRANCH  23  24
ENDBRANCH   1  23
TORSDOF 14
ENDMDL
MODEL 9
REMARK VINA RESULT:      -5.0      2.195      2.633
REMARK SMILES [N-]=[N+]=NC(=O)c1cc2c3c(ccc(N=[N+]=[N-])c3c1OCCc1cn(C[C@H](N=C=S)C(=O)[O-])n[nH+]1)CC2
REMARK SMILES IDX 20 1 19 2 18 3 12 4 11 5 13 6 10 7 17 8 9 9 35 10 8 11 36 12
REMARK SMILES IDX 6 13 7 14 14 15 15 16 16 17 4 18 5 19 3 20 2 21 1 22 21 23
REMARK SMILES IDX 22 24 23 25 34 26 24 27 33 28 25 30 26 31 27 32 28 33 29 34
REMARK SMILES IDX 30 35 31 36 32 37
REMARK H PARENT 34 29
ROOT
ATOM      1  C   UNL     1      43.389 134.209  15.959  1.00  0.00     0.238 C 
ENDROOT
BRANCH   1   2
ATOM      2  O   UNL     1      42.964 132.981  16.561  1.00  0.00    -0.492 OA
BRANCH   2   3
ATOM      3  C   UNL     1      43.596 132.384  17.662  1.00  0.00     0.138 A 
ATOM      4  C   UNL     1      41.524 133.508  20.636  1.00  0.00     0.011 A 
ATOM      5  C   UNL     1      42.320 132.992  21.676  1.00  0.00     0.005 A 
ATOM      6  C   UNL     1      41.885 133.317  19.271  1.00  0.00     0.049 A 
ATOM      7  C   UNL     1      43.475 132.288  21.341  1.00  0.00    -0.039 A 
ATOM      8  C   UNL     1      43.071 132.595  18.965  1.00  0.00     0.035 A 
ATOM      9  C   UNL     1      43.814 132.108  20.038  1.00  0.00    -0.008 A 
ATOM     10  C   UNL     1      44.499 131.669  22.240  1.00  0.00     0.041 C 
ATOM     11  C   UNL     1      44.985 131.434  19.907  1.00  0.00    -0.039 A 
ATOM     12  C   UNL     1      45.543 131.083  21.250  1.00  0.00     0.041 C 
ATOM     13  C   UNL     1      44.784 131.596  17.503  1.00  0.00     0.067 A 
ATOM     14  C   UNL     1      45.495 131.154  18.643  1.00  0.00     0.020 A 
BRANCH   6  15
ATOM     15  N   UNL     1      41.065 133.844  18.217  1.00  0.00    -0.060 NA
BRANCH  15  16
ATOM     16  N   UNL     1      39.980 133.348  17.910  1.00  0.00     0.005 N 
ATOM     17  N   UNL     1      38.895 132.856  17.604  1.00  0.00    -0.003 NA
ENDBRANCH  15  16
ENDBRANCH   6  15
BRANCH  13  18
ATOM     18  C   UNL     1      45.287 131.199  16.170  1.00  0.00     0.252 C 
ATOM     19  O   UNL     1      44.951 130.083  15.694  1.00  0.00    -0.287 OA
BRANCH  18  20
ATOM     20  N   UNL     1      46.131 132.053  15.391  1.00  0.00    -0.017 NA
BRANCH  20  21
ATOM     21  N   UNL     1      46.740 131.642  14.403  1.00  0.00     0.009 N 
ATOM     22  N   UNL     1      47.353 131.228  13.420  1.00  0.00    -0.003 NA
ENDBRANCH  20  21
ENDBRANCH  18  20
ENDBRANCH  13  18
ENDBRANCH   2   3
ENDBRANCH   1   2
BRANCH   1  23
ATOM     23  C   UNL     1      42.378 134.716  14.924  1.00  0.00     0.128 C 
BRANCH  23  24
ATOM     24  C   UNL     1      41.719 135.990  15.362  1.00  0.00     0.168 A 
ATOM     25  C   UNL     1      41.744 136.543  16.625  1.00  0.00     0.274 A 
ATOM     26  N   UNL     1      41.085 136.857  14.548  1.00  0.00    -0.148 N 
ATOM     27  N   UNL     1      41.134 137.740  16.523  1.00  0.00    -0.135 N 
ATOM     28  N   UNL     1      40.742 137.913  15.270  1.00  0.00     0.088 NA
ATOM     29  H   UNL     1      40.914 136.754  13.524  1.00  0.00     0.342 HD
BRANCH  27  30
ATOM     30  C   UNL     1      40.964 138.728  17.587  1.00  0.00     0.303 C 
BRANCH  30  31
ATOM     31  C   UNL     1      39.875 138.308  18.593  1.00  0.00     0.206 C 
BRANCH  31  32
ATOM     32  N   UNL     1      40.353 137.255  19.488  1.00  0.00    -0.219 NA
BRANCH  32  33
ATOM     33  C   UNL     1      41.439 137.366  20.143  1.00  0.00     0.059 C 
ATOM     34  S   UNL     1      42.816 137.498  20.972  1.00  0.00    -0.006 S 
ENDBRANCH  32  33
ENDBRANCH  31  32
BRANCH  31  35
ATOM     35  C   UNL     1      38.642 137.836  17.877  1.00  0.00     0.071 C 
ATOM     36  O   UNL     1      38.309 136.623  17.926  1.00  0.00    -0.548 OA
ATOM     37  O   UNL     1      37.832 138.739  17.201  1.00  0.00    -0.548 OA
ENDBRANCH  31  35
ENDBRANCH  30  31
ENDBRANCH  27  30
ENDBRANCH  23  24
ENDBRANCH   1  23
TORSDOF 14
ENDMDL


