MODEL 1
REMARK VINA RESULT:      -6.9      0.000      0.000
REMARK SMILES C#C/C(=N\[C@H](c1c(C)nnn1-c1c2ccccc2c(C=O)c2ccccc12)C(C)C)OC(=O)C=C
REMARK SMILES IDX 4 1 3 2 2 3 1 4 31 5 32 6 33 7 34 8 35 9 5 10 6 11 7 12
REMARK SMILES IDX 11 13 9 14 10 15 8 16 12 17 13 18 27 19 14 20 18 21 26 22
REMARK SMILES IDX 22 23 15 24 17 25 19 26 25 27 23 28 16 29 24 30 20 31 21 32
REMARK SMILES IDX 28 33 29 34 30 35
REMARK H PARENT
ROOT
ATOM      1  N   UNL     1      44.280 133.184  15.697  1.00  0.00    -0.233 NA
ENDROOT
BRANCH   1   2
ATOM      2  C   UNL     1      45.278 132.399  15.997  1.00  0.00     0.272 C 
BRANCH   2   3
ATOM      3  C   UNL     1      45.345 131.717  17.266  1.00  0.00    -0.011 C 
ATOM      4  C   UNL     1      45.403 131.143  18.325  1.00  0.00     0.015 C 
ENDBRANCH   2   3
BRANCH   2   5
ATOM      5  O   UNL     1      46.328 132.193  15.092  1.00  0.00    -0.396 OA
BRANCH   5   6
ATOM      6  C   UNL     1      46.713 130.954  14.556  1.00  0.00     0.337 C 
ATOM      7  O   UNL     1      47.405 130.142  15.227  1.00  0.00    -0.246 OA
BRANCH   6   8
ATOM      8  C   UNL     1      46.332 130.595  13.182  1.00  0.00     0.086 C 
ATOM      9  C   UNL     1      47.207 130.595  12.180  1.00  0.00     0.016 C 
ENDBRANCH   6   8
ENDBRANCH   5   6
ENDBRANCH   2   5
ENDBRANCH   1   2
BRANCH   1  10
ATOM     10  C   UNL     1      43.616 134.128  16.601  1.00  0.00     0.163 C 
BRANCH  10  11
ATOM     11  C   UNL     1      42.106 133.992  16.471  1.00  0.00     0.092 A 
ATOM     12  C   UNL     1      41.340 133.579  15.381  1.00  0.00     0.086 A 
ATOM     13  N   UNL     1      41.222 134.200  17.475  1.00  0.00    -0.214 N 
ATOM     14  N   UNL     1      40.045 133.574  15.758  1.00  0.00    -0.135 NA
ATOM     15  N   UNL     1      40.005 133.946  17.028  1.00  0.00    -0.062 NA
ATOM     16  C   UNL     1      41.775 133.180  14.006  1.00  0.00     0.071 C 
BRANCH  13  17
ATOM     17  C   UNL     1      41.505 134.561  18.840  1.00  0.00     0.082 A 
ATOM     18  C   UNL     1      41.920 133.574  19.759  1.00  0.00     0.009 A 
ATOM     19  C   UNL     1      41.372 135.904  19.258  1.00  0.00     0.009 A 
ATOM     20  C   UNL     1      42.115 132.239  19.341  1.00  0.00     0.011 A 
ATOM     21  C   UNL     1      42.121 133.909  21.125  1.00  0.00    -0.005 A 
ATOM     22  C   UNL     1      41.048 136.918  18.329  1.00  0.00     0.011 A 
ATOM     23  C   UNL     1      41.580 136.251  20.621  1.00  0.00    -0.005 A 
ATOM     24  C   UNL     1      42.487 131.252  20.251  1.00  0.00     0.001 A 
ATOM     25  C   UNL     1      42.485 132.883  22.029  1.00  0.00     0.009 A 
ATOM     26  C   UNL     1      41.927 135.246  21.563  1.00  0.00     0.030 A 
ATOM     27  C   UNL     1      40.920 138.244  18.733  1.00  0.00     0.001 A 
ATOM     28  C   UNL     1      41.470 137.612  20.997  1.00  0.00     0.009 A 
ATOM     29  C   UNL     1      42.668 131.571  21.591  1.00  0.00     0.001 A 
ATOM     30  C   UNL     1      41.133 138.590  20.062  1.00  0.00     0.001 A 
BRANCH  26  31
ATOM     31  C   UNL     1      42.090 135.582  22.999  1.00  0.00     0.261 C 
ATOM     32  O   UNL     1      43.213 135.924  23.456  1.00  0.00    -0.298 OA
ENDBRANCH  26  31
ENDBRANCH  13  17
ENDBRANCH  10  11
BRANCH  10  33
ATOM     33  C   UNL     1      44.146 135.579  16.406  1.00  0.00     0.014 C 
ATOM     34  C   UNL     1      44.431 136.266  17.747  1.00  0.00     0.010 C 
ATOM     35  C   UNL     1      43.239 136.462  15.541  1.00  0.00     0.010 C 
ENDBRANCH  10  33
ENDBRANCH   1  10
TORSDOF 10
ENDMDL
MODEL 2
REMARK VINA RESULT:      -6.8      0.760      3.195
REMARK SMILES C#C/C(=N\[C@H](c1c(C)nnn1-c1c2ccccc2c(C=O)c2ccccc12)C(C)C)OC(=O)C=C
REMARK SMILES IDX 4 1 3 2 2 3 1 4 31 5 32 6 33 7 34 8 35 9 5 10 6 11 7 12
REMARK SMILES IDX 11 13 9 14 10 15 8 16 12 17 13 18 27 19 14 20 18 21 26 22
REMARK SMILES IDX 22 23 15 24 17 25 19 26 25 27 23 28 16 29 24 30 20 31 21 32
REMARK SMILES IDX 28 33 29 34 30 35
REMARK H PARENT
ROOT
ATOM      1  N   UNL     1      44.272 133.170  15.557  1.00  0.00    -0.233 NA
ENDROOT
BRANCH   1   2
ATOM      2  C   UNL     1      44.534 131.912  15.786  1.00  0.00     0.272 C 
BRANCH   2   3
ATOM      3  C   UNL     1      45.034 131.467  17.064  1.00  0.00    -0.011 C 
ATOM      4  C   UNL     1      45.449 131.097  18.133  1.00  0.00     0.015 C 
ENDBRANCH   2   3
BRANCH   2   5
ATOM      5  O   UNL     1      44.341 130.945  14.791  1.00  0.00    -0.396 OA
BRANCH   5   6
ATOM      6  C   UNL     1      45.294 130.002  14.373  1.00  0.00     0.337 C 
ATOM      7  O   UNL     1      45.356 128.861  14.904  1.00  0.00    -0.246 OA
BRANCH   6   8
ATOM      8  C   UNL     1      46.258 130.347  13.318  1.00  0.00     0.086 C 
ATOM      9  C   UNL     1      47.263 131.195  13.524  1.00  0.00     0.016 C 
ENDBRANCH   6   8
ENDBRANCH   5   6
ENDBRANCH   2   5
ENDBRANCH   1   2
BRANCH   1  10
ATOM     10  C   UNL     1      43.639 134.108  16.489  1.00  0.00     0.163 C 
BRANCH  10  11
ATOM     11  C   UNL     1      42.126 133.963  16.420  1.00  0.00     0.092 A 
ATOM     12  C   UNL     1      41.321 133.518  15.372  1.00  0.00     0.086 A 
ATOM     13  N   UNL     1      41.280 134.193  17.452  1.00  0.00    -0.214 N 
ATOM     14  N   UNL     1      40.042 133.516  15.798  1.00  0.00    -0.135 NA
ATOM     15  N   UNL     1      40.048 133.922  17.058  1.00  0.00    -0.062 NA
ATOM     16  C   UNL     1      41.706 133.084  13.992  1.00  0.00     0.071 C 
BRANCH  13  17
ATOM     17  C   UNL     1      41.612 134.591  18.795  1.00  0.00     0.082 A 
ATOM     18  C   UNL     1      41.469 135.940  19.186  1.00  0.00     0.009 A 
ATOM     19  C   UNL     1      42.075 133.632  19.723  1.00  0.00     0.009 A 
ATOM     20  C   UNL     1      40.951 136.899  18.287  1.00  0.00     0.011 A 
ATOM     21  C   UNL     1      41.872 136.353  20.485  1.00  0.00    -0.005 A 
ATOM     22  C   UNL     1      42.134 132.265  19.374  1.00  0.00     0.011 A 
ATOM     23  C   UNL     1      42.472 134.034  21.027  1.00  0.00    -0.005 A 
ATOM     24  C   UNL     1      40.843 138.238  18.654  1.00  0.00     0.001 A 
ATOM     25  C   UNL     1      41.765 137.723  20.824  1.00  0.00     0.009 A 
ATOM     26  C   UNL     1      42.399 135.403  21.400  1.00  0.00     0.030 A 
ATOM     27  C   UNL     1      42.585 131.313  20.285  1.00  0.00     0.001 A 
ATOM     28  C   UNL     1      42.900 133.040  21.940  1.00  0.00     0.009 A 
ATOM     29  C   UNL     1      41.253 138.650  19.916  1.00  0.00     0.001 A 
ATOM     30  C   UNL     1      42.965 131.699  21.564  1.00  0.00     0.001 A 
BRANCH  26  31
ATOM     31  C   UNL     1      42.863 135.848  22.736  1.00  0.00     0.261 C 
ATOM     32  O   UNL     1      42.077 135.859  23.720  1.00  0.00    -0.298 OA
ENDBRANCH  26  31
ENDBRANCH  13  17
ENDBRANCH  10  11
BRANCH  10  33
ATOM     33  C   UNL     1      44.151 135.563  16.274  1.00  0.00     0.014 C 
ATOM     34  C   UNL     1      44.495 136.246  17.603  1.00  0.00     0.010 C 
ATOM     35  C   UNL     1      43.199 136.444  15.457  1.00  0.00     0.010 C 
ENDBRANCH  10  33
ENDBRANCH   1  10
TORSDOF 10
ENDMDL
MODEL 3
REMARK VINA RESULT:      -6.7      2.774      4.934
REMARK SMILES C#C/C(=N\[C@H](c1c(C)nnn1-c1c2ccccc2c(C=O)c2ccccc12)C(C)C)OC(=O)C=C
REMARK SMILES IDX 4 1 3 2 2 3 1 4 31 5 32 6 33 7 34 8 35 9 5 10 6 11 7 12
REMARK SMILES IDX 11 13 9 14 10 15 8 16 12 17 13 18 27 19 14 20 18 21 26 22
REMARK SMILES IDX 22 23 15 24 17 25 19 26 25 27 23 28 16 29 24 30 20 31 21 32
REMARK SMILES IDX 28 33 29 34 30 35
REMARK H PARENT
ROOT
ATOM      1  N   UNL     1      44.991 132.445  18.999  1.00  0.00    -0.233 NA
ENDROOT
BRANCH   1   2
ATOM      2  C   UNL     1      44.597 131.888  17.887  1.00  0.00     0.272 C 
BRANCH   2   3
ATOM      3  C   UNL     1      43.205 131.861  17.509  1.00  0.00    -0.011 C 
ATOM      4  C   UNL     1      42.043 131.841  17.190  1.00  0.00     0.015 C 
ENDBRANCH   2   3
BRANCH   2   5
ATOM      5  O   UNL     1      45.518 131.291  17.017  1.00  0.00    -0.396 OA
BRANCH   5   6
ATOM      6  C   UNL     1      45.879 131.777  15.750  1.00  0.00     0.337 C 
ATOM      7  O   UNL     1      45.720 132.991  15.450  1.00  0.00    -0.246 OA
BRANCH   6   8
ATOM      8  C   UNL     1      46.428 130.863  14.739  1.00  0.00     0.086 C 
ATOM      9  C   UNL     1      47.237 131.280  13.768  1.00  0.00     0.016 C 
ENDBRANCH   6   8
ENDBRANCH   5   6
ENDBRANCH   2   5
ENDBRANCH   1   2
BRANCH   1  10
ATOM     10  C   UNL     1      44.129 132.902  20.094  1.00  0.00     0.163 C 
BRANCH  10  11
ATOM     11  C   UNL     1      44.369 134.381  20.356  1.00  0.00     0.092 A 
ATOM     12  C   UNL     1      45.429 135.010  21.009  1.00  0.00     0.086 A 
ATOM     13  N   UNL     1      43.575 135.383  19.910  1.00  0.00    -0.214 N 
ATOM     14  N   UNL     1      45.226 136.341  20.950  1.00  0.00    -0.135 NA
ATOM     15  N   UNL     1      44.104 136.538  20.275  1.00  0.00    -0.062 NA
ATOM     16  C   UNL     1      46.627 134.411  21.677  1.00  0.00     0.071 C 
BRANCH  13  17
ATOM     17  C   UNL     1      42.388 135.277  19.103  1.00  0.00     0.082 A 
ATOM     18  C   UNL     1      41.134 135.069  19.717  1.00  0.00     0.009 A 
ATOM     19  C   UNL     1      42.475 135.387  17.697  1.00  0.00     0.009 A 
ATOM     20  C   UNL     1      41.023 135.016  21.125  1.00  0.00     0.011 A 
ATOM     21  C   UNL     1      39.971 134.882  18.922  1.00  0.00    -0.005 A 
ATOM     22  C   UNL     1      43.707 135.688  17.075  1.00  0.00     0.011 A 
ATOM     23  C   UNL     1      41.316 135.211  16.894  1.00  0.00    -0.005 A 
ATOM     24  C   UNL     1      39.795 134.773  21.736  1.00  0.00     0.001 A 
ATOM     25  C   UNL     1      38.741 134.621  19.571  1.00  0.00     0.009 A 
ATOM     26  C   UNL     1      40.066 134.928  17.506  1.00  0.00     0.030 A 
ATOM     27  C   UNL     1      43.800 135.803  15.690  1.00  0.00     0.001 A 
ATOM     28  C   UNL     1      41.436 135.360  15.491  1.00  0.00     0.009 A 
ATOM     29  C   UNL     1      38.659 134.572  20.963  1.00  0.00     0.001 A 
ATOM     30  C   UNL     1      42.669 135.642  14.902  1.00  0.00     0.001 A 
BRANCH  26  31
ATOM     31  C   UNL     1      38.858 134.684  16.679  1.00  0.00     0.261 C 
ATOM     32  O   UNL     1      38.597 133.530  16.247  1.00  0.00    -0.298 OA
ENDBRANCH  26  31
ENDBRANCH  13  17
ENDBRANCH  10  11
BRANCH  10  33
ATOM     33  C   UNL     1      44.274 131.998  21.354  1.00  0.00     0.014 C 
ATOM     34  C   UNL     1      45.479 131.057  21.242  1.00  0.00     0.010 C 
ATOM     35  C   UNL     1      43.010 131.201  21.698  1.00  0.00     0.010 C 
ENDBRANCH  10  33
ENDBRANCH   1  10
TORSDOF 10
ENDMDL
MODEL 4
REMARK VINA RESULT:      -6.6      1.862      2.709
REMARK SMILES C#C/C(=N\[C@H](c1c(C)nnn1-c1c2ccccc2c(C=O)c2ccccc12)C(C)C)OC(=O)C=C
REMARK SMILES IDX 4 1 3 2 2 3 1 4 31 5 32 6 33 7 34 8 35 9 5 10 6 11 7 12
REMARK SMILES IDX 11 13 9 14 10 15 8 16 12 17 13 18 27 19 14 20 18 21 26 22
REMARK SMILES IDX 22 23 15 24 17 25 19 26 25 27 23 28 16 29 24 30 20 31 21 32
REMARK SMILES IDX 28 33 29 34 30 35
REMARK H PARENT
ROOT
ATOM      1  N   UNL     1      43.676 134.232  15.463  1.00  0.00    -0.233 NA
ENDROOT
BRANCH   1   2
ATOM      2  C   UNL     1      44.133 133.022  15.294  1.00  0.00     0.272 C 
BRANCH   2   3
ATOM      3  C   UNL     1      43.428 132.056  14.486  1.00  0.00    -0.011 C 
ATOM      4  C   UNL     1      42.840 131.247  13.815  1.00  0.00     0.015 C 
ENDBRANCH   2   3
BRANCH   2   5
ATOM      5  O   UNL     1      45.330 132.615  15.896  1.00  0.00    -0.396 OA
BRANCH   5   6
ATOM      6  C   UNL     1      46.236 131.682  15.366  1.00  0.00     0.337 C 
ATOM      7  O   UNL     1      46.924 131.951  14.345  1.00  0.00    -0.246 OA
BRANCH   6   8
ATOM      8  C   UNL     1      46.374 130.355  15.985  1.00  0.00     0.086 C 
ATOM      9  C   UNL     1      45.481 129.387  15.797  1.00  0.00     0.016 C 
ENDBRANCH   6   8
ENDBRANCH   5   6
ENDBRANCH   2   5
ENDBRANCH   1   2
BRANCH   1  10
ATOM     10  C   UNL     1      43.332 134.859  16.744  1.00  0.00     0.163 C 
BRANCH  10  11
ATOM     11  C   UNL     1      42.173 134.112  17.388  1.00  0.00     0.092 A 
ATOM     12  C   UNL     1      41.000 133.623  16.815  1.00  0.00     0.086 A 
ATOM     13  N   UNL     1      42.130 133.725  18.685  1.00  0.00    -0.214 N 
ATOM     14  N   UNL     1      40.298 132.988  17.776  1.00  0.00    -0.135 NA
ATOM     15  N   UNL     1      41.007 133.060  18.892  1.00  0.00    -0.062 NA
ATOM     16  C   UNL     1      40.518 133.718  15.401  1.00  0.00     0.071 C 
BRANCH  13  17
ATOM     17  C   UNL     1      43.139 133.907  19.696  1.00  0.00     0.082 A 
ATOM     18  C   UNL     1      44.153 132.940  19.863  1.00  0.00     0.009 A 
ATOM     19  C   UNL     1      43.119 135.057  20.516  1.00  0.00     0.009 A 
ATOM     20  C   UNL     1      44.221 131.815  19.011  1.00  0.00     0.011 A 
ATOM     21  C   UNL     1      45.102 133.074  20.912  1.00  0.00    -0.005 A 
ATOM     22  C   UNL     1      42.166 136.078  20.299  1.00  0.00     0.011 A 
ATOM     23  C   UNL     1      44.069 135.205  21.562  1.00  0.00    -0.005 A 
ATOM     24  C   UNL     1      45.196 130.837  19.195  1.00  0.00     0.001 A 
ATOM     25  C   UNL     1      46.072 132.057  21.083  1.00  0.00     0.009 A 
ATOM     26  C   UNL     1      45.046 134.197  21.780  1.00  0.00     0.030 A 
ATOM     27  C   UNL     1      42.143 137.216  21.101  1.00  0.00     0.001 A 
ATOM     28  C   UNL     1      44.038 136.386  22.343  1.00  0.00     0.009 A 
ATOM     29  C   UNL     1      46.115 130.955  20.230  1.00  0.00     0.001 A 
ATOM     30  C   UNL     1      43.077 137.370  22.117  1.00  0.00     0.001 A 
BRANCH  26  31
ATOM     31  C   UNL     1      46.009 134.308  22.903  1.00  0.00     0.261 C 
ATOM     32  O   UNL     1      45.729 133.841  24.039  1.00  0.00    -0.298 OA
ENDBRANCH  26  31
ENDBRANCH  13  17
ENDBRANCH  10  11
BRANCH  10  33
ATOM     33  C   UNL     1      43.098 136.390  16.589  1.00  0.00     0.014 C 
ATOM     34  C   UNL     1      43.170 136.830  15.121  1.00  0.00     0.010 C 
ATOM     35  C   UNL     1      44.031 137.253  17.447  1.00  0.00     0.010 C 
ENDBRANCH  10  33
ENDBRANCH   1  10
TORSDOF 10
ENDMDL
MODEL 5
REMARK VINA RESULT:      -6.6      2.751      3.758
REMARK SMILES C#C/C(=N\[C@H](c1c(C)nnn1-c1c2ccccc2c(C=O)c2ccccc12)C(C)C)OC(=O)C=C
REMARK SMILES IDX 4 1 3 2 2 3 1 4 31 5 32 6 33 7 34 8 35 9 5 10 6 11 7 12
REMARK SMILES IDX 11 13 9 14 10 15 8 16 12 17 13 18 27 19 14 20 18 21 26 22
REMARK SMILES IDX 22 23 15 24 17 25 19 26 25 27 23 28 16 29 24 30 20 31 21 32
REMARK SMILES IDX 28 33 29 34 30 35
REMARK H PARENT
ROOT
ATOM      1  N   UNL     1      43.564 132.398  17.019  1.00  0.00    -0.233 NA
ENDROOT
BRANCH   1   2
ATOM      2  C   UNL     1      44.515 131.513  17.141  1.00  0.00     0.272 C 
BRANCH   2   3
ATOM      3  C   UNL     1      45.111 131.218  18.421  1.00  0.00    -0.011 C 
ATOM      4  C   UNL     1      45.608 130.975  19.492  1.00  0.00     0.015 C 
ENDBRANCH   2   3
BRANCH   2   5
ATOM      5  O   UNL     1      44.995 130.816  16.024  1.00  0.00    -0.396 OA
BRANCH   5   6
ATOM      6  C   UNL     1      46.141 131.149  15.285  1.00  0.00     0.337 C 
ATOM      7  O   UNL     1      46.373 132.340  14.945  1.00  0.00    -0.246 OA
BRANCH   6   8
ATOM      8  C   UNL     1      47.082 130.098  14.870  1.00  0.00     0.086 C 
ATOM      9  C   UNL     1      47.296 129.800  13.591  1.00  0.00     0.016 C 
ENDBRANCH   6   8
ENDBRANCH   5   6
ENDBRANCH   2   5
ENDBRANCH   1   2
BRANCH   1  10
ATOM     10  C   UNL     1      43.645 133.815  17.386  1.00  0.00     0.163 C 
BRANCH  10  11
ATOM     11  C   UNL     1      42.728 134.095  18.568  1.00  0.00     0.092 A 
ATOM     12  C   UNL     1      41.590 133.411  18.994  1.00  0.00     0.086 A 
ATOM     13  N   UNL     1      42.926 135.072  19.484  1.00  0.00    -0.214 N 
ATOM     14  N   UNL     1      41.143 134.003  20.119  1.00  0.00    -0.135 NA
ATOM     15  N   UNL     1      41.972 134.998  20.395  1.00  0.00    -0.062 NA
ATOM     16  C   UNL     1      40.914 132.218  18.394  1.00  0.00     0.071 C 
BRANCH  13  17
ATOM     17  C   UNL     1      44.015 136.011  19.553  1.00  0.00     0.082 A 
ATOM     18  C   UNL     1      45.152 135.717  20.334  1.00  0.00     0.009 A 
ATOM     19  C   UNL     1      43.947 137.226  18.834  1.00  0.00     0.009 A 
ATOM     20  C   UNL     1      45.260 134.481  21.011  1.00  0.00     0.011 A 
ATOM     21  C   UNL     1      46.193 136.675  20.471  1.00  0.00    -0.005 A 
ATOM     22  C   UNL     1      42.858 137.493  17.975  1.00  0.00     0.011 A 
ATOM     23  C   UNL     1      44.987 138.187  18.957  1.00  0.00    -0.005 A 
ATOM     24  C   UNL     1      46.363 134.199  21.814  1.00  0.00     0.001 A 
ATOM     25  C   UNL     1      47.293 136.367  21.306  1.00  0.00     0.009 A 
ATOM     26  C   UNL     1      46.099 137.924  19.801  1.00  0.00     0.030 A 
ATOM     27  C   UNL     1      42.787 138.685  17.260  1.00  0.00     0.001 A 
ATOM     28  C   UNL     1      44.901 139.378  18.196  1.00  0.00     0.009 A 
ATOM     29  C   UNL     1      47.373 135.140  21.965  1.00  0.00     0.001 A 
ATOM     30  C   UNL     1      43.806 139.623  17.368  1.00  0.00     0.001 A 
BRANCH  26  31
ATOM     31  C   UNL     1      47.164 138.940  19.985  1.00  0.00     0.261 C 
ATOM     32  O   UNL     1      48.143 138.996  19.195  1.00  0.00    -0.298 OA
ENDBRANCH  26  31
ENDBRANCH  13  17
ENDBRANCH  10  11
BRANCH  10  33
ATOM     33  C   UNL     1      43.403 134.741  16.157  1.00  0.00     0.014 C 
ATOM     34  C   UNL     1      42.627 134.021  15.048  1.00  0.00     0.010 C 
ATOM     35  C   UNL     1      44.682 135.367  15.589  1.00  0.00     0.010 C 
ENDBRANCH  10  33
ENDBRANCH   1  10
TORSDOF 10
ENDMDL
MODEL 6
REMARK VINA RESULT:      -6.4      3.054      5.010
REMARK SMILES C#C/C(=N\[C@H](c1c(C)nnn1-c1c2ccccc2c(C=O)c2ccccc12)C(C)C)OC(=O)C=C
REMARK SMILES IDX 4 1 3 2 2 3 1 4 31 5 32 6 33 7 34 8 35 9 5 10 6 11 7 12
REMARK SMILES IDX 11 13 9 14 10 15 8 16 12 17 13 18 27 19 14 20 18 21 26 22
REMARK SMILES IDX 22 23 15 24 17 25 19 26 25 27 23 28 16 29 24 30 20 31 21 32
REMARK SMILES IDX 28 33 29 34 30 35
REMARK H PARENT
ROOT
ATOM      1  N   UNL     1      43.936 132.362  17.735  1.00  0.00    -0.233 NA
ENDROOT
BRANCH   1   2
ATOM      2  C   UNL     1      45.006 131.641  17.932  1.00  0.00     0.272 C 
BRANCH   2   3
ATOM      3  C   UNL     1      45.394 131.213  19.254  1.00  0.00    -0.011 C 
ATOM      4  C   UNL     1      45.716 130.857  20.359  1.00  0.00     0.015 C 
ENDBRANCH   2   3
BRANCH   2   5
ATOM      5  O   UNL     1      45.823 131.260  16.859  1.00  0.00    -0.396 OA
BRANCH   5   6
ATOM      6  C   UNL     1      45.696 131.710  15.536  1.00  0.00     0.337 C 
ATOM      7  O   UNL     1      46.135 132.839  15.188  1.00  0.00    -0.246 OA
BRANCH   6   8
ATOM      8  C   UNL     1      45.018 130.873  14.535  1.00  0.00     0.086 C 
ATOM      9  C   UNL     1      45.651 130.385  13.471  1.00  0.00     0.016 C 
ENDBRANCH   6   8
ENDBRANCH   5   6
ENDBRANCH   2   5
ENDBRANCH   1   2
BRANCH   1  10
ATOM     10  C   UNL     1      43.819 133.811  17.925  1.00  0.00     0.163 C 
BRANCH  10  11
ATOM     11  C   UNL     1      43.033 134.103  19.194  1.00  0.00     0.092 A 
ATOM     12  C   UNL     1      41.895 133.478  19.702  1.00  0.00     0.086 A 
ATOM     13  N   UNL     1      43.378 135.030  20.119  1.00  0.00    -0.214 N 
ATOM     14  N   UNL     1      41.591 134.054  20.882  1.00  0.00    -0.135 NA
ATOM     15  N   UNL     1      42.507 134.983  21.112  1.00  0.00    -0.062 NA
ATOM     16  C   UNL     1      41.089 132.354  19.128  1.00  0.00     0.071 C 
BRANCH  13  17
ATOM     17  C   UNL     1      44.529 135.895  20.118  1.00  0.00     0.082 A 
ATOM     18  C   UNL     1      44.481 137.131  19.438  1.00  0.00     0.009 A 
ATOM     19  C   UNL     1      45.704 135.510  20.801  1.00  0.00     0.009 A 
ATOM     20  C   UNL     1      43.294 137.556  18.801  1.00  0.00     0.011 A 
ATOM     21  C   UNL     1      45.639 137.951  19.364  1.00  0.00    -0.005 A 
ATOM     22  C   UNL     1      45.736 134.321  21.563  1.00  0.00     0.011 A 
ATOM     23  C   UNL     1      46.865 136.328  20.741  1.00  0.00    -0.005 A 
ATOM     24  C   UNL     1      43.251 138.757  18.095  1.00  0.00     0.001 A 
ATOM     25  C   UNL     1      45.570 139.158  18.628  1.00  0.00     0.009 A 
ATOM     26  C   UNL     1      46.842 137.538  19.996  1.00  0.00     0.030 A 
ATOM     27  C   UNL     1      46.889 133.938  22.243  1.00  0.00     0.001 A 
ATOM     28  C   UNL     1      48.014 135.926  21.465  1.00  0.00     0.009 A 
ATOM     29  C   UNL     1      44.386 139.553  18.006  1.00  0.00     0.001 A 
ATOM     30  C   UNL     1      48.023 134.739  22.196  1.00  0.00     0.001 A 
BRANCH  26  31
ATOM     31  C   UNL     1      48.062 138.373  19.875  1.00  0.00     0.261 C 
ATOM     32  O   UNL     1      48.976 138.064  19.066  1.00  0.00    -0.298 OA
ENDBRANCH  26  31
ENDBRANCH  13  17
ENDBRANCH  10  11
BRANCH  10  33
ATOM     33  C   UNL     1      43.260 134.512  16.652  1.00  0.00     0.014 C 
ATOM     34  C   UNL     1      44.279 135.484  16.044  1.00  0.00     0.010 C 
ATOM     35  C   UNL     1      41.917 135.221  16.870  1.00  0.00     0.010 C 
ENDBRANCH  10  33
ENDBRANCH   1  10
TORSDOF 10
ENDMDL
MODEL 7
REMARK VINA RESULT:      -6.4      2.454      4.356
REMARK SMILES C#C/C(=N\[C@H](c1c(C)nnn1-c1c2ccccc2c(C=O)c2ccccc12)C(C)C)OC(=O)C=C
REMARK SMILES IDX 4 1 3 2 2 3 1 4 31 5 32 6 33 7 34 8 35 9 5 10 6 11 7 12
REMARK SMILES IDX 11 13 9 14 10 15 8 16 12 17 13 18 27 19 14 20 18 21 26 22
REMARK SMILES IDX 22 23 15 24 17 25 19 26 25 27 23 28 16 29 24 30 20 31 21 32
REMARK SMILES IDX 28 33 29 34 30 35
REMARK H PARENT
ROOT
ATOM      1  N   UNL     1      42.762 132.456  16.589  1.00  0.00    -0.233 NA
ENDROOT
BRANCH   1   2
ATOM      2  C   UNL     1      43.685 131.767  15.977  1.00  0.00     0.272 C 
BRANCH   2   3
ATOM      3  C   UNL     1      43.509 131.308  14.621  1.00  0.00    -0.011 C 
ATOM      4  C   UNL     1      43.360 130.929  13.487  1.00  0.00     0.015 C 
ENDBRANCH   2   3
BRANCH   2   5
ATOM      5  O   UNL     1      44.887 131.444  16.621  1.00  0.00    -0.396 OA
BRANCH   5   6
ATOM      6  C   UNL     1      46.075 131.053  15.985  1.00  0.00     0.337 C 
ATOM      7  O   UNL     1      46.742 130.068  16.400  1.00  0.00    -0.246 OA
BRANCH   6   8
ATOM      8  C   UNL     1      46.577 131.813  14.830  1.00  0.00     0.086 C 
ATOM      9  C   UNL     1      47.196 131.226  13.809  1.00  0.00     0.016 C 
ENDBRANCH   6   8
ENDBRANCH   5   6
ENDBRANCH   2   5
ENDBRANCH   1   2
BRANCH   1  10
ATOM     10  C   UNL     1      42.937 133.759  17.238  1.00  0.00     0.163 C 
BRANCH  10  11
ATOM     11  C   UNL     1      41.849 133.967  18.281  1.00  0.00     0.092 A 
ATOM     12  C   UNL     1      40.462 133.918  18.144  1.00  0.00     0.086 A 
ATOM     13  N   UNL     1      42.074 134.178  19.600  1.00  0.00    -0.214 N 
ATOM     14  N   UNL     1      39.914 134.118  19.359  1.00  0.00    -0.135 NA
ATOM     15  N   UNL     1      40.910 134.266  20.219  1.00  0.00    -0.062 NA
ATOM     16  C   UNL     1      39.633 133.680  16.920  1.00  0.00     0.071 C 
BRANCH  13  17
ATOM     17  C   UNL     1      43.340 134.230  20.283  1.00  0.00     0.082 A 
ATOM     18  C   UNL     1      44.117 135.408  20.239  1.00  0.00     0.009 A 
ATOM     19  C   UNL     1      43.802 133.107  21.004  1.00  0.00     0.009 A 
ATOM     20  C   UNL     1      43.641 136.559  19.573  1.00  0.00     0.011 A 
ATOM     21  C   UNL     1      45.403 135.438  20.843  1.00  0.00    -0.005 A 
ATOM     22  C   UNL     1      42.993 131.955  21.135  1.00  0.00     0.011 A 
ATOM     23  C   UNL     1      45.082 133.130  21.619  1.00  0.00    -0.005 A 
ATOM     24  C   UNL     1      44.419 137.712  19.492  1.00  0.00     0.001 A 
ATOM     25  C   UNL     1      46.177 136.618  20.731  1.00  0.00     0.009 A 
ATOM     26  C   UNL     1      45.899 134.288  21.513  1.00  0.00     0.030 A 
ATOM     27  C   UNL     1      43.440 130.845  21.847  1.00  0.00     0.001 A 
ATOM     28  C   UNL     1      45.498 131.997  22.359  1.00  0.00     0.009 A 
ATOM     29  C   UNL     1      45.684 137.740  20.066  1.00  0.00     0.001 A 
ATOM     30  C   UNL     1      44.687 130.867  22.459  1.00  0.00     0.001 A 
BRANCH  26  31
ATOM     31  C   UNL     1      47.261 134.308  22.100  1.00  0.00     0.261 C 
ATOM     32  O   UNL     1      48.251 133.891  21.442  1.00  0.00    -0.298 OA
ENDBRANCH  26  31
ENDBRANCH  13  17
ENDBRANCH  10  11
BRANCH  10  33
ATOM     33  C   UNL     1      43.050 134.909  16.194  1.00  0.00     0.014 C 
ATOM     34  C   UNL     1      42.348 134.552  14.878  1.00  0.00     0.010 C 
ATOM     35  C   UNL     1      44.488 135.364  15.921  1.00  0.00     0.010 C 
ENDBRANCH  10  33
ENDBRANCH   1  10
TORSDOF 10
ENDMDL
MODEL 8
REMARK VINA RESULT:      -6.4      2.534      4.367
REMARK SMILES C#C/C(=N\[C@H](c1c(C)nnn1-c1c2ccccc2c(C=O)c2ccccc12)C(C)C)OC(=O)C=C
REMARK SMILES IDX 4 1 3 2 2 3 1 4 31 5 32 6 33 7 34 8 35 9 5 10 6 11 7 12
REMARK SMILES IDX 11 13 9 14 10 15 8 16 12 17 13 18 27 19 14 20 18 21 26 22
REMARK SMILES IDX 22 23 15 24 17 25 19 26 25 27 23 28 16 29 24 30 20 31 21 32
REMARK SMILES IDX 28 33 29 34 30 35
REMARK H PARENT
ROOT
ATOM      1  N   UNL     1      44.578 132.682  17.449  1.00  0.00    -0.233 NA
ENDROOT
BRANCH   1   2
ATOM      2  C   UNL     1      44.878 133.337  16.362  1.00  0.00     0.272 C 
BRANCH   2   3
ATOM      3  C   UNL     1      44.267 134.606  16.053  1.00  0.00    -0.011 C 
ATOM      4  C   UNL     1      43.759 135.668  15.796  1.00  0.00     0.015 C 
ENDBRANCH   2   3
BRANCH   2   5
ATOM      5  O   UNL     1      45.809 132.824  15.448  1.00  0.00    -0.396 OA
BRANCH   5   6
ATOM      6  C   UNL     1      46.030 131.463  15.184  1.00  0.00     0.337 C 
ATOM      7  O   UNL     1      46.732 130.757  15.956  1.00  0.00    -0.246 OA
BRANCH   6   8
ATOM      8  C   UNL     1      45.461 130.846  13.977  1.00  0.00     0.086 C 
ATOM      9  C   UNL     1      46.213 130.503  12.933  1.00  0.00     0.016 C 
ENDBRANCH   6   8
ENDBRANCH   5   6
ENDBRANCH   2   5
ENDBRANCH   1   2
BRANCH   1  10
ATOM     10  C   UNL     1      43.577 133.071  18.449  1.00  0.00     0.163 C 
BRANCH  10  11
ATOM     11  C   UNL     1      44.258 133.336  19.784  1.00  0.00     0.092 A 
ATOM     12  C   UNL     1      45.194 132.567  20.474  1.00  0.00     0.086 A 
ATOM     13  N   UNL     1      44.100 134.461  20.520  1.00  0.00    -0.214 N 
ATOM     14  N   UNL     1      45.543 133.237  21.591  1.00  0.00    -0.135 NA
ATOM     15  N   UNL     1      44.873 134.379  21.590  1.00  0.00    -0.062 NA
ATOM     16  C   UNL     1      45.781 131.236  20.122  1.00  0.00     0.071 C 
BRANCH  13  17
ATOM     17  C   UNL     1      43.302 135.617  20.208  1.00  0.00     0.082 A 
ATOM     18  C   UNL     1      41.925 135.628  20.515  1.00  0.00     0.009 A 
ATOM     19  C   UNL     1      43.898 136.744  19.599  1.00  0.00     0.009 A 
ATOM     20  C   UNL     1      41.327 134.532  21.178  1.00  0.00     0.011 A 
ATOM     21  C   UNL     1      41.116 136.733  20.135  1.00  0.00    -0.005 A 
ATOM     22  C   UNL     1      45.292 136.785  19.371  1.00  0.00     0.011 A 
ATOM     23  C   UNL     1      43.100 137.859  19.224  1.00  0.00    -0.005 A 
ATOM     24  C   UNL     1      39.961 134.520  21.450  1.00  0.00     0.001 A 
ATOM     25  C   UNL     1      39.729 136.685  20.412  1.00  0.00     0.009 A 
ATOM     26  C   UNL     1      41.700 137.841  19.465  1.00  0.00     0.030 A 
ATOM     27  C   UNL     1      45.887 137.894  18.775  1.00  0.00     0.001 A 
ATOM     28  C   UNL     1      43.737 138.983  18.645  1.00  0.00     0.009 A 
ATOM     29  C   UNL     1      39.164 135.590  21.065  1.00  0.00     0.001 A 
ATOM     30  C   UNL     1      45.112 138.990  18.416  1.00  0.00     0.001 A 
BRANCH  26  31
ATOM     31  C   UNL     1      40.844 138.971  19.028  1.00  0.00     0.261 C 
ATOM     32  O   UNL     1      40.324 138.977  17.881  1.00  0.00    -0.298 OA
ENDBRANCH  26  31
ENDBRANCH  13  17
ENDBRANCH  10  11
BRANCH  10  33
ATOM     33  C   UNL     1      42.409 132.044  18.520  1.00  0.00     0.014 C 
ATOM     34  C   UNL     1      41.104 132.628  17.965  1.00  0.00     0.010 C 
ATOM     35  C   UNL     1      42.176 131.463  19.920  1.00  0.00     0.010 C 
ENDBRANCH  10  33
ENDBRANCH   1  10
TORSDOF 10
ENDMDL
MODEL 9
REMARK VINA RESULT:      -6.2      2.842      5.093
REMARK SMILES C#C/C(=N\[C@H](c1c(C)nnn1-c1c2ccccc2c(C=O)c2ccccc12)C(C)C)OC(=O)C=C
REMARK SMILES IDX 4 1 3 2 2 3 1 4 31 5 32 6 33 7 34 8 35 9 5 10 6 11 7 12
REMARK SMILES IDX 11 13 9 14 10 15 8 16 12 17 13 18 27 19 14 20 18 21 26 22
REMARK SMILES IDX 22 23 15 24 17 25 19 26 25 27 23 28 16 29 24 30 20 31 21 32
REMARK SMILES IDX 28 33 29 34 30 35
REMARK H PARENT
ROOT
ATOM      1  N   UNL     1      44.811 132.117  19.752  1.00  0.00    -0.233 NA
ENDROOT
BRANCH   1   2
ATOM      2  C   UNL     1      44.584 131.800  18.507  1.00  0.00     0.272 C 
BRANCH   2   3
ATOM      3  C   UNL     1      43.267 131.909  17.929  1.00  0.00    -0.011 C 
ATOM      4  C   UNL     1      42.166 131.996  17.447  1.00  0.00     0.015 C 
ENDBRANCH   2   3
BRANCH   2   5
ATOM      5  O   UNL     1      45.619 131.336  17.684  1.00  0.00    -0.396 OA
BRANCH   5   6
ATOM      6  C   UNL     1      45.483 130.951  16.341  1.00  0.00     0.337 C 
ATOM      7  O   UNL     1      44.989 129.834  16.031  1.00  0.00    -0.246 OA
BRANCH   6   8
ATOM      8  C   UNL     1      45.945 131.844  15.268  1.00  0.00     0.086 C 
ATOM      9  C   UNL     1      46.866 131.472  14.382  1.00  0.00     0.016 C 
ENDBRANCH   6   8
ENDBRANCH   5   6
ENDBRANCH   2   5
ENDBRANCH   1   2
BRANCH   1  10
ATOM     10  C   UNL     1      43.992 133.004  20.585  1.00  0.00     0.163 C 
BRANCH  10  11
ATOM     11  C   UNL     1      44.628 134.385  20.648  1.00  0.00     0.092 A 
ATOM     12  C   UNL     1      45.844 134.781  21.205  1.00  0.00     0.086 A 
ATOM     13  N   UNL     1      44.111 135.500  20.080  1.00  0.00    -0.214 N 
ATOM     14  N   UNL     1      46.001 136.100  20.972  1.00  0.00    -0.135 NA
ATOM     15  N   UNL     1      44.944 136.506  20.287  1.00  0.00    -0.062 NA
ATOM     16  C   UNL     1      46.868 133.969  21.935  1.00  0.00     0.071 C 
BRANCH  13  17
ATOM     17  C   UNL     1      42.905 135.618  19.304  1.00  0.00     0.082 A 
ATOM     18  C   UNL     1      42.955 135.494  17.899  1.00  0.00     0.009 A 
ATOM     19  C   UNL     1      41.669 135.853  19.948  1.00  0.00     0.009 A 
ATOM     20  C   UNL     1      44.173 135.200  17.246  1.00  0.00     0.011 A 
ATOM     21  C   UNL     1      41.781 135.691  17.122  1.00  0.00    -0.005 A 
ATOM     22  C   UNL     1      41.589 135.886  21.358  1.00  0.00     0.011 A 
ATOM     23  C   UNL     1      40.488 136.042  19.181  1.00  0.00    -0.005 A 
ATOM     24  C   UNL     1      44.237 135.114  15.857  1.00  0.00     0.001 A 
ATOM     25  C   UNL     1      41.880 135.612  15.712  1.00  0.00     0.009 A 
ATOM     26  C   UNL     1      40.549 135.991  17.762  1.00  0.00     0.030 A 
ATOM     27  C   UNL     1      40.374 136.113  22.001  1.00  0.00     0.001 A 
ATOM     28  C   UNL     1      39.263 136.243  19.862  1.00  0.00     0.009 A 
ATOM     29  C   UNL     1      43.096 135.324  15.093  1.00  0.00     0.001 A 
ATOM     30  C   UNL     1      39.216 136.287  21.255  1.00  0.00     0.001 A 
BRANCH  26  31
ATOM     31  C   UNL     1      39.338 136.243  16.945  1.00  0.00     0.261 C 
ATOM     32  O   UNL     1      38.590 135.293  16.592  1.00  0.00    -0.298 OA
ENDBRANCH  26  31
ENDBRANCH  13  17
ENDBRANCH  10  11
BRANCH  10  33
ATOM     33  C   UNL     1      43.696 132.373  21.977  1.00  0.00     0.014 C 
ATOM     34  C   UNL     1      43.939 130.858  21.977  1.00  0.00     0.010 C 
ATOM     35  C   UNL     1      42.295 132.684  22.517  1.00  0.00     0.010 C 
ENDBRANCH  10  33
ENDBRANCH   1  10
TORSDOF 10
ENDMDL


