MODEL 1
REMARK VINA RESULT:      -6.4      0.000      0.000
REMARK SMILES CC[C@H]1C[C@]1(N)C(=O)Oc1ccccc(O)c(NC2(CF)COC2)c(N=[N+]=[N-])c(Cl)c1Cl
REMARK SMILES IDX 15 1 14 2 13 3 12 4 11 5 10 6 31 7 32 8 29 9 30 10 25 11
REMARK SMILES IDX 17 12 16 13 18 15 19 17 22 18 24 19 23 20 20 21 21 22 26 23
REMARK SMILES IDX 27 24 28 25 9 26 7 27 8 28 5 29 4 30 3 31 6 32 2 35 1 36
REMARK H PARENT 16 14 18 16 6 33 6 34
ROOT
ATOM      1  C   UNL     1      41.692 136.206  16.360  1.00  0.00     0.139 A 
ATOM      2  C   UNL     1      42.879 136.940  16.597  1.00  0.00     0.048 A 
ATOM      3  C   UNL     1      43.939 136.569  17.452  1.00  0.00     0.004 A 
ATOM      4  C   UNL     1      44.178 135.266  17.894  1.00  0.00     0.004 A 
ATOM      5  C   UNL     1      43.819 134.150  17.134  1.00  0.00     0.049 A 
ATOM      6  C   UNL     1      43.265 132.984  17.688  1.00  0.00     0.151 A 
ATOM      7  C   UNL     1      42.481 132.986  18.867  1.00  0.00     0.102 A 
ATOM      8  Cl  UNL     1      42.370 131.445  19.727  1.00  0.00    -0.079 Cl
ATOM      9  C   UNL     1      41.753 134.098  19.377  1.00  0.00     0.075 A 
ATOM     10  Cl  UNL     1      41.195 134.020  21.052  1.00  0.00    -0.082 Cl
ATOM     11  C   UNL     1      41.423 135.262  18.632  1.00  0.00     0.085 A 
ATOM     12  C   UNL     1      41.171 135.218  17.242  1.00  0.00     0.088 A 
ENDROOT
BRANCH   1  13
ATOM     13  O   UNL     1      41.011 136.490  15.172  1.00  0.00    -0.506 OA
ATOM     14  H   UNL     1      40.887 135.805  14.439  1.00  0.00     0.293 HD
ENDBRANCH   1  13
BRANCH  12  15
ATOM     15  N   UNL     1      40.349 134.168  16.693  1.00  0.00    -0.369 N 
ATOM     16  H   UNL     1      40.830 133.478  16.069  1.00  0.00     0.161 HD
BRANCH  15  17
ATOM     17  C   UNL     1      38.871 134.190  16.732  1.00  0.00     0.113 C 
ATOM     18  C   UNL     1      38.284 133.232  17.758  1.00  0.00     0.193 C 
ATOM     19  C   UNL     1      38.308 135.244  17.661  1.00  0.00     0.193 C 
ATOM     20  O   UNL     1      37.789 134.283  18.550  1.00  0.00    -0.376 OA
BRANCH  17  21
ATOM     21  C   UNL     1      38.188 134.110  15.351  1.00  0.00     0.247 C 
ATOM     22  F   UNL     1      38.990 133.405  14.472  1.00  0.00    -0.248 F 
ENDBRANCH  17  21
ENDBRANCH  15  17
ENDBRANCH  12  15
BRANCH  11  23
ATOM     23  N   UNL     1      41.372 136.552  19.268  1.00  0.00    -0.057 NA
BRANCH  23  24
ATOM     24  N   UNL     1      40.327 137.023  19.724  1.00  0.00     0.005 N 
ATOM     25  N   UNL     1      39.294 137.501  20.188  1.00  0.00    -0.003 NA
ENDBRANCH  23  24
ENDBRANCH  11  23
BRANCH   6  26
ATOM     26  O   UNL     1      43.400 131.753  17.021  1.00  0.00    -0.424 OA
BRANCH  26  27
ATOM     27  C   UNL     1      44.608 131.094  16.737  1.00  0.00     0.331 C 
ATOM     28  O   UNL     1      45.506 130.962  17.614  1.00  0.00    -0.250 OA
BRANCH  27  29
ATOM     29  C   UNL     1      44.810 130.491  15.380  1.00  0.00     0.118 C 
ATOM     30  C   UNL     1      43.980 131.103  14.251  1.00  0.00     0.040 C 
ATOM     31  C   UNL     1      45.491 131.349  14.310  1.00  0.00     0.022 C 
BRANCH  29  32
ATOM     32  N   UNL     1      45.003 129.044  15.284  1.00  0.00    -0.316 NA
ATOM     33  H   UNL     1      44.620 128.718  14.360  1.00  0.00     0.119 HD
ATOM     34  H   UNL     1      44.426 128.570  16.026  1.00  0.00     0.119 HD
ENDBRANCH  29  32
BRANCH  31  35
ATOM     35  C   UNL     1      46.309 130.623  13.229  1.00  0.00     0.003 C 
ATOM     36  C   UNL     1      47.800 130.831  13.466  1.00  0.00     0.004 C 
ENDBRANCH  31  35
ENDBRANCH  27  29
ENDBRANCH  26  27
ENDBRANCH   6  26
TORSDOF 11
ENDMDL
MODEL 2
REMARK VINA RESULT:      -6.1      2.993      4.385
REMARK SMILES CC[C@H]1C[C@]1(N)C(=O)Oc1ccccc(O)c(NC2(CF)COC2)c(N=[N+]=[N-])c(Cl)c1Cl
REMARK SMILES IDX 15 1 14 2 13 3 12 4 11 5 10 6 31 7 32 8 29 9 30 10 25 11
REMARK SMILES IDX 17 12 16 13 18 15 19 17 22 18 24 19 23 20 20 21 21 22 26 23
REMARK SMILES IDX 27 24 28 25 9 26 7 27 8 28 5 29 4 30 3 31 6 32 2 35 1 36
REMARK H PARENT 16 14 18 16 6 33 6 34
ROOT
ATOM      1  C   UNL     1      43.282 133.743  19.744  1.00  0.00     0.139 A 
ATOM      2  C   UNL     1      42.637 132.555  20.164  1.00  0.00     0.048 A 
ATOM      3  C   UNL     1      41.796 131.735  19.381  1.00  0.00     0.004 A 
ATOM      4  C   UNL     1      41.771 131.733  17.985  1.00  0.00     0.004 A 
ATOM      5  C   UNL     1      42.900 132.051  17.225  1.00  0.00     0.049 A 
ATOM      6  C   UNL     1      42.850 132.829  16.056  1.00  0.00     0.151 A 
ATOM      7  C   UNL     1      41.872 133.829  15.835  1.00  0.00     0.102 A 
ATOM      8  Cl  UNL     1      41.590 134.277  14.148  1.00  0.00    -0.079 Cl
ATOM      9  C   UNL     1      41.148 134.519  16.848  1.00  0.00     0.075 A 
ATOM     10  Cl  UNL     1      39.698 135.407  16.364  1.00  0.00    -0.082 Cl
ATOM     11  C   UNL     1      41.514 134.564  18.219  1.00  0.00     0.085 A 
ATOM     12  C   UNL     1      42.864 134.535  18.638  1.00  0.00     0.088 A 
ENDROOT
BRANCH   1  13
ATOM     13  O   UNL     1      44.404 134.137  20.480  1.00  0.00    -0.506 OA
ATOM     14  H   UNL     1      44.403 134.949  21.083  1.00  0.00     0.293 HD
ENDBRANCH   1  13
BRANCH  12  15
ATOM     15  N   UNL     1      43.847 135.339  17.954  1.00  0.00    -0.369 N 
ATOM     16  H   UNL     1      44.694 134.837  17.599  1.00  0.00     0.161 HD
BRANCH  15  17
ATOM     17  C   UNL     1      43.851 136.817  17.989  1.00  0.00     0.113 C 
ATOM     18  C   UNL     1      43.305 137.387  19.290  1.00  0.00     0.193 C 
ATOM     19  C   UNL     1      45.153 137.405  18.488  1.00  0.00     0.193 C 
ATOM     20  O   UNL     1      44.559 137.908  19.662  1.00  0.00    -0.376 OA
BRANCH  17  21
ATOM     21  C   UNL     1      43.274 137.495  16.728  1.00  0.00     0.247 C 
ATOM     22  F   UNL     1      42.017 138.000  17.003  1.00  0.00    -0.248 F 
ENDBRANCH  17  21
ENDBRANCH  15  17
ENDBRANCH  12  15
BRANCH  11  23
ATOM     23  N   UNL     1      40.508 134.601  19.248  1.00  0.00    -0.057 NA
BRANCH  23  24
ATOM     24  N   UNL     1      39.361 134.183  19.065  1.00  0.00     0.005 N 
ATOM     25  N   UNL     1      38.214 133.781  18.888  1.00  0.00    -0.003 NA
ENDBRANCH  23  24
ENDBRANCH  11  23
BRANCH   6  26
ATOM     26  O   UNL     1      43.852 132.697  15.078  1.00  0.00    -0.424 OA
BRANCH  26  27
ATOM     27  C   UNL     1      44.275 131.497  14.483  1.00  0.00     0.331 C 
ATOM     28  O   UNL     1      43.507 130.827  13.738  1.00  0.00    -0.250 OA
BRANCH  27  29
ATOM     29  C   UNL     1      45.683 131.031  14.698  1.00  0.00     0.118 C 
ATOM     30  C   UNL     1      45.868 129.938  15.752  1.00  0.00     0.040 C 
ATOM     31  C   UNL     1      46.039 129.606  14.266  1.00  0.00     0.022 C 
BRANCH  29  32
ATOM     32  N   UNL     1      46.758 132.022  14.648  1.00  0.00    -0.316 NA
ATOM     33  H   UNL     1      47.679 131.515  14.645  1.00  0.00     0.119 HD
ATOM     34  H   UNL     1      46.739 132.595  15.530  1.00  0.00     0.119 HD
ENDBRANCH  29  32
BRANCH  31  35
ATOM     35  C   UNL     1      47.488 129.337  13.825  1.00  0.00     0.003 C 
ATOM     36  C   UNL     1      47.767 130.014  12.488  1.00  0.00     0.004 C 
ENDBRANCH  31  35
ENDBRANCH  27  29
ENDBRANCH  26  27
ENDBRANCH   6  26
TORSDOF 11
ENDMDL
MODEL 3
REMARK VINA RESULT:      -5.9      1.768      2.142
REMARK SMILES CC[C@H]1C[C@]1(N)C(=O)Oc1ccccc(O)c(NC2(CF)COC2)c(N=[N+]=[N-])c(Cl)c1Cl
REMARK SMILES IDX 15 1 14 2 13 3 12 4 11 5 10 6 31 7 32 8 29 9 30 10 25 11
REMARK SMILES IDX 17 12 16 13 18 15 19 17 22 18 24 19 23 20 20 21 21 22 26 23
REMARK SMILES IDX 27 24 28 25 9 26 7 27 8 28 5 29 4 30 3 31 6 32 2 35 1 36
REMARK H PARENT 16 14 18 16 6 33 6 34
ROOT
ATOM      1  C   UNL     1      42.617 136.761  15.956  1.00  0.00     0.139 A 
ATOM      2  C   UNL     1      43.542 137.338  16.858  1.00  0.00     0.048 A 
ATOM      3  C   UNL     1      43.994 136.776  18.071  1.00  0.00     0.004 A 
ATOM      4  C   UNL     1      43.917 135.418  18.389  1.00  0.00     0.004 A 
ATOM      5  C   UNL     1      43.955 134.425  17.406  1.00  0.00     0.049 A 
ATOM      6  C   UNL     1      43.146 133.276  17.437  1.00  0.00     0.151 A 
ATOM      7  C   UNL     1      41.868 133.248  18.045  1.00  0.00     0.102 A 
ATOM      8  Cl  UNL     1      41.267 131.651  18.510  1.00  0.00    -0.079 Cl
ATOM      9  C   UNL     1      41.028 134.376  18.265  1.00  0.00     0.075 A 
ATOM     10  Cl  UNL     1      39.685 134.196  19.399  1.00  0.00    -0.082 Cl
ATOM     11  C   UNL     1      41.178 135.635  17.624  1.00  0.00     0.085 A 
ATOM     12  C   UNL     1      41.676 135.754  16.307  1.00  0.00     0.088 A 
ENDROOT
BRANCH   1  13
ATOM     13  O   UNL     1      42.657 137.229  14.638  1.00  0.00    -0.506 OA
ATOM     14  H   UNL     1      43.402 137.819  14.292  1.00  0.00     0.293 HD
ENDBRANCH   1  13
BRANCH  12  15
ATOM     15  N   UNL     1      41.211 134.854  15.279  1.00  0.00    -0.369 N 
ATOM     16  H   UNL     1      41.933 134.236  14.840  1.00  0.00     0.161 HD
BRANCH  15  17
ATOM     17  C   UNL     1      39.882 134.969  14.641  1.00  0.00     0.113 C 
ATOM     18  C   UNL     1      39.324 136.385  14.671  1.00  0.00     0.193 C 
ATOM     19  C   UNL     1      39.948 135.221  13.150  1.00  0.00     0.193 C 
ATOM     20  O   UNL     1      39.413 136.518  13.273  1.00  0.00    -0.376 OA
BRANCH  17  21
ATOM     21  C   UNL     1      38.863 133.895  15.075  1.00  0.00     0.247 C 
ATOM     22  F   UNL     1      38.065 133.547  14.000  1.00  0.00    -0.248 F 
ENDBRANCH  17  21
ENDBRANCH  15  17
ENDBRANCH  12  15
BRANCH  11  23
ATOM     23  N   UNL     1      40.860 136.855  18.318  1.00  0.00    -0.057 NA
BRANCH  23  24
ATOM     24  N   UNL     1      39.818 137.483  18.108  1.00  0.00     0.005 N 
ATOM     25  N   UNL     1      38.778 138.098  17.886  1.00  0.00    -0.003 NA
ENDBRANCH  23  24
ENDBRANCH  11  23
BRANCH   6  26
ATOM     26  O   UNL     1      43.554 132.108  16.768  1.00  0.00    -0.424 OA
BRANCH  26  27
ATOM     27  C   UNL     1      43.991 132.029  15.435  1.00  0.00     0.331 C 
ATOM     28  O   UNL     1      43.665 132.901  14.584  1.00  0.00    -0.250 OA
BRANCH  27  29
ATOM     29  C   UNL     1      44.905 130.912  15.031  1.00  0.00     0.118 C 
ATOM     30  C   UNL     1      44.960 130.606  13.534  1.00  0.00     0.040 C 
ATOM     31  C   UNL     1      46.157 131.267  14.224  1.00  0.00     0.022 C 
BRANCH  29  32
ATOM     32  N   UNL     1      44.993 129.737  15.900  1.00  0.00    -0.316 NA
ATOM     33  H   UNL     1      44.357 128.992  15.518  1.00  0.00     0.119 HD
ATOM     34  H   UNL     1      44.619 129.985  16.852  1.00  0.00     0.119 HD
ENDBRANCH  29  32
BRANCH  31  35
ATOM     35  C   UNL     1      47.390 130.363  14.389  1.00  0.00     0.003 C 
ATOM     36  C   UNL     1      47.821 129.806  13.037  1.00  0.00     0.004 C 
ENDBRANCH  31  35
ENDBRANCH  27  29
ENDBRANCH  26  27
ENDBRANCH   6  26
TORSDOF 11
ENDMDL
MODEL 4
REMARK VINA RESULT:      -5.9      1.838      2.180
REMARK SMILES CC[C@H]1C[C@]1(N)C(=O)Oc1ccccc(O)c(NC2(CF)COC2)c(N=[N+]=[N-])c(Cl)c1Cl
REMARK SMILES IDX 15 1 14 2 13 3 12 4 11 5 10 6 31 7 32 8 29 9 30 10 25 11
REMARK SMILES IDX 17 12 16 13 18 15 19 17 22 18 24 19 23 20 20 21 21 22 26 23
REMARK SMILES IDX 27 24 28 25 9 26 7 27 8 28 5 29 4 30 3 31 6 32 2 35 1 36
REMARK H PARENT 16 14 18 16 6 33 6 34
ROOT
ATOM      1  C   UNL     1      43.141 136.320  16.373  1.00  0.00     0.139 A 
ATOM      2  C   UNL     1      44.032 136.803  17.361  1.00  0.00     0.048 A 
ATOM      3  C   UNL     1      44.342 136.179  18.588  1.00  0.00     0.004 A 
ATOM      4  C   UNL     1      44.137 134.824  18.860  1.00  0.00     0.004 A 
ATOM      5  C   UNL     1      44.177 133.854  17.855  1.00  0.00     0.049 A 
ATOM      6  C   UNL     1      43.284 132.772  17.790  1.00  0.00     0.151 A 
ATOM      7  C   UNL     1      41.963 132.830  18.296  1.00  0.00     0.102 A 
ATOM      8  Cl  UNL     1      41.207 131.275  18.667  1.00  0.00    -0.079 Cl
ATOM      9  C   UNL     1      41.196 134.015  18.483  1.00  0.00     0.075 A 
ATOM     10  Cl  UNL     1      39.758 133.914  19.504  1.00  0.00    -0.082 Cl
ATOM     11  C   UNL     1      41.492 135.272  17.891  1.00  0.00     0.085 A 
ATOM     12  C   UNL     1      42.100 135.382  16.620  1.00  0.00     0.088 A 
ENDROOT
BRANCH   1  13
ATOM     13  O   UNL     1      43.321 136.814  15.077  1.00  0.00    -0.506 OA
ATOM     14  H   UNL     1      42.754 137.558  14.693  1.00  0.00     0.293 HD
ENDBRANCH   1  13
BRANCH  12  15
ATOM     15  N   UNL     1      41.652 134.545  15.534  1.00  0.00    -0.369 N 
ATOM     16  H   UNL     1      42.381 133.957  15.068  1.00  0.00     0.161 HD
BRANCH  15  17
ATOM     17  C   UNL     1      40.330 134.694  14.888  1.00  0.00     0.113 C 
ATOM     18  C   UNL     1      39.843 136.136  14.849  1.00  0.00     0.193 C 
ATOM     19  C   UNL     1      40.409 134.870  13.387  1.00  0.00     0.193 C 
ATOM     20  O   UNL     1      39.939 136.196  13.446  1.00  0.00    -0.376 OA
BRANCH  17  21
ATOM     21  C   UNL     1      39.259 133.694  15.371  1.00  0.00     0.247 C 
ATOM     22  F   UNL     1      38.490 134.274  16.362  1.00  0.00    -0.248 F 
ENDBRANCH  17  21
ENDBRANCH  15  17
ENDBRANCH  12  15
BRANCH  11  23
ATOM     23  N   UNL     1      41.214 136.498  18.594  1.00  0.00    -0.057 NA
BRANCH  23  24
ATOM     24  N   UNL     1      40.278 137.239  18.283  1.00  0.00     0.005 N 
ATOM     25  N   UNL     1      39.336 137.965  17.974  1.00  0.00    -0.003 NA
ENDBRANCH  23  24
ENDBRANCH  11  23
BRANCH   6  26
ATOM     26  O   UNL     1      43.654 131.591  17.121  1.00  0.00    -0.424 OA
BRANCH  26  27
ATOM     27  C   UNL     1      44.958 131.081  17.003  1.00  0.00     0.331 C 
ATOM     28  O   UNL     1      45.505 130.453  17.951  1.00  0.00    -0.250 OA
BRANCH  27  29
ATOM     29  C   UNL     1      45.691 131.242  15.706  1.00  0.00     0.118 C 
ATOM     30  C   UNL     1      46.852 130.273  15.474  1.00  0.00     0.040 C 
ATOM     31  C   UNL     1      45.559 130.126  14.666  1.00  0.00     0.022 C 
BRANCH  29  32
ATOM     32  N   UNL     1      45.911 132.595  15.195  1.00  0.00    -0.316 NA
ATOM     33  H   UNL     1      45.087 132.865  14.601  1.00  0.00     0.119 HD
ATOM     34  H   UNL     1      46.747 132.590  14.556  1.00  0.00     0.119 HD
ENDBRANCH  29  32
BRANCH  31  35
ATOM     35  C   UNL     1      45.673 130.518  13.184  1.00  0.00     0.003 C 
ATOM     36  C   UNL     1      47.096 130.292  12.686  1.00  0.00     0.004 C 
ENDBRANCH  31  35
ENDBRANCH  27  29
ENDBRANCH  26  27
ENDBRANCH   6  26
TORSDOF 11
ENDMDL
MODEL 5
REMARK VINA RESULT:      -5.9      3.157      4.675
REMARK SMILES CC[C@H]1C[C@]1(N)C(=O)Oc1ccccc(O)c(NC2(CF)COC2)c(N=[N+]=[N-])c(Cl)c1Cl
REMARK SMILES IDX 15 1 14 2 13 3 12 4 11 5 10 6 31 7 32 8 29 9 30 10 25 11
REMARK SMILES IDX 17 12 16 13 18 15 19 17 22 18 24 19 23 20 20 21 21 22 26 23
REMARK SMILES IDX 27 24 28 25 9 26 7 27 8 28 5 29 4 30 3 31 6 32 2 35 1 36
REMARK H PARENT 16 14 18 16 6 33 6 34
ROOT
ATOM      1  C   UNL     1      43.437 133.386  21.018  1.00  0.00     0.139 A 
ATOM      2  C   UNL     1      42.536 132.306  21.169  1.00  0.00     0.048 A 
ATOM      3  C   UNL     1      41.843 131.640  20.135  1.00  0.00     0.004 A 
ATOM      4  C   UNL     1      42.216 131.667  18.789  1.00  0.00     0.004 A 
ATOM      5  C   UNL     1      43.548 131.820  18.394  1.00  0.00     0.049 A 
ATOM      6  C   UNL     1      43.944 132.617  17.307  1.00  0.00     0.151 A 
ATOM      7  C   UNL     1      43.223 133.760  16.885  1.00  0.00     0.102 A 
ATOM      8  Cl  UNL     1      43.499 134.277  15.216  1.00  0.00    -0.079 Cl
ATOM      9  C   UNL     1      42.348 134.536  17.696  1.00  0.00     0.075 A 
ATOM     10  Cl  UNL     1      41.239 135.647  16.884  1.00  0.00    -0.082 Cl
ATOM     11  C   UNL     1      42.312 134.499  19.116  1.00  0.00     0.085 A 
ATOM     12  C   UNL     1      43.469 134.253  19.891  1.00  0.00     0.088 A 
ENDROOT
BRANCH   1  13
ATOM     13  O   UNL     1      44.348 133.588  22.061  1.00  0.00    -0.506 OA
ATOM     14  H   UNL     1      44.196 134.269  22.793  1.00  0.00     0.293 HD
ENDBRANCH   1  13
BRANCH  12  15
ATOM     15  N   UNL     1      44.710 134.908  19.557  1.00  0.00    -0.369 N 
ATOM     16  H   UNL     1      45.527 134.284  19.358  1.00  0.00     0.161 HD
BRANCH  15  17
ATOM     17  C   UNL     1      44.945 136.353  19.761  1.00  0.00     0.113 C 
ATOM     18  C   UNL     1      44.143 136.933  20.917  1.00  0.00     0.193 C 
ATOM     19  C   UNL     1      46.122 136.651  20.666  1.00  0.00     0.193 C 
ATOM     20  O   UNL     1      45.300 137.182  21.679  1.00  0.00    -0.376 OA
BRANCH  17  21
ATOM     21  C   UNL     1      44.882 137.205  18.477  1.00  0.00     0.247 C 
ATOM     22  F   UNL     1      43.627 137.773  18.355  1.00  0.00    -0.248 F 
ENDBRANCH  17  21
ENDBRANCH  15  17
ENDBRANCH  12  15
BRANCH  11  23
ATOM     23  N   UNL     1      41.071 134.673  19.824  1.00  0.00    -0.057 NA
BRANCH  23  24
ATOM     24  N   UNL     1      40.747 135.749  20.334  1.00  0.00     0.005 N 
ATOM     25  N   UNL     1      40.419 136.825  20.827  1.00  0.00    -0.003 NA
ENDBRANCH  23  24
ENDBRANCH  11  23
BRANCH   6  26
ATOM     26  O   UNL     1      45.153 132.349  16.640  1.00  0.00    -0.424 OA
BRANCH  26  27
ATOM     27  C   UNL     1      45.770 131.093  16.520  1.00  0.00     0.331 C 
ATOM     28  O   UNL     1      46.324 130.536  17.508  1.00  0.00    -0.250 OA
BRANCH  27  29
ATOM     29  C   UNL     1      45.725 130.380  15.202  1.00  0.00     0.118 C 
ATOM     30  C   UNL     1      44.864 131.035  14.121  1.00  0.00     0.040 C 
ATOM     31  C   UNL     1      46.391 131.054  14.000  1.00  0.00     0.022 C 
BRANCH  29  32
ATOM     32  N   UNL     1      45.696 128.916  15.205  1.00  0.00    -0.316 NA
ATOM     33  H   UNL     1      44.717 128.602  14.985  1.00  0.00     0.119 HD
ATOM     34  H   UNL     1      45.907 128.570  16.176  1.00  0.00     0.119 HD
ENDBRANCH  29  32
BRANCH  31  35
ATOM     35  C   UNL     1      46.965 130.143  12.902  1.00  0.00     0.003 C 
ATOM     36  C   UNL     1      48.341 129.628  13.309  1.00  0.00     0.004 C 
ENDBRANCH  31  35
ENDBRANCH  27  29
ENDBRANCH  26  27
ENDBRANCH   6  26
TORSDOF 11
ENDMDL
MODEL 6
REMARK VINA RESULT:      -5.7      2.747      3.873
REMARK SMILES CC[C@H]1C[C@]1(N)C(=O)Oc1ccccc(O)c(NC2(CF)COC2)c(N=[N+]=[N-])c(Cl)c1Cl
REMARK SMILES IDX 15 1 14 2 13 3 12 4 11 5 10 6 31 7 32 8 29 9 30 10 25 11
REMARK SMILES IDX 17 12 16 13 18 15 19 17 22 18 24 19 23 20 20 21 21 22 26 23
REMARK SMILES IDX 27 24 28 25 9 26 7 27 8 28 5 29 4 30 3 31 6 32 2 35 1 36
REMARK H PARENT 16 14 18 16 6 33 6 34
ROOT
ATOM      1  C   UNL     1      42.989 134.940  19.391  1.00  0.00     0.139 A 
ATOM      2  C   UNL     1      42.722 133.820  20.214  1.00  0.00     0.048 A 
ATOM      3  C   UNL     1      42.071 132.630  19.827  1.00  0.00     0.004 A 
ATOM      4  C   UNL     1      41.934 132.197  18.506  1.00  0.00     0.004 A 
ATOM      5  C   UNL     1      42.872 132.522  17.521  1.00  0.00     0.049 A 
ATOM      6  C   UNL     1      42.520 132.874  16.207  1.00  0.00     0.151 A 
ATOM      7  C   UNL     1      41.296 133.504  15.878  1.00  0.00     0.102 A 
ATOM      8  Cl  UNL     1      40.768 133.340  14.198  1.00  0.00    -0.079 Cl
ATOM      9  C   UNL     1      40.497 134.282  16.764  1.00  0.00     0.075 A 
ATOM     10  Cl  UNL     1      38.829 134.618  16.289  1.00  0.00    -0.082 Cl
ATOM     11  C   UNL     1      40.948 134.825  17.996  1.00  0.00     0.085 A 
ATOM     12  C   UNL     1      42.286 135.239  18.191  1.00  0.00     0.088 A 
ENDROOT
BRANCH   1  13
ATOM     13  O   UNL     1      44.020 135.788  19.807  1.00  0.00    -0.506 OA
ATOM     14  H   UNL     1      44.844 135.961  19.247  1.00  0.00     0.293 HD
ENDBRANCH   1  13
BRANCH  12  15
ATOM     15  N   UNL     1      42.958 136.002  17.168  1.00  0.00    -0.369 N 
ATOM     16  H   UNL     1      43.835 135.585  16.777  1.00  0.00     0.161 HD
BRANCH  15  17
ATOM     17  C   UNL     1      42.642 137.415  16.871  1.00  0.00     0.113 C 
ATOM     18  C   UNL     1      42.573 137.714  15.380  1.00  0.00     0.193 C 
ATOM     19  C   UNL     1      41.157 137.702  16.813  1.00  0.00     0.193 C 
ATOM     20  O   UNL     1      41.191 137.972  15.431  1.00  0.00    -0.376 OA
BRANCH  17  21
ATOM     21  C   UNL     1      43.471 138.444  17.669  1.00  0.00     0.247 C 
ATOM     22  F   UNL     1      42.934 138.598  18.933  1.00  0.00    -0.248 F 
ENDBRANCH  17  21
ENDBRANCH  15  17
ENDBRANCH  12  15
BRANCH  11  23
ATOM     23  N   UNL     1      40.056 134.938  19.120  1.00  0.00    -0.057 NA
BRANCH  23  24
ATOM     24  N   UNL     1      39.712 136.029  19.583  1.00  0.00     0.005 N 
ATOM     25  N   UNL     1      39.356 137.115  20.034  1.00  0.00    -0.003 NA
ENDBRANCH  23  24
ENDBRANCH  11  23
BRANCH   6  26
ATOM     26  O   UNL     1      43.438 132.688  15.158  1.00  0.00    -0.424 OA
BRANCH  26  27
ATOM     27  C   UNL     1      44.827 132.522  15.294  1.00  0.00     0.331 C 
ATOM     28  O   UNL     1      45.573 133.483  15.628  1.00  0.00    -0.250 OA
BRANCH  27  29
ATOM     29  C   UNL     1      45.424 131.164  15.085  1.00  0.00     0.118 C 
ATOM     30  C   UNL     1      45.123 130.505  13.738  1.00  0.00     0.040 C 
ATOM     31  C   UNL     1      46.533 131.022  14.039  1.00  0.00     0.022 C 
BRANCH  29  32
ATOM     32  N   UNL     1      45.469 130.242  16.222  1.00  0.00    -0.316 NA
ATOM     33  H   UNL     1      44.509 130.194  16.649  1.00  0.00     0.119 HD
ATOM     34  H   UNL     1      46.102 130.640  16.962  1.00  0.00     0.119 HD
ENDBRANCH  29  32
BRANCH  31  35
ATOM     35  C   UNL     1      47.589 129.928  14.266  1.00  0.00     0.003 C 
ATOM     36  C   UNL     1      48.121 129.421  12.930  1.00  0.00     0.004 C 
ENDBRANCH  31  35
ENDBRANCH  27  29
ENDBRANCH  26  27
ENDBRANCH   6  26
TORSDOF 11
ENDMDL
MODEL 7
REMARK VINA RESULT:      -5.6      3.209      5.297
REMARK SMILES CC[C@H]1C[C@]1(N)C(=O)Oc1ccccc(O)c(NC2(CF)COC2)c(N=[N+]=[N-])c(Cl)c1Cl
REMARK SMILES IDX 15 1 14 2 13 3 12 4 11 5 10 6 31 7 32 8 29 9 30 10 25 11
REMARK SMILES IDX 17 12 16 13 18 15 19 17 22 18 24 19 23 20 20 21 21 22 26 23
REMARK SMILES IDX 27 24 28 25 9 26 7 27 8 28 5 29 4 30 3 31 6 32 2 35 1 36
REMARK H PARENT 16 14 18 16 6 33 6 34
ROOT
ATOM      1  C   UNL     1      42.018 132.494  16.933  1.00  0.00     0.139 A 
ATOM      2  C   UNL     1      43.047 132.012  16.089  1.00  0.00     0.048 A 
ATOM      3  C   UNL     1      44.048 132.783  15.461  1.00  0.00     0.004 A 
ATOM      4  C   UNL     1      44.429 134.065  15.866  1.00  0.00     0.004 A 
ATOM      5  C   UNL     1      44.330 134.479  17.197  1.00  0.00     0.049 A 
ATOM      6  C   UNL     1      43.898 135.761  17.576  1.00  0.00     0.151 A 
ATOM      7  C   UNL     1      42.995 136.532  16.804  1.00  0.00     0.102 A 
ATOM      8  Cl  UNL     1      43.021 138.276  17.093  1.00  0.00    -0.079 Cl
ATOM      9  C   UNL     1      42.055 136.017  15.867  1.00  0.00     0.075 A 
ATOM     10  Cl  UNL     1      41.331 137.149  14.719  1.00  0.00    -0.082 Cl
ATOM     11  C   UNL     1      41.640 134.660  15.797  1.00  0.00     0.085 A 
ATOM     12  C   UNL     1      41.555 133.840  16.945  1.00  0.00     0.088 A 
ENDROOT
BRANCH   1  13
ATOM     13  O   UNL     1      41.440 131.566  17.804  1.00  0.00    -0.506 OA
ATOM     14  H   UNL     1      41.970 130.821  18.237  1.00  0.00     0.293 HD
ENDBRANCH   1  13
BRANCH  12  15
ATOM     15  N   UNL     1      40.968 134.357  18.157  1.00  0.00    -0.369 N 
ATOM     16  H   UNL     1      41.612 134.477  18.973  1.00  0.00     0.161 HD
BRANCH  15  17
ATOM     17  C   UNL     1      39.509 134.443  18.377  1.00  0.00     0.113 C 
ATOM     18  C   UNL     1      38.827 135.470  17.484  1.00  0.00     0.193 C 
ATOM     19  C   UNL     1      38.713 133.460  17.546  1.00  0.00     0.193 C 
ATOM     20  O   UNL     1      38.122 134.480  16.775  1.00  0.00    -0.376 OA
BRANCH  17  21
ATOM     21  C   UNL     1      39.083 134.534  19.858  1.00  0.00     0.247 C 
ATOM     22  F   UNL     1      40.105 134.071  20.667  1.00  0.00    -0.248 F 
ENDBRANCH  17  21
ENDBRANCH  15  17
ENDBRANCH  12  15
BRANCH  11  23
ATOM     23  N   UNL     1      41.325 134.052  14.531  1.00  0.00    -0.057 NA
BRANCH  23  24
ATOM     24  N   UNL     1      40.172 133.749  14.213  1.00  0.00     0.005 N 
ATOM     25  N   UNL     1      39.029 133.433  13.893  1.00  0.00    -0.003 NA
ENDBRANCH  23  24
ENDBRANCH  11  23
BRANCH   6  26
ATOM     26  O   UNL     1      44.291 136.300  18.815  1.00  0.00    -0.424 OA
BRANCH  26  27
ATOM     27  C   UNL     1      43.739 135.983  20.067  1.00  0.00     0.331 C 
ATOM     28  O   UNL     1      42.784 136.650  20.552  1.00  0.00    -0.250 OA
BRANCH  27  29
ATOM     29  C   UNL     1      44.263 134.796  20.817  1.00  0.00     0.118 C 
ATOM     30  C   UNL     1      43.269 134.111  21.757  1.00  0.00     0.040 C 
ATOM     31  C   UNL     1      43.698 133.418  20.460  1.00  0.00     0.022 C 
BRANCH  29  32
ATOM     32  N   UNL     1      45.641 134.836  21.306  1.00  0.00    -0.316 NA
ATOM     33  H   UNL     1      46.025 133.857  21.301  1.00  0.00     0.119 HD
ATOM     34  H   UNL     1      45.640 135.147  22.312  1.00  0.00     0.119 HD
ENDBRANCH  29  32
BRANCH  31  35
ATOM     35  C   UNL     1      44.619 132.201  20.651  1.00  0.00     0.003 C 
ATOM     36  C   UNL     1      44.845 131.496  19.318  1.00  0.00     0.004 C 
ENDBRANCH  31  35
ENDBRANCH  27  29
ENDBRANCH  26  27
ENDBRANCH   6  26
TORSDOF 11
ENDMDL
MODEL 8
REMARK VINA RESULT:      -5.6      2.868      4.209
REMARK SMILES CC[C@H]1C[C@]1(N)C(=O)Oc1ccccc(O)c(NC2(CF)COC2)c(N=[N+]=[N-])c(Cl)c1Cl
REMARK SMILES IDX 15 1 14 2 13 3 12 4 11 5 10 6 31 7 32 8 29 9 30 10 25 11
REMARK SMILES IDX 17 12 16 13 18 15 19 17 22 18 24 19 23 20 20 21 21 22 26 23
REMARK SMILES IDX 27 24 28 25 9 26 7 27 8 28 5 29 4 30 3 31 6 32 2 35 1 36
REMARK H PARENT 16 14 18 16 6 33 6 34
ROOT
ATOM      1  C   UNL     1      40.452 133.791  18.475  1.00  0.00     0.139 A 
ATOM      2  C   UNL     1      39.255 133.572  17.752  1.00  0.00     0.048 A 
ATOM      3  C   UNL     1      39.014 133.912  16.404  1.00  0.00     0.004 A 
ATOM      4  C   UNL     1      40.014 134.154  15.459  1.00  0.00     0.004 A 
ATOM      5  C   UNL     1      41.269 133.543  15.538  1.00  0.00     0.049 A 
ATOM      6  C   UNL     1      42.472 134.211  15.255  1.00  0.00     0.151 A 
ATOM      7  C   UNL     1      42.645 135.603  15.445  1.00  0.00     0.102 A 
ATOM      8  Cl  UNL     1      43.951 136.355  14.519  1.00  0.00    -0.079 Cl
ATOM      9  C   UNL     1      41.895 136.419  16.340  1.00  0.00     0.075 A 
ATOM     10  Cl  UNL     1      41.976 138.171  16.122  1.00  0.00    -0.082 Cl
ATOM     11  C   UNL     1      41.100 135.929  17.410  1.00  0.00     0.085 A 
ATOM     12  C   UNL     1      41.437 134.754  18.121  1.00  0.00     0.088 A 
ENDROOT
BRANCH   1  13
ATOM     13  O   UNL     1      40.654 132.990  19.603  1.00  0.00    -0.506 OA
ATOM     14  H   UNL     1      40.362 133.270  20.530  1.00  0.00     0.293 HD
ENDBRANCH   1  13
BRANCH  12  15
ATOM     15  N   UNL     1      42.803 134.526  18.525  1.00  0.00    -0.369 N 
ATOM     16  H   UNL     1      43.269 133.675  18.130  1.00  0.00     0.161 HD
BRANCH  15  17
ATOM     17  C   UNL     1      43.448 135.241  19.646  1.00  0.00     0.113 C 
ATOM     18  C   UNL     1      42.452 135.791  20.657  1.00  0.00     0.193 C 
ATOM     19  C   UNL     1      43.838 134.336  20.795  1.00  0.00     0.193 C 
ATOM     20  O   UNL     1      42.893 134.914  21.665  1.00  0.00    -0.376 OA
BRANCH  17  21
ATOM     21  C   UNL     1      44.528 136.260  19.227  1.00  0.00     0.247 C 
ATOM     22  F   UNL     1      44.697 136.224  17.855  1.00  0.00    -0.248 F 
ENDBRANCH  17  21
ENDBRANCH  15  17
ENDBRANCH  12  15
BRANCH  11  23
ATOM     23  N   UNL     1      39.883 136.598  17.788  1.00  0.00    -0.057 NA
BRANCH  23  24
ATOM     24  N   UNL     1      39.825 137.371  18.748  1.00  0.00     0.005 N 
ATOM     25  N   UNL     1      39.757 138.130  19.712  1.00  0.00    -0.003 NA
ENDBRANCH  23  24
ENDBRANCH  11  23
BRANCH   6  26
ATOM     26  O   UNL     1      43.604 133.483  14.847  1.00  0.00    -0.424 OA
BRANCH  26  27
ATOM     27  C   UNL     1      44.425 132.697  15.674  1.00  0.00     0.331 C 
ATOM     28  O   UNL     1      44.851 133.132  16.780  1.00  0.00    -0.250 OA
BRANCH  27  29
ATOM     29  C   UNL     1      44.757 131.297  15.256  1.00  0.00     0.118 C 
ATOM     30  C   UNL     1      44.003 130.772  14.034  1.00  0.00     0.040 C 
ATOM     31  C   UNL     1      45.494 131.103  13.928  1.00  0.00     0.022 C 
BRANCH  29  32
ATOM     32  N   UNL     1      45.005 130.301  16.298  1.00  0.00    -0.316 NA
ATOM     33  H   UNL     1      44.631 129.375  15.969  1.00  0.00     0.119 HD
ATOM     34  H   UNL     1      44.451 130.555  17.156  1.00  0.00     0.119 HD
ENDBRANCH  29  32
BRANCH  31  35
ATOM     35  C   UNL     1      46.422 129.883  13.801  1.00  0.00     0.003 C 
ATOM     36  C   UNL     1      47.673 130.251  13.012  1.00  0.00     0.004 C 
ENDBRANCH  31  35
ENDBRANCH  27  29
ENDBRANCH  26  27
ENDBRANCH   6  26
TORSDOF 11
ENDMDL
MODEL 9
REMARK VINA RESULT:      -5.6      2.948      4.381
REMARK SMILES CC[C@H]1C[C@]1(N)C(=O)Oc1ccccc(O)c(NC2(CF)COC2)c(N=[N+]=[N-])c(Cl)c1Cl
REMARK SMILES IDX 15 1 14 2 13 3 12 4 11 5 10 6 31 7 32 8 29 9 30 10 25 11
REMARK SMILES IDX 17 12 16 13 18 15 19 17 22 18 24 19 23 20 20 21 21 22 26 23
REMARK SMILES IDX 27 24 28 25 9 26 7 27 8 28 5 29 4 30 3 31 6 32 2 35 1 36
REMARK H PARENT 16 14 18 16 6 33 6 34
ROOT
ATOM      1  C   UNL     1      40.113 134.486  19.909  1.00  0.00     0.139 A 
ATOM      2  C   UNL     1      38.904 134.284  19.201  1.00  0.00     0.048 A 
ATOM      3  C   UNL     1      38.741 134.292  17.799  1.00  0.00     0.004 A 
ATOM      4  C   UNL     1      39.779 134.108  16.882  1.00  0.00     0.004 A 
ATOM      5  C   UNL     1      40.908 133.342  17.187  1.00  0.00     0.049 A 
ATOM      6  C   UNL     1      42.212 133.706  16.810  1.00  0.00     0.151 A 
ATOM      7  C   UNL     1      42.621 135.051  16.645  1.00  0.00     0.102 A 
ATOM      8  Cl  UNL     1      44.048 135.307  15.631  1.00  0.00    -0.079 Cl
ATOM      9  C   UNL     1      42.014 136.185  17.255  1.00  0.00     0.075 A 
ATOM     10  Cl  UNL     1      42.399 137.780  16.598  1.00  0.00    -0.082 Cl
ATOM     11  C   UNL     1      41.134 136.131  18.368  1.00  0.00     0.085 A 
ATOM     12  C   UNL     1      41.254 135.147  19.376  1.00  0.00     0.088 A 
ENDROOT
BRANCH   1  13
ATOM     13  O   UNL     1      40.160 133.989  21.216  1.00  0.00    -0.506 OA
ATOM     14  H   UNL     1      41.029 133.819  21.703  1.00  0.00     0.293 HD
ENDBRANCH   1  13
BRANCH  12  15
ATOM     15  N   UNL     1      42.555 134.812  19.901  1.00  0.00    -0.369 N 
ATOM     16  H   UNL     1      42.865 133.820  19.777  1.00  0.00     0.161 HD
BRANCH  15  17
ATOM     17  C   UNL     1      43.308 135.689  20.823  1.00  0.00     0.113 C 
ATOM     18  C   UNL     1      42.409 136.556  21.693  1.00  0.00     0.193 C 
ATOM     19  C   UNL     1      43.645 135.030  22.143  1.00  0.00     0.193 C 
ATOM     20  O   UNL     1      42.795 135.887  22.869  1.00  0.00    -0.376 OA
BRANCH  17  21
ATOM     21  C   UNL     1      44.470 136.466  20.169  1.00  0.00     0.247 C 
ATOM     22  F   UNL     1      44.788 135.895  18.951  1.00  0.00    -0.248 F 
ENDBRANCH  17  21
ENDBRANCH  15  17
ENDBRANCH  12  15
BRANCH  11  23
ATOM     23  N   UNL     1      40.047 137.067  18.491  1.00  0.00    -0.057 NA
BRANCH  23  24
ATOM     24  N   UNL     1      40.064 137.997  19.303  1.00  0.00     0.005 N 
ATOM     25  N   UNL     1      40.094 138.929  20.102  1.00  0.00    -0.003 NA
ENDBRANCH  23  24
ENDBRANCH  11  23
BRANCH   6  26
ATOM     26  O   UNL     1      43.205 132.720  16.668  1.00  0.00    -0.424 OA
BRANCH  26  27
ATOM     27  C   UNL     1      43.466 131.969  15.509  1.00  0.00     0.331 C 
ATOM     28  O   UNL     1      42.636 131.917  14.560  1.00  0.00    -0.250 OA
BRANCH  27  29
ATOM     29  C   UNL     1      44.780 131.260  15.379  1.00  0.00     0.118 C 
ATOM     30  C   UNL     1      44.715 129.838  14.820  1.00  0.00     0.040 C 
ATOM     31  C   UNL     1      45.300 130.969  13.969  1.00  0.00     0.022 C 
BRANCH  29  32
ATOM     32  N   UNL     1      45.785 131.462  16.423  1.00  0.00    -0.316 NA
ATOM     33  H   UNL     1      46.729 131.222  16.027  1.00  0.00     0.119 HD
ATOM     34  H   UNL     1      45.611 130.779  17.205  1.00  0.00     0.119 HD
ENDBRANCH  29  32
BRANCH  31  35
ATOM     35  C   UNL     1      46.823 130.909  13.771  1.00  0.00     0.003 C 
ATOM     36  C   UNL     1      47.155 130.611  12.313  1.00  0.00     0.004 C 
ENDBRANCH  31  35
ENDBRANCH  27  29
ENDBRANCH  26  27
ENDBRANCH   6  26
TORSDOF 11
ENDMDL


