MODEL 1
REMARK VINA RESULT:      -6.5      0.000      0.000
REMARK SMILES Cc1n[nH+]n([C@@H]2O[C@@]2(O)Nc2cccc(C#N)c2C)c1-c1cc2ccccc2c2c1C[N+](C)(C)C2
REMARK SMILES IDX 6 1 7 2 8 3 5 4 2 5 3 6 20 7 4 8 1 9 21 11 22 12 30 13 23 14
REMARK SMILES IDX 29 15 31 16 24 17 28 18 35 19 32 20 25 21 27 22 26 23 33 24
REMARK SMILES IDX 34 25 9 26 10 28 11 30 12 31 18 32 13 33 15 34 14 35 19 36
REMARK SMILES IDX 16 37 17 38
REMARK H PARENT 4 10 9 27 10 29
ROOT
ATOM      1  C   UNL     1      41.222 133.173  15.376  1.00  0.00     0.368 C 
ATOM      2  O   UNL     1      40.370 133.166  14.247  1.00  0.00    -0.292 OA
ATOM      3  C   UNL     1      40.899 134.412  14.638  1.00  0.00     0.302 C 
ENDROOT
BRANCH   1   4
ATOM      4  N   UNL     1      42.526 132.583  15.069  1.00  0.00    -0.091 N 
ATOM      5  C   UNL     1      44.653 132.060  15.032  1.00  0.00     0.137 A 
ATOM      6  N   UNL     1      44.034 131.348  14.066  1.00  0.00     0.020 NA
ATOM      7  C   UNL     1      43.700 132.823  15.684  1.00  0.00     0.140 A 
ATOM      8  N   UNL     1      42.755 131.693  14.112  1.00  0.00    -0.014 N 
ATOM      9  C   UNL     1      46.092 131.903  15.400  1.00  0.00     0.076 C 
ATOM     10  H   UNL     1      42.025 131.303  13.474  1.00  0.00     0.526 HD
BRANCH   7  11
ATOM     11  C   UNL     1      43.912 133.759  16.801  1.00  0.00     0.016 A 
ATOM     12  C   UNL     1      43.955 135.145  16.561  1.00  0.00     0.019 A 
ATOM     13  C   UNL     1      44.043 133.308  18.122  1.00  0.00     0.025 A 
ATOM     14  C   UNL     1      44.106 136.052  17.630  1.00  0.00    -0.017 A 
ATOM     15  C   UNL     1      44.167 134.181  19.169  1.00  0.00     0.024 A 
ATOM     16  C   UNL     1      44.177 131.914  18.619  1.00  0.00     0.301 C 
ATOM     17  C   UNL     1      44.131 137.435  17.394  1.00  0.00     0.009 A 
ATOM     18  C   UNL     1      44.212 135.567  18.962  1.00  0.00    -0.009 A 
ATOM     19  C   UNL     1      44.274 133.425  20.447  1.00  0.00     0.301 C 
ATOM     20  N   UNL     1      43.965 132.008  20.090  1.00  0.00    -0.321 N 
ATOM     21  C   UNL     1      44.264 138.327  18.462  1.00  0.00     0.001 A 
ATOM     22  C   UNL     1      44.349 136.475  20.024  1.00  0.00     0.009 A 
ATOM     23  C   UNL     1      44.373 137.849  19.771  1.00  0.00     0.001 A 
ATOM     24  C   UNL     1      44.848 131.065  20.815  1.00  0.00     0.334 C 
ATOM     25  C   UNL     1      42.548 131.701  20.413  1.00  0.00     0.334 C 
ENDBRANCH   7  11
ENDBRANCH   1   4
BRANCH   3  26
ATOM     26  O   UNL     1      41.777 134.929  13.676  1.00  0.00    -0.345 OA
ATOM     27  H   UNL     1      41.490 134.531  12.813  1.00  0.00     0.216 HD
ENDBRANCH   3  26
BRANCH   3  28
ATOM     28  N   UNL     1      39.873 135.298  15.182  1.00  0.00    -0.330 N 
ATOM     29  H   UNL     1      38.876 135.049  14.993  1.00  0.00     0.166 HD
BRANCH  28  30
ATOM     30  C   UNL     1      40.191 136.456  15.981  1.00  0.00     0.042 A 
ATOM     31  C   UNL     1      40.355 137.708  15.363  1.00  0.00     0.026 A 
ATOM     32  C   UNL     1      40.317 136.353  17.394  1.00  0.00    -0.010 A 
ATOM     33  C   UNL     1      40.615 138.847  16.122  1.00  0.00     0.004 A 
ATOM     34  C   UNL     1      40.587 137.523  18.151  1.00  0.00     0.057 A 
ATOM     35  C   UNL     1      40.737 138.755  17.504  1.00  0.00     0.020 A 
ATOM     36  C   UNL     1      40.149 135.010  18.068  1.00  0.00     0.048 C 
BRANCH  34  37
ATOM     37  C   UNL     1      40.708 137.496  19.590  1.00  0.00     0.099 C 
ATOM     38  N   UNL     1      40.808 137.473  20.743  1.00  0.00    -0.192 NA
ENDBRANCH  34  37
ENDBRANCH  28  30
ENDBRANCH   3  28
TORSDOF 6
ENDMDL
MODEL 2
REMARK VINA RESULT:      -5.9      2.897      6.978
REMARK SMILES Cc1n[nH+]n([C@@H]2O[C@@]2(O)Nc2cccc(C#N)c2C)c1-c1cc2ccccc2c2c1C[N+](C)(C)C2
REMARK SMILES IDX 6 1 7 2 8 3 5 4 2 5 3 6 20 7 4 8 1 9 21 11 22 12 30 13 23 14
REMARK SMILES IDX 29 15 31 16 24 17 28 18 35 19 32 20 25 21 27 22 26 23 33 24
REMARK SMILES IDX 34 25 9 26 10 28 11 30 12 31 18 32 13 33 15 34 14 35 19 36
REMARK SMILES IDX 16 37 17 38
REMARK H PARENT 4 10 9 27 10 29
ROOT
ATOM      1  C   UNL     1      45.360 132.684  20.200  1.00  0.00     0.368 C 
ATOM      2  O   UNL     1      44.546 133.226  19.179  1.00  0.00    -0.292 OA
ATOM      3  C   UNL     1      44.357 131.865  19.486  1.00  0.00     0.302 C 
ENDROOT
BRANCH   1   4
ATOM      4  N   UNL     1      44.953 133.160  21.523  1.00  0.00    -0.091 N 
ATOM      5  C   UNL     1      44.558 134.376  23.301  1.00  0.00     0.137 A 
ATOM      6  N   UNL     1      44.163 133.113  23.567  1.00  0.00     0.020 NA
ATOM      7  C   UNL     1      45.035 134.416  22.003  1.00  0.00     0.140 A 
ATOM      8  N   UNL     1      44.422 132.405  22.476  1.00  0.00    -0.014 N 
ATOM      9  C   UNL     1      44.354 135.532  24.226  1.00  0.00     0.076 C 
ATOM     10  H   UNL     1      44.224 131.384  22.386  1.00  0.00     0.526 HD
BRANCH   7  11
ATOM     11  C   UNL     1      45.577 135.581  21.282  1.00  0.00     0.016 A 
ATOM     12  C   UNL     1      46.944 135.897  21.382  1.00  0.00     0.019 A 
ATOM     13  C   UNL     1      44.767 136.378  20.461  1.00  0.00     0.025 A 
ATOM     14  C   UNL     1      47.483 136.980  20.656  1.00  0.00    -0.017 A 
ATOM     15  C   UNL     1      45.285 137.416  19.734  1.00  0.00     0.024 A 
ATOM     16  C   UNL     1      43.290 136.347  20.301  1.00  0.00     0.301 C 
ATOM     17  C   UNL     1      48.850 137.285  20.740  1.00  0.00     0.009 A 
ATOM     18  C   UNL     1      46.643 137.756  19.812  1.00  0.00    -0.009 A 
ATOM     19  C   UNL     1      44.203 138.072  18.950  1.00  0.00     0.301 C 
ATOM     20  N   UNL     1      43.017 137.176  19.094  1.00  0.00    -0.321 N 
ATOM     21  C   UNL     1      49.378 138.349  20.004  1.00  0.00     0.001 A 
ATOM     22  C   UNL     1      47.188 138.824  19.080  1.00  0.00     0.009 A 
ATOM     23  C   UNL     1      48.551 139.115  19.178  1.00  0.00     0.001 A 
ATOM     24  C   UNL     1      41.769 137.957  19.259  1.00  0.00     0.334 C 
ATOM     25  C   UNL     1      42.894 136.300  17.901  1.00  0.00     0.334 C 
ENDBRANCH   7  11
ENDBRANCH   1   4
BRANCH   3  26
ATOM     26  O   UNL     1      43.092 131.627  20.042  1.00  0.00    -0.345 OA
ATOM     27  H   UNL     1      42.448 132.085  19.441  1.00  0.00     0.216 HD
ENDBRANCH   3  26
BRANCH   3  28
ATOM     28  N   UNL     1      44.812 130.989  18.409  1.00  0.00    -0.330 N 
ATOM     29  H   UNL     1      45.388 130.159  18.678  1.00  0.00     0.166 HD
BRANCH  28  30
ATOM     30  C   UNL     1      44.468 131.215  17.027  1.00  0.00     0.042 A 
ATOM     31  C   UNL     1      43.273 131.882  16.705  1.00  0.00     0.026 A 
ATOM     32  C   UNL     1      45.335 130.792  15.982  1.00  0.00    -0.010 A 
ATOM     33  C   UNL     1      42.945 132.152  15.378  1.00  0.00     0.004 A 
ATOM     34  C   UNL     1      44.983 131.071  14.636  1.00  0.00     0.057 A 
ATOM     35  C   UNL     1      43.790 131.744  14.350  1.00  0.00     0.020 A 
ATOM     36  C   UNL     1      46.619 130.069  16.318  1.00  0.00     0.048 C 
BRANCH  34  37
ATOM     37  C   UNL     1      45.825 130.690  13.527  1.00  0.00     0.099 C 
ATOM     38  N   UNL     1      46.500 130.387  12.636  1.00  0.00    -0.192 NA
ENDBRANCH  34  37
ENDBRANCH  28  30
ENDBRANCH   3  28
TORSDOF 6
ENDMDL
MODEL 3
REMARK VINA RESULT:      -5.8      2.855      7.564
REMARK SMILES Cc1n[nH+]n([C@@H]2O[C@@]2(O)Nc2cccc(C#N)c2C)c1-c1cc2ccccc2c2c1C[N+](C)(C)C2
REMARK SMILES IDX 6 1 7 2 8 3 5 4 2 5 3 6 20 7 4 8 1 9 21 11 22 12 30 13 23 14
REMARK SMILES IDX 29 15 31 16 24 17 28 18 35 19 32 20 25 21 27 22 26 23 33 24
REMARK SMILES IDX 34 25 9 26 10 28 11 30 12 31 18 32 13 33 15 34 14 35 19 36
REMARK SMILES IDX 16 37 17 38
REMARK H PARENT 4 10 9 27 10 29
ROOT
ATOM      1  C   UNL     1      42.462 133.677  15.754  1.00  0.00     0.368 C 
ATOM      2  O   UNL     1      41.323 133.029  16.286  1.00  0.00    -0.292 OA
ATOM      3  C   UNL     1      42.570 132.683  16.842  1.00  0.00     0.302 C 
ENDROOT
BRANCH   1   4
ATOM      4  N   UNL     1      42.529 135.077  16.176  1.00  0.00    -0.091 N 
ATOM      5  C   UNL     1      42.102 137.191  16.563  1.00  0.00     0.137 A 
ATOM      6  N   UNL     1      43.342 136.926  17.027  1.00  0.00     0.020 NA
ATOM      7  C   UNL     1      41.576 136.019  16.046  1.00  0.00     0.140 A 
ATOM      8  N   UNL     1      43.569 135.645  16.771  1.00  0.00    -0.014 N 
ATOM      9  C   UNL     1      41.401 138.498  16.736  1.00  0.00     0.076 C 
ATOM     10  H   UNL     1      44.457 135.153  17.018  1.00  0.00     0.526 HD
BRANCH   7  11
ATOM     11  C   UNL     1      40.254 135.828  15.425  1.00  0.00     0.016 A 
ATOM     12  C   UNL     1      40.117 135.892  14.026  1.00  0.00     0.019 A 
ATOM     13  C   UNL     1      39.115 135.549  16.193  1.00  0.00     0.025 A 
ATOM     14  C   UNL     1      38.865 135.660  13.418  1.00  0.00    -0.017 A 
ATOM     15  C   UNL     1      37.902 135.299  15.612  1.00  0.00     0.024 A 
ATOM     16  C   UNL     1      38.963 135.571  17.671  1.00  0.00     0.301 C 
ATOM     17  C   UNL     1      38.730 135.706  12.022  1.00  0.00     0.009 A 
ATOM     18  C   UNL     1      37.733 135.354  14.221  1.00  0.00    -0.009 A 
ATOM     19  C   UNL     1      36.885 135.022  16.664  1.00  0.00     0.301 C 
ATOM     20  N   UNL     1      37.661 134.897  17.934  1.00  0.00    -0.321 N 
ATOM     21  C   UNL     1      37.490 135.458  11.428  1.00  0.00     0.001 A 
ATOM     22  C   UNL     1      36.492 135.111  13.610  1.00  0.00     0.009 A 
ATOM     23  C   UNL     1      36.376 135.162  12.219  1.00  0.00     0.001 A 
ATOM     24  C   UNL     1      36.951 135.539  19.065  1.00  0.00     0.334 C 
ATOM     25  C   UNL     1      37.892 133.464  18.249  1.00  0.00     0.334 C 
ENDBRANCH   7  11
ENDBRANCH   1   4
BRANCH   3  26
ATOM     26  O   UNL     1      42.672 133.086  18.180  1.00  0.00    -0.345 OA
ATOM     27  H   UNL     1      43.330 133.829  18.184  1.00  0.00     0.216 HD
ENDBRANCH   3  26
BRANCH   3  28
ATOM     28  N   UNL     1      42.965 131.318  16.501  1.00  0.00    -0.330 N 
ATOM     29  H   UNL     1      42.222 130.584  16.527  1.00  0.00     0.166 HD
BRANCH  28  30
ATOM     30  C   UNL     1      44.309 130.974  16.106  1.00  0.00     0.042 A 
ATOM     31  C   UNL     1      45.256 130.621  17.083  1.00  0.00     0.026 A 
ATOM     32  C   UNL     1      44.684 130.964  14.734  1.00  0.00    -0.010 A 
ATOM     33  C   UNL     1      46.544 130.239  16.719  1.00  0.00     0.004 A 
ATOM     34  C   UNL     1      46.004 130.577  14.382  1.00  0.00     0.057 A 
ATOM     35  C   UNL     1      46.919 130.224  15.379  1.00  0.00     0.020 A 
ATOM     36  C   UNL     1      43.675 131.349  13.676  1.00  0.00     0.048 C 
BRANCH  34  37
ATOM     37  C   UNL     1      46.447 130.525  13.008  1.00  0.00     0.099 C 
ATOM     38  N   UNL     1      46.802 130.486  11.907  1.00  0.00    -0.192 NA
ENDBRANCH  34  37
ENDBRANCH  28  30
ENDBRANCH   3  28
TORSDOF 6
ENDMDL
MODEL 4
REMARK VINA RESULT:      -5.8      2.654      7.105
REMARK SMILES Cc1n[nH+]n([C@@H]2O[C@@]2(O)Nc2cccc(C#N)c2C)c1-c1cc2ccccc2c2c1C[N+](C)(C)C2
REMARK SMILES IDX 6 1 7 2 8 3 5 4 2 5 3 6 20 7 4 8 1 9 21 11 22 12 30 13 23 14
REMARK SMILES IDX 29 15 31 16 24 17 28 18 35 19 32 20 25 21 27 22 26 23 33 24
REMARK SMILES IDX 34 25 9 26 10 28 11 30 12 31 18 32 13 33 15 34 14 35 19 36
REMARK SMILES IDX 16 37 17 38
REMARK H PARENT 4 10 9 27 10 29
ROOT
ATOM      1  C   UNL     1      42.121 133.163  19.773  1.00  0.00     0.368 C 
ATOM      2  O   UNL     1      43.030 132.743  20.772  1.00  0.00    -0.292 OA
ATOM      3  C   UNL     1      43.451 133.789  19.927  1.00  0.00     0.302 C 
ENDROOT
BRANCH   1   4
ATOM      4  N   UNL     1      41.004 133.917  20.345  1.00  0.00    -0.091 N 
ATOM      5  C   UNL     1      39.280 135.233  20.653  1.00  0.00     0.137 A 
ATOM      6  N   UNL     1      39.614 134.701  21.848  1.00  0.00     0.020 NA
ATOM      7  C   UNL     1      40.140 134.721  19.697  1.00  0.00     0.140 A 
ATOM      8  N   UNL     1      40.662 133.919  21.627  1.00  0.00    -0.014 N 
ATOM      9  C   UNL     1      38.085 136.099  20.423  1.00  0.00     0.076 C 
ATOM     10  H   UNL     1      41.145 133.372  22.374  1.00  0.00     0.526 HD
BRANCH   7  11
ATOM     11  C   UNL     1      40.158 135.021  18.255  1.00  0.00     0.016 A 
ATOM     12  C   UNL     1      39.402 134.238  17.363  1.00  0.00     0.019 A 
ATOM     13  C   UNL     1      40.890 136.099  17.737  1.00  0.00     0.025 A 
ATOM     14  C   UNL     1      39.372 134.548  15.987  1.00  0.00    -0.017 A 
ATOM     15  C   UNL     1      40.848 136.423  16.409  1.00  0.00     0.024 A 
ATOM     16  C   UNL     1      41.868 136.976  18.432  1.00  0.00     0.301 C 
ATOM     17  C   UNL     1      38.604 133.779  15.099  1.00  0.00     0.009 A 
ATOM     18  C   UNL     1      40.104 135.662  15.495  1.00  0.00    -0.009 A 
ATOM     19  C   UNL     1      41.707 137.611  16.151  1.00  0.00     0.301 C 
ATOM     20  N   UNL     1      42.087 138.119  17.503  1.00  0.00    -0.321 N 
ATOM     21  C   UNL     1      38.567 134.104  13.740  1.00  0.00     0.001 A 
ATOM     22  C   UNL     1      40.060 135.975  14.127  1.00  0.00     0.009 A 
ATOM     23  C   UNL     1      39.292 135.197  13.257  1.00  0.00     0.001 A 
ATOM     24  C   UNL     1      43.500 138.564  17.534  1.00  0.00     0.334 C 
ATOM     25  C   UNL     1      41.207 139.253  17.886  1.00  0.00     0.334 C 
ENDBRANCH   7  11
ENDBRANCH   1   4
BRANCH   3  26
ATOM     26  O   UNL     1      43.605 134.993  20.627  1.00  0.00    -0.345 OA
ATOM     27  H   UNL     1      44.491 134.931  21.071  1.00  0.00     0.216 HD
ENDBRANCH   3  26
BRANCH   3  28
ATOM     28  N   UNL     1      44.524 133.371  19.028  1.00  0.00    -0.330 N 
ATOM     29  H   UNL     1      45.500 133.399  19.403  1.00  0.00     0.166 HD
BRANCH  28  30
ATOM     30  C   UNL     1      44.276 132.900  17.688  1.00  0.00     0.042 A 
ATOM     31  C   UNL     1      43.599 133.724  16.772  1.00  0.00     0.026 A 
ATOM     32  C   UNL     1      44.730 131.619  17.271  1.00  0.00    -0.010 A 
ATOM     33  C   UNL     1      43.392 133.307  15.459  1.00  0.00     0.004 A 
ATOM     34  C   UNL     1      44.506 131.208  15.931  1.00  0.00     0.057 A 
ATOM     35  C   UNL     1      43.835 132.056  15.042  1.00  0.00     0.020 A 
ATOM     36  C   UNL     1      45.454 130.722  18.250  1.00  0.00     0.048 C 
BRANCH  34  37
ATOM     37  C   UNL     1      44.957 129.930  15.433  1.00  0.00     0.099 C 
ATOM     38  N   UNL     1      45.320 128.904  15.037  1.00  0.00    -0.192 NA
ENDBRANCH  34  37
ENDBRANCH  28  30
ENDBRANCH   3  28
TORSDOF 6
ENDMDL
MODEL 5
REMARK VINA RESULT:      -5.7      2.954      7.058
REMARK SMILES Cc1n[nH+]n([C@@H]2O[C@@]2(O)Nc2cccc(C#N)c2C)c1-c1cc2ccccc2c2c1C[N+](C)(C)C2
REMARK SMILES IDX 6 1 7 2 8 3 5 4 2 5 3 6 20 7 4 8 1 9 21 11 22 12 30 13 23 14
REMARK SMILES IDX 29 15 31 16 24 17 28 18 35 19 32 20 25 21 27 22 26 23 33 24
REMARK SMILES IDX 34 25 9 26 10 28 11 30 12 31 18 32 13 33 15 34 14 35 19 36
REMARK SMILES IDX 16 37 17 38
REMARK H PARENT 4 10 9 27 10 29
ROOT
ATOM      1  C   UNL     1      43.481 131.598  20.736  1.00  0.00     0.368 C 
ATOM      2  O   UNL     1      44.437 130.707  21.276  1.00  0.00    -0.292 OA
ATOM      3  C   UNL     1      44.905 131.657  20.347  1.00  0.00     0.302 C 
ENDROOT
BRANCH   1   4
ATOM      4  N   UNL     1      43.059 132.596  21.721  1.00  0.00    -0.091 N 
ATOM      5  C   UNL     1      42.226 134.358  22.719  1.00  0.00     0.137 A 
ATOM      6  N   UNL     1      42.803 133.582  23.661  1.00  0.00     0.020 NA
ATOM      7  C   UNL     1      42.364 133.727  21.495  1.00  0.00     0.140 A 
ATOM      8  N   UNL     1      43.301 132.532  23.023  1.00  0.00    -0.014 N 
ATOM      9  C   UNL     1      41.450 135.601  23.014  1.00  0.00     0.076 C 
ATOM     10  H   UNL     1      43.811 131.754  23.498  1.00  0.00     0.526 HD
BRANCH   7  11
ATOM     11  C   UNL     1      41.895 134.204  20.183  1.00  0.00     0.016 A 
ATOM     12  C   UNL     1      40.804 133.577  19.554  1.00  0.00     0.019 A 
ATOM     13  C   UNL     1      42.491 135.301  19.545  1.00  0.00     0.025 A 
ATOM     14  C   UNL     1      40.315 134.058  18.321  1.00  0.00    -0.017 A 
ATOM     15  C   UNL     1      42.009 135.790  18.361  1.00  0.00     0.024 A 
ATOM     16  C   UNL     1      43.728 136.035  19.919  1.00  0.00     0.301 C 
ATOM     17  C   UNL     1      39.215 133.445  17.702  1.00  0.00     0.009 A 
ATOM     18  C   UNL     1      40.923 135.188  17.710  1.00  0.00    -0.009 A 
ATOM     19  C   UNL     1      42.824 136.958  17.928  1.00  0.00     0.301 C 
ATOM     20  N   UNL     1      43.705 137.273  19.092  1.00  0.00    -0.321 N 
ATOM     21  C   UNL     1      38.727 133.939  16.489  1.00  0.00     0.001 A 
ATOM     22  C   UNL     1      40.423 135.671  16.490  1.00  0.00     0.009 A 
ATOM     23  C   UNL     1      39.329 135.047  15.886  1.00  0.00     0.001 A 
ATOM     24  C   UNL     1      45.070 137.641  18.651  1.00  0.00     0.334 C 
ATOM     25  C   UNL     1      43.126 138.392  19.879  1.00  0.00     0.334 C 
ENDBRANCH   7  11
ENDBRANCH   1   4
BRANCH   3  26
ATOM     26  O   UNL     1      45.778 132.579  20.941  1.00  0.00    -0.345 OA
ATOM     27  H   UNL     1      45.288 133.442  20.948  1.00  0.00     0.216 HD
ENDBRANCH   3  26
BRANCH   3  28
ATOM     28  N   UNL     1      45.308 131.039  19.086  1.00  0.00    -0.330 N 
ATOM     29  H   UNL     1      45.831 130.136  19.140  1.00  0.00     0.166 HD
BRANCH  28  30
ATOM     30  C   UNL     1      44.981 131.610  17.802  1.00  0.00     0.042 A 
ATOM     31  C   UNL     1      44.281 132.828  17.737  1.00  0.00     0.026 A 
ATOM     32  C   UNL     1      45.379 130.969  16.597  1.00  0.00    -0.010 A 
ATOM     33  C   UNL     1      43.997 133.419  16.509  1.00  0.00     0.004 A 
ATOM     34  C   UNL     1      45.077 131.584  15.354  1.00  0.00     0.057 A 
ATOM     35  C   UNL     1      44.386 132.800  15.325  1.00  0.00     0.020 A 
ATOM     36  C   UNL     1      46.127 129.656  16.656  1.00  0.00     0.048 C 
BRANCH  34  37
ATOM     37  C   UNL     1      45.469 131.000  14.093  1.00  0.00     0.099 C 
ATOM     38  N   UNL     1      45.782 130.534  13.080  1.00  0.00    -0.192 NA
ENDBRANCH  34  37
ENDBRANCH  28  30
ENDBRANCH   3  28
TORSDOF 6
ENDMDL
MODEL 6
REMARK VINA RESULT:      -5.7      2.128      6.184
REMARK SMILES Cc1n[nH+]n([C@@H]2O[C@@]2(O)Nc2cccc(C#N)c2C)c1-c1cc2ccccc2c2c1C[N+](C)(C)C2
REMARK SMILES IDX 6 1 7 2 8 3 5 4 2 5 3 6 20 7 4 8 1 9 21 11 22 12 30 13 23 14
REMARK SMILES IDX 29 15 31 16 24 17 28 18 35 19 32 20 25 21 27 22 26 23 33 24
REMARK SMILES IDX 34 25 9 26 10 28 11 30 12 31 18 32 13 33 15 34 14 35 19 36
REMARK SMILES IDX 16 37 17 38
REMARK H PARENT 4 10 9 27 10 29
ROOT
ATOM      1  C   UNL     1      43.505 134.529  15.699  1.00  0.00     0.368 C 
ATOM      2  O   UNL     1      42.957 134.250  14.426  1.00  0.00    -0.292 OA
ATOM      3  C   UNL     1      42.337 133.638  15.533  1.00  0.00     0.302 C 
ENDROOT
BRANCH   1   4
ATOM      4  N   UNL     1      43.196 135.894  16.130  1.00  0.00    -0.091 N 
ATOM      5  C   UNL     1      42.700 137.680  17.296  1.00  0.00     0.137 A 
ATOM      6  N   UNL     1      42.788 138.043  15.999  1.00  0.00     0.020 NA
ATOM      7  C   UNL     1      42.980 136.328  17.386  1.00  0.00     0.140 A 
ATOM      8  N   UNL     1      43.081 136.941  15.323  1.00  0.00    -0.014 N 
ATOM      9  C   UNL     1      42.485 138.636  18.424  1.00  0.00     0.076 C 
ATOM     10  H   UNL     1      43.211 136.913  14.287  1.00  0.00     0.526 HD
BRANCH   7  11
ATOM     11  C   UNL     1      42.997 135.495  18.601  1.00  0.00     0.016 A 
ATOM     12  C   UNL     1      44.219 135.015  19.110  1.00  0.00     0.019 A 
ATOM     13  C   UNL     1      41.820 135.186  19.296  1.00  0.00     0.025 A 
ATOM     14  C   UNL     1      44.251 134.260  20.300  1.00  0.00    -0.017 A 
ATOM     15  C   UNL     1      41.843 134.474  20.464  1.00  0.00     0.024 A 
ATOM     16  C   UNL     1      40.411 135.441  18.897  1.00  0.00     0.301 C 
ATOM     17  C   UNL     1      45.470 133.796  20.818  1.00  0.00     0.009 A 
ATOM     18  C   UNL     1      43.044 133.983  20.997  1.00  0.00    -0.009 A 
ATOM     19  C   UNL     1      40.457 134.309  20.983  1.00  0.00     0.301 C 
ATOM     20  N   UNL     1      39.613 135.199  20.131  1.00  0.00    -0.321 N 
ATOM     21  C   UNL     1      45.494 133.063  22.008  1.00  0.00     0.001 A 
ATOM     22  C   UNL     1      43.083 133.242  22.190  1.00  0.00     0.009 A 
ATOM     23  C   UNL     1      44.305 132.787  22.690  1.00  0.00     0.001 A 
ATOM     24  C   UNL     1      38.316 134.561  19.806  1.00  0.00     0.334 C 
ATOM     25  C   UNL     1      39.365 136.486  20.830  1.00  0.00     0.334 C 
ENDBRANCH   7  11
ENDBRANCH   1   4
BRANCH   3  26
ATOM     26  O   UNL     1      41.033 134.114  15.728  1.00  0.00    -0.345 OA
ATOM     27  H   UNL     1      40.603 134.085  14.833  1.00  0.00     0.216 HD
ENDBRANCH   3  26
BRANCH   3  28
ATOM     28  N   UNL     1      42.555 132.194  15.557  1.00  0.00    -0.330 N 
ATOM     29  H   UNL     1      41.778 131.587  15.208  1.00  0.00     0.166 HD
BRANCH  28  30
ATOM     30  C   UNL     1      43.792 131.602  16.003  1.00  0.00     0.042 A 
ATOM     31  C   UNL     1      44.134 131.643  17.366  1.00  0.00     0.026 A 
ATOM     32  C   UNL     1      44.662 130.954  15.084  1.00  0.00    -0.010 A 
ATOM     33  C   UNL     1      45.300 131.035  17.824  1.00  0.00     0.004 A 
ATOM     34  C   UNL     1      45.849 130.345  15.568  1.00  0.00     0.057 A 
ATOM     35  C   UNL     1      46.156 130.397  16.932  1.00  0.00     0.020 A 
ATOM     36  C   UNL     1      44.307 130.911  13.615  1.00  0.00     0.048 C 
BRANCH  34  37
ATOM     37  C   UNL     1      46.768 129.653  14.695  1.00  0.00     0.099 C 
ATOM     38  N   UNL     1      47.502 129.096  13.993  1.00  0.00    -0.192 NA
ENDBRANCH  34  37
ENDBRANCH  28  30
ENDBRANCH   3  28
TORSDOF 6
ENDMDL
MODEL 7
REMARK VINA RESULT:      -5.6      1.740      5.544
REMARK SMILES Cc1n[nH+]n([C@@H]2O[C@@]2(O)Nc2cccc(C#N)c2C)c1-c1cc2ccccc2c2c1C[N+](C)(C)C2
REMARK SMILES IDX 6 1 7 2 8 3 5 4 2 5 3 6 20 7 4 8 1 9 21 11 22 12 30 13 23 14
REMARK SMILES IDX 29 15 31 16 24 17 28 18 35 19 32 20 25 21 27 22 26 23 33 24
REMARK SMILES IDX 34 25 9 26 10 28 11 30 12 31 18 32 13 33 15 34 14 35 19 36
REMARK SMILES IDX 16 37 17 38
REMARK H PARENT 4 10 9 27 10 29
ROOT
ATOM      1  C   UNL     1      42.574 134.180  15.626  1.00  0.00     0.368 C 
ATOM      2  O   UNL     1      42.687 134.311  14.222  1.00  0.00    -0.292 OA
ATOM      3  C   UNL     1      42.000 133.178  14.702  1.00  0.00     0.302 C 
ENDROOT
BRANCH   1   4
ATOM      4  N   UNL     1      41.619 135.140  16.181  1.00  0.00    -0.091 N 
ATOM      5  C   UNL     1      40.590 136.614  17.432  1.00  0.00     0.137 A 
ATOM      6  N   UNL     1      39.793 136.337  16.378  1.00  0.00     0.020 NA
ATOM      7  C   UNL     1      41.755 135.878  17.298  1.00  0.00     0.140 A 
ATOM      8  N   UNL     1      40.442 135.439  15.648  1.00  0.00    -0.014 N 
ATOM      9  C   UNL     1      40.291 137.657  18.459  1.00  0.00     0.076 C 
ATOM     10  H   UNL     1      40.066 135.031  14.763  1.00  0.00     0.526 HD
BRANCH   7  11
ATOM     11  C   UNL     1      42.909 135.854  18.213  1.00  0.00     0.016 A 
ATOM     12  C   UNL     1      43.893 136.857  18.132  1.00  0.00     0.019 A 
ATOM     13  C   UNL     1      43.045 134.866  19.199  1.00  0.00     0.025 A 
ATOM     14  C   UNL     1      44.976 136.871  19.037  1.00  0.00    -0.017 A 
ATOM     15  C   UNL     1      44.078 134.885  20.096  1.00  0.00     0.024 A 
ATOM     16  C   UNL     1      42.236 133.635  19.397  1.00  0.00     0.301 C 
ATOM     17  C   UNL     1      45.948 137.881  18.969  1.00  0.00     0.009 A 
ATOM     18  C   UNL     1      45.074 135.871  20.042  1.00  0.00    -0.009 A 
ATOM     19  C   UNL     1      43.960 133.730  21.027  1.00  0.00     0.301 C 
ATOM     20  N   UNL     1      42.615 133.141  20.750  1.00  0.00    -0.321 N 
ATOM     21  C   UNL     1      47.008 137.897  19.880  1.00  0.00     0.001 A 
ATOM     22  C   UNL     1      46.146 135.899  20.948  1.00  0.00     0.009 A 
ATOM     23  C   UNL     1      47.106 136.910  20.864  1.00  0.00     0.001 A 
ATOM     24  C   UNL     1      42.659 131.661  20.780  1.00  0.00     0.334 C 
ATOM     25  C   UNL     1      41.633 133.624  21.754  1.00  0.00     0.334 C 
ENDBRANCH   7  11
ENDBRANCH   1   4
BRANCH   3  26
ATOM     26  O   UNL     1      40.642 133.209  14.358  1.00  0.00    -0.345 OA
ATOM     27  H   UNL     1      40.425 134.168  14.218  1.00  0.00     0.216 HD
ENDBRANCH   3  26
BRANCH   3  28
ATOM     28  N   UNL     1      42.744 131.943  14.466  1.00  0.00    -0.330 N 
ATOM     29  H   UNL     1      42.439 131.348  13.662  1.00  0.00     0.166 HD
BRANCH  28  30
ATOM     30  C   UNL     1      43.879 131.554  15.267  1.00  0.00     0.042 A 
ATOM     31  C   UNL     1      43.843 131.732  16.661  1.00  0.00     0.026 A 
ATOM     32  C   UNL     1      45.026 130.967  14.667  1.00  0.00    -0.010 A 
ATOM     33  C   UNL     1      44.909 131.319  17.457  1.00  0.00     0.004 A 
ATOM     34  C   UNL     1      46.105 130.557  15.493  1.00  0.00     0.057 A 
ATOM     35  C   UNL     1      46.034 130.742  16.878  1.00  0.00     0.020 A 
ATOM     36  C   UNL     1      45.077 130.777  13.168  1.00  0.00     0.048 C 
BRANCH  34  37
ATOM     37  C   UNL     1      47.292 129.935  14.954  1.00  0.00     0.099 C 
ATOM     38  N   UNL     1      48.246 129.440  14.523  1.00  0.00    -0.192 NA
ENDBRANCH  34  37
ENDBRANCH  28  30
ENDBRANCH   3  28
TORSDOF 6
ENDMDL
MODEL 8
REMARK VINA RESULT:      -5.6      1.989      5.638
REMARK SMILES Cc1n[nH+]n([C@@H]2O[C@@]2(O)Nc2cccc(C#N)c2C)c1-c1cc2ccccc2c2c1C[N+](C)(C)C2
REMARK SMILES IDX 6 1 7 2 8 3 5 4 2 5 3 6 20 7 4 8 1 9 21 11 22 12 30 13 23 14
REMARK SMILES IDX 29 15 31 16 24 17 28 18 35 19 32 20 25 21 27 22 26 23 33 24
REMARK SMILES IDX 34 25 9 26 10 28 11 30 12 31 18 32 13 33 15 34 14 35 19 36
REMARK SMILES IDX 16 37 17 38
REMARK H PARENT 4 10 9 27 10 29
ROOT
ATOM      1  C   UNL     1      43.348 134.919  15.635  1.00  0.00     0.368 C 
ATOM      2  O   UNL     1      42.962 134.694  14.294  1.00  0.00    -0.292 OA
ATOM      3  C   UNL     1      42.202 134.051  15.290  1.00  0.00     0.302 C 
ENDROOT
BRANCH   1   4
ATOM      4  N   UNL     1      43.001 136.271  16.076  1.00  0.00    -0.091 N 
ATOM      5  C   UNL     1      42.465 138.036  17.256  1.00  0.00     0.137 A 
ATOM      6  N   UNL     1      42.520 138.406  15.958  1.00  0.00     0.020 NA
ATOM      7  C   UNL     1      42.792 136.694  17.337  1.00  0.00     0.140 A 
ATOM      8  N   UNL     1      42.838 137.315  15.274  1.00  0.00    -0.014 N 
ATOM      9  C   UNL     1      42.238 138.982  18.390  1.00  0.00     0.076 C 
ATOM     10  H   UNL     1      42.951 137.294  14.236  1.00  0.00     0.526 HD
BRANCH   7  11
ATOM     11  C   UNL     1      42.857 135.859  18.548  1.00  0.00     0.016 A 
ATOM     12  C   UNL     1      44.105 135.499  19.090  1.00  0.00     0.019 A 
ATOM     13  C   UNL     1      41.697 135.431  19.209  1.00  0.00     0.025 A 
ATOM     14  C   UNL     1      44.178 134.742  20.278  1.00  0.00    -0.017 A 
ATOM     15  C   UNL     1      41.757 134.718  20.375  1.00  0.00     0.024 A 
ATOM     16  C   UNL     1      40.282 135.550  18.771  1.00  0.00     0.301 C 
ATOM     17  C   UNL     1      45.422 134.398  20.829  1.00  0.00     0.009 A 
ATOM     18  C   UNL     1      42.985 134.344  20.940  1.00  0.00    -0.009 A 
ATOM     19  C   UNL     1      40.380 134.414  20.853  1.00  0.00     0.301 C 
ATOM     20  N   UNL     1      39.476 135.222  19.980  1.00  0.00    -0.321 N 
ATOM     21  C   UNL     1      45.485 133.663  22.016  1.00  0.00     0.001 A 
ATOM     22  C   UNL     1      43.064 133.603  22.130  1.00  0.00     0.009 A 
ATOM     23  C   UNL     1      44.311 133.267  22.663  1.00  0.00     0.001 A 
ATOM     24  C   UNL     1      38.259 134.462  19.616  1.00  0.00     0.334 C 
ATOM     25  C   UNL     1      39.084 136.474  20.677  1.00  0.00     0.334 C 
ENDBRANCH   7  11
ENDBRANCH   1   4
BRANCH   3  26
ATOM     26  O   UNL     1      40.889 134.539  15.337  1.00  0.00    -0.345 OA
ATOM     27  H   UNL     1      40.676 134.637  16.302  1.00  0.00     0.216 HD
ENDBRANCH   3  26
BRANCH   3  28
ATOM     28  N   UNL     1      42.400 132.604  15.287  1.00  0.00    -0.330 N 
ATOM     29  H   UNL     1      41.613 132.014  14.934  1.00  0.00     0.166 HD
BRANCH  28  30
ATOM     30  C   UNL     1      43.634 131.988  15.710  1.00  0.00     0.042 A 
ATOM     31  C   UNL     1      44.614 131.661  14.757  1.00  0.00     0.026 A 
ATOM     32  C   UNL     1      43.883 131.728  17.086  1.00  0.00    -0.010 A 
ATOM     33  C   UNL     1      45.832 131.110  15.150  1.00  0.00     0.004 A 
ATOM     34  C   UNL     1      45.127 131.161  17.468  1.00  0.00     0.057 A 
ATOM     35  C   UNL     1      46.084 130.855  16.494  1.00  0.00     0.020 A 
ATOM     36  C   UNL     1      42.832 132.069  18.118  1.00  0.00     0.048 C 
BRANCH  34  37
ATOM     37  C   UNL     1      45.456 130.889  18.847  1.00  0.00     0.099 C 
ATOM     38  N   UNL     1      45.722 130.671  19.953  1.00  0.00    -0.192 NA
ENDBRANCH  34  37
ENDBRANCH  28  30
ENDBRANCH   3  28
TORSDOF 6
ENDMDL
MODEL 9
REMARK VINA RESULT:      -5.6      2.413      6.055
REMARK SMILES Cc1n[nH+]n([C@@H]2O[C@@]2(O)Nc2cccc(C#N)c2C)c1-c1cc2ccccc2c2c1C[N+](C)(C)C2
REMARK SMILES IDX 6 1 7 2 8 3 5 4 2 5 3 6 20 7 4 8 1 9 21 11 22 12 30 13 23 14
REMARK SMILES IDX 29 15 31 16 24 17 28 18 35 19 32 20 25 21 27 22 26 23 33 24
REMARK SMILES IDX 34 25 9 26 10 28 11 30 12 31 18 32 13 33 15 34 14 35 19 36
REMARK SMILES IDX 16 37 17 38
REMARK H PARENT 4 10 9 27 10 29
ROOT
ATOM      1  C   UNL     1      43.065 133.701  16.939  1.00  0.00     0.368 C 
ATOM      2  O   UNL     1      42.535 133.002  15.830  1.00  0.00    -0.292 OA
ATOM      3  C   UNL     1      42.745 132.260  17.009  1.00  0.00     0.302 C 
ENDROOT
BRANCH   1   4
ATOM      4  N   UNL     1      42.072 134.594  17.538  1.00  0.00    -0.091 N 
ATOM      5  C   UNL     1      41.038 136.086  18.763  1.00  0.00     0.137 A 
ATOM      6  N   UNL     1      40.133 135.541  17.923  1.00  0.00     0.020 NA
ATOM      7  C   UNL     1      42.269 135.507  18.507  1.00  0.00     0.140 A 
ATOM      8  N   UNL     1      40.789 134.640  17.204  1.00  0.00    -0.014 N 
ATOM      9  C   UNL     1      40.748 137.223  19.688  1.00  0.00     0.076 C 
ATOM     10  H   UNL     1      40.343 134.052  16.465  1.00  0.00     0.526 HD
BRANCH   7  11
ATOM     11  C   UNL     1      43.548 135.785  19.183  1.00  0.00     0.016 A 
ATOM     12  C   UNL     1      44.377 136.825  18.722  1.00  0.00     0.019 A 
ATOM     13  C   UNL     1      43.958 135.057  20.308  1.00  0.00     0.025 A 
ATOM     14  C   UNL     1      45.580 137.132  19.392  1.00  0.00    -0.017 A 
ATOM     15  C   UNL     1      45.110 135.362  20.980  1.00  0.00     0.024 A 
ATOM     16  C   UNL     1      43.347 133.837  20.897  1.00  0.00     0.301 C 
ATOM     17  C   UNL     1      46.398 138.180  18.944  1.00  0.00     0.009 A 
ATOM     18  C   UNL     1      45.957 136.393  20.546  1.00  0.00    -0.009 A 
ATOM     19  C   UNL     1      45.283 134.437  22.133  1.00  0.00     0.301 C 
ATOM     20  N   UNL     1      43.993 133.690  22.231  1.00  0.00    -0.321 N 
ATOM     21  C   UNL     1      47.579 138.488  19.626  1.00  0.00     0.001 A 
ATOM     22  C   UNL     1      47.148 136.712  21.218  1.00  0.00     0.009 A 
ATOM     23  C   UNL     1      47.952 137.757  20.757  1.00  0.00     0.001 A 
ATOM     24  C   UNL     1      44.222 132.262  22.555  1.00  0.00     0.334 C 
ATOM     25  C   UNL     1      43.131 134.298  23.276  1.00  0.00     0.334 C 
ENDBRANCH   7  11
ENDBRANCH   1   4
BRANCH   3  26
ATOM     26  O   UNL     1      41.538 131.815  17.566  1.00  0.00    -0.345 OA
ATOM     27  H   UNL     1      41.323 132.465  18.285  1.00  0.00     0.216 HD
ENDBRANCH   3  26
BRANCH   3  28
ATOM     28  N   UNL     1      43.834 131.297  16.866  1.00  0.00    -0.330 N 
ATOM     29  H   UNL     1      44.173 130.824  17.734  1.00  0.00     0.166 HD
BRANCH  28  30
ATOM     30  C   UNL     1      44.414 130.964  15.587  1.00  0.00     0.042 A 
ATOM     31  C   UNL     1      43.676 131.178  14.409  1.00  0.00     0.026 A 
ATOM     32  C   UNL     1      45.734 130.443  15.499  1.00  0.00    -0.010 A 
ATOM     33  C   UNL     1      44.235 130.908  13.162  1.00  0.00     0.004 A 
ATOM     34  C   UNL     1      46.285 130.169  14.221  1.00  0.00     0.057 A 
ATOM     35  C   UNL     1      45.527 130.401  13.068  1.00  0.00     0.020 A 
ATOM     36  C   UNL     1      46.532 130.203  16.761  1.00  0.00     0.048 C 
BRANCH  34  37
ATOM     37  C   UNL     1      47.626 129.659  14.056  1.00  0.00     0.099 C 
ATOM     38  N   UNL     1      48.702 129.252  13.923  1.00  0.00    -0.192 NA
ENDBRANCH  34  37
ENDBRANCH  28  30
ENDBRANCH   3  28
TORSDOF 6
ENDMDL


