REMARK SMILES C#CCO/C([O-])=C\[C@H]1CC[C@@H]2C(O)=Nc3c(N=[N+]=[N-])cc(Cl)c1c32
REMARK SMILES IDX 5 1 6 2 4 3 3 4 2 5 1 6 7 7 8 8 23 9 9 10 21 11 24 12 10 13
REMARK SMILES IDX 20 14 15 15 11 16 16 17 14 18 12 19 22 20 17 21 18 22 19 23
REMARK SMILES IDX 13 24
REMARK H PARENT 13 25
ROOT
ATOM      1  C   UNL     1       2.814   0.185   1.359  1.00  0.00     0.049 C 
ATOM      2  O   UNL     1       4.023   0.610   1.902  1.00  0.00    -0.547 OA
ENDROOT
BRANCH   1   3
ATOM      3  O   UNL     1       1.645   0.915   1.591  1.00  0.00    -0.601 OA
BRANCH   3   4
ATOM      4  C   UNL     1       1.627   2.111   2.356  1.00  0.00     0.160 C 
BRANCH   4   5
ATOM      5  C   UNL     1       0.266   2.648   2.368  1.00  0.00    -0.095 C 
ATOM      6  C   UNL     1      -0.857   3.086   2.373  1.00  0.00     0.005 C 
ENDBRANCH   4   5
ENDBRANCH   3   4
ENDBRANCH   1   3
BRANCH   1   7
ATOM      7  C   UNL     1       2.784  -0.922   0.610  1.00  0.00     0.005 C 
BRANCH   7   8
ATOM      8  C   UNL     1       1.524  -1.464  -0.028  1.00  0.00     0.045 C 
ATOM      9  C   UNL     1       0.869  -0.424  -0.932  1.00  0.00    -0.016 A 
ATOM     10  C   UNL     1       0.571  -2.076   1.056  1.00  0.00     0.014 C 
ATOM     11  C   UNL     1       1.433  -0.006  -2.162  1.00  0.00     0.045 A 
ATOM     12  C   UNL     1      -0.433  -0.012  -0.652  1.00  0.00    -0.004 A 
ATOM     13  C   UNL     1      -0.927  -1.980   0.696  1.00  0.00     0.019 C 
ATOM     14  C   UNL     1       0.649   0.717  -3.088  1.00  0.00     0.033 A 
ATOM     15  C   UNL     1      -1.233   0.572  -1.597  1.00  0.00     0.081 A 
ATOM     16  C   UNL     1      -1.272  -0.511   0.454  1.00  0.00     0.108 C 
ATOM     17  C   UNL     1      -0.712   0.975  -2.837  1.00  0.00     0.065 A 
ATOM     18  N   UNL     1      -2.604   0.413  -1.257  1.00  0.00    -0.217 NA
ATOM     19  C   UNL     1      -2.631  -0.231  -0.128  1.00  0.00     0.193 C 
ATOM     20  Cl  UNL     1       3.074  -0.446  -2.618  1.00  0.00    -0.084 Cl
BRANCH  17  21
ATOM     21  N   UNL     1      -1.510   1.590  -3.858  1.00  0.00    -0.058 NA
BRANCH  21  22
ATOM     22  N   UNL     1      -2.691   1.894  -3.685  1.00  0.00     0.005 N 
ATOM     23  N   UNL     1      -3.871   2.199  -3.516  1.00  0.00    -0.003 NA
ENDBRANCH  21  22
ENDBRANCH  17  21
BRANCH  19  24
ATOM     24  O   UNL     1      -3.821  -0.584   0.499  1.00  0.00    -0.496 OA
ATOM     25  H   UNL     1      -4.715  -0.361   0.079  1.00  0.00     0.294 HD
ENDBRANCH  19  24
ENDBRANCH   7   8
ENDBRANCH   1   7
TORSDOF 8


