REMARK SMILES [N-]=[N+]=Nc1cc(Cl)cc2c(CNO)c(OCCc3cn(C[C@H](N=[N+]=[N-])C(=O)[O-])nn3)ccc12
REMARK SMILES IDX 16 1 15 2 14 3 10 4 9 5 31 6 8 7 33 8 32 9 6 10 4 11 5 12
REMARK SMILES IDX 7 13 11 14 12 15 13 17 3 19 2 20 1 21 17 22 18 23 30 24
REMARK SMILES IDX 19 25 29 26 20 27 21 28 22 29 23 30 24 31 25 32 26 33 27 34
REMARK SMILES IDX 28 35
REMARK H PARENT 12 16 13 18
ROOT
ATOM      1  C   UNL     1      -3.029  -0.445   0.968  1.00  0.00     0.236 C 
ENDROOT
BRANCH   1   2
ATOM      2  O   UNL     1      -1.761   0.107   1.326  1.00  0.00    -0.493 OA
BRANCH   2   3
ATOM      3  C   UNL     1      -1.108   1.170   0.674  1.00  0.00     0.124 A 
ATOM      4  C   UNL     1       0.240   1.454   1.003  1.00  0.00     0.018 A 
ATOM      5  C   UNL     1       0.907   2.547   0.369  1.00  0.00    -0.008 A 
ATOM      6  C   UNL     1      -1.768   1.950  -0.290  1.00  0.00     0.047 A 
ATOM      7  C   UNL     1       2.236   2.909   0.694  1.00  0.00     0.029 A 
ATOM      8  C   UNL     1       0.222   3.307  -0.624  1.00  0.00    -0.008 A 
ATOM      9  C   UNL     1      -1.111   2.990  -0.938  1.00  0.00     0.013 A 
ATOM     10  C   UNL     1       2.875   3.965   0.041  1.00  0.00     0.042 A 
ATOM     11  C   UNL     1       0.880   4.372  -1.288  1.00  0.00     0.047 A 
ATOM     12  C   UNL     1       2.207   4.687  -0.945  1.00  0.00     0.031 A 
ATOM     13  Cl  UNL     1       4.527   4.388   0.464  1.00  0.00    -0.084 Cl
BRANCH   4  14
ATOM     14  C   UNL     1       0.923   0.598   2.057  1.00  0.00     0.151 C 
BRANCH  14  15
ATOM     15  N   UNL     1       0.791   1.218   3.375  1.00  0.00    -0.201 NA
ATOM     16  H   UNL     1       1.384   2.082   3.396  1.00  0.00     0.155 HD
BRANCH  15  17
ATOM     17  O   UNL     1       1.319   0.368   4.291  1.00  0.00    -0.316 OA
ATOM     18  H   UNL     1       0.637   0.322   5.010  1.00  0.00     0.238 HD
ENDBRANCH  15  17
ENDBRANCH  14  15
ENDBRANCH   4  14
BRANCH  11  19
ATOM     19  N   UNL     1       0.187   5.120  -2.306  1.00  0.00    -0.060 NA
BRANCH  19  20
ATOM     20  N   UNL     1       0.734   6.000  -2.976  1.00  0.00     0.005 N 
ATOM     21  N   UNL     1       1.276   6.876  -3.647  1.00  0.00    -0.003 NA
ENDBRANCH  19  20
ENDBRANCH  11  19
ENDBRANCH   2   3
ENDBRANCH   1   2
BRANCH   1  22
ATOM     22  C   UNL     1      -2.952  -1.212  -0.356  1.00  0.00     0.101 C 
BRANCH  22  23
ATOM     23  C   UNL     1      -2.070  -2.418  -0.249  1.00  0.00     0.086 A 
ATOM     24  N   UNL     1      -2.507  -3.693  -0.326  1.00  0.00    -0.135 NA
ATOM     25  C   UNL     1      -0.702  -2.436  -0.092  1.00  0.00     0.134 A 
ATOM     26  N   UNL     1      -1.438  -4.469  -0.217  1.00  0.00    -0.067 NA
ATOM     27  N   UNL     1      -0.348  -3.732  -0.069  1.00  0.00    -0.251 N 
BRANCH  27  28
ATOM     28  C   UNL     1       1.006  -4.274   0.030  1.00  0.00     0.161 C 
BRANCH  28  29
ATOM     29  C   UNL     1       1.767  -4.157  -1.308  1.00  0.00     0.141 C 
BRANCH  29  30
ATOM     30  N   UNL     1       2.022  -2.757  -1.649  1.00  0.00    -0.083 NA
BRANCH  30  31
ATOM     31  N   UNL     1       2.728  -2.044  -0.934  1.00  0.00     0.002 N 
ATOM     32  N   UNL     1       3.432  -1.332  -0.217  1.00  0.00    -0.003 NA
ENDBRANCH  30  31
ENDBRANCH  29  30
BRANCH  29  33
ATOM     33  C   UNL     1       1.006  -4.831  -2.416  1.00  0.00     0.052 C 
ATOM     34  O   UNL     1       0.246  -4.163  -3.173  1.00  0.00    -0.550 OA
ATOM     35  O   UNL     1       1.059  -6.213  -2.552  1.00  0.00    -0.550 OA
ENDBRANCH  29  33
ENDBRANCH  28  29
ENDBRANCH  27  28
ENDBRANCH  22  23
ENDBRANCH   1  22
TORSDOF 14


