REMARK SMILES [N-]=[N+]=Nc1cc(Cl)cc2c(CNO)c(OCCc3cn(C[C@H](N)C(=O)[O-])nn3)ccc12
REMARK SMILES IDX 16 1 15 2 14 3 10 4 9 5 29 6 8 7 31 8 30 9 6 10 4 11 5 12
REMARK SMILES IDX 7 13 11 14 12 15 13 17 3 19 2 20 1 21 17 22 18 23 28 24
REMARK SMILES IDX 19 25 27 26 20 27 21 28 22 29 24 30 25 31 26 32 23 33
REMARK H PARENT 12 16 13 18 23 34 23 35
ROOT
ATOM      1  C   UNL     1      -0.934  -3.121   1.822  1.00  0.00     0.236 C 
ENDROOT
BRANCH   1   2
ATOM      2  O   UNL     1      -0.340  -1.855   1.545  1.00  0.00    -0.493 OA
BRANCH   2   3
ATOM      3  C   UNL     1       0.849  -1.660   0.822  1.00  0.00     0.124 A 
ATOM      4  C   UNL     1       1.263  -0.340   0.533  1.00  0.00     0.018 A 
ATOM      5  C   UNL     1       2.499  -0.124  -0.147  1.00  0.00    -0.008 A 
ATOM      6  C   UNL     1       1.622  -2.746   0.390  1.00  0.00     0.047 A 
ATOM      7  C   UNL     1       3.001   1.172  -0.404  1.00  0.00     0.029 A 
ATOM      8  C   UNL     1       3.266  -1.244  -0.582  1.00  0.00    -0.008 A 
ATOM      9  C   UNL     1       2.805  -2.542  -0.309  1.00  0.00     0.013 A 
ATOM     10  C   UNL     1       4.204   1.354  -1.084  1.00  0.00     0.042 A 
ATOM     11  C   UNL     1       4.484  -1.050  -1.276  1.00  0.00     0.047 A 
ATOM     12  C   UNL     1       4.938   0.256  -1.522  1.00  0.00     0.031 A 
ATOM     13  Cl  UNL     1       4.800   2.977  -1.388  1.00  0.00    -0.084 Cl
BRANCH   4  14
ATOM     14  C   UNL     1       0.369   0.798   1.000  1.00  0.00     0.151 C 
BRANCH  14  15
ATOM     15  N   UNL     1       0.634   1.114   2.403  1.00  0.00    -0.201 NA
ATOM     16  H   UNL     1      -0.119   1.762   2.730  1.00  0.00     0.155 HD
BRANCH  15  17
ATOM     17  O   UNL     1       1.797   1.809   2.470  1.00  0.00    -0.316 OA
ATOM     18  H   UNL     1       2.385   1.258   3.047  1.00  0.00     0.238 HD
ENDBRANCH  15  17
ENDBRANCH  14  15
ENDBRANCH   4  14
BRANCH  11  19
ATOM     19  N   UNL     1       5.248  -2.186  -1.720  1.00  0.00    -0.060 NA
BRANCH  19  20
ATOM     20  N   UNL     1       6.314  -2.073  -2.327  1.00  0.00     0.005 N 
ATOM     21  N   UNL     1       7.379  -1.962  -2.933  1.00  0.00    -0.003 NA
ENDBRANCH  19  20
ENDBRANCH  11  19
ENDBRANCH   2   3
ENDBRANCH   1   2
BRANCH   1  22
ATOM     22  C   UNL     1      -2.254  -2.920   2.564  1.00  0.00     0.101 C 
BRANCH  22  23
ATOM     23  C   UNL     1      -3.206  -2.101   1.748  1.00  0.00     0.086 A 
ATOM     24  N   UNL     1      -3.954  -2.583   0.735  1.00  0.00    -0.135 NA
ATOM     25  C   UNL     1      -3.370  -0.734   1.802  1.00  0.00     0.134 A 
ATOM     26  N   UNL     1      -4.573  -1.543   0.193  1.00  0.00    -0.067 NA
ATOM     27  N   UNL     1      -4.238  -0.429   0.824  1.00  0.00    -0.250 N 
BRANCH  27  28
ATOM     28  C   UNL     1      -4.689   0.906   0.440  1.00  0.00     0.170 C 
BRANCH  28  29
ATOM     29  C   UNL     1      -3.582   1.672  -0.304  1.00  0.00     0.119 C 
BRANCH  29  30
ATOM     30  C   UNL     1      -3.175   0.932  -1.548  1.00  0.00     0.060 C 
ATOM     31  O   UNL     1      -2.062   0.346  -1.601  1.00  0.00    -0.548 OA
ATOM     32  O   UNL     1      -4.038   0.865  -2.635  1.00  0.00    -0.548 OA
ENDBRANCH  29  30
BRANCH  29  33
ATOM     33  N   UNL     1      -4.054   3.010  -0.661  1.00  0.00    -0.321 NA
ATOM     34  H   UNL     1      -3.266   3.525  -1.118  1.00  0.00     0.119 HD
ATOM     35  H   UNL     1      -4.264   3.532   0.221  1.00  0.00     0.119 HD
ENDBRANCH  29  33
ENDBRANCH  28  29
ENDBRANCH  27  28
ENDBRANCH  22  23
ENDBRANCH   1  22
TORSDOF 13


