MODEL 1
REMARK VINA RESULT:      -7.7      0.000      0.000
REMARK SMILES C[C@H](Cl)[C@@H]1[C@H](C)N(C(=O)OCC(F)F)NN1c1ccc2c3c(ccc(N)c13)CC2
REMARK SMILES IDX 8 1 9 2 7 3 4 4 5 5 16 6 15 7 6 8 2 10 1 11 3 12 17 13 18 14
REMARK SMILES IDX 27 15 19 16 25 17 21 18 20 19 24 20 22 21 29 22 23 23 28 24
REMARK SMILES IDX 26 25 10 28 11 29 12 30 13 31 14 32
REMARK H PARENT 15 9 26 26 26 27
ROOT
ATOM      1  C   UNL     1      44.748 131.183  14.901  1.00  0.00     0.426 C 
ATOM      2  O   UNL     1      44.646 129.925  14.930  1.00  0.00    -0.223 OA
ENDROOT
BRANCH   1   3
ATOM      3  N   UNL     1      43.722 132.002  15.480  1.00  0.00    -0.220 N 
ATOM      4  C   UNL     1      41.841 132.621  16.713  1.00  0.00     0.144 C 
ATOM      5  C   UNL     1      43.129 131.770  16.789  1.00  0.00     0.131 C 
ATOM      6  N   UNL     1      42.148 133.560  15.624  1.00  0.00    -0.283 N 
ATOM      7  N   UNL     1      43.215 133.126  14.814  1.00  0.00    -0.139 NA
ATOM      8  C   UNL     1      44.154 132.209  17.854  1.00  0.00     0.035 C 
ATOM      9  H   UNL     1      42.808 132.787  13.910  1.00  0.00     0.175 HD
BRANCH   4  10
ATOM     10  C   UNL     1      41.381 133.283  18.050  1.00  0.00     0.104 C 
ATOM     11  C   UNL     1      39.852 133.429  18.092  1.00  0.00     0.027 C 
ATOM     12  Cl  UNL     1      42.035 134.935  18.267  1.00  0.00    -0.121 Cl
ENDBRANCH   4  10
BRANCH   6  13
ATOM     13  C   UNL     1      41.183 134.456  15.060  1.00  0.00     0.064 A 
ATOM     14  C   UNL     1      39.918 133.932  14.688  1.00  0.00     0.028 A 
ATOM     15  C   UNL     1      41.452 135.846  14.874  1.00  0.00     0.030 A 
ATOM     16  C   UNL     1      38.915 134.760  14.155  1.00  0.00     0.006 A 
ATOM     17  C   UNL     1      42.646 136.550  15.225  1.00  0.00     0.042 A 
ATOM     18  C   UNL     1      40.404 136.616  14.354  1.00  0.00    -0.008 A 
ATOM     19  C   UNL     1      39.188 136.115  14.001  1.00  0.00    -0.039 A 
ATOM     20  C   UNL     1      42.691 137.960  15.072  1.00  0.00     0.026 A 
ATOM     21  C   UNL     1      40.456 137.965  14.187  1.00  0.00    -0.039 A 
ATOM     22  C   UNL     1      38.288 137.206  13.515  1.00  0.00     0.041 C 
ATOM     23  C   UNL     1      41.597 138.672  14.549  1.00  0.00     0.006 A 
ATOM     24  C   UNL     1      39.161 138.483  13.646  1.00  0.00     0.041 C 
BRANCH  17  25
ATOM     25  N   UNL     1      43.816 135.893  15.721  1.00  0.00    -0.398 N 
ATOM     26  H   UNL     1      43.938 135.685  16.732  1.00  0.00     0.156 HD
ATOM     27  H   UNL     1      44.444 135.377  15.064  1.00  0.00     0.156 HD
ENDBRANCH  17  25
ENDBRANCH   6  13
ENDBRANCH   1   3
BRANCH   1  28
ATOM     28  O   UNL     1      45.854 131.790  14.299  1.00  0.00    -0.442 OA
BRANCH  28  29
ATOM     29  C   UNL     1      47.118 131.145  14.189  1.00  0.00     0.308 C 
BRANCH  29  30
ATOM     30  C   UNL     1      47.348 130.712  12.748  1.00  0.00     0.379 C 
ATOM     31  F   UNL     1      47.899 129.444  12.725  1.00  0.00    -0.207 F 
ATOM     32  F   UNL     1      46.147 130.700  12.062  1.00  0.00    -0.207 F 
ENDBRANCH  29  30
ENDBRANCH  28  29
ENDBRANCH   1  28
TORSDOF 7
ENDMDL
MODEL 2
REMARK VINA RESULT:      -7.5      1.121      1.260
REMARK SMILES C[C@H](Cl)[C@@H]1[C@H](C)N(C(=O)OCC(F)F)NN1c1ccc2c3c(ccc(N)c13)CC2
REMARK SMILES IDX 8 1 9 2 7 3 4 4 5 5 16 6 15 7 6 8 2 10 1 11 3 12 17 13 18 14
REMARK SMILES IDX 27 15 19 16 25 17 21 18 20 19 24 20 22 21 29 22 23 23 28 24
REMARK SMILES IDX 26 25 10 28 11 29 12 30 13 31 14 32
REMARK H PARENT 15 9 26 26 26 27
ROOT
ATOM      1  C   UNL     1      45.062 130.234  14.609  1.00  0.00     0.426 C 
ATOM      2  O   UNL     1      45.070 129.037  15.012  1.00  0.00    -0.223 OA
ENDROOT
BRANCH   1   3
ATOM      3  N   UNL     1      44.228 131.205  15.255  1.00  0.00    -0.220 N 
ATOM      4  C   UNL     1      42.622 132.125  16.675  1.00  0.00     0.144 C 
ATOM      5  C   UNL     1      43.802 131.127  16.644  1.00  0.00     0.131 C 
ATOM      6  N   UNL     1      42.879 132.952  15.488  1.00  0.00    -0.283 N 
ATOM      7  N   UNL     1      43.764 132.342  14.578  1.00  0.00    -0.139 NA
ATOM      8  C   UNL     1      45.010 131.498  17.528  1.00  0.00     0.035 C 
ATOM      9  H   UNL     1      43.199 132.003  13.765  1.00  0.00     0.175 HD
BRANCH   4  10
ATOM     10  C   UNL     1      42.433 132.916  18.007  1.00  0.00     0.104 C 
ATOM     11  C   UNL     1      42.327 131.959  19.204  1.00  0.00     0.027 C 
ATOM     12  Cl  UNL     1      40.932 133.891  18.028  1.00  0.00    -0.121 Cl
ENDBRANCH   4  10
BRANCH   6  13
ATOM     13  C   UNL     1      41.952 133.925  14.990  1.00  0.00     0.064 A 
ATOM     14  C   UNL     1      40.763 133.464  14.369  1.00  0.00     0.028 A 
ATOM     15  C   UNL     1      42.187 135.329  15.109  1.00  0.00     0.030 A 
ATOM     16  C   UNL     1      39.799 134.364  13.884  1.00  0.00     0.006 A 
ATOM     17  C   UNL     1      43.301 135.970  15.734  1.00  0.00     0.042 A 
ATOM     18  C   UNL     1      41.178 136.169  14.620  1.00  0.00    -0.008 A 
ATOM     19  C   UNL     1      40.034 135.728  14.029  1.00  0.00    -0.039 A 
ATOM     20  C   UNL     1      43.307 137.383  15.862  1.00  0.00     0.026 A 
ATOM     21  C   UNL     1      41.196 137.525  14.723  1.00  0.00    -0.039 A 
ATOM     22  C   UNL     1      39.155 136.878  13.652  1.00  0.00     0.041 C 
ATOM     23  C   UNL     1      42.256 138.166  15.353  1.00  0.00     0.006 A 
ATOM     24  C   UNL     1      39.955 138.118  14.133  1.00  0.00     0.041 C 
BRANCH  17  25
ATOM     25  N   UNL     1      44.429 135.248  16.238  1.00  0.00    -0.398 N 
ATOM     26  H   UNL     1      44.387 134.728  17.137  1.00  0.00     0.156 HD
ATOM     27  H   UNL     1      45.221 135.006  15.601  1.00  0.00     0.156 HD
ENDBRANCH  17  25
ENDBRANCH   6  13
ENDBRANCH   1   3
BRANCH   1  28
ATOM     28  O   UNL     1      45.858 130.620  13.527  1.00  0.00    -0.442 OA
BRANCH  28  29
ATOM     29  C   UNL     1      47.144 131.208  13.689  1.00  0.00     0.308 C 
BRANCH  29  30
ATOM     30  C   UNL     1      48.220 130.165  13.425  1.00  0.00     0.379 C 
ATOM     31  F   UNL     1      48.269 129.269  14.477  1.00  0.00    -0.207 F 
ATOM     32  F   UNL     1      47.939 129.482  12.257  1.00  0.00    -0.207 F 
ENDBRANCH  29  30
ENDBRANCH  28  29
ENDBRANCH   1  28
TORSDOF 7
ENDMDL
MODEL 3
REMARK VINA RESULT:      -7.4      1.025      1.135
REMARK SMILES C[C@H](Cl)[C@@H]1[C@H](C)N(C(=O)OCC(F)F)NN1c1ccc2c3c(ccc(N)c13)CC2
REMARK SMILES IDX 8 1 9 2 7 3 4 4 5 5 16 6 15 7 6 8 2 10 1 11 3 12 17 13 18 14
REMARK SMILES IDX 27 15 19 16 25 17 21 18 20 19 24 20 22 21 29 22 23 23 28 24
REMARK SMILES IDX 26 25 10 28 11 29 12 30 13 31 14 32
REMARK H PARENT 15 9 26 26 26 27
ROOT
ATOM      1  C   UNL     1      44.699 130.411  14.898  1.00  0.00     0.426 C 
ATOM      2  O   UNL     1      44.998 129.381  15.563  1.00  0.00    -0.223 OA
ENDROOT
BRANCH   1   3
ATOM      3  N   UNL     1      43.869 131.427  15.480  1.00  0.00    -0.220 N 
ATOM      4  C   UNL     1      42.307 132.455  16.873  1.00  0.00     0.144 C 
ATOM      5  C   UNL     1      43.512 131.487  16.888  1.00  0.00     0.131 C 
ATOM      6  N   UNL     1      42.485 133.157  15.594  1.00  0.00    -0.283 N 
ATOM      7  N   UNL     1      43.343 132.475  14.711  1.00  0.00    -0.139 NA
ATOM      8  C   UNL     1      44.748 131.977  17.667  1.00  0.00     0.035 C 
ATOM      9  H   UNL     1      42.750 132.038  13.967  1.00  0.00     0.175 HD
BRANCH   4  10
ATOM     10  C   UNL     1      42.159 133.379  18.122  1.00  0.00     0.104 C 
ATOM     11  C   UNL     1      42.152 132.554  19.418  1.00  0.00     0.027 C 
ATOM     12  Cl  UNL     1      40.625 134.303  18.124  1.00  0.00    -0.121 Cl
ENDBRANCH   4  10
BRANCH   6  13
ATOM     13  C   UNL     1      41.510 134.052  15.044  1.00  0.00     0.064 A 
ATOM     14  C   UNL     1      40.284 133.506  14.580  1.00  0.00     0.028 A 
ATOM     15  C   UNL     1      41.731 135.460  14.957  1.00  0.00     0.030 A 
ATOM     16  C   UNL     1      39.274 134.329  14.055  1.00  0.00     0.006 A 
ATOM     17  C   UNL     1      42.880 136.184  15.407  1.00  0.00     0.042 A 
ATOM     18  C   UNL     1      40.677 136.223  14.439  1.00  0.00    -0.008 A 
ATOM     19  C   UNL     1      39.499 135.701  14.000  1.00  0.00    -0.039 A 
ATOM     20  C   UNL     1      42.875 137.601  15.345  1.00  0.00     0.026 A 
ATOM     21  C   UNL     1      40.682 137.580  14.360  1.00  0.00    -0.039 A 
ATOM     22  C   UNL     1      38.578 136.787  13.542  1.00  0.00     0.041 C 
ATOM     23  C   UNL     1      41.777 138.305  14.818  1.00  0.00     0.006 A 
ATOM     24  C   UNL     1      39.392 138.083  13.793  1.00  0.00     0.041 C 
BRANCH  17  25
ATOM     25  N   UNL     1      44.052 135.540  15.915  1.00  0.00    -0.398 N 
ATOM     26  H   UNL     1      44.872 135.341  15.308  1.00  0.00     0.156 HD
ATOM     27  H   UNL     1      44.218 135.497  16.945  1.00  0.00     0.156 HD
ENDBRANCH  17  25
ENDBRANCH   6  13
ENDBRANCH   1   3
BRANCH   1  28
ATOM     28  O   UNL     1      45.165 130.568  13.590  1.00  0.00    -0.442 OA
BRANCH  28  29
ATOM     29  C   UNL     1      46.465 130.157  13.182  1.00  0.00     0.308 C 
BRANCH  29  30
ATOM     30  C   UNL     1      47.507 131.098  13.769  1.00  0.00     0.379 C 
ATOM     31  F   UNL     1      48.229 131.689  12.748  1.00  0.00    -0.207 F 
ATOM     32  F   UNL     1      46.886 132.081  14.517  1.00  0.00    -0.207 F 
ENDBRANCH  29  30
ENDBRANCH  28  29
ENDBRANCH   1  28
TORSDOF 7
ENDMDL
MODEL 4
REMARK VINA RESULT:      -7.4      1.565      2.729
REMARK SMILES C[C@H](Cl)[C@@H]1[C@H](C)N(C(=O)OCC(F)F)NN1c1ccc2c3c(ccc(N)c13)CC2
REMARK SMILES IDX 8 1 9 2 7 3 4 4 5 5 16 6 15 7 6 8 2 10 1 11 3 12 17 13 18 14
REMARK SMILES IDX 27 15 19 16 25 17 21 18 20 19 24 20 22 21 29 22 23 23 28 24
REMARK SMILES IDX 26 25 10 28 11 29 12 30 13 31 14 32
REMARK H PARENT 15 9 26 26 26 27
ROOT
ATOM      1  C   UNL     1      46.213 131.241  15.318  1.00  0.00     0.426 C 
ATOM      2  O   UNL     1      46.943 130.343  15.821  1.00  0.00    -0.223 OA
ENDROOT
BRANCH   1   3
ATOM      3  N   UNL     1      45.327 132.000  16.152  1.00  0.00    -0.220 N 
ATOM      4  C   UNL     1      43.502 132.536  17.503  1.00  0.00     0.144 C 
ATOM      5  C   UNL     1      44.571 131.445  17.264  1.00  0.00     0.131 C 
ATOM      6  N   UNL     1      44.106 133.712  16.861  1.00  0.00    -0.283 N 
ATOM      7  N   UNL     1      45.135 133.376  15.960  1.00  0.00    -0.139 NA
ATOM      8  C   UNL     1      45.552 131.210  18.430  1.00  0.00     0.035 C 
ATOM      9  H   UNL     1      44.760 133.498  14.990  1.00  0.00     0.175 HD
BRANCH   4  10
ATOM     10  C   UNL     1      43.058 132.743  18.985  1.00  0.00     0.104 C 
ATOM     11  C   UNL     1      41.646 133.343  19.055  1.00  0.00     0.027 C 
ATOM     12  Cl  UNL     1      44.116 133.882  19.873  1.00  0.00    -0.121 Cl
ENDBRANCH   4  10
BRANCH   6  13
ATOM     13  C   UNL     1      43.410 134.951  16.670  1.00  0.00     0.064 A 
ATOM     14  C   UNL     1      43.805 136.069  17.450  1.00  0.00     0.028 A 
ATOM     15  C   UNL     1      42.350 135.090  15.724  1.00  0.00     0.030 A 
ATOM     16  C   UNL     1      43.184 137.320  17.294  1.00  0.00     0.006 A 
ATOM     17  C   UNL     1      41.850 134.091  14.832  1.00  0.00     0.042 A 
ATOM     18  C   UNL     1      41.787 136.367  15.607  1.00  0.00    -0.008 A 
ATOM     19  C   UNL     1      42.169 137.442  16.351  1.00  0.00    -0.039 A 
ATOM     20  C   UNL     1      40.866 134.446  13.874  1.00  0.00     0.026 A 
ATOM     21  C   UNL     1      40.828 136.701  14.703  1.00  0.00    -0.039 A 
ATOM     22  C   UNL     1      41.394 138.660  15.956  1.00  0.00     0.041 C 
ATOM     23  C   UNL     1      40.349 135.752  13.808  1.00  0.00     0.006 A 
ATOM     24  C   UNL     1      40.471 138.150  14.818  1.00  0.00     0.041 C 
BRANCH  17  25
ATOM     25  N   UNL     1      42.293 132.731  14.864  1.00  0.00    -0.398 N 
ATOM     26  H   UNL     1      41.635 131.939  14.727  1.00  0.00     0.156 HD
ATOM     27  H   UNL     1      43.309 132.511  14.761  1.00  0.00     0.156 HD
ENDBRANCH  17  25
ENDBRANCH   6  13
ENDBRANCH   1   3
BRANCH   1  28
ATOM     28  O   UNL     1      46.256 131.500  13.945  1.00  0.00    -0.442 OA
BRANCH  28  29
ATOM     29  C   UNL     1      46.202 130.468  12.966  1.00  0.00     0.308 C 
BRANCH  29  30
ATOM     30  C   UNL     1      47.519 130.412  12.207  1.00  0.00     0.379 C 
ATOM     31  F   UNL     1      48.149 129.206  12.453  1.00  0.00    -0.207 F 
ATOM     32  F   UNL     1      47.287 130.536  10.849  1.00  0.00    -0.207 F 
ENDBRANCH  29  30
ENDBRANCH  28  29
ENDBRANCH   1  28
TORSDOF 7
ENDMDL
MODEL 5
REMARK VINA RESULT:      -7.2      1.755      3.037
REMARK SMILES C[C@H](Cl)[C@@H]1[C@H](C)N(C(=O)OCC(F)F)NN1c1ccc2c3c(ccc(N)c13)CC2
REMARK SMILES IDX 8 1 9 2 7 3 4 4 5 5 16 6 15 7 6 8 2 10 1 11 3 12 17 13 18 14
REMARK SMILES IDX 27 15 19 16 25 17 21 18 20 19 24 20 22 21 29 22 23 23 28 24
REMARK SMILES IDX 26 25 10 28 11 29 12 30 13 31 14 32
REMARK H PARENT 15 9 26 26 26 27
ROOT
ATOM      1  C   UNL     1      45.661 130.424  16.007  1.00  0.00     0.426 C 
ATOM      2  O   UNL     1      45.476 129.211  16.305  1.00  0.00    -0.223 OA
ENDROOT
BRANCH   1   3
ATOM      3  N   UNL     1      45.050 131.459  16.791  1.00  0.00    -0.220 N 
ATOM      4  C   UNL     1      43.579 132.530  18.250  1.00  0.00     0.144 C 
ATOM      5  C   UNL     1      44.422 131.245  18.085  1.00  0.00     0.131 C 
ATOM      6  N   UNL     1      44.229 133.454  17.310  1.00  0.00    -0.283 N 
ATOM      7  N   UNL     1      45.029 132.792  16.359  1.00  0.00    -0.139 NA
ATOM      8  C   UNL     1      45.543 131.047  19.125  1.00  0.00     0.035 C 
ATOM      9  H   UNL     1      44.516 132.809  15.446  1.00  0.00     0.175 HD
BRANCH   4  10
ATOM     10  C   UNL     1      43.429 133.065  19.709  1.00  0.00     0.104 C 
ATOM     11  C   UNL     1      42.144 133.893  19.860  1.00  0.00     0.027 C 
ATOM     12  Cl  UNL     1      44.769 134.150  20.191  1.00  0.00    -0.121 Cl
ENDBRANCH   4  10
BRANCH   6  13
ATOM     13  C   UNL     1      43.698 134.743  16.976  1.00  0.00     0.064 A 
ATOM     14  C   UNL     1      44.239 135.881  17.629  1.00  0.00     0.028 A 
ATOM     15  C   UNL     1      42.658 134.911  16.012  1.00  0.00     0.030 A 
ATOM     16  C   UNL     1      43.784 137.176  17.330  1.00  0.00     0.006 A 
ATOM     17  C   UNL     1      42.026 133.892  15.234  1.00  0.00     0.042 A 
ATOM     18  C   UNL     1      42.264 136.230  15.750  1.00  0.00    -0.008 A 
ATOM     19  C   UNL     1      42.787 137.322  16.371  1.00  0.00    -0.039 A 
ATOM     20  C   UNL     1      41.090 134.261  14.235  1.00  0.00     0.026 A 
ATOM     21  C   UNL     1      41.350 136.581  14.807  1.00  0.00    -0.039 A 
ATOM     22  C   UNL     1      42.173 138.578  15.837  1.00  0.00     0.041 C 
ATOM     23  C   UNL     1      40.745 135.608  14.019  1.00  0.00     0.006 A 
ATOM     24  C   UNL     1      41.184 138.067  14.756  1.00  0.00     0.041 C 
BRANCH  17  25
ATOM     25  N   UNL     1      42.290 132.498  15.421  1.00  0.00    -0.398 N 
ATOM     26  H   UNL     1      42.837 132.150  16.234  1.00  0.00     0.156 HD
ATOM     27  H   UNL     1      41.725 131.786  14.905  1.00  0.00     0.156 HD
ENDBRANCH  17  25
ENDBRANCH   6  13
ENDBRANCH   1   3
BRANCH   1  28
ATOM     28  O   UNL     1      46.455 130.769  14.910  1.00  0.00    -0.442 OA
BRANCH  28  29
ATOM     29  C   UNL     1      46.920 129.811  13.965  1.00  0.00     0.308 C 
BRANCH  29  30
ATOM     30  C   UNL     1      47.407 130.523  12.712  1.00  0.00     0.379 C 
ATOM     31  F   UNL     1      46.345 130.734  11.852  1.00  0.00    -0.207 F 
ATOM     32  F   UNL     1      47.970 131.740  13.049  1.00  0.00    -0.207 F 
ENDBRANCH  29  30
ENDBRANCH  28  29
ENDBRANCH   1  28
TORSDOF 7
ENDMDL
MODEL 6
REMARK VINA RESULT:      -7.2      0.892      1.080
REMARK SMILES C[C@H](Cl)[C@@H]1[C@H](C)N(C(=O)OCC(F)F)NN1c1ccc2c3c(ccc(N)c13)CC2
REMARK SMILES IDX 8 1 9 2 7 3 4 4 5 5 16 6 15 7 6 8 2 10 1 11 3 12 17 13 18 14
REMARK SMILES IDX 27 15 19 16 25 17 21 18 20 19 24 20 22 21 29 22 23 23 28 24
REMARK SMILES IDX 26 25 10 28 11 29 12 30 13 31 14 32
REMARK H PARENT 15 9 26 26 26 27
ROOT
ATOM      1  C   UNL     1      44.558 131.398  15.356  1.00  0.00     0.426 C 
ATOM      2  O   UNL     1      44.571 130.216  15.801  1.00  0.00    -0.223 OA
ENDROOT
BRANCH   1   3
ATOM      3  N   UNL     1      43.538 132.314  15.777  1.00  0.00    -0.220 N 
ATOM      4  C   UNL     1      41.733 133.199  16.959  1.00  0.00     0.144 C 
ATOM      5  C   UNL     1      43.070 132.447  17.148  1.00  0.00     0.131 C 
ATOM      6  N   UNL     1      41.895 133.797  15.626  1.00  0.00    -0.283 N 
ATOM      7  N   UNL     1      42.914 133.185  14.872  1.00  0.00    -0.139 NA
ATOM      8  C   UNL     1      44.152 133.203  17.943  1.00  0.00     0.035 C 
ATOM      9  H   UNL     1      42.455 132.589  14.144  1.00  0.00     0.175 HD
BRANCH   4  10
ATOM     10  C   UNL     1      41.347 134.199  18.093  1.00  0.00     0.104 C 
ATOM     11  C   UNL     1      41.331 133.499  19.461  1.00  0.00     0.027 C 
ATOM     12  Cl  UNL     1      39.710 134.892  17.881  1.00  0.00    -0.121 Cl
ENDBRANCH   4  10
BRANCH   6  13
ATOM     13  C   UNL     1      40.836 134.465  14.928  1.00  0.00     0.064 A 
ATOM     14  C   UNL     1      39.723 133.694  14.502  1.00  0.00     0.028 A 
ATOM     15  C   UNL     1      40.866 135.867  14.660  1.00  0.00     0.030 A 
ATOM     16  C   UNL     1      38.638 134.289  13.836  1.00  0.00     0.006 A 
ATOM     17  C   UNL     1      41.879 136.800  15.046  1.00  0.00     0.042 A 
ATOM     18  C   UNL     1      39.746 136.398  14.009  1.00  0.00    -0.008 A 
ATOM     19  C   UNL     1      38.675 135.660  13.604  1.00  0.00    -0.039 A 
ATOM     20  C   UNL     1      41.682 138.182  14.793  1.00  0.00     0.026 A 
ATOM     21  C   UNL     1      39.568 137.720  13.747  1.00  0.00    -0.039 A 
ATOM     22  C   UNL     1      37.638 136.535  12.974  1.00  0.00     0.041 C 
ATOM     23  C   UNL     1      40.527 138.647  14.140  1.00  0.00     0.006 A 
ATOM     24  C   UNL     1      38.252 137.956  13.075  1.00  0.00     0.041 C 
BRANCH  17  25
ATOM     25  N   UNL     1      43.101 136.402  15.675  1.00  0.00    -0.398 N 
ATOM     26  H   UNL     1      43.474 136.899  16.508  1.00  0.00     0.156 HD
ATOM     27  H   UNL     1      43.502 135.456  15.484  1.00  0.00     0.156 HD
ENDBRANCH  17  25
ENDBRANCH   6  13
ENDBRANCH   1   3
BRANCH   1  28
ATOM     28  O   UNL     1      45.530 131.820  14.445  1.00  0.00    -0.442 OA
BRANCH  28  29
ATOM     29  C   UNL     1      46.784 131.163  14.297  1.00  0.00     0.308 C 
BRANCH  29  30
ATOM     30  C   UNL     1      46.718 130.192  13.127  1.00  0.00     0.379 C 
ATOM     31  F   UNL     1      47.297 130.767  12.011  1.00  0.00    -0.207 F 
ATOM     32  F   UNL     1      47.395 129.027  13.442  1.00  0.00    -0.207 F 
ENDBRANCH  29  30
ENDBRANCH  28  29
ENDBRANCH   1  28
TORSDOF 7
ENDMDL
MODEL 7
REMARK VINA RESULT:      -7.2      1.728      2.903
REMARK SMILES C[C@H](Cl)[C@@H]1[C@H](C)N(C(=O)OCC(F)F)NN1c1ccc2c3c(ccc(N)c13)CC2
REMARK SMILES IDX 8 1 9 2 7 3 4 4 5 5 16 6 15 7 6 8 2 10 1 11 3 12 17 13 18 14
REMARK SMILES IDX 27 15 19 16 25 17 21 18 20 19 24 20 22 21 29 22 23 23 28 24
REMARK SMILES IDX 26 25 10 28 11 29 12 30 13 31 14 32
REMARK H PARENT 15 9 26 26 26 27
ROOT
ATOM      1  C   UNL     1      46.249 131.449  14.595  1.00  0.00     0.426 C 
ATOM      2  O   UNL     1      47.237 132.130  14.203  1.00  0.00    -0.223 OA
ENDROOT
BRANCH   1   3
ATOM      3  N   UNL     1      45.349 131.985  15.574  1.00  0.00    -0.220 N 
ATOM      4  C   UNL     1      43.521 132.164  17.012  1.00  0.00     0.144 C 
ATOM      5  C   UNL     1      44.621 131.183  16.545  1.00  0.00     0.131 C 
ATOM      6  N   UNL     1      44.082 133.468  16.633  1.00  0.00    -0.283 N 
ATOM      7  N   UNL     1      45.112 133.363  15.678  1.00  0.00    -0.139 NA
ATOM      8  C   UNL     1      45.620 130.738  17.631  1.00  0.00     0.035 C 
ATOM      9  H   UNL     1      44.724 133.676  14.757  1.00  0.00     0.175 HD
BRANCH   4  10
ATOM     10  C   UNL     1      43.086 132.038  18.506  1.00  0.00     0.104 C 
ATOM     11  C   UNL     1      41.666 132.589  18.712  1.00  0.00     0.027 C 
ATOM     12  Cl  UNL     1      44.136 132.971  19.616  1.00  0.00    -0.121 Cl
ENDBRANCH   4  10
BRANCH   6  13
ATOM     13  C   UNL     1      43.347 134.695  16.711  1.00  0.00     0.064 A 
ATOM     14  C   UNL     1      43.705 135.630  17.717  1.00  0.00     0.028 A 
ATOM     15  C   UNL     1      42.283 135.004  15.810  1.00  0.00     0.030 A 
ATOM     16  C   UNL     1      43.045 136.864  17.832  1.00  0.00     0.006 A 
ATOM     17  C   UNL     1      41.814 134.206  14.719  1.00  0.00     0.042 A 
ATOM     18  C   UNL     1      41.679 136.257  15.970  1.00  0.00    -0.008 A 
ATOM     19  C   UNL     1      42.025 137.157  16.931  1.00  0.00    -0.039 A 
ATOM     20  C   UNL     1      40.819 134.729  13.854  1.00  0.00     0.026 A 
ATOM     21  C   UNL     1      40.709 136.749  15.153  1.00  0.00    -0.039 A 
ATOM     22  C   UNL     1      41.212 138.406  16.805  1.00  0.00     0.041 C 
ATOM     23  C   UNL     1      40.260 136.002  14.070  1.00  0.00     0.006 A 
ATOM     24  C   UNL     1      40.305 138.126  15.577  1.00  0.00     0.041 C 
BRANCH  17  25
ATOM     25  N   UNL     1      42.301 132.886  14.458  1.00  0.00    -0.398 N 
ATOM     26  H   UNL     1      42.303 132.150  15.192  1.00  0.00     0.156 HD
ATOM     27  H   UNL     1      42.415 132.558  13.473  1.00  0.00     0.156 HD
ENDBRANCH  17  25
ENDBRANCH   6  13
ENDBRANCH   1   3
BRANCH   1  28
ATOM     28  O   UNL     1      46.029 130.166  14.085  1.00  0.00    -0.442 OA
BRANCH  28  29
ATOM     29  C   UNL     1      46.968 129.107  14.236  1.00  0.00     0.308 C 
BRANCH  29  30
ATOM     30  C   UNL     1      48.013 129.188  13.133  1.00  0.00     0.379 C 
ATOM     31  F   UNL     1      47.535 129.965  12.094  1.00  0.00    -0.207 F 
ATOM     32  F   UNL     1      49.176 129.752  13.626  1.00  0.00    -0.207 F 
ENDBRANCH  29  30
ENDBRANCH  28  29
ENDBRANCH   1  28
TORSDOF 7
ENDMDL
MODEL 8
REMARK VINA RESULT:      -7.1      0.931      1.215
REMARK SMILES C[C@H](Cl)[C@@H]1[C@H](C)N(C(=O)OCC(F)F)NN1c1ccc2c3c(ccc(N)c13)CC2
REMARK SMILES IDX 8 1 9 2 7 3 4 4 5 5 16 6 15 7 6 8 2 10 1 11 3 12 17 13 18 14
REMARK SMILES IDX 27 15 19 16 25 17 21 18 20 19 24 20 22 21 29 22 23 23 28 24
REMARK SMILES IDX 26 25 10 28 11 29 12 30 13 31 14 32
REMARK H PARENT 15 9 26 26 26 27
ROOT
ATOM      1  C   UNL     1      45.091 132.101  15.530  1.00  0.00     0.426 C 
ATOM      2  O   UNL     1      46.080 132.820  15.215  1.00  0.00    -0.223 OA
ENDROOT
BRANCH   1   3
ATOM      3  N   UNL     1      43.843 132.711  15.889  1.00  0.00    -0.220 N 
ATOM      4  C   UNL     1      41.681 132.960  16.727  1.00  0.00     0.144 C 
ATOM      5  C   UNL     1      43.062 132.351  17.062  1.00  0.00     0.131 C 
ATOM      6  N   UNL     1      42.018 133.960  15.704  1.00  0.00    -0.283 N 
ATOM      7  N   UNL     1      43.281 133.740  15.121  1.00  0.00    -0.139 NA
ATOM      8  C   UNL     1      43.767 132.944  18.297  1.00  0.00     0.035 C 
ATOM      9  H   UNL     1      43.122 133.352  14.161  1.00  0.00     0.175 HD
BRANCH   4  10
ATOM     10  C   UNL     1      40.862 133.501  17.940  1.00  0.00     0.104 C 
ATOM     11  C   UNL     1      39.356 133.283  17.727  1.00  0.00     0.027 C 
ATOM     12  Cl  UNL     1      41.069 135.262  18.187  1.00  0.00    -0.121 Cl
ENDBRANCH   4  10
BRANCH   6  13
ATOM     13  C   UNL     1      41.034 134.681  14.952  1.00  0.00     0.064 A 
ATOM     14  C   UNL     1      39.944 133.956  14.405  1.00  0.00     0.028 A 
ATOM     15  C   UNL     1      41.116 136.092  14.748  1.00  0.00     0.030 A 
ATOM     16  C   UNL     1      38.929 134.604  13.680  1.00  0.00     0.006 A 
ATOM     17  C   UNL     1      42.113 136.983  15.254  1.00  0.00     0.042 A 
ATOM     18  C   UNL     1      40.064 136.676  14.031  1.00  0.00    -0.008 A 
ATOM     19  C   UNL     1      39.014 135.983  13.511  1.00  0.00    -0.039 A 
ATOM     20  C   UNL     1      41.967 138.378  15.045  1.00  0.00     0.026 A 
ATOM     21  C   UNL     1      39.936 138.012  13.814  1.00  0.00    -0.039 A 
ATOM     22  C   UNL     1      38.051 136.908  12.837  1.00  0.00     0.041 C 
ATOM     23  C   UNL     1      40.879 138.899  14.322  1.00  0.00     0.006 A 
ATOM     24  C   UNL     1      38.685 138.308  13.048  1.00  0.00     0.041 C 
BRANCH  17  25
ATOM     25  N   UNL     1      43.271 136.529  15.962  1.00  0.00    -0.398 N 
ATOM     26  H   UNL     1      44.156 136.297  15.469  1.00  0.00     0.156 HD
ATOM     27  H   UNL     1      43.340 136.673  16.994  1.00  0.00     0.156 HD
ENDBRANCH  17  25
ENDBRANCH   6  13
ENDBRANCH   1   3
BRANCH   1  28
ATOM     28  O   UNL     1      45.204 130.708  15.539  1.00  0.00    -0.442 OA
BRANCH  28  29
ATOM     29  C   UNL     1      46.457 130.039  15.625  1.00  0.00     0.308 C 
BRANCH  29  30
ATOM     30  C   UNL     1      46.979 129.746  14.227  1.00  0.00     0.379 C 
ATOM     31  F   UNL     1      45.945 129.839  13.313  1.00  0.00    -0.207 F 
ATOM     32  F   UNL     1      47.966 130.655  13.892  1.00  0.00    -0.207 F 
ENDBRANCH  29  30
ENDBRANCH  28  29
ENDBRANCH   1  28
TORSDOF 7
ENDMDL
MODEL 9
REMARK VINA RESULT:      -7.0      1.018      1.152
REMARK SMILES C[C@H](Cl)[C@@H]1[C@H](C)N(C(=O)OCC(F)F)NN1c1ccc2c3c(ccc(N)c13)CC2
REMARK SMILES IDX 8 1 9 2 7 3 4 4 5 5 16 6 15 7 6 8 2 10 1 11 3 12 17 13 18 14
REMARK SMILES IDX 27 15 19 16 25 17 21 18 20 19 24 20 22 21 29 22 23 23 28 24
REMARK SMILES IDX 26 25 10 28 11 29 12 30 13 31 14 32
REMARK H PARENT 15 9 26 26 26 27
ROOT
ATOM      1  C   UNL     1      44.239 131.679  14.568  1.00  0.00     0.426 C 
ATOM      2  O   UNL     1      43.857 130.745  13.808  1.00  0.00    -0.223 OA
ENDROOT
BRANCH   1   3
ATOM      3  N   UNL     1      43.276 132.453  15.295  1.00  0.00    -0.220 N 
ATOM      4  C   UNL     1      41.666 133.027  16.883  1.00  0.00     0.144 C 
ATOM      5  C   UNL     1      43.039 132.334  16.726  1.00  0.00     0.131 C 
ATOM      6  N   UNL     1      41.585 133.843  15.663  1.00  0.00    -0.283 N 
ATOM      7  N   UNL     1      42.483 133.421  14.663  1.00  0.00    -0.139 NA
ATOM      8  C   UNL     1      44.215 133.014  17.456  1.00  0.00     0.035 C 
ATOM      9  H   UNL     1      41.926 132.926  13.927  1.00  0.00     0.175 HD
BRANCH   4  10
ATOM     10  C   UNL     1      41.445 133.806  18.218  1.00  0.00     0.104 C 
ATOM     11  C   UNL     1      39.961 133.805  18.614  1.00  0.00     0.027 C 
ATOM     12  Cl  UNL     1      41.917 135.529  18.102  1.00  0.00    -0.121 Cl
ENDBRANCH   4  10
BRANCH   6  13
ATOM     13  C   UNL     1      40.404 134.551  15.266  1.00  0.00     0.064 A 
ATOM     14  C   UNL     1      39.170 133.850  15.261  1.00  0.00     0.028 A 
ATOM     15  C   UNL     1      40.433 135.928  14.888  1.00  0.00     0.030 A 
ATOM     16  C   UNL     1      37.970 134.491  14.910  1.00  0.00     0.006 A 
ATOM     17  C   UNL     1      41.569 136.796  14.871  1.00  0.00     0.042 A 
ATOM     18  C   UNL     1      39.200 136.509  14.566  1.00  0.00    -0.008 A 
ATOM     19  C   UNL     1      38.015 135.838  14.566  1.00  0.00    -0.039 A 
ATOM     20  C   UNL     1      41.387 138.172  14.578  1.00  0.00     0.026 A 
ATOM     21  C   UNL     1      39.030 137.823  14.263  1.00  0.00    -0.039 A 
ATOM     22  C   UNL     1      36.889 136.756  14.210  1.00  0.00     0.041 C 
ATOM     23  C   UNL     1      40.117 138.691  14.270  1.00  0.00     0.006 A 
ATOM     24  C   UNL     1      37.588 138.125  14.004  1.00  0.00     0.041 C 
BRANCH  17  25
ATOM     25  N   UNL     1      42.900 136.338  15.132  1.00  0.00    -0.398 N 
ATOM     26  H   UNL     1      43.544 136.860  15.757  1.00  0.00     0.156 HD
ATOM     27  H   UNL     1      43.162 135.349  14.919  1.00  0.00     0.156 HD
ENDBRANCH  17  25
ENDBRANCH   6  13
ENDBRANCH   1   3
BRANCH   1  28
ATOM     28  O   UNL     1      45.599 131.971  14.700  1.00  0.00    -0.442 OA
BRANCH  28  29
ATOM     29  C   UNL     1      46.556 131.004  15.119  1.00  0.00     0.308 C 
BRANCH  29  30
ATOM     30  C   UNL     1      47.412 130.584  13.933  1.00  0.00     0.379 C 
ATOM     31  F   UNL     1      46.698 129.716  13.127  1.00  0.00    -0.207 F 
ATOM     32  F   UNL     1      47.775 131.696  13.195  1.00  0.00    -0.207 F 
ENDBRANCH  29  30
ENDBRANCH  28  29
ENDBRANCH   1  28
TORSDOF 7
ENDMDL


