MODEL 1
REMARK VINA RESULT:      -7.4      0.000      0.000
REMARK SMILES Cc1ccc2ccccc2c1C[N+](C)(C)CCc1cn(/C(=N\O)c2ccccc2N=[N+]=[N-])nn1
REMARK SMILES IDX 20 1 33 2 34 3 18 4 19 5 21 6 22 7 23 8 24 10 25 11 29 12
REMARK SMILES IDX 26 13 28 14 27 15 30 16 31 17 32 18 17 19 16 20 13 21 14 22
REMARK SMILES IDX 15 23 12 24 11 25 2 26 10 27 3 28 9 29 5 30 4 31 8 32 6 33
REMARK SMILES IDX 7 34 1 35
REMARK H PARENT 23 9
ROOT
ATOM      1  N   UNL     1      44.091 132.131  15.326  1.00  0.00    -0.198 N 
ATOM      2  N   UNL     1      44.975 133.092  15.554  1.00  0.00    -0.060 NA
ATOM      3  N   UNL     1      44.574 133.863  16.555  1.00  0.00    -0.135 NA
ATOM      4  C   UNL     1      43.399 133.361  16.981  1.00  0.00     0.089 A 
ATOM      5  C   UNL     1      43.082 132.269  16.205  1.00  0.00     0.143 A 
ENDROOT
BRANCH   1   6
ATOM      6  C   UNL     1      44.250 131.111  14.324  1.00  0.00     0.201 C 
BRANCH   6   7
ATOM      7  N   UNL     1      43.239 130.711  13.610  1.00  0.00    -0.068 NA
BRANCH   7   8
ATOM      8  O   UNL     1      42.224 131.553  13.219  1.00  0.00    -0.409 OA
ATOM      9  H   UNL     1      42.407 132.540  13.088  1.00  0.00     0.330 HD
ENDBRANCH   7   8
ENDBRANCH   6   7
BRANCH   6  10
ATOM     10  C   UNL     1      45.595 130.562  14.029  1.00  0.00     0.032 A 
ATOM     11  C   UNL     1      46.210 130.873  12.803  1.00  0.00     0.012 A 
ATOM     12  C   UNL     1      46.270 129.723  14.949  1.00  0.00     0.049 A 
ATOM     13  C   UNL     1      47.482 130.386  12.500  1.00  0.00     0.001 A 
ATOM     14  C   UNL     1      47.554 129.241  14.628  1.00  0.00     0.011 A 
ATOM     15  C   UNL     1      48.154 129.575  13.412  1.00  0.00     0.001 A 
BRANCH  12  16
ATOM     16  N   UNL     1      45.625 129.338  16.174  1.00  0.00    -0.060 NA
BRANCH  16  17
ATOM     17  N   UNL     1      45.733 129.996  17.211  1.00  0.00     0.005 N 
ATOM     18  N   UNL     1      45.843 130.651  18.246  1.00  0.00    -0.003 NA
ENDBRANCH  16  17
ENDBRANCH  12  16
ENDBRANCH   6  10
ENDBRANCH   1   6
BRANCH   4  19
ATOM     19  C   UNL     1      42.578 133.928  18.099  1.00  0.00     0.121 C 
BRANCH  19  20
ATOM     20  C   UNL     1      41.815 135.226  17.724  1.00  0.00     0.270 C 
BRANCH  20  21
ATOM     21  N   UNL     1      41.074 135.933  18.826  1.00  0.00    -0.324 N 
ATOM     22  C   UNL     1      41.662 137.273  19.067  1.00  0.00     0.334 C 
ATOM     23  C   UNL     1      41.292 135.129  20.058  1.00  0.00     0.334 C 
BRANCH  21  24
ATOM     24  C   UNL     1      39.611 136.046  18.489  1.00  0.00     0.301 C 
BRANCH  24  25
ATOM     25  C   UNL     1      39.217 135.658  17.049  1.00  0.00     0.017 A 
ATOM     26  C   UNL     1      38.730 134.345  16.761  1.00  0.00    -0.042 A 
ATOM     27  C   UNL     1      39.308 136.599  15.970  1.00  0.00    -0.009 A 
ATOM     28  C   UNL     1      38.550 133.946  15.429  1.00  0.00     0.004 A 
ATOM     29  C   UNL     1      39.577 137.976  16.171  1.00  0.00     0.009 A 
ATOM     30  C   UNL     1      39.104 136.155  14.634  1.00  0.00    -0.018 A 
ATOM     31  C   UNL     1      38.760 134.827  14.380  1.00  0.00     0.009 A 
ATOM     32  C   UNL     1      39.691 138.853  15.090  1.00  0.00     0.001 A 
ATOM     33  C   UNL     1      39.231 137.049  13.558  1.00  0.00     0.009 A 
ATOM     34  C   UNL     1      39.527 138.389  13.788  1.00  0.00     0.001 A 
ATOM     35  C   UNL     1      38.333 133.356  17.834  1.00  0.00     0.045 C 
ENDBRANCH  24  25
ENDBRANCH  21  24
ENDBRANCH  20  21
ENDBRANCH  19  20
ENDBRANCH   4  19
TORSDOF 11
ENDMDL
MODEL 2
REMARK VINA RESULT:      -6.6      3.591      6.209
REMARK SMILES Cc1ccc2ccccc2c1C[N+](C)(C)CCc1cn(/C(=N\O)c2ccccc2N=[N+]=[N-])nn1
REMARK SMILES IDX 20 1 33 2 34 3 18 4 19 5 21 6 22 7 23 8 24 10 25 11 29 12
REMARK SMILES IDX 26 13 28 14 27 15 30 16 31 17 32 18 17 19 16 20 13 21 14 22
REMARK SMILES IDX 15 23 12 24 11 25 2 26 10 27 3 28 9 29 5 30 4 31 8 32 6 33
REMARK SMILES IDX 7 34 1 35
REMARK H PARENT 23 9
ROOT
ATOM      1  N   UNL     1      43.836 131.976  15.475  1.00  0.00    -0.198 N 
ATOM      2  N   UNL     1      42.761 131.813  16.232  1.00  0.00    -0.060 NA
ATOM      3  N   UNL     1      42.732 132.719  17.198  1.00  0.00    -0.135 NA
ATOM      4  C   UNL     1      43.827 133.489  17.038  1.00  0.00     0.089 A 
ATOM      5  C   UNL     1      44.535 133.021  15.953  1.00  0.00     0.143 A 
ENDROOT
BRANCH   1   6
ATOM      6  C   UNL     1      44.141 131.170  14.323  1.00  0.00     0.201 C 
BRANCH   6   7
ATOM      7  N   UNL     1      43.244 130.943  13.409  1.00  0.00    -0.068 NA
BRANCH   7   8
ATOM      8  O   UNL     1      42.017 131.564  13.400  1.00  0.00    -0.409 OA
ATOM      9  H   UNL     1      41.896 132.454  13.867  1.00  0.00     0.330 HD
ENDBRANCH   7   8
ENDBRANCH   6   7
BRANCH   6  10
ATOM     10  C   UNL     1      45.517 130.656  14.117  1.00  0.00     0.032 A 
ATOM     11  C   UNL     1      46.189 130.957  12.918  1.00  0.00     0.012 A 
ATOM     12  C   UNL     1      46.165 129.864  15.095  1.00  0.00     0.049 A 
ATOM     13  C   UNL     1      47.490 130.503  12.699  1.00  0.00     0.001 A 
ATOM     14  C   UNL     1      47.479 129.415  14.858  1.00  0.00     0.011 A 
ATOM     15  C   UNL     1      48.135 129.737  13.668  1.00  0.00     0.001 A 
BRANCH  12  16
ATOM     16  N   UNL     1      45.465 129.489  16.293  1.00  0.00    -0.060 NA
BRANCH  16  17
ATOM     17  N   UNL     1      45.651 130.059  17.370  1.00  0.00     0.005 N 
ATOM     18  N   UNL     1      45.837 130.625  18.446  1.00  0.00    -0.003 NA
ENDBRANCH  16  17
ENDBRANCH  12  16
ENDBRANCH   6  10
ENDBRANCH   1   6
BRANCH   4  19
ATOM     19  C   UNL     1      44.203 134.641  17.918  1.00  0.00     0.121 C 
BRANCH  19  20
ATOM     20  C   UNL     1      43.950 134.387  19.428  1.00  0.00     0.270 C 
BRANCH  20  21
ATOM     21  N   UNL     1      43.978 135.581  20.342  1.00  0.00    -0.324 N 
ATOM     22  C   UNL     1      43.471 136.784  19.637  1.00  0.00     0.334 C 
ATOM     23  C   UNL     1      45.409 135.830  20.662  1.00  0.00     0.334 C 
BRANCH  21  24
ATOM     24  C   UNL     1      43.171 135.314  21.584  1.00  0.00     0.301 C 
BRANCH  24  25
ATOM     25  C   UNL     1      43.860 134.456  22.665  1.00  0.00     0.017 A 
ATOM     26  C   UNL     1      44.594 135.078  23.723  1.00  0.00    -0.042 A 
ATOM     27  C   UNL     1      43.770 133.025  22.654  1.00  0.00    -0.009 A 
ATOM     28  C   UNL     1      45.366 134.292  24.591  1.00  0.00     0.004 A 
ATOM     29  C   UNL     1      42.905 132.315  21.783  1.00  0.00     0.009 A 
ATOM     30  C   UNL     1      44.559 132.265  23.561  1.00  0.00    -0.018 A 
ATOM     31  C   UNL     1      45.371 132.909  24.495  1.00  0.00     0.009 A 
ATOM     32  C   UNL     1      42.872 130.919  21.780  1.00  0.00     0.001 A 
ATOM     33  C   UNL     1      44.520 130.861  23.539  1.00  0.00     0.009 A 
ATOM     34  C   UNL     1      43.683 130.195  22.649  1.00  0.00     0.001 A 
ATOM     35  C   UNL     1      44.542 136.562  24.004  1.00  0.00     0.045 C 
ENDBRANCH  24  25
ENDBRANCH  21  24
ENDBRANCH  20  21
ENDBRANCH  19  20
ENDBRANCH   4  19
TORSDOF 11
ENDMDL
MODEL 3
REMARK VINA RESULT:      -6.4      1.360      2.113
REMARK SMILES Cc1ccc2ccccc2c1C[N+](C)(C)CCc1cn(/C(=N\O)c2ccccc2N=[N+]=[N-])nn1
REMARK SMILES IDX 20 1 33 2 34 3 18 4 19 5 21 6 22 7 23 8 24 10 25 11 29 12
REMARK SMILES IDX 26 13 28 14 27 15 30 16 31 17 32 18 17 19 16 20 13 21 14 22
REMARK SMILES IDX 15 23 12 24 11 25 2 26 10 27 3 28 9 29 5 30 4 31 8 32 6 33
REMARK SMILES IDX 7 34 1 35
REMARK H PARENT 23 9
ROOT
ATOM      1  N   UNL     1      43.961 132.295  15.449  1.00  0.00    -0.198 N 
ATOM      2  N   UNL     1      43.589 132.004  16.687  1.00  0.00    -0.060 NA
ATOM      3  N   UNL     1      43.462 133.110  17.405  1.00  0.00    -0.135 NA
ATOM      4  C   UNL     1      43.756 134.139  16.585  1.00  0.00     0.089 A 
ATOM      5  C   UNL     1      44.079 133.631  15.346  1.00  0.00     0.143 A 
ENDROOT
BRANCH   1   6
ATOM      6  C   UNL     1      44.154 131.315  14.413  1.00  0.00     0.201 C 
BRANCH   6   7
ATOM      7  N   UNL     1      43.175 130.964  13.634  1.00  0.00    -0.068 NA
BRANCH   7   8
ATOM      8  O   UNL     1      41.994 131.665  13.559  1.00  0.00    -0.409 OA
ATOM      9  H   UNL     1      41.125 131.226  13.838  1.00  0.00     0.330 HD
ENDBRANCH   7   8
ENDBRANCH   6   7
BRANCH   6  10
ATOM     10  C   UNL     1      45.503 130.753  14.164  1.00  0.00     0.032 A 
ATOM     11  C   UNL     1      46.165 131.064  12.962  1.00  0.00     0.012 A 
ATOM     12  C   UNL     1      46.137 129.904  15.102  1.00  0.00     0.049 A 
ATOM     13  C   UNL     1      47.442 130.566  12.701  1.00  0.00     0.001 A 
ATOM     14  C   UNL     1      47.427 129.410  14.825  1.00  0.00     0.011 A 
ATOM     15  C   UNL     1      48.073 129.743  13.633  1.00  0.00     0.001 A 
BRANCH  12  16
ATOM     16  N   UNL     1      45.445 129.519  16.302  1.00  0.00    -0.060 NA
BRANCH  16  17
ATOM     17  N   UNL     1      45.713 130.006  17.402  1.00  0.00     0.005 N 
ATOM     18  N   UNL     1      45.982 130.494  18.499  1.00  0.00    -0.003 NA
ENDBRANCH  16  17
ENDBRANCH  12  16
ENDBRANCH   6  10
ENDBRANCH   1   6
BRANCH   4  19
ATOM     19  C   UNL     1      43.748 135.583  16.982  1.00  0.00     0.121 C 
BRANCH  19  20
ATOM     20  C   UNL     1      42.546 136.385  16.415  1.00  0.00     0.270 C 
BRANCH  20  21
ATOM     21  N   UNL     1      41.365 136.589  17.323  1.00  0.00    -0.324 N 
ATOM     22  C   UNL     1      41.799 137.171  18.616  1.00  0.00     0.334 C 
ATOM     23  C   UNL     1      40.820 135.235  17.612  1.00  0.00     0.334 C 
BRANCH  21  24
ATOM     24  C   UNL     1      40.338 137.469  16.662  1.00  0.00     0.301 C 
BRANCH  24  25
ATOM     25  C   UNL     1      38.943 136.843  16.457  1.00  0.00     0.017 A 
ATOM     26  C   UNL     1      37.909 137.048  17.423  1.00  0.00    -0.042 A 
ATOM     27  C   UNL     1      38.638 136.060  15.295  1.00  0.00    -0.009 A 
ATOM     28  C   UNL     1      36.709 136.329  17.323  1.00  0.00     0.004 A 
ATOM     29  C   UNL     1      39.509 135.964  14.181  1.00  0.00     0.009 A 
ATOM     30  C   UNL     1      37.402 135.357  15.227  1.00  0.00    -0.018 A 
ATOM     31  C   UNL     1      36.470 135.476  16.257  1.00  0.00     0.009 A 
ATOM     32  C   UNL     1      39.190 135.163  13.083  1.00  0.00     0.001 A 
ATOM     33  C   UNL     1      37.101 134.550  14.118  1.00  0.00     0.009 A 
ATOM     34  C   UNL     1      37.994 134.452  13.055  1.00  0.00     0.001 A 
ATOM     35  C   UNL     1      38.011 138.060  18.542  1.00  0.00     0.045 C 
ENDBRANCH  24  25
ENDBRANCH  21  24
ENDBRANCH  20  21
ENDBRANCH  19  20
ENDBRANCH   4  19
TORSDOF 11
ENDMDL
MODEL 4
REMARK VINA RESULT:      -6.3      2.802      4.154
REMARK SMILES Cc1ccc2ccccc2c1C[N+](C)(C)CCc1cn(/C(=N\O)c2ccccc2N=[N+]=[N-])nn1
REMARK SMILES IDX 20 1 33 2 34 3 18 4 19 5 21 6 22 7 23 8 24 10 25 11 29 12
REMARK SMILES IDX 26 13 28 14 27 15 30 16 31 17 32 18 17 19 16 20 13 21 14 22
REMARK SMILES IDX 15 23 12 24 11 25 2 26 10 27 3 28 9 29 5 30 4 31 8 32 6 33
REMARK SMILES IDX 7 34 1 35
REMARK H PARENT 23 9
ROOT
ATOM      1  N   UNL     1      45.211 130.396  17.253  1.00  0.00    -0.198 N 
ATOM      2  N   UNL     1      45.787 130.385  18.446  1.00  0.00    -0.060 NA
ATOM      3  N   UNL     1      45.308 131.363  19.200  1.00  0.00    -0.135 NA
ATOM      4  C   UNL     1      44.387 132.008  18.457  1.00  0.00     0.089 A 
ATOM      5  C   UNL     1      44.323 131.405  17.220  1.00  0.00     0.143 A 
ENDROOT
BRANCH   1   6
ATOM      6  C   UNL     1      45.492 129.440  16.214  1.00  0.00     0.201 C 
BRANCH   6   7
ATOM      7  N   UNL     1      45.152 128.192  16.342  1.00  0.00    -0.068 NA
BRANCH   7   8
ATOM      8  O   UNL     1      44.509 127.489  15.350  1.00  0.00    -0.409 OA
ATOM      9  H   UNL     1      44.645 127.744  14.379  1.00  0.00     0.330 HD
ENDBRANCH   7   8
ENDBRANCH   6   7
BRANCH   6  10
ATOM     10  C   UNL     1      46.099 129.888  14.937  1.00  0.00     0.032 A 
ATOM     11  C   UNL     1      47.500 129.933  14.821  1.00  0.00     0.012 A 
ATOM     12  C   UNL     1      45.300 130.279  13.835  1.00  0.00     0.049 A 
ATOM     13  C   UNL     1      48.104 130.334  13.628  1.00  0.00     0.001 A 
ATOM     14  C   UNL     1      45.925 130.680  12.638  1.00  0.00     0.011 A 
ATOM     15  C   UNL     1      47.318 130.703  12.538  1.00  0.00     0.001 A 
BRANCH  12  16
ATOM     16  N   UNL     1      43.869 130.306  13.961  1.00  0.00    -0.060 NA
BRANCH  16  17
ATOM     17  N   UNL     1      43.230 131.360  13.998  1.00  0.00     0.005 N 
ATOM     18  N   UNL     1      42.591 132.410  14.036  1.00  0.00    -0.003 NA
ENDBRANCH  16  17
ENDBRANCH  12  16
ENDBRANCH   6  10
ENDBRANCH   1   6
BRANCH   4  19
ATOM     19  C   UNL     1      43.592 133.194  18.912  1.00  0.00     0.121 C 
BRANCH  19  20
ATOM     20  C   UNL     1      44.181 133.903  20.161  1.00  0.00     0.270 C 
BRANCH  20  21
ATOM     21  N   UNL     1      43.545 135.199  20.581  1.00  0.00    -0.324 N 
ATOM     22  C   UNL     1      43.495 135.296  22.060  1.00  0.00     0.334 C 
ATOM     23  C   UNL     1      42.140 135.153  20.095  1.00  0.00     0.334 C 
BRANCH  21  24
ATOM     24  C   UNL     1      44.294 136.367  19.997  1.00  0.00     0.301 C 
BRANCH  24  25
ATOM     25  C   UNL     1      43.524 137.217  18.965  1.00  0.00     0.017 A 
ATOM     26  C   UNL     1      42.879 138.429  19.362  1.00  0.00    -0.042 A 
ATOM     27  C   UNL     1      43.449 136.829  17.586  1.00  0.00    -0.009 A 
ATOM     28  C   UNL     1      42.031 139.094  18.465  1.00  0.00     0.004 A 
ATOM     29  C   UNL     1      44.216 135.770  17.041  1.00  0.00     0.009 A 
ATOM     30  C   UNL     1      42.587 137.540  16.704  1.00  0.00    -0.018 A 
ATOM     31  C   UNL     1      41.866 138.642  17.164  1.00  0.00     0.009 A 
ATOM     32  C   UNL     1      44.088 135.403  15.699  1.00  0.00     0.001 A 
ATOM     33  C   UNL     1      42.464 137.153  15.360  1.00  0.00     0.009 A 
ATOM     34  C   UNL     1      43.209 136.086  14.864  1.00  0.00     0.001 A 
ATOM     35  C   UNL     1      43.104 139.083  20.706  1.00  0.00     0.045 C 
ENDBRANCH  24  25
ENDBRANCH  21  24
ENDBRANCH  20  21
ENDBRANCH  19  20
ENDBRANCH   4  19
TORSDOF 11
ENDMDL
MODEL 5
REMARK VINA RESULT:      -6.2      1.558      2.682
REMARK SMILES Cc1ccc2ccccc2c1C[N+](C)(C)CCc1cn(/C(=N\O)c2ccccc2N=[N+]=[N-])nn1
REMARK SMILES IDX 20 1 33 2 34 3 18 4 19 5 21 6 22 7 23 8 24 10 25 11 29 12
REMARK SMILES IDX 26 13 28 14 27 15 30 16 31 17 32 18 17 19 16 20 13 21 14 22
REMARK SMILES IDX 15 23 12 24 11 25 2 26 10 27 3 28 9 29 5 30 4 31 8 32 6 33
REMARK SMILES IDX 7 34 1 35
REMARK H PARENT 23 9
ROOT
ATOM      1  N   UNL     1      43.826 132.361  15.618  1.00  0.00    -0.198 N 
ATOM      2  N   UNL     1      42.801 132.118  16.422  1.00  0.00    -0.060 NA
ATOM      3  N   UNL     1      42.758 133.010  17.401  1.00  0.00    -0.135 NA
ATOM      4  C   UNL     1      43.788 133.854  17.199  1.00  0.00     0.089 A 
ATOM      5  C   UNL     1      44.473 133.448  16.076  1.00  0.00     0.143 A 
ENDROOT
BRANCH   1   6
ATOM      6  C   UNL     1      44.129 131.590  14.442  1.00  0.00     0.201 C 
BRANCH   6   7
ATOM      7  N   UNL     1      43.303 131.546  13.439  1.00  0.00    -0.068 NA
BRANCH   7   8
ATOM      8  O   UNL     1      42.441 130.495  13.229  1.00  0.00    -0.409 OA
ATOM      9  H   UNL     1      41.607 130.403  13.796  1.00  0.00     0.330 HD
ENDBRANCH   7   8
ENDBRANCH   6   7
BRANCH   6  10
ATOM     10  C   UNL     1      45.436 130.900  14.321  1.00  0.00     0.032 A 
ATOM     11  C   UNL     1      46.170 131.024  13.127  1.00  0.00     0.012 A 
ATOM     12  C   UNL     1      45.958 130.114  15.376  1.00  0.00     0.049 A 
ATOM     13  C   UNL     1      47.410 130.401  12.986  1.00  0.00     0.001 A 
ATOM     14  C   UNL     1      47.213 129.493  15.217  1.00  0.00     0.011 A 
ATOM     15  C   UNL     1      47.932 129.640  14.030  1.00  0.00     0.001 A 
BRANCH  12  16
ATOM     16  N   UNL     1      45.188 129.919  16.574  1.00  0.00    -0.060 NA
BRANCH  16  17
ATOM     17  N   UNL     1      45.563 130.334  17.672  1.00  0.00     0.005 N 
ATOM     18  N   UNL     1      45.936 130.751  18.768  1.00  0.00    -0.003 NA
ENDBRANCH  16  17
ENDBRANCH  12  16
ENDBRANCH   6  10
ENDBRANCH   1   6
BRANCH   4  19
ATOM     19  C   UNL     1      44.127 135.021  18.076  1.00  0.00     0.121 C 
BRANCH  19  20
ATOM     20  C   UNL     1      42.901 135.643  18.795  1.00  0.00     0.270 C 
BRANCH  20  21
ATOM     21  N   UNL     1      42.727 137.134  18.695  1.00  0.00    -0.324 N 
ATOM     22  C   UNL     1      43.984 137.772  18.233  1.00  0.00     0.334 C 
ATOM     23  C   UNL     1      42.470 137.619  20.077  1.00  0.00     0.334 C 
BRANCH  21  24
ATOM     24  C   UNL     1      41.588 137.470  17.770  1.00  0.00     0.301 C 
BRANCH  24  25
ATOM     25  C   UNL     1      41.068 136.315  16.890  1.00  0.00     0.017 A 
ATOM     26  C   UNL     1      41.610 136.099  15.584  1.00  0.00    -0.042 A 
ATOM     27  C   UNL     1      40.050 135.419  17.357  1.00  0.00    -0.009 A 
ATOM     28  C   UNL     1      41.008 135.169  14.725  1.00  0.00     0.004 A 
ATOM     29  C   UNL     1      39.591 135.408  18.698  1.00  0.00     0.009 A 
ATOM     30  C   UNL     1      39.475 134.480  16.456  1.00  0.00    -0.018 A 
ATOM     31  C   UNL     1      39.940 134.391  15.144  1.00  0.00     0.009 A 
ATOM     32  C   UNL     1      38.573 134.542  19.104  1.00  0.00     0.001 A 
ATOM     33  C   UNL     1      38.447 133.622  16.879  1.00  0.00     0.009 A 
ATOM     34  C   UNL     1      37.997 133.659  18.196  1.00  0.00     0.001 A 
ATOM     35  C   UNL     1      42.857 136.790  15.082  1.00  0.00     0.045 C 
ENDBRANCH  24  25
ENDBRANCH  21  24
ENDBRANCH  20  21
ENDBRANCH  19  20
ENDBRANCH   4  19
TORSDOF 11
ENDMDL
MODEL 6
REMARK VINA RESULT:      -6.2      3.088      5.875
REMARK SMILES Cc1ccc2ccccc2c1C[N+](C)(C)CCc1cn(/C(=N\O)c2ccccc2N=[N+]=[N-])nn1
REMARK SMILES IDX 20 1 33 2 34 3 18 4 19 5 21 6 22 7 23 8 24 10 25 11 29 12
REMARK SMILES IDX 26 13 28 14 27 15 30 16 31 17 32 18 17 19 16 20 13 21 14 22
REMARK SMILES IDX 15 23 12 24 11 25 2 26 10 27 3 28 9 29 5 30 4 31 8 32 6 33
REMARK SMILES IDX 7 34 1 35
REMARK H PARENT 23 9
ROOT
ATOM      1  N   UNL     1      44.239 132.139  15.053  1.00  0.00    -0.198 N 
ATOM      2  N   UNL     1      45.246 132.877  15.497  1.00  0.00    -0.060 NA
ATOM      3  N   UNL     1      44.818 133.753  16.394  1.00  0.00    -0.135 NA
ATOM      4  C   UNL     1      43.493 133.552  16.528  1.00  0.00     0.089 A 
ATOM      5  C   UNL     1      43.116 132.535  15.678  1.00  0.00     0.143 A 
ENDROOT
BRANCH   1   6
ATOM      6  C   UNL     1      44.381 131.075  14.094  1.00  0.00     0.201 C 
BRANCH   6   7
ATOM      7  N   UNL     1      43.351 130.616  13.447  1.00  0.00    -0.068 NA
BRANCH   7   8
ATOM      8  O   UNL     1      42.314 131.419  13.030  1.00  0.00    -0.409 OA
ATOM      9  H   UNL     1      42.336 131.837  12.109  1.00  0.00     0.330 HD
ENDBRANCH   7   8
ENDBRANCH   6   7
BRANCH   6  10
ATOM     10  C   UNL     1      45.726 130.546  13.764  1.00  0.00     0.032 A 
ATOM     11  C   UNL     1      46.335 130.924  12.554  1.00  0.00     0.012 A 
ATOM     12  C   UNL     1      46.407 129.662  14.635  1.00  0.00     0.049 A 
ATOM     13  C   UNL     1      47.607 130.458  12.220  1.00  0.00     0.001 A 
ATOM     14  C   UNL     1      47.691 129.200  14.283  1.00  0.00     0.011 A 
ATOM     15  C   UNL     1      48.285 129.600  13.085  1.00  0.00     0.001 A 
BRANCH  12  16
ATOM     16  N   UNL     1      45.769 129.210  15.841  1.00  0.00    -0.060 NA
BRANCH  16  17
ATOM     17  N   UNL     1      45.212 128.113  15.920  1.00  0.00     0.005 N 
ATOM     18  N   UNL     1      44.654 127.020  16.000  1.00  0.00    -0.003 NA
ENDBRANCH  16  17
ENDBRANCH  12  16
ENDBRANCH   6  10
ENDBRANCH   1   6
BRANCH   4  19
ATOM     19  C   UNL     1      42.593 134.330  17.439  1.00  0.00     0.121 C 
BRANCH  19  20
ATOM     20  C   UNL     1      43.284 135.541  18.120  1.00  0.00     0.270 C 
BRANCH  20  21
ATOM     21  N   UNL     1      43.707 135.376  19.554  1.00  0.00    -0.324 N 
ATOM     22  C   UNL     1      42.521 135.349  20.443  1.00  0.00     0.334 C 
ATOM     23  C   UNL     1      44.489 136.593  19.902  1.00  0.00     0.334 C 
BRANCH  21  24
ATOM     24  C   UNL     1      44.527 134.125  19.721  1.00  0.00     0.301 C 
BRANCH  24  25
ATOM     25  C   UNL     1      44.285 133.328  21.019  1.00  0.00     0.017 A 
ATOM     26  C   UNL     1      43.315 132.278  21.053  1.00  0.00    -0.042 A 
ATOM     27  C   UNL     1      45.031 133.599  22.214  1.00  0.00    -0.009 A 
ATOM     28  C   UNL     1      42.972 131.685  22.276  1.00  0.00     0.004 A 
ATOM     29  C   UNL     1      46.152 134.466  22.241  1.00  0.00     0.009 A 
ATOM     30  C   UNL     1      44.659 132.966  23.432  1.00  0.00    -0.018 A 
ATOM     31  C   UNL     1      43.614 132.042  23.452  1.00  0.00     0.009 A 
ATOM     32  C   UNL     1      46.831 134.730  23.433  1.00  0.00     0.001 A 
ATOM     33  C   UNL     1      45.347 133.249  24.623  1.00  0.00     0.009 A 
ATOM     34  C   UNL     1      46.425 134.131  24.621  1.00  0.00     0.001 A 
ATOM     35  C   UNL     1      42.662 131.716  19.811  1.00  0.00     0.045 C 
ENDBRANCH  24  25
ENDBRANCH  21  24
ENDBRANCH  20  21
ENDBRANCH  19  20
ENDBRANCH   4  19
TORSDOF 11
ENDMDL
MODEL 7
REMARK VINA RESULT:      -6.1      2.580      4.301
REMARK SMILES Cc1ccc2ccccc2c1C[N+](C)(C)CCc1cn(/C(=N\O)c2ccccc2N=[N+]=[N-])nn1
REMARK SMILES IDX 20 1 33 2 34 3 18 4 19 5 21 6 22 7 23 8 24 10 25 11 29 12
REMARK SMILES IDX 26 13 28 14 27 15 30 16 31 17 32 18 17 19 16 20 13 21 14 22
REMARK SMILES IDX 15 23 12 24 11 25 2 26 10 27 3 28 9 29 5 30 4 31 8 32 6 33
REMARK SMILES IDX 7 34 1 35
REMARK H PARENT 23 9
ROOT
ATOM      1  N   UNL     1      45.172 131.486  18.057  1.00  0.00    -0.198 N 
ATOM      2  N   UNL     1      45.658 130.669  18.980  1.00  0.00    -0.060 NA
ATOM      3  N   UNL     1      45.218 131.013  20.181  1.00  0.00    -0.135 NA
ATOM      4  C   UNL     1      44.415 132.081  20.007  1.00  0.00     0.089 A 
ATOM      5  C   UNL     1      44.385 132.391  18.666  1.00  0.00     0.143 A 
ENDROOT
BRANCH   1   6
ATOM      6  C   UNL     1      45.437 131.360  16.648  1.00  0.00     0.201 C 
BRANCH   6   7
ATOM      7  N   UNL     1      46.599 130.966  16.218  1.00  0.00    -0.068 NA
BRANCH   7   8
ATOM      8  O   UNL     1      47.127 129.733  16.525  1.00  0.00    -0.409 OA
ATOM      9  H   UNL     1      47.973 129.416  16.068  1.00  0.00     0.330 HD
ENDBRANCH   7   8
ENDBRANCH   6   7
BRANCH   6  10
ATOM     10  C   UNL     1      44.353 131.595  15.664  1.00  0.00     0.032 A 
ATOM     11  C   UNL     1      43.287 132.447  16.007  1.00  0.00     0.012 A 
ATOM     12  C   UNL     1      44.361 130.974  14.391  1.00  0.00     0.049 A 
ATOM     13  C   UNL     1      42.259 132.703  15.099  1.00  0.00     0.001 A 
ATOM     14  C   UNL     1      43.316 131.244  13.486  1.00  0.00     0.011 A 
ATOM     15  C   UNL     1      42.275 132.105  13.840  1.00  0.00     0.001 A 
BRANCH  12  16
ATOM     16  N   UNL     1      45.405 130.047  14.053  1.00  0.00    -0.060 NA
BRANCH  16  17
ATOM     17  N   UNL     1      46.200 130.255  13.135  1.00  0.00     0.005 N 
ATOM     18  N   UNL     1      46.994 130.461  12.218  1.00  0.00    -0.003 NA
ENDBRANCH  16  17
ENDBRANCH  12  16
ENDBRANCH   6  10
ENDBRANCH   1   6
BRANCH   4  19
ATOM     19  C   UNL     1      43.702 132.808  21.106  1.00  0.00     0.121 C 
BRANCH  19  20
ATOM     20  C   UNL     1      42.545 133.716  20.612  1.00  0.00     0.270 C 
BRANCH  20  21
ATOM     21  N   UNL     1      42.045 134.772  21.558  1.00  0.00    -0.324 N 
ATOM     22  C   UNL     1      43.157 135.288  22.393  1.00  0.00     0.334 C 
ATOM     23  C   UNL     1      41.087 134.094  22.473  1.00  0.00     0.334 C 
BRANCH  21  24
ATOM     24  C   UNL     1      41.386 135.892  20.799  1.00  0.00     0.301 C 
BRANCH  24  25
ATOM     25  C   UNL     1      41.438 135.788  19.261  1.00  0.00     0.017 A 
ATOM     26  C   UNL     1      42.543 136.334  18.535  1.00  0.00    -0.042 A 
ATOM     27  C   UNL     1      40.400 135.130  18.521  1.00  0.00    -0.009 A 
ATOM     28  C   UNL     1      42.493 136.398  17.135  1.00  0.00     0.004 A 
ATOM     29  C   UNL     1      39.372 134.377  19.140  1.00  0.00     0.009 A 
ATOM     30  C   UNL     1      40.395 135.208  17.100  1.00  0.00    -0.018 A 
ATOM     31  C   UNL     1      41.424 135.869  16.429  1.00  0.00     0.009 A 
ATOM     32  C   UNL     1      38.360 133.780  18.385  1.00  0.00     0.001 A 
ATOM     33  C   UNL     1      39.366 134.608  16.356  1.00  0.00     0.009 A 
ATOM     34  C   UNL     1      38.352 133.903  16.999  1.00  0.00     0.001 A 
ATOM     35  C   UNL     1      43.816 136.806  19.199  1.00  0.00     0.045 C 
ENDBRANCH  24  25
ENDBRANCH  21  24
ENDBRANCH  20  21
ENDBRANCH  19  20
ENDBRANCH   4  19
TORSDOF 11
ENDMDL
MODEL 8
REMARK VINA RESULT:      -6.0      3.878      7.554
REMARK SMILES Cc1ccc2ccccc2c1C[N+](C)(C)CCc1cn(/C(=N\O)c2ccccc2N=[N+]=[N-])nn1
REMARK SMILES IDX 20 1 33 2 34 3 18 4 19 5 21 6 22 7 23 8 24 10 25 11 29 12
REMARK SMILES IDX 26 13 28 14 27 15 30 16 31 17 32 18 17 19 16 20 13 21 14 22
REMARK SMILES IDX 15 23 12 24 11 25 2 26 10 27 3 28 9 29 5 30 4 31 8 32 6 33
REMARK SMILES IDX 7 34 1 35
REMARK H PARENT 23 9
ROOT
ATOM      1  N   UNL     1      42.400 133.699  15.921  1.00  0.00    -0.198 N 
ATOM      2  N   UNL     1      43.667 133.636  15.538  1.00  0.00    -0.060 NA
ATOM      3  N   UNL     1      44.467 133.574  16.592  1.00  0.00    -0.135 NA
ATOM      4  C   UNL     1      43.673 133.586  17.681  1.00  0.00     0.089 A 
ATOM      5  C   UNL     1      42.363 133.671  17.265  1.00  0.00     0.143 A 
ENDROOT
BRANCH   1   6
ATOM      6  C   UNL     1      41.284 133.744  15.013  1.00  0.00     0.201 C 
BRANCH   6   7
ATOM      7  N   UNL     1      41.244 132.978  13.963  1.00  0.00    -0.068 NA
BRANCH   7   8
ATOM      8  O   UNL     1      42.249 132.093  13.649  1.00  0.00    -0.409 OA
ATOM      9  H   UNL     1      43.001 131.925  14.306  1.00  0.00     0.330 HD
ENDBRANCH   7   8
ENDBRANCH   6   7
BRANCH   6  10
ATOM     10  C   UNL     1      40.117 134.608  15.312  1.00  0.00     0.032 A 
ATOM     11  C   UNL     1      38.873 134.011  15.585  1.00  0.00     0.012 A 
ATOM     12  C   UNL     1      40.224 136.020  15.320  1.00  0.00     0.049 A 
ATOM     13  C   UNL     1      37.758 134.794  15.885  1.00  0.00     0.001 A 
ATOM     14  C   UNL     1      39.089 136.796  15.627  1.00  0.00     0.011 A 
ATOM     15  C   UNL     1      37.866 136.184  15.910  1.00  0.00     0.001 A 
BRANCH  12  16
ATOM     16  N   UNL     1      41.470 136.646  14.974  1.00  0.00    -0.060 NA
BRANCH  16  17
ATOM     17  N   UNL     1      42.210 137.153  15.819  1.00  0.00     0.005 N 
ATOM     18  N   UNL     1      42.947 137.659  16.664  1.00  0.00    -0.003 NA
ENDBRANCH  16  17
ENDBRANCH  12  16
ENDBRANCH   6  10
ENDBRANCH   1   6
BRANCH   4  19
ATOM     19  C   UNL     1      44.157 133.538  19.098  1.00  0.00     0.121 C 
BRANCH  19  20
ATOM     20  C   UNL     1      44.568 134.921  19.668  1.00  0.00     0.270 C 
BRANCH  20  21
ATOM     21  N   UNL     1      43.901 135.369  20.940  1.00  0.00    -0.324 N 
ATOM     22  C   UNL     1      43.520 134.196  21.764  1.00  0.00     0.334 C 
ATOM     23  C   UNL     1      42.642 136.048  20.534  1.00  0.00     0.334 C 
BRANCH  21  24
ATOM     24  C   UNL     1      44.804 136.292  21.713  1.00  0.00     0.301 C 
BRANCH  24  25
ATOM     25  C   UNL     1      46.224 136.483  21.142  1.00  0.00     0.017 A 
ATOM     26  C   UNL     1      47.287 135.612  21.539  1.00  0.00    -0.042 A 
ATOM     27  C   UNL     1      46.515 137.517  20.192  1.00  0.00    -0.009 A 
ATOM     28  C   UNL     1      48.605 135.905  21.161  1.00  0.00     0.004 A 
ATOM     29  C   UNL     1      45.508 138.299  19.573  1.00  0.00     0.009 A 
ATOM     30  C   UNL     1      47.866 137.772  19.824  1.00  0.00    -0.018 A 
ATOM     31  C   UNL     1      48.894 136.982  20.339  1.00  0.00     0.009 A 
ATOM     32  C   UNL     1      45.836 139.320  18.678  1.00  0.00     0.001 A 
ATOM     33  C   UNL     1      48.178 138.807  18.928  1.00  0.00     0.009 A 
ATOM     34  C   UNL     1      47.166 139.578  18.363  1.00  0.00     0.001 A 
ATOM     35  C   UNL     1      47.062 134.334  22.314  1.00  0.00     0.045 C 
ENDBRANCH  24  25
ENDBRANCH  21  24
ENDBRANCH  20  21
ENDBRANCH  19  20
ENDBRANCH   4  19
TORSDOF 11
ENDMDL
MODEL 9
REMARK VINA RESULT:      -5.9      3.587      7.970
REMARK SMILES Cc1ccc2ccccc2c1C[N+](C)(C)CCc1cn(/C(=N\O)c2ccccc2N=[N+]=[N-])nn1
REMARK SMILES IDX 20 1 33 2 34 3 18 4 19 5 21 6 22 7 23 8 24 10 25 11 29 12
REMARK SMILES IDX 26 13 28 14 27 15 30 16 31 17 32 18 17 19 16 20 13 21 14 22
REMARK SMILES IDX 15 23 12 24 11 25 2 26 10 27 3 28 9 29 5 30 4 31 8 32 6 33
REMARK SMILES IDX 7 34 1 35
REMARK H PARENT 23 9
ROOT
ATOM      1  N   UNL     1      39.875 134.097  14.760  1.00  0.00    -0.198 N 
ATOM      2  N   UNL     1      40.090 133.599  15.969  1.00  0.00    -0.060 NA
ATOM      3  N   UNL     1      41.188 132.859  15.977  1.00  0.00    -0.135 NA
ATOM      4  C   UNL     1      41.691 132.901  14.728  1.00  0.00     0.089 A 
ATOM      5  C   UNL     1      40.862 133.678  13.949  1.00  0.00     0.143 A 
ENDROOT
BRANCH   1   6
ATOM      6  C   UNL     1      38.779 134.969  14.430  1.00  0.00     0.201 C 
BRANCH   6   7
ATOM      7  N   UNL     1      37.551 134.544  14.464  1.00  0.00    -0.068 NA
BRANCH   7   8
ATOM      8  O   UNL     1      36.497 135.341  14.847  1.00  0.00    -0.409 OA
ATOM      9  H   UNL     1      36.665 136.170  15.403  1.00  0.00     0.330 HD
ENDBRANCH   7   8
ENDBRANCH   6   7
BRANCH   6  10
ATOM     10  C   UNL     1      39.031 136.399  14.130  1.00  0.00     0.032 A 
ATOM     11  C   UNL     1      39.617 137.215  15.116  1.00  0.00     0.012 A 
ATOM     12  C   UNL     1      38.687 136.965  12.879  1.00  0.00     0.049 A 
ATOM     13  C   UNL     1      39.883 138.561  14.861  1.00  0.00     0.001 A 
ATOM     14  C   UNL     1      38.964 138.325  12.637  1.00  0.00     0.011 A 
ATOM     15  C   UNL     1      39.560 139.114  13.623  1.00  0.00     0.001 A 
BRANCH  12  16
ATOM     16  N   UNL     1      38.024 136.163  11.888  1.00  0.00    -0.060 NA
BRANCH  16  17
ATOM     17  N   UNL     1      37.207 136.637  11.095  1.00  0.00     0.005 N 
ATOM     18  N   UNL     1      36.391 137.108  10.306  1.00  0.00    -0.003 NA
ENDBRANCH  16  17
ENDBRANCH  12  16
ENDBRANCH   6  10
ENDBRANCH   1   6
BRANCH   4  19
ATOM     19  C   UNL     1      42.932 132.193  14.277  1.00  0.00     0.121 C 
BRANCH  19  20
ATOM     20  C   UNL     1      43.502 131.197  15.321  1.00  0.00     0.270 C 
BRANCH  20  21
ATOM     21  N   UNL     1      44.983 130.939  15.291  1.00  0.00    -0.324 N 
ATOM     22  C   UNL     1      45.501 131.055  13.906  1.00  0.00     0.334 C 
ATOM     23  C   UNL     1      45.170 129.525  15.713  1.00  0.00     0.334 C 
BRANCH  21  24
ATOM     24  C   UNL     1      45.703 131.890  16.209  1.00  0.00     0.301 C 
BRANCH  24  25
ATOM     25  C   UNL     1      44.860 132.496  17.351  1.00  0.00     0.017 A 
ATOM     26  C   UNL     1      44.725 131.806  18.596  1.00  0.00    -0.042 A 
ATOM     27  C   UNL     1      44.208 133.765  17.206  1.00  0.00    -0.009 A 
ATOM     28  C   UNL     1      43.813 132.270  19.554  1.00  0.00     0.004 A 
ATOM     29  C   UNL     1      44.439 134.628  16.105  1.00  0.00     0.009 A 
ATOM     30  C   UNL     1      43.301 134.207  18.209  1.00  0.00    -0.018 A 
ATOM     31  C   UNL     1      43.092 133.437  19.354  1.00  0.00     0.009 A 
ATOM     32  C   UNL     1      43.758 135.841  15.985  1.00  0.00     0.001 A 
ATOM     33  C   UNL     1      42.618 135.426  18.068  1.00  0.00     0.009 A 
ATOM     34  C   UNL     1      42.845 136.235  16.958  1.00  0.00     0.001 A 
ATOM     35  C   UNL     1      45.567 130.608  18.972  1.00  0.00     0.045 C 
ENDBRANCH  24  25
ENDBRANCH  21  24
ENDBRANCH  20  21
ENDBRANCH  19  20
ENDBRANCH   4  19
TORSDOF 11
ENDMDL


