MODEL 1
REMARK VINA RESULT:      -6.0      0.000      0.000
REMARK SMILES C#C/C(N=[N+]=[N-])=N/[C@H](c1c(C)[nH+]nn1-c1c2ccccc2c(C(=O)N=[N+]=[N-])c2ccccc12)C(C)C
REMARK SMILES IDX 9 1 10 2 11 3 12 4 13 6 14 7 8 8 7 9 3 10 2 11 1 12 4 13
REMARK SMILES IDX 5 14 6 15 34 16 35 17 36 18 15 19 16 20 33 21 17 22 21 23
REMARK SMILES IDX 32 24 28 25 18 26 20 27 22 28 31 29 29 30 19 31 30 32 23 33
REMARK SMILES IDX 24 34 25 35 26 36 27 37
REMARK H PARENT 12 5
ROOT
ATOM      1  C   UNL     1      41.847 135.482  19.901  1.00  0.00     0.201 A 
ATOM      2  C   UNL     1      40.794 135.635  20.792  1.00  0.00     0.167 A 
ATOM      3  C   UNL     1      40.566 136.735  21.780  1.00  0.00     0.100 C 
ATOM      4  N   UNL     1      39.937 134.617  20.589  1.00  0.00    -0.147 N 
ATOM      5  H   UNL     1      39.036 134.442  21.086  1.00  0.00     0.342 HD
ATOM      6  N   UNL     1      40.434 133.845  19.638  1.00  0.00     0.094 NA
ATOM      7  N   UNL     1      41.583 134.344  19.206  1.00  0.00    -0.095 N 
ENDROOT
BRANCH   1   8
ATOM      8  C   UNL     1      43.047 136.411  19.757  1.00  0.00     0.186 C 
BRANCH   8   9
ATOM      9  N   UNL     1      44.296 135.650  19.656  1.00  0.00    -0.262 NA
BRANCH   9  10
ATOM     10  C   UNL     1      45.384 135.867  20.333  1.00  0.00     0.172 C 
BRANCH  10  11
ATOM     11  C   UNL     1      46.082 137.111  20.126  1.00  0.00    -0.049 C 
ATOM     12  C   UNL     1      46.662 138.153  19.953  1.00  0.00     0.011 C 
ENDBRANCH  10  11
BRANCH  10  13
ATOM     13  N   UNL     1      45.885 134.892  21.257  1.00  0.00    -0.032 NA
BRANCH  13  14
ATOM     14  N   UNL     1      47.061 134.892  21.626  1.00  0.00     0.008 N 
ATOM     15  N   UNL     1      48.234 134.892  21.994  1.00  0.00    -0.003 NA
ENDBRANCH  13  14
ENDBRANCH  10  13
ENDBRANCH   9  10
ENDBRANCH   8   9
BRANCH   8  16
ATOM     16  C   UNL     1      42.892 137.365  18.538  1.00  0.00     0.016 C 
ATOM     17  C   UNL     1      43.695 136.868  17.328  1.00  0.00     0.010 C 
ATOM     18  C   UNL     1      41.424 137.584  18.145  1.00  0.00     0.010 C 
ENDBRANCH   8  16
ENDBRANCH   1   8
BRANCH   7  19
ATOM     19  C   UNL     1      42.394 133.678  18.223  1.00  0.00     0.171 A 
ATOM     20  C   UNL     1      43.405 132.782  18.635  1.00  0.00     0.032 A 
ATOM     21  C   UNL     1      42.182 133.922  16.850  1.00  0.00     0.032 A 
ATOM     22  C   UNL     1      43.596 132.491  20.002  1.00  0.00     0.013 A 
ATOM     23  C   UNL     1      44.259 132.181  17.671  1.00  0.00    -0.002 A 
ATOM     24  C   UNL     1      41.126 134.753  16.422  1.00  0.00     0.013 A 
ATOM     25  C   UNL     1      43.035 133.328  15.881  1.00  0.00    -0.002 A 
ATOM     26  C   UNL     1      44.620 131.641  20.415  1.00  0.00     0.001 A 
ATOM     27  C   UNL     1      45.295 131.328  18.118  1.00  0.00     0.009 A 
ATOM     28  C   UNL     1      44.080 132.465  16.294  1.00  0.00     0.040 A 
ATOM     29  C   UNL     1      40.925 135.012  15.068  1.00  0.00     0.001 A 
ATOM     30  C   UNL     1      42.806 133.604  14.513  1.00  0.00     0.009 A 
ATOM     31  C   UNL     1      45.470 131.065  19.477  1.00  0.00     0.001 A 
ATOM     32  C   UNL     1      41.765 134.443  14.117  1.00  0.00     0.001 A 
BRANCH  28  33
ATOM     33  C   UNL     1      44.979 131.851  15.284  1.00  0.00     0.250 C 
ATOM     34  O   UNL     1      46.084 132.397  15.029  1.00  0.00    -0.287 OA
BRANCH  33  35
ATOM     35  N   UNL     1      44.612 130.655  14.589  1.00  0.00    -0.017 NA
BRANCH  35  36
ATOM     36  N   UNL     1      44.886 129.540  15.036  1.00  0.00     0.009 N 
ATOM     37  N   UNL     1      45.160 128.428  15.483  1.00  0.00    -0.003 NA
ENDBRANCH  35  36
ENDBRANCH  33  35
ENDBRANCH  28  33
ENDBRANCH   7  19
TORSDOF 11
ENDMDL
MODEL 2
REMARK VINA RESULT:      -5.9      2.459      6.514
REMARK SMILES C#C/C(N=[N+]=[N-])=N/[C@H](c1c(C)[nH+]nn1-c1c2ccccc2c(C(=O)N=[N+]=[N-])c2ccccc12)C(C)C
REMARK SMILES IDX 9 1 10 2 11 3 12 4 13 6 14 7 8 8 7 9 3 10 2 11 1 12 4 13
REMARK SMILES IDX 5 14 6 15 34 16 35 17 36 18 15 19 16 20 33 21 17 22 21 23
REMARK SMILES IDX 32 24 28 25 18 26 20 27 22 28 31 29 29 30 19 31 30 32 23 33
REMARK SMILES IDX 24 34 25 35 26 36 27 37
REMARK H PARENT 12 5
ROOT
ATOM      1  C   UNL     1      42.394 133.804  18.574  1.00  0.00     0.201 A 
ATOM      2  C   UNL     1      41.032 133.605  18.388  1.00  0.00     0.167 A 
ATOM      3  C   UNL     1      40.337 132.977  17.221  1.00  0.00     0.100 C 
ATOM      4  N   UNL     1      40.401 134.038  19.495  1.00  0.00    -0.147 N 
ATOM      5  H   UNL     1      39.375 134.021  19.683  1.00  0.00     0.342 HD
ATOM      6  N   UNL     1      41.312 134.513  20.327  1.00  0.00     0.094 NA
ATOM      7  N   UNL     1      42.519 134.383  19.798  1.00  0.00    -0.095 N 
ENDROOT
BRANCH   1   8
ATOM      8  C   UNL     1      43.500 133.446  17.588  1.00  0.00     0.186 C 
BRANCH   8   9
ATOM      9  N   UNL     1      43.625 131.993  17.439  1.00  0.00    -0.262 NA
BRANCH   9  10
ATOM     10  C   UNL     1      44.699 131.291  17.643  1.00  0.00     0.172 C 
BRANCH  10  11
ATOM     11  C   UNL     1      45.213 131.202  18.987  1.00  0.00    -0.049 C 
ATOM     12  C   UNL     1      45.641 131.124  20.110  1.00  0.00     0.011 C 
ENDBRANCH  10  11
BRANCH  10  13
ATOM     13  N   UNL     1      45.364 130.628  16.560  1.00  0.00    -0.032 NA
BRANCH  13  14
ATOM     14  N   UNL     1      45.917 131.258  15.656  1.00  0.00     0.008 N 
ATOM     15  N   UNL     1      46.470 131.886  14.755  1.00  0.00    -0.003 NA
ENDBRANCH  13  14
ENDBRANCH  10  13
ENDBRANCH   9  10
ENDBRANCH   8   9
BRANCH   8  16
ATOM     16  C   UNL     1      43.272 134.117  16.203  1.00  0.00     0.016 C 
ATOM     17  C   UNL     1      44.406 135.092  15.855  1.00  0.00     0.010 C 
ATOM     18  C   UNL     1      43.092 133.091  15.074  1.00  0.00     0.010 C 
ENDBRANCH   8  16
ENDBRANCH   1   8
BRANCH   7  19
ATOM     19  C   UNL     1      43.704 134.880  20.444  1.00  0.00     0.171 A 
ATOM     20  C   UNL     1      44.335 136.045  19.956  1.00  0.00     0.032 A 
ATOM     21  C   UNL     1      44.236 134.203  21.560  1.00  0.00     0.032 A 
ATOM     22  C   UNL     1      43.786 136.760  18.871  1.00  0.00     0.013 A 
ATOM     23  C   UNL     1      45.548 136.496  20.542  1.00  0.00    -0.002 A 
ATOM     24  C   UNL     1      43.574 133.084  22.106  1.00  0.00     0.013 A 
ATOM     25  C   UNL     1      45.452 134.645  22.150  1.00  0.00    -0.002 A 
ATOM     26  C   UNL     1      44.429 137.886  18.359  1.00  0.00     0.001 A 
ATOM     27  C   UNL     1      46.183 137.638  19.999  1.00  0.00     0.009 A 
ATOM     28  C   UNL     1      46.112 135.788  21.633  1.00  0.00     0.040 A 
ATOM     29  C   UNL     1      44.106 132.399  23.197  1.00  0.00     0.001 A 
ATOM     30  C   UNL     1      45.968 133.936  23.259  1.00  0.00     0.009 A 
ATOM     31  C   UNL     1      45.626 138.321  18.919  1.00  0.00     0.001 A 
ATOM     32  C   UNL     1      45.302 132.822  23.769  1.00  0.00     0.001 A 
BRANCH  28  33
ATOM     33  C   UNL     1      47.387 136.246  22.239  1.00  0.00     0.250 C 
ATOM     34  O   UNL     1      47.357 137.068  23.192  1.00  0.00    -0.287 OA
BRANCH  33  35
ATOM     35  N   UNL     1      48.652 135.778  21.759  1.00  0.00    -0.017 NA
BRANCH  35  36
ATOM     36  N   UNL     1      49.236 136.339  20.831  1.00  0.00     0.009 N 
ATOM     37  N   UNL     1      49.819 136.900  19.905  1.00  0.00    -0.003 NA
ENDBRANCH  35  36
ENDBRANCH  33  35
ENDBRANCH  28  33
ENDBRANCH   7  19
TORSDOF 11
ENDMDL
MODEL 3
REMARK VINA RESULT:      -5.8      2.351      6.664
REMARK SMILES C#C/C(N=[N+]=[N-])=N/[C@H](c1c(C)[nH+]nn1-c1c2ccccc2c(C(=O)N=[N+]=[N-])c2ccccc12)C(C)C
REMARK SMILES IDX 9 1 10 2 11 3 12 4 13 6 14 7 8 8 7 9 3 10 2 11 1 12 4 13
REMARK SMILES IDX 5 14 6 15 34 16 35 17 36 18 15 19 16 20 33 21 17 22 21 23
REMARK SMILES IDX 32 24 28 25 18 26 20 27 22 28 31 29 29 30 19 31 30 32 23 33
REMARK SMILES IDX 24 34 25 35 26 36 27 37
REMARK H PARENT 12 5
ROOT
ATOM      1  C   UNL     1      42.909 133.442  16.909  1.00  0.00     0.201 A 
ATOM      2  C   UNL     1      41.801 133.129  16.131  1.00  0.00     0.167 A 
ATOM      3  C   UNL     1      41.716 133.011  14.642  1.00  0.00     0.100 C 
ATOM      4  N   UNL     1      40.773 132.887  16.966  1.00  0.00    -0.147 N 
ATOM      5  H   UNL     1      39.800 132.614  16.705  1.00  0.00     0.342 HD
ATOM      6  N   UNL     1      41.199 133.063  18.204  1.00  0.00     0.094 NA
ATOM      7  N   UNL     1      42.481 133.397  18.199  1.00  0.00    -0.095 N 
ENDROOT
BRANCH   1   8
ATOM      8  C   UNL     1      44.305 133.773  16.394  1.00  0.00     0.186 C 
BRANCH   8   9
ATOM      9  N   UNL     1      44.645 132.956  15.225  1.00  0.00    -0.262 NA
BRANCH   9  10
ATOM     10  C   UNL     1      45.221 131.791  15.244  1.00  0.00     0.172 C 
BRANCH  10  11
ATOM     11  C   UNL     1      46.415 131.605  14.459  1.00  0.00    -0.049 C 
ATOM     12  C   UNL     1      47.414 131.445  13.805  1.00  0.00     0.011 C 
ENDBRANCH  10  11
BRANCH  10  13
ATOM     13  N   UNL     1      44.678 130.714  16.018  1.00  0.00    -0.032 NA
BRANCH  13  14
ATOM     14  N   UNL     1      44.879 129.535  15.720  1.00  0.00     0.008 N 
ATOM     15  N   UNL     1      45.078 128.359  15.422  1.00  0.00    -0.003 NA
ENDBRANCH  13  14
ENDBRANCH  10  13
ENDBRANCH   9  10
ENDBRANCH   8   9
BRANCH   8  16
ATOM     16  C   UNL     1      44.451 135.286  16.061  1.00  0.00     0.016 C 
ATOM     17  C   UNL     1      43.353 135.759  15.099  1.00  0.00     0.010 C 
ATOM     18  C   UNL     1      44.468 136.167  17.319  1.00  0.00     0.010 C 
ENDBRANCH   8  16
ENDBRANCH   1   8
BRANCH   7  19
ATOM     19  C   UNL     1      43.200 133.726  19.399  1.00  0.00     0.171 A 
ATOM     20  C   UNL     1      42.877 134.900  20.114  1.00  0.00     0.032 A 
ATOM     21  C   UNL     1      44.229 132.878  19.860  1.00  0.00     0.032 A 
ATOM     22  C   UNL     1      41.818 135.731  19.691  1.00  0.00     0.013 A 
ATOM     23  C   UNL     1      43.636 135.269  21.257  1.00  0.00    -0.002 A 
ATOM     24  C   UNL     1      44.509 131.663  19.202  1.00  0.00     0.013 A 
ATOM     25  C   UNL     1      44.994 133.242  21.001  1.00  0.00    -0.002 A 
ATOM     26  C   UNL     1      41.525 136.913  20.369  1.00  0.00     0.001 A 
ATOM     27  C   UNL     1      43.320 136.477  21.922  1.00  0.00     0.009 A 
ATOM     28  C   UNL     1      44.703 134.444  21.693  1.00  0.00     0.040 A 
ATOM     29  C   UNL     1      45.537 130.832  19.642  1.00  0.00     0.001 A 
ATOM     30  C   UNL     1      46.029 132.378  21.430  1.00  0.00     0.009 A 
ATOM     31  C   UNL     1      42.276 137.287  21.478  1.00  0.00     0.001 A 
ATOM     32  C   UNL     1      46.297 131.191  20.750  1.00  0.00     0.001 A 
BRANCH  28  33
ATOM     33  C   UNL     1      45.508 134.832  22.879  1.00  0.00     0.250 C 
ATOM     34  O   UNL     1      45.098 134.528  24.030  1.00  0.00    -0.287 OA
BRANCH  33  35
ATOM     35  N   UNL     1      46.738 135.552  22.741  1.00  0.00    -0.017 NA
BRANCH  35  36
ATOM     36  N   UNL     1      46.760 136.782  22.673  1.00  0.00     0.009 N 
ATOM     37  N   UNL     1      46.783 138.009  22.604  1.00  0.00    -0.003 NA
ENDBRANCH  35  36
ENDBRANCH  33  35
ENDBRANCH  28  33
ENDBRANCH   7  19
TORSDOF 11
ENDMDL
MODEL 4
REMARK VINA RESULT:      -5.8      2.974      6.425
REMARK SMILES C#C/C(N=[N+]=[N-])=N/[C@H](c1c(C)[nH+]nn1-c1c2ccccc2c(C(=O)N=[N+]=[N-])c2ccccc12)C(C)C
REMARK SMILES IDX 9 1 10 2 11 3 12 4 13 6 14 7 8 8 7 9 3 10 2 11 1 12 4 13
REMARK SMILES IDX 5 14 6 15 34 16 35 17 36 18 15 19 16 20 33 21 17 22 21 23
REMARK SMILES IDX 32 24 28 25 18 26 20 27 22 28 31 29 29 30 19 31 30 32 23 33
REMARK SMILES IDX 24 34 25 35 26 36 27 37
REMARK H PARENT 12 5
ROOT
ATOM      1  C   UNL     1      44.018 132.966  18.475  1.00  0.00     0.201 A 
ATOM      2  C   UNL     1      44.462 131.969  19.335  1.00  0.00     0.167 A 
ATOM      3  C   UNL     1      45.417 130.853  19.047  1.00  0.00     0.100 C 
ATOM      4  N   UNL     1      43.914 132.198  20.542  1.00  0.00    -0.147 N 
ATOM      5  H   UNL     1      44.052 131.641  21.413  1.00  0.00     0.342 HD
ATOM      6  N   UNL     1      43.142 133.267  20.447  1.00  0.00     0.094 NA
ATOM      7  N   UNL     1      43.188 133.749  19.214  1.00  0.00    -0.095 N 
ENDROOT
BRANCH   1   8
ATOM      8  C   UNL     1      44.394 133.121  17.006  1.00  0.00     0.186 C 
BRANCH   8   9
ATOM      9  N   UNL     1      44.282 131.844  16.294  1.00  0.00    -0.262 NA
BRANCH   9  10
ATOM     10  C   UNL     1      45.213 131.274  15.589  1.00  0.00     0.172 C 
BRANCH  10  11
ATOM     11  C   UNL     1      45.206 129.837  15.481  1.00  0.00    -0.049 C 
ATOM     12  C   UNL     1      45.198 128.635  15.393  1.00  0.00     0.011 C 
ENDBRANCH  10  11
BRANCH  10  13
ATOM     13  N   UNL     1      46.228 132.052  14.942  1.00  0.00    -0.032 NA
BRANCH  13  14
ATOM     14  N   UNL     1      46.995 131.558  14.113  1.00  0.00     0.008 N 
ATOM     15  N   UNL     1      47.759 131.065  13.286  1.00  0.00    -0.003 NA
ENDBRANCH  13  14
ENDBRANCH  10  13
ENDBRANCH   9  10
ENDBRANCH   8   9
BRANCH   8  16
ATOM     16  C   UNL     1      43.534 134.211  16.305  1.00  0.00     0.016 C 
ATOM     17  C   UNL     1      44.408 135.329  15.719  1.00  0.00     0.010 C 
ATOM     18  C   UNL     1      42.617 133.630  15.219  1.00  0.00     0.010 C 
ENDBRANCH   8  16
ENDBRANCH   1   8
BRANCH   7  19
ATOM     19  C   UNL     1      42.390 134.868  18.791  1.00  0.00     0.171 A 
ATOM     20  C   UNL     1      42.930 136.172  18.825  1.00  0.00     0.032 A 
ATOM     21  C   UNL     1      41.068 134.662  18.345  1.00  0.00     0.032 A 
ATOM     22  C   UNL     1      44.267 136.386  19.222  1.00  0.00     0.013 A 
ATOM     23  C   UNL     1      42.121 137.287  18.481  1.00  0.00    -0.002 A 
ATOM     24  C   UNL     1      40.541 133.359  18.231  1.00  0.00     0.013 A 
ATOM     25  C   UNL     1      40.250 135.774  18.003  1.00  0.00    -0.002 A 
ATOM     26  C   UNL     1      44.791 137.675  19.298  1.00  0.00     0.001 A 
ATOM     27  C   UNL     1      42.676 138.585  18.574  1.00  0.00     0.009 A 
ATOM     28  C   UNL     1      40.775 137.088  18.081  1.00  0.00     0.040 A 
ATOM     29  C   UNL     1      39.229 133.152  17.810  1.00  0.00     0.001 A 
ATOM     30  C   UNL     1      38.924 135.536  17.574  1.00  0.00     0.009 A 
ATOM     31  C   UNL     1      43.997 138.771  18.979  1.00  0.00     0.001 A 
ATOM     32  C   UNL     1      38.422 134.238  17.486  1.00  0.00     0.001 A 
BRANCH  28  33
ATOM     33  C   UNL     1      39.921 138.251  17.735  1.00  0.00     0.250 C 
ATOM     34  O   UNL     1      39.222 138.792  18.631  1.00  0.00    -0.287 OA
BRANCH  33  35
ATOM     35  N   UNL     1      39.869 138.767  16.400  1.00  0.00    -0.017 NA
BRANCH  35  36
ATOM     36  N   UNL     1      40.604 138.331  15.512  1.00  0.00     0.009 N 
ATOM     37  N   UNL     1      41.335 137.896  14.626  1.00  0.00    -0.003 NA
ENDBRANCH  35  36
ENDBRANCH  33  35
ENDBRANCH  28  33
ENDBRANCH   7  19
TORSDOF 11
ENDMDL
MODEL 5
REMARK VINA RESULT:      -5.7      3.076      6.928
REMARK SMILES C#C/C(N=[N+]=[N-])=N/[C@H](c1c(C)[nH+]nn1-c1c2ccccc2c(C(=O)N=[N+]=[N-])c2ccccc12)C(C)C
REMARK SMILES IDX 9 1 10 2 11 3 12 4 13 6 14 7 8 8 7 9 3 10 2 11 1 12 4 13
REMARK SMILES IDX 5 14 6 15 34 16 35 17 36 18 15 19 16 20 33 21 17 22 21 23
REMARK SMILES IDX 32 24 28 25 18 26 20 27 22 28 31 29 29 30 19 31 30 32 23 33
REMARK SMILES IDX 24 34 25 35 26 36 27 37
REMARK H PARENT 12 5
ROOT
ATOM      1  C   UNL     1      44.068 132.547  17.592  1.00  0.00     0.201 A 
ATOM      2  C   UNL     1      44.783 131.596  18.308  1.00  0.00     0.167 A 
ATOM      3  C   UNL     1      45.620 130.473  17.780  1.00  0.00     0.100 C 
ATOM      4  N   UNL     1      44.644 131.880  19.616  1.00  0.00    -0.147 N 
ATOM      5  H   UNL     1      45.063 131.365  20.421  1.00  0.00     0.342 HD
ATOM      6  N   UNL     1      43.860 132.938  19.725  1.00  0.00     0.094 NA
ATOM      7  N   UNL     1      43.500 133.361  18.522  1.00  0.00    -0.095 N 
ENDROOT
BRANCH   1   8
ATOM      8  C   UNL     1      43.954 132.634  16.075  1.00  0.00     0.186 C 
BRANCH   8   9
ATOM      9  N   UNL     1      44.343 133.962  15.590  1.00  0.00    -0.262 NA
BRANCH   9  10
ATOM     10  C   UNL     1      43.554 134.845  15.056  1.00  0.00     0.172 C 
BRANCH  10  11
ATOM     11  C   UNL     1      42.247 134.421  14.621  1.00  0.00    -0.049 C 
ATOM     12  C   UNL     1      41.156 134.063  14.257  1.00  0.00     0.011 C 
ENDBRANCH  10  11
BRANCH  10  13
ATOM     13  N   UNL     1      43.973 136.206  14.893  1.00  0.00    -0.032 NA
BRANCH  13  14
ATOM     14  N   UNL     1      43.162 137.125  14.764  1.00  0.00     0.008 N 
ATOM     15  N   UNL     1      42.351 138.041  14.637  1.00  0.00    -0.003 NA
ENDBRANCH  13  14
ENDBRANCH  10  13
ENDBRANCH   9  10
ENDBRANCH   8   9
BRANCH   8  16
ATOM     16  C   UNL     1      44.796 131.531  15.372  1.00  0.00     0.016 C 
ATOM     17  C   UNL     1      44.061 130.949  14.156  1.00  0.00     0.010 C 
ATOM     18  C   UNL     1      46.190 132.027  14.960  1.00  0.00     0.010 C 
ENDBRANCH   8  16
ENDBRANCH   1   8
BRANCH   7  19
ATOM     19  C   UNL     1      42.586 134.453  18.327  1.00  0.00     0.171 A 
ATOM     20  C   UNL     1      41.223 134.192  18.064  1.00  0.00     0.032 A 
ATOM     21  C   UNL     1      43.050 135.783  18.395  1.00  0.00     0.032 A 
ATOM     22  C   UNL     1      40.736 132.868  18.042  1.00  0.00     0.013 A 
ATOM     23  C   UNL     1      40.332 135.265  17.794  1.00  0.00    -0.002 A 
ATOM     24  C   UNL     1      44.391 136.060  18.735  1.00  0.00     0.013 A 
ATOM     25  C   UNL     1      42.166 136.861  18.123  1.00  0.00    -0.002 A 
ATOM     26  C   UNL     1      39.401 132.604  17.740  1.00  0.00     0.001 A 
ATOM     27  C   UNL     1      38.984 134.968  17.485  1.00  0.00     0.009 A 
ATOM     28  C   UNL     1      40.808 136.600  17.813  1.00  0.00     0.040 A 
ATOM     29  C   UNL     1      44.859 137.371  18.784  1.00  0.00     0.001 A 
ATOM     30  C   UNL     1      42.665 138.183  18.185  1.00  0.00     0.009 A 
ATOM     31  C   UNL     1      38.529 133.650  17.458  1.00  0.00     0.001 A 
ATOM     32  C   UNL     1      44.000 138.429  18.506  1.00  0.00     0.001 A 
BRANCH  28  33
ATOM     33  C   UNL     1      39.884 137.724  17.518  1.00  0.00     0.250 C 
ATOM     34  O   UNL     1      39.712 138.084  16.324  1.00  0.00    -0.287 OA
BRANCH  33  35
ATOM     35  N   UNL     1      39.190 138.413  18.564  1.00  0.00    -0.017 NA
BRANCH  35  36
ATOM     36  N   UNL     1      38.084 138.921  18.376  1.00  0.00     0.009 N 
ATOM     37  N   UNL     1      36.980 139.429  18.191  1.00  0.00    -0.003 NA
ENDBRANCH  35  36
ENDBRANCH  33  35
ENDBRANCH  28  33
ENDBRANCH   7  19
TORSDOF 11
ENDMDL
MODEL 6
REMARK VINA RESULT:      -5.7      2.453      4.644
REMARK SMILES C#C/C(N=[N+]=[N-])=N/[C@H](c1c(C)[nH+]nn1-c1c2ccccc2c(C(=O)N=[N+]=[N-])c2ccccc12)C(C)C
REMARK SMILES IDX 9 1 10 2 11 3 12 4 13 6 14 7 8 8 7 9 3 10 2 11 1 12 4 13
REMARK SMILES IDX 5 14 6 15 34 16 35 17 36 18 15 19 16 20 33 21 17 22 21 23
REMARK SMILES IDX 32 24 28 25 18 26 20 27 22 28 31 29 29 30 19 31 30 32 23 33
REMARK SMILES IDX 24 34 25 35 26 36 27 37
REMARK H PARENT 12 5
ROOT
ATOM      1  C   UNL     1      44.331 132.820  21.298  1.00  0.00     0.201 A 
ATOM      2  C   UNL     1      44.185 132.023  22.426  1.00  0.00     0.167 A 
ATOM      3  C   UNL     1      44.895 132.133  23.738  1.00  0.00     0.100 C 
ATOM      4  N   UNL     1      43.223 131.118  22.165  1.00  0.00    -0.147 N 
ATOM      5  H   UNL     1      42.863 130.378  22.806  1.00  0.00     0.342 HD
ATOM      6  N   UNL     1      42.800 131.314  20.928  1.00  0.00     0.094 NA
ATOM      7  N   UNL     1      43.449 132.333  20.384  1.00  0.00    -0.095 N 
ENDROOT
BRANCH   1   8
ATOM      8  C   UNL     1      45.295 133.990  21.141  1.00  0.00     0.186 C 
BRANCH   8   9
ATOM      9  N   UNL     1      44.574 135.267  21.105  1.00  0.00    -0.262 NA
BRANCH   9  10
ATOM     10  C   UNL     1      44.782 136.242  20.271  1.00  0.00     0.172 C 
BRANCH  10  11
ATOM     11  C   UNL     1      45.215 137.512  20.797  1.00  0.00    -0.049 C 
ATOM     12  C   UNL     1      45.575 138.576  21.233  1.00  0.00     0.011 C 
ENDBRANCH  10  11
BRANCH  10  13
ATOM     13  N   UNL     1      44.578 136.064  18.864  1.00  0.00    -0.032 NA
BRANCH  13  14
ATOM     14  N   UNL     1      43.977 136.898  18.185  1.00  0.00     0.008 N 
ATOM     15  N   UNL     1      43.377 137.731  17.506  1.00  0.00    -0.003 NA
ENDBRANCH  13  14
ENDBRANCH  10  13
ENDBRANCH   9  10
ENDBRANCH   8   9
BRANCH   8  16
ATOM     16  C   UNL     1      46.369 134.004  22.266  1.00  0.00     0.016 C 
ATOM     17  C   UNL     1      47.788 134.116  21.690  1.00  0.00     0.010 C 
ATOM     18  C   UNL     1      46.127 135.116  23.297  1.00  0.00     0.010 C 
ENDBRANCH   8  16
ENDBRANCH   1   8
BRANCH   7  19
ATOM     19  C   UNL     1      43.254 132.733  19.017  1.00  0.00     0.171 A 
ATOM     20  C   UNL     1      42.265 133.689  18.698  1.00  0.00     0.032 A 
ATOM     21  C   UNL     1      44.047 132.169  17.997  1.00  0.00     0.032 A 
ATOM     22  C   UNL     1      41.498 134.298  19.714  1.00  0.00     0.013 A 
ATOM     23  C   UNL     1      42.017 134.030  17.341  1.00  0.00    -0.002 A 
ATOM     24  C   UNL     1      45.091 131.272  18.309  1.00  0.00     0.013 A 
ATOM     25  C   UNL     1      43.802 132.502  16.637  1.00  0.00    -0.002 A 
ATOM     26  C   UNL     1      40.492 135.210  19.399  1.00  0.00     0.001 A 
ATOM     27  C   UNL     1      40.985 134.954  17.050  1.00  0.00     0.009 A 
ATOM     28  C   UNL     1      42.779 133.427  16.310  1.00  0.00     0.040 A 
ATOM     29  C   UNL     1      45.864 130.697  17.303  1.00  0.00     0.001 A 
ATOM     30  C   UNL     1      44.605 131.908  15.636  1.00  0.00     0.009 A 
ATOM     31  C   UNL     1      40.234 135.533  18.071  1.00  0.00     0.001 A 
ATOM     32  C   UNL     1      45.619 131.011  15.970  1.00  0.00     0.001 A 
BRANCH  28  33
ATOM     33  C   UNL     1      42.514 133.769  14.890  1.00  0.00     0.250 C 
ATOM     34  O   UNL     1      43.100 134.755  14.372  1.00  0.00    -0.287 OA
BRANCH  33  35
ATOM     35  N   UNL     1      41.599 133.004  14.097  1.00  0.00    -0.017 NA
BRANCH  35  36
ATOM     36  N   UNL     1      40.391 133.250  14.091  1.00  0.00     0.009 N 
ATOM     37  N   UNL     1      39.187 133.496  14.083  1.00  0.00    -0.003 NA
ENDBRANCH  35  36
ENDBRANCH  33  35
ENDBRANCH  28  33
ENDBRANCH   7  19
TORSDOF 11
ENDMDL
MODEL 7
REMARK VINA RESULT:      -5.6      2.879      6.241
REMARK SMILES C#C/C(N=[N+]=[N-])=N/[C@H](c1c(C)[nH+]nn1-c1c2ccccc2c(C(=O)N=[N+]=[N-])c2ccccc12)C(C)C
REMARK SMILES IDX 9 1 10 2 11 3 12 4 13 6 14 7 8 8 7 9 3 10 2 11 1 12 4 13
REMARK SMILES IDX 5 14 6 15 34 16 35 17 36 18 15 19 16 20 33 21 17 22 21 23
REMARK SMILES IDX 32 24 28 25 18 26 20 27 22 28 31 29 29 30 19 31 30 32 23 33
REMARK SMILES IDX 24 34 25 35 26 36 27 37
REMARK H PARENT 12 5
ROOT
ATOM      1  C   UNL     1      43.993 133.007  17.395  1.00  0.00     0.201 A 
ATOM      2  C   UNL     1      44.981 132.084  17.077  1.00  0.00     0.167 A 
ATOM      3  C   UNL     1      45.361 130.839  17.816  1.00  0.00     0.100 C 
ATOM      4  N   UNL     1      45.543 132.472  15.917  1.00  0.00    -0.147 N 
ATOM      5  H   UNL     1      46.310 131.992  15.397  1.00  0.00     0.342 HD
ATOM      6  N   UNL     1      44.961 133.594  15.534  1.00  0.00     0.094 NA
ATOM      7  N   UNL     1      44.023 133.938  16.404  1.00  0.00    -0.095 N 
ENDROOT
BRANCH   1   8
ATOM      8  C   UNL     1      43.080 132.964  18.615  1.00  0.00     0.186 C 
BRANCH   8   9
ATOM      9  N   UNL     1      43.657 133.717  19.733  1.00  0.00    -0.262 NA
BRANCH   9  10
ATOM     10  C   UNL     1      44.482 133.255  20.624  1.00  0.00     0.172 C 
BRANCH  10  11
ATOM     11  C   UNL     1      45.516 134.129  21.117  1.00  0.00    -0.049 C 
ATOM     12  C   UNL     1      46.382 134.861  21.526  1.00  0.00     0.011 C 
ENDBRANCH  10  11
BRANCH  10  13
ATOM     13  N   UNL     1      44.374 131.907  21.100  1.00  0.00    -0.032 NA
BRANCH  13  14
ATOM     14  N   UNL     1      44.148 131.653  22.285  1.00  0.00     0.008 N 
ATOM     15  N   UNL     1      43.923 131.399  23.467  1.00  0.00    -0.003 NA
ENDBRANCH  13  14
ENDBRANCH  10  13
ENDBRANCH   9  10
ENDBRANCH   8   9
BRANCH   8  16
ATOM     16  C   UNL     1      41.654 133.491  18.283  1.00  0.00     0.016 C 
ATOM     17  C   UNL     1      40.709 132.348  17.886  1.00  0.00     0.010 C 
ATOM     18  C   UNL     1      41.045 134.306  19.434  1.00  0.00     0.010 C 
ENDBRANCH   8  16
ENDBRANCH   1   8
BRANCH   7  19
ATOM     19  C   UNL     1      43.271 135.157  16.290  1.00  0.00     0.171 A 
ATOM     20  C   UNL     1      42.158 135.220  15.423  1.00  0.00     0.032 A 
ATOM     21  C   UNL     1      43.647 136.291  17.039  1.00  0.00     0.032 A 
ATOM     22  C   UNL     1      41.741 134.079  14.704  1.00  0.00     0.013 A 
ATOM     23  C   UNL     1      41.459 136.444  15.248  1.00  0.00    -0.002 A 
ATOM     24  C   UNL     1      44.707 136.222  17.967  1.00  0.00     0.013 A 
ATOM     25  C   UNL     1      42.955 137.521  16.867  1.00  0.00    -0.002 A 
ATOM     26  C   UNL     1      40.670 134.147  13.815  1.00  0.00     0.001 A 
ATOM     27  C   UNL     1      40.379 136.487  14.335  1.00  0.00     0.009 A 
ATOM     28  C   UNL     1      41.866 137.598  15.963  1.00  0.00     0.040 A 
ATOM     29  C   UNL     1      45.094 137.344  18.695  1.00  0.00     0.001 A 
ATOM     30  C   UNL     1      43.365 138.644  17.623  1.00  0.00     0.009 A 
ATOM     31  C   UNL     1      39.994 135.348  13.628  1.00  0.00     0.001 A 
ATOM     32  C   UNL     1      44.427 138.553  18.521  1.00  0.00     0.001 A 
BRANCH  28  33
ATOM     33  C   UNL     1      41.148 138.884  15.774  1.00  0.00     0.250 C 
ATOM     34  O   UNL     1      41.455 139.625  14.803  1.00  0.00    -0.287 OA
BRANCH  33  35
ATOM     35  N   UNL     1      40.118 139.302  16.675  1.00  0.00    -0.017 NA
BRANCH  35  36
ATOM     36  N   UNL     1      39.184 138.556  16.977  1.00  0.00     0.009 N 
ATOM     37  N   UNL     1      38.253 137.812  17.277  1.00  0.00    -0.003 NA
ENDBRANCH  35  36
ENDBRANCH  33  35
ENDBRANCH  28  33
ENDBRANCH   7  19
TORSDOF 11
ENDMDL
MODEL 8
REMARK VINA RESULT:      -5.6      2.770      6.687
REMARK SMILES C#C/C(N=[N+]=[N-])=N/[C@H](c1c(C)[nH+]nn1-c1c2ccccc2c(C(=O)N=[N+]=[N-])c2ccccc12)C(C)C
REMARK SMILES IDX 9 1 10 2 11 3 12 4 13 6 14 7 8 8 7 9 3 10 2 11 1 12 4 13
REMARK SMILES IDX 5 14 6 15 34 16 35 17 36 18 15 19 16 20 33 21 17 22 21 23
REMARK SMILES IDX 32 24 28 25 18 26 20 27 22 28 31 29 29 30 19 31 30 32 23 33
REMARK SMILES IDX 24 34 25 35 26 36 27 37
REMARK H PARENT 12 5
ROOT
ATOM      1  C   UNL     1      43.775 133.285  18.615  1.00  0.00     0.201 A 
ATOM      2  C   UNL     1      44.186 132.487  19.675  1.00  0.00     0.167 A 
ATOM      3  C   UNL     1      45.129 131.326  19.651  1.00  0.00     0.100 C 
ATOM      4  N   UNL     1      43.617 132.971  20.795  1.00  0.00    -0.147 N 
ATOM      5  H   UNL     1      43.728 132.607  21.766  1.00  0.00     0.342 HD
ATOM      6  N   UNL     1      42.864 134.004  20.459  1.00  0.00     0.094 NA
ATOM      7  N   UNL     1      42.942 134.216  19.154  1.00  0.00    -0.095 N 
ENDROOT
BRANCH   1   8
ATOM      8  C   UNL     1      44.183 133.124  17.156  1.00  0.00     0.186 C 
BRANCH   8   9
ATOM      9  N   UNL     1      44.401 131.713  16.820  1.00  0.00    -0.262 NA
BRANCH   9  10
ATOM     10  C   UNL     1      45.207 131.257  15.909  1.00  0.00     0.172 C 
BRANCH  10  11
ATOM     11  C   UNL     1      45.166 129.849  15.602  1.00  0.00    -0.049 C 
ATOM     12  C   UNL     1      45.130 128.673  15.342  1.00  0.00     0.011 C 
ENDBRANCH  10  11
BRANCH  10  13
ATOM     13  N   UNL     1      46.122 132.127  15.231  1.00  0.00    -0.032 NA
BRANCH  13  14
ATOM     14  N   UNL     1      46.876 131.715  14.348  1.00  0.00     0.008 N 
ATOM     15  N   UNL     1      47.628 131.305  13.465  1.00  0.00    -0.003 NA
ENDBRANCH  13  14
ENDBRANCH  10  13
ENDBRANCH   9  10
ENDBRANCH   8   9
BRANCH   8  16
ATOM     16  C   UNL     1      43.137 133.756  16.194  1.00  0.00     0.016 C 
ATOM     17  C   UNL     1      43.788 134.762  15.233  1.00  0.00     0.010 C 
ATOM     18  C   UNL     1      42.351 132.701  15.402  1.00  0.00     0.010 C 
ENDBRANCH   8  16
ENDBRANCH   1   8
BRANCH   7  19
ATOM     19  C   UNL     1      42.170 135.228  18.487  1.00  0.00     0.171 A 
ATOM     20  C   UNL     1      40.856 134.943  18.056  1.00  0.00     0.032 A 
ATOM     21  C   UNL     1      42.727 136.504  18.259  1.00  0.00     0.032 A 
ATOM     22  C   UNL     1      40.270 133.687  18.320  1.00  0.00     0.013 A 
ATOM     23  C   UNL     1      40.118 135.915  17.328  1.00  0.00    -0.002 A 
ATOM     24  C   UNL     1      44.008 136.829  18.753  1.00  0.00     0.013 A 
ATOM     25  C   UNL     1      41.996 137.481  17.529  1.00  0.00    -0.002 A 
ATOM     26  C   UNL     1      38.989 133.387  17.859  1.00  0.00     0.001 A 
ATOM     27  C   UNL     1      38.823 135.581  16.867  1.00  0.00     0.009 A 
ATOM     28  C   UNL     1      40.695 137.181  17.055  1.00  0.00     0.040 A 
ATOM     29  C   UNL     1      44.569 138.081  18.514  1.00  0.00     0.001 A 
ATOM     30  C   UNL     1      42.587 138.746  17.305  1.00  0.00     0.009 A 
ATOM     31  C   UNL     1      38.270 134.329  17.132  1.00  0.00     0.001 A 
ATOM     32  C   UNL     1      43.863 139.035  17.789  1.00  0.00     0.001 A 
BRANCH  28  33
ATOM     33  C   UNL     1      39.933 138.195  16.283  1.00  0.00     0.250 C 
ATOM     34  O   UNL     1      40.003 138.193  15.026  1.00  0.00    -0.287 OA
BRANCH  33  35
ATOM     35  N   UNL     1      39.127 139.180  16.938  1.00  0.00    -0.017 NA
BRANCH  35  36
ATOM     36  N   UNL     1      38.726 139.020  18.092  1.00  0.00     0.009 N 
ATOM     37  N   UNL     1      38.326 138.863  19.244  1.00  0.00    -0.003 NA
ENDBRANCH  35  36
ENDBRANCH  33  35
ENDBRANCH  28  33
ENDBRANCH   7  19
TORSDOF 11
ENDMDL
MODEL 9
REMARK VINA RESULT:      -5.6      1.882      2.053
REMARK SMILES C#C/C(N=[N+]=[N-])=N/[C@H](c1c(C)[nH+]nn1-c1c2ccccc2c(C(=O)N=[N+]=[N-])c2ccccc12)C(C)C
REMARK SMILES IDX 9 1 10 2 11 3 12 4 13 6 14 7 8 8 7 9 3 10 2 11 1 12 4 13
REMARK SMILES IDX 5 14 6 15 34 16 35 17 36 18 15 19 16 20 33 21 17 22 21 23
REMARK SMILES IDX 32 24 28 25 18 26 20 27 22 28 31 29 29 30 19 31 30 32 23 33
REMARK SMILES IDX 24 34 25 35 26 36 27 37
REMARK H PARENT 12 5
ROOT
ATOM      1  C   UNL     1      40.266 135.758  19.130  1.00  0.00     0.201 A 
ATOM      2  C   UNL     1      39.055 135.961  19.779  1.00  0.00     0.167 A 
ATOM      3  C   UNL     1      38.565 137.198  20.464  1.00  0.00     0.100 C 
ATOM      4  N   UNL     1      38.330 134.835  19.651  1.00  0.00    -0.147 N 
ATOM      5  H   UNL     1      37.368 134.659  20.016  1.00  0.00     0.342 HD
ATOM      6  N   UNL     1      39.053 133.955  18.980  1.00  0.00     0.094 NA
ATOM      7  N   UNL     1      40.222 134.486  18.653  1.00  0.00    -0.095 N 
ENDROOT
BRANCH   1   8
ATOM      8  C   UNL     1      41.399 136.770  19.000  1.00  0.00     0.186 C 
BRANCH   8   9
ATOM      9  N   UNL     1      42.707 136.117  19.111  1.00  0.00    -0.262 NA
BRANCH   9  10
ATOM     10  C   UNL     1      43.665 136.450  19.923  1.00  0.00     0.172 C 
BRANCH  10  11
ATOM     11  C   UNL     1      44.809 137.142  19.385  1.00  0.00    -0.049 C 
ATOM     12  C   UNL     1      45.767 137.719  18.937  1.00  0.00     0.011 C 
ENDBRANCH  10  11
BRANCH  10  13
ATOM     13  N   UNL     1      43.593 136.131  21.318  1.00  0.00    -0.032 NA
BRANCH  13  14
ATOM     14  N   UNL     1      43.791 136.981  22.189  1.00  0.00     0.008 N 
ATOM     15  N   UNL     1      43.990 137.828  23.058  1.00  0.00    -0.003 NA
ENDBRANCH  13  14
ENDBRANCH  10  13
ENDBRANCH   9  10
ENDBRANCH   8   9
BRANCH   8  16
ATOM     16  C   UNL     1      41.303 137.571  17.670  1.00  0.00     0.016 C 
ATOM     17  C   UNL     1      42.335 137.084  16.643  1.00  0.00     0.010 C 
ATOM     18  C   UNL     1      39.893 137.537  17.062  1.00  0.00     0.010 C 
ENDBRANCH   8  16
ENDBRANCH   1   8
BRANCH   7  19
ATOM     19  C   UNL     1      41.250 133.738  17.982  1.00  0.00     0.171 A 
ATOM     20  C   UNL     1      42.213 133.031  18.736  1.00  0.00     0.032 A 
ATOM     21  C   UNL     1      41.299 133.714  16.573  1.00  0.00     0.032 A 
ATOM     22  C   UNL     1      42.147 133.007  20.145  1.00  0.00     0.013 A 
ATOM     23  C   UNL     1      43.275 132.355  18.078  1.00  0.00    -0.002 A 
ATOM     24  C   UNL     1      40.299 134.349  15.807  1.00  0.00     0.013 A 
ATOM     25  C   UNL     1      42.361 133.043  15.908  1.00  0.00    -0.002 A 
ATOM     26  C   UNL     1      43.120 132.346  20.893  1.00  0.00     0.001 A 
ATOM     27  C   UNL     1      44.252 131.698  18.863  1.00  0.00     0.009 A 
ATOM     28  C   UNL     1      43.355 132.371  16.663  1.00  0.00     0.040 A 
ATOM     29  C   UNL     1      40.354 134.345  14.415  1.00  0.00     0.001 A 
ATOM     30  C   UNL     1      42.390 133.049  14.494  1.00  0.00     0.009 A 
ATOM     31  C   UNL     1      44.171 131.698  20.255  1.00  0.00     0.001 A 
ATOM     32  C   UNL     1      41.399 133.699  13.761  1.00  0.00     0.001 A 
BRANCH  28  33
ATOM     33  C   UNL     1      44.471 131.678  15.972  1.00  0.00     0.250 C 
ATOM     34  O   UNL     1      44.359 130.456  15.690  1.00  0.00    -0.287 OA
BRANCH  33  35
ATOM     35  N   UNL     1      45.676 132.369  15.624  1.00  0.00    -0.017 NA
BRANCH  35  36
ATOM     36  N   UNL     1      46.437 131.940  14.755  1.00  0.00     0.009 N 
ATOM     37  N   UNL     1      47.196 131.511  13.889  1.00  0.00    -0.003 NA
ENDBRANCH  35  36
ENDBRANCH  33  35
ENDBRANCH  28  33
ENDBRANCH   7  19
TORSDOF 11
ENDMDL


