REMARK SMILES [N-]=[N+]=Nc1cc(Cl)cc2c(C[NH2+]O)c(OCCc3cn(C[C@H]([NH3+])C(=O)[O-])[nH+]n3)ccc12
REMARK SMILES IDX 16 1 15 2 14 3 10 4 9 5 29 6 8 7 31 8 30 9 6 10 4 11 5 12
REMARK SMILES IDX 7 13 11 14 12 15 13 18 3 20 2 21 1 22 17 23 18 24 28 25
REMARK SMILES IDX 19 26 27 27 20 28 21 30 22 31 24 32 25 33 26 34 23 35
REMARK H PARENT 12 16 12 17 13 19 27 29 23 36 23 37 23 38
ROOT
ATOM      1  C   UNL     1       2.539   0.209  -2.584  1.00  0.00     0.236 C 
ENDROOT
BRANCH   1   2
ATOM      2  O   UNL     1       2.601  -0.135  -1.198  1.00  0.00    -0.493 OA
BRANCH   2   3
ATOM      3  C   UNL     1       2.659  -1.438  -0.667  1.00  0.00     0.128 A 
ATOM      4  C   UNL     1       2.583  -1.606   0.735  1.00  0.00     0.059 A 
ATOM      5  C   UNL     1       2.568  -2.923   1.287  1.00  0.00    -0.004 A 
ATOM      6  C   UNL     1       2.798  -2.562  -1.495  1.00  0.00     0.047 A 
ATOM      7  C   UNL     1       2.416  -3.157   2.672  1.00  0.00     0.030 A 
ATOM      8  C   UNL     1       2.702  -4.048   0.423  1.00  0.00    -0.008 A 
ATOM      9  C   UNL     1       2.825  -3.843  -0.960  1.00  0.00     0.013 A 
ATOM     10  C   UNL     1       2.418  -4.453   3.186  1.00  0.00     0.042 A 
ATOM     11  C   UNL     1       2.707  -5.361   0.953  1.00  0.00     0.047 A 
ATOM     12  C   UNL     1       2.567  -5.546   2.338  1.00  0.00     0.031 A 
ATOM     13  Cl  UNL     1       2.226  -4.710   4.912  1.00  0.00    -0.084 Cl
BRANCH   4  14
ATOM     14  C   UNL     1       2.496  -0.353   1.599  1.00  0.00     0.337 C 
BRANCH  14  15
ATOM     15  N   UNL     1       1.116   0.131   1.720  1.00  0.00    -0.200 N 
ATOM     16  H   UNL     1       0.691   0.298   0.776  1.00  0.00     0.386 HD
ATOM     17  H   UNL     1       1.121   1.034   2.247  1.00  0.00     0.386 HD
BRANCH  15  18
ATOM     18  O   UNL     1       0.375  -0.757   2.440  1.00  0.00    -0.220 OA
ATOM     19  H   UNL     1      -0.021  -1.400   1.792  1.00  0.00     0.288 HD
ENDBRANCH  15  18
ENDBRANCH  14  15
ENDBRANCH   4  14
BRANCH  11  20
ATOM     20  N   UNL     1       2.851  -6.490   0.075  1.00  0.00    -0.060 NA
BRANCH  20  21
ATOM     21  N   UNL     1       2.862  -7.653   0.484  1.00  0.00     0.005 N 
ATOM     22  N   UNL     1       2.872  -8.813   0.891  1.00  0.00    -0.003 NA
ENDBRANCH  20  21
ENDBRANCH  11  20
ENDBRANCH   2   3
ENDBRANCH   1   2
BRANCH   1  23
ATOM     23  C   UNL     1       1.163  -0.105  -3.182  1.00  0.00     0.106 C 
BRANCH  23  24
ATOM     24  C   UNL     1       0.070   0.593  -2.435  1.00  0.00     0.135 A 
ATOM     25  N   UNL     1      -0.762  -0.009  -1.558  1.00  0.00     0.020 NA
ATOM     26  C   UNL     1      -0.228   1.940  -2.475  1.00  0.00     0.183 A 
ATOM     27  N   UNL     1      -1.548   0.947  -1.087  1.00  0.00    -0.017 N 
ATOM     28  N   UNL     1      -1.252   2.120  -1.623  1.00  0.00    -0.130 N 
ATOM     29  H   UNL     1      -2.295   0.790  -0.373  1.00  0.00     0.526 HD
BRANCH  28  30
ATOM     30  C   UNL     1      -1.896   3.387  -1.284  1.00  0.00     0.263 C 
BRANCH  30  31
ATOM     31  C   UNL     1      -1.050   4.182  -0.272  1.00  0.00     0.253 C 
BRANCH  31  32
ATOM     32  C   UNL     1      -1.648   5.547  -0.061  1.00  0.00     0.101 C 
ATOM     33  O   UNL     1      -2.780   5.672   0.477  1.00  0.00    -0.544 OA
ATOM     34  O   UNL     1      -0.956   6.679  -0.471  1.00  0.00    -0.544 OA
ENDBRANCH  31  32
BRANCH  31  35
ATOM     35  N   UNL     1      -0.940   3.470   1.008  1.00  0.00    -0.349 N 
ATOM     36  H   UNL     1      -1.888   3.256   1.397  1.00  0.00     0.345 HD
ATOM     37  H   UNL     1      -0.415   2.577   0.874  1.00  0.00     0.345 HD
ATOM     38  H   UNL     1      -0.410   4.054   1.696  1.00  0.00     0.345 HD
ENDBRANCH  31  35
ENDBRANCH  30  31
ENDBRANCH  28  30
ENDBRANCH  23  24
ENDBRANCH   1  23
TORSDOF 13


