MODEL 1
REMARK VINA RESULT:      -5.0      0.000      0.000
REMARK SMILES C[N+]1(C)Cc2cc3ccc(-n4cc(CCN5C[C@@H](CN=[N+]=[N-])CN5C(=O)c5ccc(N)cc5)n[nH+]4)cc3cc2C1
REMARK SMILES IDX 24 1 16 2 17 3 18 4 23 5 25 6 26 7 27 8 28 9 29 10 30 11
REMARK SMILES IDX 33 12 32 13 31 14 15 17 14 18 13 19 34 20 12 21 35 22 11 23
REMARK SMILES IDX 10 25 9 26 36 27 8 28 37 29 7 30 38 31 6 32 39 33 5 34 40 35
REMARK SMILES IDX 4 36 2 37 1 38 3 39 19 40 20 41 21 42 22 43
REMARK H PARENT 31 15 31 16 35 24
ROOT
ATOM      1  N   UNL     1      38.524 136.875  20.716  1.00  0.00    -0.271 N 
ATOM      2  N   UNL     1      38.845 135.536  20.421  1.00  0.00    -0.218 NA
ATOM      3  C   UNL     1      39.735 135.124  21.520  1.00  0.00     0.114 C 
ATOM      4  C   UNL     1      39.484 136.075  22.697  1.00  0.00     0.032 C 
ATOM      5  C   UNL     1      38.912 137.321  22.040  1.00  0.00     0.145 C 
ENDROOT
BRANCH   1   6
ATOM      6  C   UNL     1      37.980 137.776  19.734  1.00  0.00     0.268 C 
ATOM      7  O   UNL     1      36.791 138.179  19.857  1.00  0.00    -0.268 OA
BRANCH   6   8
ATOM      8  C   UNL     1      38.778 138.231  18.573  1.00  0.00     0.041 A 
ATOM      9  C   UNL     1      40.099 137.779  18.408  1.00  0.00     0.016 A 
ATOM     10  C   UNL     1      40.859 138.199  17.312  1.00  0.00     0.026 A 
ATOM     11  C   UNL     1      40.307 139.064  16.358  1.00  0.00     0.031 A 
ATOM     12  C   UNL     1      38.222 139.084  17.604  1.00  0.00     0.016 A 
ATOM     13  C   UNL     1      38.983 139.502  16.508  1.00  0.00     0.026 A 
BRANCH  11  14
ATOM     14  N   UNL     1      41.086 139.494  15.238  1.00  0.00    -0.399 N 
ATOM     15  H   UNL     1      40.928 139.085  14.290  1.00  0.00     0.156 HD
ATOM     16  H   UNL     1      41.817 140.232  15.347  1.00  0.00     0.156 HD
ENDBRANCH  11  14
ENDBRANCH   6   8
ENDBRANCH   1   6
BRANCH   2  17
ATOM     17  C   UNL     1      37.600 134.744  20.401  1.00  0.00     0.115 C 
BRANCH  17  18
ATOM     18  C   UNL     1      37.187 134.448  18.957  1.00  0.00     0.082 C 
BRANCH  18  19
ATOM     19  C   UNL     1      38.393 134.257  18.095  1.00  0.00     0.134 A 
ATOM     20  N   UNL     1      38.563 134.831  16.887  1.00  0.00     0.020 NA
ATOM     21  C   UNL     1      39.534 133.548  18.411  1.00  0.00     0.190 A 
ATOM     22  N   UNL     1      39.765 134.463  16.472  1.00  0.00    -0.012 N 
ATOM     23  N   UNL     1      40.371 133.692  17.365  1.00  0.00    -0.104 N 
ATOM     24  H   UNL     1      40.182 134.777  15.568  1.00  0.00     0.527 HD
BRANCH  23  25
ATOM     25  C   UNL     1      41.688 133.126  17.217  1.00  0.00     0.107 A 
ATOM     26  C   UNL     1      42.546 133.026  18.326  1.00  0.00     0.033 A 
ATOM     27  C   UNL     1      42.135 132.673  15.961  1.00  0.00     0.041 A 
ATOM     28  C   UNL     1      43.826 132.482  18.194  1.00  0.00     0.011 A 
ATOM     29  C   UNL     1      43.417 132.123  15.816  1.00  0.00    -0.016 A 
ATOM     30  C   UNL     1      44.274 132.027  16.949  1.00  0.00    -0.018 A 
ATOM     31  C   UNL     1      43.863 131.663  14.561  1.00  0.00     0.019 A 
ATOM     32  C   UNL     1      45.563 131.474  16.809  1.00  0.00     0.018 A 
ATOM     33  C   UNL     1      45.150 131.130  14.464  1.00  0.00     0.016 A 
ATOM     34  C   UNL     1      45.969 131.039  15.546  1.00  0.00     0.016 A 
ATOM     35  C   UNL     1      45.815 130.576  13.263  1.00  0.00     0.301 C 
ATOM     36  C   UNL     1      47.257 130.416  15.173  1.00  0.00     0.301 C 
ATOM     37  N   UNL     1      47.223 130.286  13.682  1.00  0.00    -0.321 N 
ATOM     38  C   UNL     1      47.624 128.922  13.266  1.00  0.00     0.334 C 
ATOM     39  C   UNL     1      48.148 131.270  13.067  1.00  0.00     0.334 C 
ENDBRANCH  23  25
ENDBRANCH  18  19
ENDBRANCH  17  18
ENDBRANCH   2  17
BRANCH   4  40
ATOM     40  C   UNL     1      40.752 136.367  23.520  1.00  0.00     0.097 C 
BRANCH  40  41
ATOM     41  N   UNL     1      40.958 135.351  24.547  1.00  0.00    -0.094 NA
BRANCH  41  42
ATOM     42  N   UNL     1      41.659 134.361  24.332  1.00  0.00     0.001 N 
ATOM     43  N   UNL     1      42.363 133.374  24.121  1.00  0.00    -0.003 NA
ENDBRANCH  41  42
ENDBRANCH  40  41
ENDBRANCH   4  40
TORSDOF 10
ENDMDL
MODEL 2
REMARK VINA RESULT:      -4.9      3.290      4.958
REMARK SMILES C[N+]1(C)Cc2cc3ccc(-n4cc(CCN5C[C@@H](CN=[N+]=[N-])CN5C(=O)c5ccc(N)cc5)n[nH+]4)cc3cc2C1
REMARK SMILES IDX 24 1 16 2 17 3 18 4 23 5 25 6 26 7 27 8 28 9 29 10 30 11
REMARK SMILES IDX 33 12 32 13 31 14 15 17 14 18 13 19 34 20 12 21 35 22 11 23
REMARK SMILES IDX 10 25 9 26 36 27 8 28 37 29 7 30 38 31 6 32 39 33 5 34 40 35
REMARK SMILES IDX 4 36 2 37 1 38 3 39 19 40 20 41 21 42 22 43
REMARK H PARENT 31 15 31 16 35 24
ROOT
ATOM      1  N   UNL     1      43.234 136.836  21.803  1.00  0.00    -0.271 N 
ATOM      2  N   UNL     1      42.735 138.151  21.759  1.00  0.00    -0.218 NA
ATOM      3  C   UNL     1      43.581 138.896  22.707  1.00  0.00     0.114 C 
ATOM      4  C   UNL     1      44.883 138.102  22.884  1.00  0.00     0.032 C 
ATOM      5  C   UNL     1      44.495 136.681  22.504  1.00  0.00     0.145 C 
ENDROOT
BRANCH   1   6
ATOM      6  C   UNL     1      42.486 135.706  21.317  1.00  0.00     0.268 C 
ATOM      7  O   UNL     1      43.068 134.839  20.609  1.00  0.00    -0.268 OA
BRANCH   6   8
ATOM      8  C   UNL     1      41.045 135.543  21.615  1.00  0.00     0.041 A 
ATOM      9  C   UNL     1      40.236 134.765  20.768  1.00  0.00     0.016 A 
ATOM     10  C   UNL     1      38.875 134.601  21.043  1.00  0.00     0.026 A 
ATOM     11  C   UNL     1      38.306 135.200  22.175  1.00  0.00     0.031 A 
ATOM     12  C   UNL     1      40.474 136.126  22.759  1.00  0.00     0.016 A 
ATOM     13  C   UNL     1      39.113 135.960  23.034  1.00  0.00     0.026 A 
BRANCH  11  14
ATOM     14  N   UNL     1      36.913 135.032  22.455  1.00  0.00    -0.399 N 
ATOM     15  H   UNL     1      36.252 134.726  21.708  1.00  0.00     0.156 HD
ATOM     16  H   UNL     1      36.536 135.204  23.414  1.00  0.00     0.156 HD
ENDBRANCH  11  14
ENDBRANCH   6   8
ENDBRANCH   1   6
BRANCH   2  17
ATOM     17  C   UNL     1      42.878 138.665  20.382  1.00  0.00     0.115 C 
BRANCH  17  18
ATOM     18  C   UNL     1      41.500 138.947  19.779  1.00  0.00     0.082 C 
BRANCH  18  19
ATOM     19  C   UNL     1      41.230 138.026  18.633  1.00  0.00     0.134 A 
ATOM     20  N   UNL     1      40.207 138.169  17.767  1.00  0.00     0.020 NA
ATOM     21  C   UNL     1      42.000 136.953  18.233  1.00  0.00     0.190 A 
ATOM     22  N   UNL     1      40.340 137.198  16.878  1.00  0.00    -0.012 N 
ATOM     23  N   UNL     1      41.408 136.452  17.131  1.00  0.00    -0.104 N 
ATOM     24  H   UNL     1      39.697 137.070  16.065  1.00  0.00     0.527 HD
BRANCH  23  25
ATOM     25  C   UNL     1      41.831 135.316  16.352  1.00  0.00     0.107 A 
ATOM     26  C   UNL     1      40.983 134.772  15.371  1.00  0.00     0.033 A 
ATOM     27  C   UNL     1      43.095 134.733  16.565  1.00  0.00     0.041 A 
ATOM     28  C   UNL     1      41.381 133.670  14.612  1.00  0.00     0.011 A 
ATOM     29  C   UNL     1      43.506 133.626  15.808  1.00  0.00    -0.016 A 
ATOM     30  C   UNL     1      42.637 133.088  14.818  1.00  0.00    -0.018 A 
ATOM     31  C   UNL     1      44.773 133.045  16.016  1.00  0.00     0.019 A 
ATOM     32  C   UNL     1      43.046 131.977  14.053  1.00  0.00     0.018 A 
ATOM     33  C   UNL     1      45.137 131.941  15.243  1.00  0.00     0.016 A 
ATOM     34  C   UNL     1      44.305 131.426  14.297  1.00  0.00     0.016 A 
ATOM     35  C   UNL     1      46.411 131.189  15.277  1.00  0.00     0.301 C 
ATOM     36  C   UNL     1      44.943 130.283  13.610  1.00  0.00     0.301 C 
ATOM     37  N   UNL     1      46.213 130.022  14.359  1.00  0.00    -0.321 N 
ATOM     38  C   UNL     1      47.355 129.890  13.425  1.00  0.00     0.334 C 
ATOM     39  C   UNL     1      46.088 128.771  15.148  1.00  0.00     0.334 C 
ENDBRANCH  23  25
ENDBRANCH  18  19
ENDBRANCH  17  18
ENDBRANCH   2  17
BRANCH   4  40
ATOM     40  C   UNL     1      45.462 138.198  24.307  1.00  0.00     0.097 C 
BRANCH  40  41
ATOM     41  N   UNL     1      46.916 138.311  24.276  1.00  0.00    -0.094 NA
BRANCH  41  42
ATOM     42  N   UNL     1      47.507 138.649  23.248  1.00  0.00     0.001 N 
ATOM     43  N   UNL     1      48.100 138.986  22.224  1.00  0.00    -0.003 NA
ENDBRANCH  41  42
ENDBRANCH  40  41
ENDBRANCH   4  40
TORSDOF 10
ENDMDL
MODEL 3
REMARK VINA RESULT:      -4.6      2.280      3.321
REMARK SMILES C[N+]1(C)Cc2cc3ccc(-n4cc(CCN5C[C@@H](CN=[N+]=[N-])CN5C(=O)c5ccc(N)cc5)n[nH+]4)cc3cc2C1
REMARK SMILES IDX 24 1 16 2 17 3 18 4 23 5 25 6 26 7 27 8 28 9 29 10 30 11
REMARK SMILES IDX 33 12 32 13 31 14 15 17 14 18 13 19 34 20 12 21 35 22 11 23
REMARK SMILES IDX 10 25 9 26 36 27 8 28 37 29 7 30 38 31 6 32 39 33 5 34 40 35
REMARK SMILES IDX 4 36 2 37 1 38 3 39 19 40 20 41 21 42 22 43
REMARK H PARENT 31 15 31 16 35 24
ROOT
ATOM      1  N   UNL     1      42.122 137.270  22.368  1.00  0.00    -0.271 N 
ATOM      2  N   UNL     1      41.021 136.544  21.874  1.00  0.00    -0.218 NA
ATOM      3  C   UNL     1      40.958 135.349  22.732  1.00  0.00     0.114 C 
ATOM      4  C   UNL     1      41.707 135.675  24.032  1.00  0.00     0.032 C 
ATOM      5  C   UNL     1      42.649 136.800  23.634  1.00  0.00     0.145 C 
ENDROOT
BRANCH   1   6
ATOM      6  C   UNL     1      42.767 138.311  21.610  1.00  0.00     0.268 C 
ATOM      7  O   UNL     1      43.234 139.315  22.214  1.00  0.00    -0.268 OA
BRANCH   6   8
ATOM      8  C   UNL     1      42.882 138.239  20.136  1.00  0.00     0.041 A 
ATOM      9  C   UNL     1      44.109 137.894  19.542  1.00  0.00     0.016 A 
ATOM     10  C   UNL     1      44.227 137.819  18.151  1.00  0.00     0.026 A 
ATOM     11  C   UNL     1      43.118 138.074  17.334  1.00  0.00     0.031 A 
ATOM     12  C   UNL     1      41.768 138.477  19.312  1.00  0.00     0.016 A 
ATOM     13  C   UNL     1      41.887 138.400  17.921  1.00  0.00     0.026 A 
BRANCH  11  14
ATOM     14  N   UNL     1      43.239 137.999  15.910  1.00  0.00    -0.399 N 
ATOM     15  H   UNL     1      44.010 138.497  15.413  1.00  0.00     0.156 HD
ATOM     16  H   UNL     1      42.566 137.434  15.345  1.00  0.00     0.156 HD
ENDBRANCH  11  14
ENDBRANCH   6   8
ENDBRANCH   1   6
BRANCH   2  17
ATOM     17  C   UNL     1      39.808 137.375  22.007  1.00  0.00     0.115 C 
BRANCH  17  18
ATOM     18  C   UNL     1      38.581 136.594  21.530  1.00  0.00     0.082 C 
BRANCH  18  19
ATOM     19  C   UNL     1      38.769 136.131  20.122  1.00  0.00     0.134 A 
ATOM     20  N   UNL     1      37.948 136.449  19.100  1.00  0.00     0.020 NA
ATOM     21  C   UNL     1      39.821 135.388  19.626  1.00  0.00     0.190 A 
ATOM     22  N   UNL     1      38.476 135.897  18.019  1.00  0.00    -0.012 N 
ATOM     23  N   UNL     1      39.601 135.254  18.304  1.00  0.00    -0.104 N 
ATOM     24  H   UNL     1      38.065 135.995  17.065  1.00  0.00     0.527 HD
BRANCH  23  25
ATOM     25  C   UNL     1      40.418 134.547  17.350  1.00  0.00     0.107 A 
ATOM     26  C   UNL     1      40.141 134.637  15.974  1.00  0.00     0.033 A 
ATOM     27  C   UNL     1      41.499 133.755  17.781  1.00  0.00     0.041 A 
ATOM     28  C   UNL     1      40.924 133.954  15.040  1.00  0.00     0.011 A 
ATOM     29  C   UNL     1      42.293 133.066  16.852  1.00  0.00    -0.016 A 
ATOM     30  C   UNL     1      42.000 133.168  15.463  1.00  0.00    -0.018 A 
ATOM     31  C   UNL     1      43.379 132.278  17.282  1.00  0.00     0.019 A 
ATOM     32  C   UNL     1      42.796 132.479  14.526  1.00  0.00     0.018 A 
ATOM     33  C   UNL     1      44.138 131.605  16.323  1.00  0.00     0.016 A 
ATOM     34  C   UNL     1      43.857 131.702  14.994  1.00  0.00     0.016 A 
ATOM     35  C   UNL     1      45.321 130.744  16.540  1.00  0.00     0.301 C 
ATOM     36  C   UNL     1      44.825 130.915  14.200  1.00  0.00     0.301 C 
ATOM     37  N   UNL     1      45.648 130.163  15.199  1.00  0.00    -0.321 N 
ATOM     38  C   UNL     1      47.092 130.306  14.903  1.00  0.00     0.334 C 
ATOM     39  C   UNL     1      45.289 128.723  15.168  1.00  0.00     0.334 C 
ENDBRANCH  23  25
ENDBRANCH  18  19
ENDBRANCH  17  18
ENDBRANCH   2  17
BRANCH   4  40
ATOM     40  C   UNL     1      42.447 134.462  24.625  1.00  0.00     0.097 C 
BRANCH  40  41
ATOM     41  N   UNL     1      43.621 134.122  23.828  1.00  0.00    -0.094 NA
BRANCH  41  42
ATOM     42  N   UNL     1      43.820 132.967  23.447  1.00  0.00     0.001 N 
ATOM     43  N   UNL     1      44.017 131.813  23.070  1.00  0.00    -0.003 NA
ENDBRANCH  41  42
ENDBRANCH  40  41
ENDBRANCH   4  40
TORSDOF 10
ENDMDL
MODEL 4
REMARK VINA RESULT:      -4.5      3.572      5.495
REMARK SMILES C[N+]1(C)Cc2cc3ccc(-n4cc(CCN5C[C@@H](CN=[N+]=[N-])CN5C(=O)c5ccc(N)cc5)n[nH+]4)cc3cc2C1
REMARK SMILES IDX 24 1 16 2 17 3 18 4 23 5 25 6 26 7 27 8 28 9 29 10 30 11
REMARK SMILES IDX 33 12 32 13 31 14 15 17 14 18 13 19 34 20 12 21 35 22 11 23
REMARK SMILES IDX 10 25 9 26 36 27 8 28 37 29 7 30 38 31 6 32 39 33 5 34 40 35
REMARK SMILES IDX 4 36 2 37 1 38 3 39 19 40 20 41 21 42 22 43
REMARK H PARENT 31 15 31 16 35 24
ROOT
ATOM      1  N   UNL     1      43.251 137.172  21.732  1.00  0.00    -0.271 N 
ATOM      2  N   UNL     1      42.688 138.456  21.594  1.00  0.00    -0.218 NA
ATOM      3  C   UNL     1      43.545 139.125  20.601  1.00  0.00     0.114 C 
ATOM      4  C   UNL     1      44.270 138.030  19.805  1.00  0.00     0.032 C 
ATOM      5  C   UNL     1      44.253 136.832  20.742  1.00  0.00     0.145 C 
ENDROOT
BRANCH   1   6
ATOM      6  C   UNL     1      42.961 136.315  22.853  1.00  0.00     0.268 C 
ATOM      7  O   UNL     1      42.537 136.825  23.926  1.00  0.00    -0.268 OA
BRANCH   6   8
ATOM      8  C   UNL     1      43.163 134.851  22.782  1.00  0.00     0.041 A 
ATOM      9  C   UNL     1      44.464 134.324  22.712  1.00  0.00     0.016 A 
ATOM     10  C   UNL     1      44.666 132.941  22.649  1.00  0.00     0.026 A 
ATOM     11  C   UNL     1      43.573 132.066  22.670  1.00  0.00     0.031 A 
ATOM     12  C   UNL     1      42.070 133.968  22.820  1.00  0.00     0.016 A 
ATOM     13  C   UNL     1      42.274 132.586  22.759  1.00  0.00     0.026 A 
BRANCH  11  14
ATOM     14  N   UNL     1      43.780 130.652  22.605  1.00  0.00    -0.399 N 
ATOM     15  H   UNL     1      43.127 129.994  23.085  1.00  0.00     0.156 HD
ATOM     16  H   UNL     1      44.582 130.254  22.066  1.00  0.00     0.156 HD
ENDBRANCH  11  14
ENDBRANCH   6   8
ENDBRANCH   1   6
BRANCH   2  17
ATOM     17  C   UNL     1      41.301 138.314  21.109  1.00  0.00     0.115 C 
BRANCH  17  18
ATOM     18  C   UNL     1      40.920 136.833  21.029  1.00  0.00     0.082 C 
BRANCH  18  19
ATOM     19  C   UNL     1      40.959 136.358  19.613  1.00  0.00     0.134 A 
ATOM     20  N   UNL     1      40.366 136.992  18.581  1.00  0.00     0.020 NA
ATOM     21  C   UNL     1      41.650 135.269  19.122  1.00  0.00     0.190 A 
ATOM     22  N   UNL     1      40.672 136.296  17.497  1.00  0.00    -0.012 N 
ATOM     23  N   UNL     1      41.441 135.256  17.791  1.00  0.00    -0.104 N 
ATOM     24  H   UNL     1      40.366 136.565  16.536  1.00  0.00     0.527 HD
BRANCH  23  25
ATOM     25  C   UNL     1      41.947 134.300  16.837  1.00  0.00     0.107 A 
ATOM     26  C   UNL     1      41.070 133.658  15.944  1.00  0.00     0.033 A 
ATOM     27  C   UNL     1      43.320 133.994  16.790  1.00  0.00     0.041 A 
ATOM     28  C   UNL     1      41.547 132.729  15.018  1.00  0.00     0.011 A 
ATOM     29  C   UNL     1      43.811 133.063  15.862  1.00  0.00    -0.016 A 
ATOM     30  C   UNL     1      42.911 132.422  14.965  1.00  0.00    -0.018 A 
ATOM     31  C   UNL     1      45.186 132.760  15.810  1.00  0.00     0.019 A 
ATOM     32  C   UNL     1      43.400 131.488  14.030  1.00  0.00     0.018 A 
ATOM     33  C   UNL     1      45.628 131.823  14.875  1.00  0.00     0.016 A 
ATOM     34  C   UNL     1      44.768 131.209  14.017  1.00  0.00     0.016 A 
ATOM     35  C   UNL     1      47.015 131.366  14.632  1.00  0.00     0.301 C 
ATOM     36  C   UNL     1      45.497 130.286  13.121  1.00  0.00     0.301 C 
ATOM     37  N   UNL     1      46.904 130.256  13.634  1.00  0.00    -0.321 N 
ATOM     38  C   UNL     1      47.869 130.446  12.527  1.00  0.00     0.334 C 
ATOM     39  C   UNL     1      47.173 128.953  14.291  1.00  0.00     0.334 C 
ENDBRANCH  23  25
ENDBRANCH  18  19
ENDBRANCH  17  18
ENDBRANCH   2  17
BRANCH   4  40
ATOM     40  C   UNL     1      45.694 138.433  19.381  1.00  0.00     0.097 C 
BRANCH  40  41
ATOM     41  N   UNL     1      46.236 139.458  20.266  1.00  0.00    -0.094 NA
BRANCH  41  42
ATOM     42  N   UNL     1      46.905 139.156  21.256  1.00  0.00     0.001 N 
ATOM     43  N   UNL     1      47.574 138.858  22.245  1.00  0.00    -0.003 NA
ENDBRANCH  41  42
ENDBRANCH  40  41
ENDBRANCH   4  40
TORSDOF 10
ENDMDL
MODEL 5
REMARK VINA RESULT:      -4.3      5.368      7.546
REMARK SMILES C[N+]1(C)Cc2cc3ccc(-n4cc(CCN5C[C@@H](CN=[N+]=[N-])CN5C(=O)c5ccc(N)cc5)n[nH+]4)cc3cc2C1
REMARK SMILES IDX 24 1 16 2 17 3 18 4 23 5 25 6 26 7 27 8 28 9 29 10 30 11
REMARK SMILES IDX 33 12 32 13 31 14 15 17 14 18 13 19 34 20 12 21 35 22 11 23
REMARK SMILES IDX 10 25 9 26 36 27 8 28 37 29 7 30 38 31 6 32 39 33 5 34 40 35
REMARK SMILES IDX 4 36 2 37 1 38 3 39 19 40 20 41 21 42 22 43
REMARK H PARENT 31 15 31 16 35 24
ROOT
ATOM      1  N   UNL     1      40.068 135.774  16.590  1.00  0.00    -0.271 N 
ATOM      2  N   UNL     1      39.763 135.237  17.855  1.00  0.00    -0.218 NA
ATOM      3  C   UNL     1      40.585 134.018  17.943  1.00  0.00     0.114 C 
ATOM      4  C   UNL     1      41.736 134.166  16.937  1.00  0.00     0.032 C 
ATOM      5  C   UNL     1      41.204 135.166  15.924  1.00  0.00     0.145 C 
ENDROOT
BRANCH   1   6
ATOM      6  C   UNL     1      39.235 136.752  15.941  1.00  0.00     0.268 C 
ATOM      7  O   UNL     1      39.124 137.902  16.449  1.00  0.00    -0.268 OA
BRANCH   6   8
ATOM      8  C   UNL     1      38.490 136.437  14.701  1.00  0.00     0.041 A 
ATOM      9  C   UNL     1      39.186 136.225  13.498  1.00  0.00     0.016 A 
ATOM     10  C   UNL     1      38.493 135.923  12.322  1.00  0.00     0.026 A 
ATOM     11  C   UNL     1      37.097 135.814  12.334  1.00  0.00     0.031 A 
ATOM     12  C   UNL     1      37.091 136.309  14.711  1.00  0.00     0.016 A 
ATOM     13  C   UNL     1      36.399 136.005  13.535  1.00  0.00     0.026 A 
BRANCH  11  14
ATOM     14  N   UNL     1      36.388 135.505  11.130  1.00  0.00    -0.399 N 
ATOM     15  H   UNL     1      35.706 134.715  11.100  1.00  0.00     0.156 HD
ATOM     16  H   UNL     1      36.531 136.072  10.265  1.00  0.00     0.156 HD
ENDBRANCH  11  14
ENDBRANCH   6   8
ENDBRANCH   1   6
BRANCH   2  17
ATOM     17  C   UNL     1      40.137 136.222  18.890  1.00  0.00     0.115 C 
BRANCH  17  18
ATOM     18  C   UNL     1      39.775 135.689  20.278  1.00  0.00     0.082 C 
BRANCH  18  19
ATOM     19  C   UNL     1      40.993 135.602  21.140  1.00  0.00     0.134 A 
ATOM     20  N   UNL     1      40.974 135.619  22.488  1.00  0.00     0.020 NA
ATOM     21  C   UNL     1      42.295 135.417  20.721  1.00  0.00     0.190 A 
ATOM     22  N   UNL     1      42.231 135.469  22.875  1.00  0.00    -0.012 N 
ATOM     23  N   UNL     1      43.046 135.346  21.836  1.00  0.00    -0.104 N 
ATOM     24  H   UNL     1      42.522 135.422  23.877  1.00  0.00     0.527 HD
BRANCH  23  25
ATOM     25  C   UNL     1      44.474 135.169  21.918  1.00  0.00     0.107 A 
ATOM     26  C   UNL     1      45.051 133.916  21.643  1.00  0.00     0.033 A 
ATOM     27  C   UNL     1      45.310 136.244  22.278  1.00  0.00     0.041 A 
ATOM     28  C   UNL     1      46.433 133.732  21.721  1.00  0.00     0.011 A 
ATOM     29  C   UNL     1      46.699 136.071  22.358  1.00  0.00    -0.016 A 
ATOM     30  C   UNL     1      47.268 134.797  22.076  1.00  0.00    -0.018 A 
ATOM     31  C   UNL     1      47.537 137.147  22.713  1.00  0.00     0.019 A 
ATOM     32  C   UNL     1      48.663 134.619  22.154  1.00  0.00     0.018 A 
ATOM     33  C   UNL     1      48.913 136.927  22.787  1.00  0.00     0.016 A 
ATOM     34  C   UNL     1      49.456 135.708  22.518  1.00  0.00     0.016 A 
ATOM     35  C   UNL     1      49.973 137.904  23.119  1.00  0.00     0.301 C 
ATOM     36  C   UNL     1      50.929 135.756  22.644  1.00  0.00     0.301 C 
ATOM     37  N   UNL     1      51.240 137.111  23.201  1.00  0.00    -0.321 N 
ATOM     38  C   UNL     1      52.319 137.762  22.423  1.00  0.00     0.334 C 
ATOM     39  C   UNL     1      51.672 136.988  24.616  1.00  0.00     0.334 C 
ENDBRANCH  23  25
ENDBRANCH  18  19
ENDBRANCH  17  18
ENDBRANCH   2  17
BRANCH   4  40
ATOM     40  C   UNL     1      42.151 132.831  16.293  1.00  0.00     0.097 C 
BRANCH  40  41
ATOM     41  N   UNL     1      43.122 133.043  15.224  1.00  0.00    -0.094 NA
BRANCH  41  42
ATOM     42  N   UNL     1      44.330 132.904  15.424  1.00  0.00     0.001 N 
ATOM     43  N   UNL     1      45.536 132.765  15.619  1.00  0.00    -0.003 NA
ENDBRANCH  41  42
ENDBRANCH  40  41
ENDBRANCH   4  40
TORSDOF 10
ENDMDL
MODEL 6
REMARK VINA RESULT:      -4.3      2.256      3.382
REMARK SMILES C[N+]1(C)Cc2cc3ccc(-n4cc(CCN5C[C@@H](CN=[N+]=[N-])CN5C(=O)c5ccc(N)cc5)n[nH+]4)cc3cc2C1
REMARK SMILES IDX 24 1 16 2 17 3 18 4 23 5 25 6 26 7 27 8 28 9 29 10 30 11
REMARK SMILES IDX 33 12 32 13 31 14 15 17 14 18 13 19 34 20 12 21 35 22 11 23
REMARK SMILES IDX 10 25 9 26 36 27 8 28 37 29 7 30 38 31 6 32 39 33 5 34 40 35
REMARK SMILES IDX 4 36 2 37 1 38 3 39 19 40 20 41 21 42 22 43
REMARK H PARENT 31 15 31 16 35 24
ROOT
ATOM      1  N   UNL     1      38.824 137.622  19.826  1.00  0.00    -0.271 N 
ATOM      2  N   UNL     1      38.103 137.042  18.765  1.00  0.00    -0.218 NA
ATOM      3  C   UNL     1      37.398 135.905  19.381  1.00  0.00     0.114 C 
ATOM      4  C   UNL     1      37.321 136.173  20.890  1.00  0.00     0.032 C 
ATOM      5  C   UNL     1      38.473 137.133  21.145  1.00  0.00     0.145 C 
ENDROOT
BRANCH   1   6
ATOM      6  C   UNL     1      39.924 138.526  19.614  1.00  0.00     0.268 C 
ATOM      7  O   UNL     1      39.912 139.287  18.608  1.00  0.00    -0.268 OA
BRANCH   6   8
ATOM      8  C   UNL     1      41.079 138.573  20.538  1.00  0.00     0.041 A 
ATOM      9  C   UNL     1      41.148 139.570  21.527  1.00  0.00     0.016 A 
ATOM     10  C   UNL     1      42.232 139.621  22.408  1.00  0.00     0.026 A 
ATOM     11  C   UNL     1      43.256 138.669  22.323  1.00  0.00     0.031 A 
ATOM     12  C   UNL     1      42.100 137.610  20.468  1.00  0.00     0.016 A 
ATOM     13  C   UNL     1      43.183 137.660  21.351  1.00  0.00     0.026 A 
BRANCH  11  14
ATOM     14  N   UNL     1      44.366 138.722  23.224  1.00  0.00    -0.399 N 
ATOM     15  H   UNL     1      44.955 139.581  23.296  1.00  0.00     0.156 HD
ATOM     16  H   UNL     1      44.599 137.906  23.834  1.00  0.00     0.156 HD
ENDBRANCH  11  14
ENDBRANCH   6   8
ENDBRANCH   1   6
BRANCH   2  17
ATOM     17  C   UNL     1      37.159 138.044  18.232  1.00  0.00     0.115 C 
BRANCH  17  18
ATOM     18  C   UNL     1      37.229 138.072  16.703  1.00  0.00     0.082 C 
BRANCH  18  19
ATOM     19  C   UNL     1      38.130 136.990  16.200  1.00  0.00     0.134 A 
ATOM     20  N   UNL     1      37.780 136.083  15.265  1.00  0.00     0.020 NA
ATOM     21  C   UNL     1      39.453 136.788  16.537  1.00  0.00     0.190 A 
ATOM     22  N   UNL     1      38.855 135.339  15.056  1.00  0.00    -0.012 N 
ATOM     23  N   UNL     1      39.874 135.738  15.805  1.00  0.00    -0.104 N 
ATOM     24  H   UNL     1      38.889 134.561  14.360  1.00  0.00     0.527 HD
BRANCH  23  25
ATOM     25  C   UNL     1      41.184 135.137  15.814  1.00  0.00     0.107 A 
ATOM     26  C   UNL     1      42.241 135.750  16.511  1.00  0.00     0.033 A 
ATOM     27  C   UNL     1      41.425 133.935  15.122  1.00  0.00     0.041 A 
ATOM     28  C   UNL     1      43.515 135.179  16.525  1.00  0.00     0.011 A 
ATOM     29  C   UNL     1      42.701 133.351  15.130  1.00  0.00    -0.016 A 
ATOM     30  C   UNL     1      43.760 133.983  15.841  1.00  0.00    -0.018 A 
ATOM     31  C   UNL     1      42.942 132.145  14.444  1.00  0.00     0.019 A 
ATOM     32  C   UNL     1      45.042 133.400  15.853  1.00  0.00     0.018 A 
ATOM     33  C   UNL     1      44.228 131.604  14.474  1.00  0.00     0.016 A 
ATOM     34  C   UNL     1      45.241 132.209  15.153  1.00  0.00     0.016 A 
ATOM     35  C   UNL     1      44.702 130.351  13.845  1.00  0.00     0.301 C 
ATOM     36  C   UNL     1      46.486 131.418  15.043  1.00  0.00     0.301 C 
ATOM     37  N   UNL     1      46.184 130.328  14.062  1.00  0.00    -0.321 N 
ATOM     38  C   UNL     1      46.617 129.014  14.589  1.00  0.00     0.334 C 
ATOM     39  C   UNL     1      46.888 130.591  12.782  1.00  0.00     0.334 C 
ENDBRANCH  23  25
ENDBRANCH  18  19
ENDBRANCH  17  18
ENDBRANCH   2  17
BRANCH   4  40
ATOM     40  C   UNL     1      37.417 134.892  21.738  1.00  0.00     0.097 C 
BRANCH  40  41
ATOM     41  N   UNL     1      38.492 134.991  22.720  1.00  0.00    -0.094 NA
BRANCH  41  42
ATOM     42  N   UNL     1      39.629 134.592  22.462  1.00  0.00     0.001 N 
ATOM     43  N   UNL     1      40.763 134.191  22.203  1.00  0.00    -0.003 NA
ENDBRANCH  41  42
ENDBRANCH  40  41
ENDBRANCH   4  40
TORSDOF 10
ENDMDL
MODEL 7
REMARK VINA RESULT:      -4.1      3.141      4.895
REMARK SMILES C[N+]1(C)Cc2cc3ccc(-n4cc(CCN5C[C@@H](CN=[N+]=[N-])CN5C(=O)c5ccc(N)cc5)n[nH+]4)cc3cc2C1
REMARK SMILES IDX 24 1 16 2 17 3 18 4 23 5 25 6 26 7 27 8 28 9 29 10 30 11
REMARK SMILES IDX 33 12 32 13 31 14 15 17 14 18 13 19 34 20 12 21 35 22 11 23
REMARK SMILES IDX 10 25 9 26 36 27 8 28 37 29 7 30 38 31 6 32 39 33 5 34 40 35
REMARK SMILES IDX 4 36 2 37 1 38 3 39 19 40 20 41 21 42 22 43
REMARK H PARENT 31 15 31 16 35 24
ROOT
ATOM      1  N   UNL     1      41.463 137.284  22.694  1.00  0.00    -0.271 N 
ATOM      2  N   UNL     1      41.363 137.745  21.368  1.00  0.00    -0.218 NA
ATOM      3  C   UNL     1      39.921 137.698  21.072  1.00  0.00     0.114 C 
ATOM      4  C   UNL     1      39.176 137.705  22.414  1.00  0.00     0.032 C 
ATOM      5  C   UNL     1      40.202 137.169  23.400  1.00  0.00     0.145 C 
ENDROOT
BRANCH   1   6
ATOM      6  C   UNL     1      42.703 136.824  23.264  1.00  0.00     0.268 C 
ATOM      7  O   UNL     1      42.714 136.388  24.447  1.00  0.00    -0.268 OA
BRANCH   6   8
ATOM      8  C   UNL     1      43.970 136.865  22.500  1.00  0.00     0.041 A 
ATOM      9  C   UNL     1      44.314 135.799  21.651  1.00  0.00     0.016 A 
ATOM     10  C   UNL     1      45.507 135.830  20.922  1.00  0.00     0.026 A 
ATOM     11  C   UNL     1      46.365 136.933  21.019  1.00  0.00     0.031 A 
ATOM     12  C   UNL     1      44.826 137.977  22.580  1.00  0.00     0.016 A 
ATOM     13  C   UNL     1      46.017 138.008  21.849  1.00  0.00     0.026 A 
BRANCH  11  14
ATOM     14  N   UNL     1      47.586 136.964  20.273  1.00  0.00    -0.399 N 
ATOM     15  H   UNL     1      48.063 136.078  19.993  1.00  0.00     0.156 HD
ATOM     16  H   UNL     1      48.014 137.872  19.986  1.00  0.00     0.156 HD
ENDBRANCH  11  14
ENDBRANCH   6   8
ENDBRANCH   1   6
BRANCH   2  17
ATOM     17  C   UNL     1      41.887 139.124  21.306  1.00  0.00     0.115 C 
BRANCH  17  18
ATOM     18  C   UNL     1      42.840 139.272  20.117  1.00  0.00     0.082 C 
BRANCH  18  19
ATOM     19  C   UNL     1      42.476 138.312  19.031  1.00  0.00     0.134 A 
ATOM     20  N   UNL     1      41.559 138.559  18.073  1.00  0.00     0.020 NA
ATOM     21  C   UNL     1      43.051 137.082  18.784  1.00  0.00     0.190 A 
ATOM     22  N   UNL     1      41.563 137.499  17.279  1.00  0.00    -0.012 N 
ATOM     23  N   UNL     1      42.448 136.596  17.681  1.00  0.00    -0.104 N 
ATOM     24  H   UNL     1      40.963 137.416  16.429  1.00  0.00     0.527 HD
BRANCH  23  25
ATOM     25  C   UNL     1      42.697 135.333  17.034  1.00  0.00     0.107 A 
ATOM     26  C   UNL     1      41.648 134.416  16.841  1.00  0.00     0.033 A 
ATOM     27  C   UNL     1      43.992 134.997  16.593  1.00  0.00     0.041 A 
ATOM     28  C   UNL     1      41.878 133.187  16.218  1.00  0.00     0.011 A 
ATOM     29  C   UNL     1      44.234 133.766  15.965  1.00  0.00    -0.016 A 
ATOM     30  C   UNL     1      43.162 132.850  15.776  1.00  0.00    -0.018 A 
ATOM     31  C   UNL     1      45.527 133.432  15.518  1.00  0.00     0.019 A 
ATOM     32  C   UNL     1      43.400 131.613  15.144  1.00  0.00     0.018 A 
ATOM     33  C   UNL     1      45.723 132.193  14.904  1.00  0.00     0.016 A 
ATOM     34  C   UNL     1      44.698 131.316  14.724  1.00  0.00     0.016 A 
ATOM     35  C   UNL     1      46.979 131.643  14.347  1.00  0.00     0.301 C 
ATOM     36  C   UNL     1      45.171 130.099  14.030  1.00  0.00     0.301 C 
ATOM     37  N   UNL     1      46.660 130.235  13.951  1.00  0.00    -0.321 N 
ATOM     38  C   UNL     1      47.139 129.954  12.578  1.00  0.00     0.334 C 
ATOM     39  C   UNL     1      47.305 129.285  14.891  1.00  0.00     0.334 C 
ENDBRANCH  23  25
ENDBRANCH  18  19
ENDBRANCH  17  18
ENDBRANCH   2  17
BRANCH   4  40
ATOM     40  C   UNL     1      37.882 136.871  22.392  1.00  0.00     0.097 C 
BRANCH  40  41
ATOM     41  N   UNL     1      37.020 137.268  21.283  1.00  0.00    -0.094 NA
BRANCH  41  42
ATOM     42  N   UNL     1      36.808 136.508  20.337  1.00  0.00     0.001 N 
ATOM     43  N   UNL     1      36.594 135.748  19.394  1.00  0.00    -0.003 NA
ENDBRANCH  41  42
ENDBRANCH  40  41
ENDBRANCH   4  40
TORSDOF 10
ENDMDL
MODEL 8
REMARK VINA RESULT:      -4.1      4.600      8.034
REMARK SMILES C[N+]1(C)Cc2cc3ccc(-n4cc(CCN5C[C@@H](CN=[N+]=[N-])CN5C(=O)c5ccc(N)cc5)n[nH+]4)cc3cc2C1
REMARK SMILES IDX 24 1 16 2 17 3 18 4 23 5 25 6 26 7 27 8 28 9 29 10 30 11
REMARK SMILES IDX 33 12 32 13 31 14 15 17 14 18 13 19 34 20 12 21 35 22 11 23
REMARK SMILES IDX 10 25 9 26 36 27 8 28 37 29 7 30 38 31 6 32 39 33 5 34 40 35
REMARK SMILES IDX 4 36 2 37 1 38 3 39 19 40 20 41 21 42 22 43
REMARK H PARENT 31 15 31 16 35 24
ROOT
ATOM      1  N   UNL     1      45.952 136.651  21.478  1.00  0.00    -0.271 N 
ATOM      2  N   UNL     1      45.959 137.520  22.586  1.00  0.00    -0.218 NA
ATOM      3  C   UNL     1      47.176 138.330  22.406  1.00  0.00     0.114 C 
ATOM      4  C   UNL     1      47.561 138.260  20.922  1.00  0.00     0.032 C 
ATOM      5  C   UNL     1      46.914 136.971  20.441  1.00  0.00     0.145 C 
ENDROOT
BRANCH   1   6
ATOM      6  C   UNL     1      45.153 135.454  21.436  1.00  0.00     0.268 C 
ATOM      7  O   UNL     1      44.897 134.846  22.512  1.00  0.00    -0.268 OA
BRANCH   6   8
ATOM      8  C   UNL     1      44.638 134.908  20.160  1.00  0.00     0.041 A 
ATOM      9  C   UNL     1      44.693 133.525  19.915  1.00  0.00     0.016 A 
ATOM     10  C   UNL     1      44.205 132.999  18.715  1.00  0.00     0.026 A 
ATOM     11  C   UNL     1      43.643 133.844  17.749  1.00  0.00     0.031 A 
ATOM     12  C   UNL     1      44.058 135.750  19.197  1.00  0.00     0.016 A 
ATOM     13  C   UNL     1      43.569 135.223  17.998  1.00  0.00     0.026 A 
BRANCH  11  14
ATOM     14  N   UNL     1      43.145 133.306  16.521  1.00  0.00    -0.399 N 
ATOM     15  H   UNL     1      43.089 132.273  16.376  1.00  0.00     0.156 HD
ATOM     16  H   UNL     1      42.820 133.936  15.754  1.00  0.00     0.156 HD
ENDBRANCH  11  14
ENDBRANCH   6   8
ENDBRANCH   1   6
BRANCH   2  17
ATOM     17  C   UNL     1      44.740 138.351  22.543  1.00  0.00     0.115 C 
BRANCH  17  18
ATOM     18  C   UNL     1      43.723 137.848  23.571  1.00  0.00     0.082 C 
BRANCH  18  19
ATOM     19  C   UNL     1      42.355 137.794  22.973  1.00  0.00     0.134 A 
ATOM     20  N   UNL     1      41.220 138.083  23.642  1.00  0.00     0.020 NA
ATOM     21  C   UNL     1      42.034 137.526  21.658  1.00  0.00     0.190 A 
ATOM     22  N   UNL     1      40.237 137.973  22.763  1.00  0.00    -0.012 N 
ATOM     23  N   UNL     1      40.695 137.639  21.563  1.00  0.00    -0.104 N 
ATOM     24  H   UNL     1      39.236 138.162  22.993  1.00  0.00     0.527 HD
BRANCH  23  25
ATOM     25  C   UNL     1      39.882 137.440  20.390  1.00  0.00     0.107 A 
ATOM     26  C   UNL     1      38.502 137.711  20.428  1.00  0.00     0.033 A 
ATOM     27  C   UNL     1      40.455 136.968  19.194  1.00  0.00     0.041 A 
ATOM     28  C   UNL     1      37.704 137.519  19.298  1.00  0.00     0.011 A 
ATOM     29  C   UNL     1      39.664 136.773  18.052  1.00  0.00    -0.016 A 
ATOM     30  C   UNL     1      38.269 137.052  18.107  1.00  0.00    -0.018 A 
ATOM     31  C   UNL     1      40.237 136.306  16.853  1.00  0.00     0.019 A 
ATOM     32  C   UNL     1      37.470 136.859  16.962  1.00  0.00     0.018 A 
ATOM     33  C   UNL     1      39.409 136.121  15.744  1.00  0.00     0.016 A 
ATOM     34  C   UNL     1      38.076 136.387  15.797  1.00  0.00     0.016 A 
ATOM     35  C   UNL     1      39.793 135.660  14.391  1.00  0.00     0.301 C 
ATOM     36  C   UNL     1      37.442 136.131  14.485  1.00  0.00     0.301 C 
ATOM     37  N   UNL     1      38.506 135.498  13.642  1.00  0.00    -0.321 N 
ATOM     38  C   UNL     1      38.584 136.154  12.317  1.00  0.00     0.334 C 
ATOM     39  C   UNL     1      38.208 134.056  13.451  1.00  0.00     0.334 C 
ENDBRANCH  23  25
ENDBRANCH  18  19
ENDBRANCH  17  18
ENDBRANCH   2  17
BRANCH   4  40
ATOM     40  C   UNL     1      49.083 138.284  20.690  1.00  0.00     0.097 C 
BRANCH  40  41
ATOM     41  N   UNL     1      49.645 136.939  20.757  1.00  0.00    -0.094 NA
BRANCH  41  42
ATOM     42  N   UNL     1      50.233 136.543  21.765  1.00  0.00     0.001 N 
ATOM     43  N   UNL     1      50.824 136.148  22.769  1.00  0.00    -0.003 NA
ENDBRANCH  41  42
ENDBRANCH  40  41
ENDBRANCH   4  40
TORSDOF 10
ENDMDL
MODEL 9
REMARK VINA RESULT:      -3.8      5.015      7.556
REMARK SMILES C[N+]1(C)Cc2cc3ccc(-n4cc(CCN5C[C@@H](CN=[N+]=[N-])CN5C(=O)c5ccc(N)cc5)n[nH+]4)cc3cc2C1
REMARK SMILES IDX 24 1 16 2 17 3 18 4 23 5 25 6 26 7 27 8 28 9 29 10 30 11
REMARK SMILES IDX 33 12 32 13 31 14 15 17 14 18 13 19 34 20 12 21 35 22 11 23
REMARK SMILES IDX 10 25 9 26 36 27 8 28 37 29 7 30 38 31 6 32 39 33 5 34 40 35
REMARK SMILES IDX 4 36 2 37 1 38 3 39 19 40 20 41 21 42 22 43
REMARK H PARENT 31 15 31 16 35 24
ROOT
ATOM      1  N   UNL     1      44.684 134.181  23.540  1.00  0.00    -0.271 N 
ATOM      2  N   UNL     1      43.581 134.505  22.727  1.00  0.00    -0.218 NA
ATOM      3  C   UNL     1      42.874 133.226  22.544  1.00  0.00     0.114 C 
ATOM      4  C   UNL     1      43.301 132.296  23.688  1.00  0.00     0.032 C 
ATOM      5  C   UNL     1      44.645 132.855  24.126  1.00  0.00     0.145 C 
ENDROOT
BRANCH   1   6
ATOM      6  C   UNL     1      45.832 135.041  23.670  1.00  0.00     0.268 C 
ATOM      7  O   UNL     1      46.662 134.826  24.594  1.00  0.00    -0.268 OA
BRANCH   6   8
ATOM      8  C   UNL     1      46.053 136.182  22.753  1.00  0.00     0.041 A 
ATOM      9  C   UNL     1      46.452 135.950  21.425  1.00  0.00     0.016 A 
ATOM     10  C   UNL     1      46.659 137.021  20.550  1.00  0.00     0.026 A 
ATOM     11  C   UNL     1      46.457 138.337  20.985  1.00  0.00     0.031 A 
ATOM     12  C   UNL     1      45.835 137.503  23.179  1.00  0.00     0.016 A 
ATOM     13  C   UNL     1      46.041 138.573  22.303  1.00  0.00     0.026 A 
BRANCH  11  14
ATOM     14  N   UNL     1      46.671 139.432  20.090  1.00  0.00    -0.399 N 
ATOM     15  H   UNL     1      47.634 139.793  19.907  1.00  0.00     0.156 HD
ATOM     16  H   UNL     1      45.868 139.883  19.595  1.00  0.00     0.156 HD
ENDBRANCH  11  14
ENDBRANCH   6   8
ENDBRANCH   1   6
BRANCH   2  17
ATOM     17  C   UNL     1      42.745 135.493  23.437  1.00  0.00     0.115 C 
BRANCH  17  18
ATOM     18  C   UNL     1      42.230 136.549  22.455  1.00  0.00     0.082 C 
BRANCH  18  19
ATOM     19  C   UNL     1      41.143 135.983  21.599  1.00  0.00     0.134 A 
ATOM     20  N   UNL     1      39.956 135.545  22.067  1.00  0.00     0.020 NA
ATOM     21  C   UNL     1      41.135 135.887  20.222  1.00  0.00     0.190 A 
ATOM     22  N   UNL     1      39.257 135.174  21.006  1.00  0.00    -0.012 N 
ATOM     23  N   UNL     1      39.939 135.367  19.885  1.00  0.00    -0.104 N 
ATOM     24  H   UNL     1      38.280 134.810  21.060  1.00  0.00     0.527 HD
BRANCH  23  25
ATOM     25  C   UNL     1      39.460 135.066  18.559  1.00  0.00     0.107 A 
ATOM     26  C   UNL     1      39.147 133.742  18.202  1.00  0.00     0.033 A 
ATOM     27  C   UNL     1      39.305 136.089  17.604  1.00  0.00     0.041 A 
ATOM     28  C   UNL     1      38.685 133.438  16.920  1.00  0.00     0.011 A 
ATOM     29  C   UNL     1      38.840 135.795  16.314  1.00  0.00    -0.016 A 
ATOM     30  C   UNL     1      38.527 134.450  15.968  1.00  0.00    -0.018 A 
ATOM     31  C   UNL     1      38.679 136.818  15.359  1.00  0.00     0.019 A 
ATOM     32  C   UNL     1      38.058 134.151  14.673  1.00  0.00     0.018 A 
ATOM     33  C   UNL     1      38.220 136.478  14.086  1.00  0.00     0.016 A 
ATOM     34  C   UNL     1      37.921 135.192  13.754  1.00  0.00     0.016 A 
ATOM     35  C   UNL     1      37.962 137.381  12.942  1.00  0.00     0.301 C 
ATOM     36  C   UNL     1      37.435 135.114  12.360  1.00  0.00     0.301 C 
ATOM     37  N   UNL     1      37.632 136.484  11.789  1.00  0.00    -0.321 N 
ATOM     38  C   UNL     1      36.404 136.945  11.100  1.00  0.00     0.334 C 
ATOM     39  C   UNL     1      38.754 136.471  10.818  1.00  0.00     0.334 C 
ENDBRANCH  23  25
ENDBRANCH  18  19
ENDBRANCH  17  18
ENDBRANCH   2  17
BRANCH   4  40
ATOM     40  C   UNL     1      43.381 130.817  23.267  1.00  0.00     0.097 C 
BRANCH  40  41
ATOM     41  N   UNL     1      43.695 130.691  21.848  1.00  0.00    -0.094 NA
BRANCH  41  42
ATOM     42  N   UNL     1      44.833 130.904  21.425  1.00  0.00     0.001 N 
ATOM     43  N   UNL     1      45.969 131.118  21.007  1.00  0.00    -0.003 NA
ENDBRANCH  41  42
ENDBRANCH  40  41
ENDBRANCH   4  40
TORSDOF 10
ENDMDL


