REMARK SMILES Cc1cc(-n2cc(C[C@@H](C)[N-]C(=O)[C@H](C)C#N)nn2)nc2ccc3ccccc3c12
REMARK SMILES IDX 9 1 10 2 8 3 7 4 5 5 6 6 19 7 18 8 4 9 2 10 3 11 30 12 29 13
REMARK SMILES IDX 21 14 20 15 28 16 24 17 22 18 27 19 23 20 25 21 26 22 1 23
REMARK SMILES IDX 11 24 12 25 13 26 14 27 15 28 16 29 17 30
REMARK H PARENT
ROOT
ATOM      1  C   UNL     1       2.416  -1.739   4.211  1.00  0.00    -0.104 C 
ATOM      2  C   UNL     1       2.958  -2.206   2.854  1.00  0.00    -0.013 C 
ENDROOT
BRANCH   1   3
ATOM      3  C   UNL     1       0.905  -2.001   4.348  1.00  0.00     0.044 C 
BRANCH   3   4
ATOM      4  C   UNL     1       0.085  -1.209   3.373  1.00  0.00     0.082 A 
ATOM      5  N   UNL     1      -1.008  -0.576   1.602  1.00  0.00    -0.202 N 
ATOM      6  C   UNL     1      -0.349  -1.622   2.133  1.00  0.00     0.142 A 
ATOM      7  N   UNL     1      -0.970   0.425   2.470  1.00  0.00    -0.061 NA
ATOM      8  N   UNL     1      -0.306   0.068   3.560  1.00  0.00    -0.135 NA
BRANCH   5   9
ATOM      9  C   UNL     1      -1.639  -0.525   0.313  1.00  0.00     0.156 A 
ATOM     10  C   UNL     1      -2.945   0.653  -1.365  1.00  0.00    -0.037 A 
ATOM     11  C   UNL     1      -2.313   0.621  -0.111  1.00  0.00     0.053 A 
ATOM     12  C   UNL     1      -2.774  -0.448  -2.264  1.00  0.00     0.011 A 
ATOM     13  C   UNL     1      -3.177  -0.471  -3.642  1.00  0.00    -0.009 A 
ATOM     14  C   UNL     1      -2.187  -1.628  -1.724  1.00  0.00     0.074 A 
ATOM     15  N   UNL     1      -1.632  -1.621  -0.485  1.00  0.00    -0.229 NA
ATOM     16  C   UNL     1      -3.438   0.695  -4.399  1.00  0.00     0.009 A 
ATOM     17  C   UNL     1      -3.217  -1.719  -4.331  1.00  0.00    -0.018 A 
ATOM     18  C   UNL     1      -2.188  -2.822  -2.444  1.00  0.00     0.030 A 
ATOM     19  C   UNL     1      -3.878   0.615  -5.722  1.00  0.00     0.001 A 
ATOM     20  C   UNL     1      -2.747  -2.881  -3.713  1.00  0.00     0.011 A 
ATOM     21  C   UNL     1      -3.675  -1.785  -5.657  1.00  0.00     0.009 A 
ATOM     22  C   UNL     1      -4.023  -0.623  -6.341  1.00  0.00     0.001 A 
ATOM     23  C   UNL     1      -3.890   1.806  -1.602  1.00  0.00     0.045 C 
ENDBRANCH   5   9
ENDBRANCH   3   4
ENDBRANCH   1   3
BRANCH   1  24
ATOM     24  N   UNL     1       2.695  -0.317   4.407  1.00  0.00    -0.649 NA
BRANCH  24  25
ATOM     25  C   UNL     1       3.995   0.206   4.697  1.00  0.00     0.068 C 
ATOM     26  O   UNL     1       4.968  -0.575   4.884  1.00  0.00    -0.319 OA
BRANCH  25  27
ATOM     27  C   UNL     1       4.183   1.691   4.817  1.00  0.00     0.137 C 
ATOM     28  C   UNL     1       5.364   2.171   3.969  1.00  0.00     0.031 C 
BRANCH  27  29
ATOM     29  C   UNL     1       4.382   2.051   6.230  1.00  0.00     0.071 C 
ATOM     30  N   UNL     1       4.532   2.335   7.343  1.00  0.00    -0.198 NA
ENDBRANCH  27  29
ENDBRANCH  25  27
ENDBRANCH  24  25
ENDBRANCH   1  24
TORSDOF 7


