MODEL 1
REMARK VINA RESULT:      -6.0      0.000      0.000
REMARK SMILES [H]/N=C(/C#C)[NH2+][C@H](c1c(C)nnn1-c1c2ccccc2c(C=O)c2ccccc12)C(C)C
REMARK SMILES IDX 7 1 6 2 3 5 4 6 5 7 2 8 1 9 8 10 9 11 13 12 11 13 12 14
REMARK SMILES IDX 10 15 14 16 15 17 29 18 16 19 20 20 28 21 24 22 17 23 19 24
REMARK SMILES IDX 21 25 27 26 25 27 18 28 26 29 22 30 23 31 30 32 31 33 32 34
REMARK H PARENT 6 3 6 4
ROOT
ATOM      1  C   UNL     1      42.958 133.253  18.461  1.00  0.00     0.243 C 
ENDROOT
BRANCH   1   2
ATOM      2  N   UNL     1      41.604 132.737  18.117  1.00  0.00    -0.282 N 
ATOM      3  H   UNL     1      41.573 132.449  17.112  1.00  0.00     0.354 HD
ATOM      4  H   UNL     1      41.370 131.897  18.689  1.00  0.00     0.354 HD
BRANCH   2   5
ATOM      5  C   UNL     1      40.569 133.735  18.272  1.00  0.00     0.270 C 
BRANCH   5   6
ATOM      6  C   UNL     1      39.445 133.768  17.371  1.00  0.00     0.009 C 
ATOM      7  C   UNL     1      38.506 133.797  16.616  1.00  0.00     0.017 C 
ENDBRANCH   5   6
BRANCH   5   8
ATOM      8  N   UNL     1      40.695 134.694  19.137  1.00  0.00    -0.242 NA
ATOM      9  H   UNL     1      40.923 134.508  20.138  1.00  0.00     0.194 HD
ENDBRANCH   5   8
ENDBRANCH   2   5
ENDBRANCH   1   2
BRANCH   1  10
ATOM     10  C   UNL     1      43.898 133.232  17.258  1.00  0.00     0.125 A 
ATOM     11  C   UNL     1      44.875 132.304  16.900  1.00  0.00     0.089 A 
ATOM     12  N   UNL     1      43.981 134.216  16.336  1.00  0.00    -0.210 N 
ATOM     13  N   UNL     1      45.479 132.745  15.778  1.00  0.00    -0.135 NA
ATOM     14  N   UNL     1      44.924 133.904  15.464  1.00  0.00    -0.062 NA
ATOM     15  C   UNL     1      45.212 130.995  17.542  1.00  0.00     0.071 C 
BRANCH  12  16
ATOM     16  C   UNL     1      43.212 135.428  16.278  1.00  0.00     0.083 A 
ATOM     17  C   UNL     1      43.562 136.525  17.093  1.00  0.00     0.009 A 
ATOM     18  C   UNL     1      42.120 135.525  15.391  1.00  0.00     0.009 A 
ATOM     19  C   UNL     1      44.647 136.430  17.992  1.00  0.00     0.011 A 
ATOM     20  C   UNL     1      42.832 137.741  17.006  1.00  0.00    -0.005 A 
ATOM     21  C   UNL     1      41.766 134.433  14.569  1.00  0.00     0.011 A 
ATOM     22  C   UNL     1      41.366 136.727  15.315  1.00  0.00    -0.005 A 
ATOM     23  C   UNL     1      45.032 137.526  18.761  1.00  0.00     0.001 A 
ATOM     24  C   UNL     1      43.265 138.844  17.781  1.00  0.00     0.009 A 
ATOM     25  C   UNL     1      41.716 137.836  16.130  1.00  0.00     0.030 A 
ATOM     26  C   UNL     1      40.684 134.518  13.696  1.00  0.00     0.001 A 
ATOM     27  C   UNL     1      40.260 136.778  14.432  1.00  0.00     0.009 A 
ATOM     28  C   UNL     1      44.350 138.731  18.649  1.00  0.00     0.001 A 
ATOM     29  C   UNL     1      39.930 135.685  13.631  1.00  0.00     0.001 A 
BRANCH  25  30
ATOM     30  C   UNL     1      40.911 139.081  16.063  1.00  0.00     0.261 C 
ATOM     31  O   UNL     1      39.978 139.289  16.882  1.00  0.00    -0.298 OA
ENDBRANCH  25  30
ENDBRANCH  12  16
ENDBRANCH   1  10
BRANCH   1  32
ATOM     32  C   UNL     1      43.624 132.562  19.697  1.00  0.00     0.048 C 
ATOM     33  C   UNL     1      44.374 133.550  20.598  1.00  0.00     0.014 C 
ATOM     34  C   UNL     1      42.674 131.693  20.538  1.00  0.00     0.014 C 
ENDBRANCH   1  32
TORSDOF 8
ENDMDL
MODEL 2
REMARK VINA RESULT:      -6.0      2.659      6.228
REMARK SMILES [H]/N=C(/C#C)[NH2+][C@H](c1c(C)nnn1-c1c2ccccc2c(C=O)c2ccccc12)C(C)C
REMARK SMILES IDX 7 1 6 2 3 5 4 6 5 7 2 8 1 9 8 10 9 11 13 12 11 13 12 14
REMARK SMILES IDX 10 15 14 16 15 17 29 18 16 19 20 20 28 21 24 22 17 23 19 24
REMARK SMILES IDX 21 25 27 26 25 27 18 28 26 29 22 30 23 31 30 32 31 33 32 34
REMARK H PARENT 6 3 6 4
ROOT
ATOM      1  C   UNL     1      41.424 135.752  17.130  1.00  0.00     0.243 C 
ENDROOT
BRANCH   1   2
ATOM      2  N   UNL     1      42.379 135.794  15.988  1.00  0.00    -0.282 N 
ATOM      3  H   UNL     1      42.121 135.070  15.278  1.00  0.00     0.354 HD
ATOM      4  H   UNL     1      42.349 136.722  15.513  1.00  0.00     0.354 HD
BRANCH   2   5
ATOM      5  C   UNL     1      43.737 135.493  16.382  1.00  0.00     0.270 C 
BRANCH   5   6
ATOM      6  C   UNL     1      44.199 135.808  17.710  1.00  0.00     0.009 C 
ATOM      7  C   UNL     1      44.586 136.071  18.821  1.00  0.00     0.017 C 
ENDBRANCH   5   6
BRANCH   5   8
ATOM      8  N   UNL     1      44.599 135.057  15.517  1.00  0.00    -0.242 NA
ATOM      9  H   UNL     1      45.288 134.309  15.752  1.00  0.00     0.194 HD
ENDBRANCH   5   8
ENDBRANCH   2   5
ENDBRANCH   1   2
BRANCH   1  10
ATOM     10  C   UNL     1      40.522 134.522  17.074  1.00  0.00     0.125 A 
ATOM     11  C   UNL     1      39.297 134.337  16.436  1.00  0.00     0.089 A 
ATOM     12  N   UNL     1      40.756 133.372  17.744  1.00  0.00    -0.210 N 
ATOM     13  N   UNL     1      38.862 133.092  16.717  1.00  0.00    -0.135 NA
ATOM     14  N   UNL     1      39.759 132.534  17.514  1.00  0.00    -0.062 NA
ATOM     15  C   UNL     1      38.559 135.267  15.525  1.00  0.00     0.071 C 
BRANCH  12  16
ATOM     16  C   UNL     1      41.874 133.065  18.592  1.00  0.00     0.083 A 
ATOM     17  C   UNL     1      41.860 133.457  19.947  1.00  0.00     0.009 A 
ATOM     18  C   UNL     1      42.976 132.354  18.073  1.00  0.00     0.009 A 
ATOM     19  C   UNL     1      40.765 134.179  20.471  1.00  0.00     0.011 A 
ATOM     20  C   UNL     1      42.943 133.116  20.800  1.00  0.00    -0.005 A 
ATOM     21  C   UNL     1      42.996 131.954  16.718  1.00  0.00     0.011 A 
ATOM     22  C   UNL     1      44.076 132.031  18.910  1.00  0.00    -0.005 A 
ATOM     23  C   UNL     1      40.719 134.524  21.820  1.00  0.00     0.001 A 
ATOM     24  C   UNL     1      42.854 133.456  22.172  1.00  0.00     0.009 A 
ATOM     25  C   UNL     1      44.066 132.420  20.276  1.00  0.00     0.030 A 
ATOM     26  C   UNL     1      44.083 131.259  16.195  1.00  0.00     0.001 A 
ATOM     27  C   UNL     1      45.176 131.340  18.347  1.00  0.00     0.009 A 
ATOM     28  C   UNL     1      41.754 134.156  22.669  1.00  0.00     0.001 A 
ATOM     29  C   UNL     1      45.173 130.957  17.006  1.00  0.00     0.001 A 
BRANCH  25  30
ATOM     30  C   UNL     1      45.229 132.100  21.140  1.00  0.00     0.261 C 
ATOM     31  O   UNL     1      45.282 131.012  21.772  1.00  0.00    -0.298 OA
ENDBRANCH  25  30
ENDBRANCH  12  16
ENDBRANCH   1  10
BRANCH   1  32
ATOM     32  C   UNL     1      40.576 137.053  17.318  1.00  0.00     0.048 C 
ATOM     33  C   UNL     1      40.414 137.449  18.791  1.00  0.00     0.014 C 
ATOM     34  C   UNL     1      41.056 138.260  16.495  1.00  0.00     0.014 C 
ENDBRANCH   1  32
TORSDOF 8
ENDMDL
MODEL 3
REMARK VINA RESULT:      -5.9      2.541      6.505
REMARK SMILES [H]/N=C(/C#C)[NH2+][C@H](c1c(C)nnn1-c1c2ccccc2c(C=O)c2ccccc12)C(C)C
REMARK SMILES IDX 7 1 6 2 3 5 4 6 5 7 2 8 1 9 8 10 9 11 13 12 11 13 12 14
REMARK SMILES IDX 10 15 14 16 15 17 29 18 16 19 20 20 28 21 24 22 17 23 19 24
REMARK SMILES IDX 21 25 27 26 25 27 18 28 26 29 22 30 23 31 30 32 31 33 32 34
REMARK H PARENT 6 3 6 4
ROOT
ATOM      1  C   UNL     1      41.301 135.841  17.048  1.00  0.00     0.243 C 
ENDROOT
BRANCH   1   2
ATOM      2  N   UNL     1      42.292 135.815  15.936  1.00  0.00    -0.282 N 
ATOM      3  H   UNL     1      42.046 135.062  15.253  1.00  0.00     0.354 HD
ATOM      4  H   UNL     1      42.291 136.720  15.416  1.00  0.00     0.354 HD
BRANCH   2   5
ATOM      5  C   UNL     1      43.632 135.514  16.388  1.00  0.00     0.270 C 
BRANCH   5   6
ATOM      6  C   UNL     1      44.029 135.807  17.742  1.00  0.00     0.009 C 
ATOM      7  C   UNL     1      44.363 136.052  18.874  1.00  0.00     0.017 C 
ENDBRANCH   5   6
BRANCH   5   8
ATOM      8  N   UNL     1      44.536 135.099  15.556  1.00  0.00    -0.242 NA
ATOM      9  H   UNL     1      44.883 135.697  14.774  1.00  0.00     0.194 HD
ENDBRANCH   5   8
ENDBRANCH   2   5
ENDBRANCH   1   2
BRANCH   1  10
ATOM     10  C   UNL     1      40.355 134.644  16.997  1.00  0.00     0.125 A 
ATOM     11  C   UNL     1      39.155 134.479  16.309  1.00  0.00     0.089 A 
ATOM     12  N   UNL     1      40.514 133.514  17.720  1.00  0.00    -0.210 N 
ATOM     13  N   UNL     1      38.659 133.263  16.618  1.00  0.00    -0.135 NA
ATOM     14  N   UNL     1      39.497 132.706  17.477  1.00  0.00    -0.062 NA
ATOM     15  C   UNL     1      38.495 135.398  15.329  1.00  0.00     0.071 C 
BRANCH  12  16
ATOM     16  C   UNL     1      41.580 133.201  18.632  1.00  0.00     0.083 A 
ATOM     17  C   UNL     1      42.712 132.493  18.177  1.00  0.00     0.009 A 
ATOM     18  C   UNL     1      41.500 133.619  19.976  1.00  0.00     0.009 A 
ATOM     19  C   UNL     1      42.793 132.061  16.835  1.00  0.00     0.011 A 
ATOM     20  C   UNL     1      43.787 132.220  19.064  1.00  0.00    -0.005 A 
ATOM     21  C   UNL     1      40.371 134.332  20.439  1.00  0.00     0.011 A 
ATOM     22  C   UNL     1      42.557 133.328  20.878  1.00  0.00    -0.005 A 
ATOM     23  C   UNL     1      43.930 131.408  16.364  1.00  0.00     0.001 A 
ATOM     24  C   UNL     1      44.941 131.580  18.549  1.00  0.00     0.009 A 
ATOM     25  C   UNL     1      43.701 132.619  20.425  1.00  0.00     0.030 A 
ATOM     26  C   UNL     1      40.281 134.742  21.766  1.00  0.00     0.001 A 
ATOM     27  C   UNL     1      42.429 133.741  22.227  1.00  0.00     0.009 A 
ATOM     28  C   UNL     1      45.003 131.177  17.215  1.00  0.00     0.001 A 
ATOM     29  C   UNL     1      41.304 134.443  22.659  1.00  0.00     0.001 A 
BRANCH  25  30
ATOM     30  C   UNL     1      44.792 132.299  21.378  1.00  0.00     0.261 C 
ATOM     31  O   UNL     1      45.773 133.075  21.519  1.00  0.00    -0.298 OA
ENDBRANCH  25  30
ENDBRANCH  12  16
ENDBRANCH   1  10
BRANCH   1  32
ATOM     32  C   UNL     1      40.497 137.178  17.172  1.00  0.00     0.048 C 
ATOM     33  C   UNL     1      40.439 137.705  18.611  1.00  0.00     0.014 C 
ATOM     34  C   UNL     1      40.951 138.294  16.216  1.00  0.00     0.014 C 
ENDBRANCH   1  32
TORSDOF 8
ENDMDL
MODEL 4
REMARK VINA RESULT:      -5.8      2.741      6.486
REMARK SMILES [H]/N=C(/C#C)[NH2+][C@H](c1c(C)nnn1-c1c2ccccc2c(C=O)c2ccccc12)C(C)C
REMARK SMILES IDX 7 1 6 2 3 5 4 6 5 7 2 8 1 9 8 10 9 11 13 12 11 13 12 14
REMARK SMILES IDX 10 15 14 16 15 17 29 18 16 19 20 20 28 21 24 22 17 23 19 24
REMARK SMILES IDX 21 25 27 26 25 27 18 28 26 29 22 30 23 31 30 32 31 33 32 34
REMARK H PARENT 6 3 6 4
ROOT
ATOM      1  C   UNL     1      42.728 133.562  17.175  1.00  0.00     0.243 C 
ENDROOT
BRANCH   1   2
ATOM      2  N   UNL     1      42.540 132.194  16.617  1.00  0.00    -0.282 N 
ATOM      3  H   UNL     1      41.999 131.602  17.290  1.00  0.00     0.354 HD
ATOM      4  H   UNL     1      41.997 132.228  15.726  1.00  0.00     0.354 HD
BRANCH   2   5
ATOM      5  C   UNL     1      43.790 131.501  16.399  1.00  0.00     0.270 C 
BRANCH   5   6
ATOM      6  C   UNL     1      44.670 131.220  17.504  1.00  0.00     0.009 C 
ATOM      7  C   UNL     1      45.405 130.983  18.430  1.00  0.00     0.017 C 
ENDBRANCH   5   6
BRANCH   5   8
ATOM      8  N   UNL     1      44.203 131.237  15.198  1.00  0.00    -0.242 NA
ATOM      9  H   UNL     1      45.051 130.656  15.021  1.00  0.00     0.194 HD
ENDBRANCH   5   8
ENDBRANCH   2   5
ENDBRANCH   1   2
BRANCH   1  10
ATOM     10  C   UNL     1      41.655 133.910  18.204  1.00  0.00     0.125 A 
ATOM     11  C   UNL     1      40.279 134.063  18.047  1.00  0.00     0.089 A 
ATOM     12  N   UNL     1      41.907 134.217  19.495  1.00  0.00    -0.210 N 
ATOM     13  N   UNL     1      39.759 134.422  19.238  1.00  0.00    -0.135 NA
ATOM     14  N   UNL     1      40.765 134.515  20.093  1.00  0.00    -0.062 NA
ATOM     15  C   UNL     1      39.435 133.822  16.834  1.00  0.00     0.071 C 
BRANCH  12  16
ATOM     16  C   UNL     1      43.183 134.251  20.155  1.00  0.00     0.083 A 
ATOM     17  C   UNL     1      43.630 133.129  20.881  1.00  0.00     0.009 A 
ATOM     18  C   UNL     1      43.993 135.401  20.057  1.00  0.00     0.009 A 
ATOM     19  C   UNL     1      42.818 131.979  20.993  1.00  0.00     0.011 A 
ATOM     20  C   UNL     1      44.911 133.141  21.497  1.00  0.00    -0.005 A 
ATOM     21  C   UNL     1      43.554 136.527  19.327  1.00  0.00     0.011 A 
ATOM     22  C   UNL     1      45.263 135.435  20.691  1.00  0.00    -0.005 A 
ATOM     23  C   UNL     1      43.275 130.846  21.664  1.00  0.00     0.001 A 
ATOM     24  C   UNL     1      45.357 131.966  22.149  1.00  0.00     0.009 A 
ATOM     25  C   UNL     1      45.722 134.306  21.421  1.00  0.00     0.030 A 
ATOM     26  C   UNL     1      44.345 137.669  19.232  1.00  0.00     0.001 A 
ATOM     27  C   UNL     1      46.038 136.616  20.593  1.00  0.00     0.009 A 
ATOM     28  C   UNL     1      44.543 130.837  22.231  1.00  0.00     0.001 A 
ATOM     29  C   UNL     1      45.581 137.716  19.867  1.00  0.00     0.001 A 
BRANCH  25  30
ATOM     30  C   UNL     1      47.040 134.356  22.101  1.00  0.00     0.261 C 
ATOM     31  O   UNL     1      47.130 134.709  23.306  1.00  0.00    -0.298 OA
ENDBRANCH  25  30
ENDBRANCH  12  16
ENDBRANCH   1  10
BRANCH   1  32
ATOM     32  C   UNL     1      42.853 134.692  16.101  1.00  0.00     0.048 C 
ATOM     33  C   UNL     1      44.271 135.269  16.008  1.00  0.00     0.014 C 
ATOM     34  C   UNL     1      42.344 134.310  14.701  1.00  0.00     0.014 C 
ENDBRANCH   1  32
TORSDOF 8
ENDMDL
MODEL 5
REMARK VINA RESULT:      -5.6      2.764      5.734
REMARK SMILES [H]/N=C(/C#C)[NH2+][C@H](c1c(C)nnn1-c1c2ccccc2c(C=O)c2ccccc12)C(C)C
REMARK SMILES IDX 7 1 6 2 3 5 4 6 5 7 2 8 1 9 8 10 9 11 13 12 11 13 12 14
REMARK SMILES IDX 10 15 14 16 15 17 29 18 16 19 20 20 28 21 24 22 17 23 19 24
REMARK SMILES IDX 21 25 27 26 25 27 18 28 26 29 22 30 23 31 30 32 31 33 32 34
REMARK H PARENT 6 3 6 4
ROOT
ATOM      1  C   UNL     1      42.346 136.502  17.913  1.00  0.00     0.243 C 
ENDROOT
BRANCH   1   2
ATOM      2  N   UNL     1      41.767 137.461  16.932  1.00  0.00    -0.282 N 
ATOM      3  H   UNL     1      40.721 137.428  16.972  1.00  0.00     0.354 HD
ATOM      4  H   UNL     1      42.056 138.439  17.153  1.00  0.00     0.354 HD
BRANCH   2   5
ATOM      5  C   UNL     1      42.119 137.145  15.565  1.00  0.00     0.270 C 
BRANCH   5   6
ATOM      6  C   UNL     1      43.268 136.324  15.279  1.00  0.00     0.009 C 
ATOM      7  C   UNL     1      44.230 135.639  15.040  1.00  0.00     0.017 C 
ENDBRANCH   5   6
BRANCH   5   8
ATOM      8  N   UNL     1      41.492 137.697  14.574  1.00  0.00    -0.242 NA
ATOM      9  H   UNL     1      40.667 137.245  14.122  1.00  0.00     0.194 HD
ENDBRANCH   5   8
ENDBRANCH   2   5
ENDBRANCH   1   2
BRANCH   1  10
ATOM     10  C   UNL     1      41.272 135.638  18.569  1.00  0.00     0.125 A 
ATOM     11  C   UNL     1      40.143 136.010  19.296  1.00  0.00     0.089 A 
ATOM     12  N   UNL     1      41.298 134.288  18.609  1.00  0.00    -0.210 N 
ATOM     13  N   UNL     1      39.526 134.887  19.715  1.00  0.00    -0.135 NA
ATOM     14  N   UNL     1      40.249 133.862  19.292  1.00  0.00    -0.062 NA
ATOM     15  C   UNL     1      39.597 137.380  19.554  1.00  0.00     0.071 C 
BRANCH  12  16
ATOM     16  C   UNL     1      42.286 133.413  18.041  1.00  0.00     0.083 A 
ATOM     17  C   UNL     1      43.296 132.865  18.858  1.00  0.00     0.009 A 
ATOM     18  C   UNL     1      42.230 133.090  16.669  1.00  0.00     0.009 A 
ATOM     19  C   UNL     1      43.364 133.195  20.229  1.00  0.00     0.011 A 
ATOM     20  C   UNL     1      44.248 131.965  18.308  1.00  0.00    -0.005 A 
ATOM     21  C   UNL     1      41.219 133.631  15.845  1.00  0.00     0.011 A 
ATOM     22  C   UNL     1      43.193 132.212  16.104  1.00  0.00    -0.005 A 
ATOM     23  C   UNL     1      44.326 132.616  21.054  1.00  0.00     0.001 A 
ATOM     24  C   UNL     1      45.196 131.373  19.178  1.00  0.00     0.009 A 
ATOM     25  C   UNL     1      44.211 131.653  16.922  1.00  0.00     0.030 A 
ATOM     26  C   UNL     1      41.163 133.323  14.488  1.00  0.00     0.001 A 
ATOM     27  C   UNL     1      43.122 131.930  14.718  1.00  0.00     0.009 A 
ATOM     28  C   UNL     1      45.232 131.702  20.532  1.00  0.00     0.001 A 
ATOM     29  C   UNL     1      42.114 132.479  13.925  1.00  0.00     0.001 A 
BRANCH  25  30
ATOM     30  C   UNL     1      45.227 130.755  16.321  1.00  0.00     0.261 C 
ATOM     31  O   UNL     1      46.286 131.221  15.824  1.00  0.00    -0.298 OA
ENDBRANCH  25  30
ENDBRANCH  12  16
ENDBRANCH   1  10
BRANCH   1  32
ATOM     32  C   UNL     1      43.269 137.156  18.995  1.00  0.00     0.048 C 
ATOM     33  C   UNL     1      44.624 136.449  19.125  1.00  0.00     0.014 C 
ATOM     34  C   UNL     1      43.474 138.671  18.836  1.00  0.00     0.014 C 
ENDBRANCH   1  32
TORSDOF 8
ENDMDL
MODEL 6
REMARK VINA RESULT:      -5.6      2.712      6.084
REMARK SMILES [H]/N=C(/C#C)[NH2+][C@H](c1c(C)nnn1-c1c2ccccc2c(C=O)c2ccccc12)C(C)C
REMARK SMILES IDX 7 1 6 2 3 5 4 6 5 7 2 8 1 9 8 10 9 11 13 12 11 13 12 14
REMARK SMILES IDX 10 15 14 16 15 17 29 18 16 19 20 20 28 21 24 22 17 23 19 24
REMARK SMILES IDX 21 25 27 26 25 27 18 28 26 29 22 30 23 31 30 32 31 33 32 34
REMARK H PARENT 6 3 6 4
ROOT
ATOM      1  C   UNL     1      42.120 135.601  17.546  1.00  0.00     0.243 C 
ENDROOT
BRANCH   1   2
ATOM      2  N   UNL     1      42.285 136.288  16.235  1.00  0.00    -0.282 N 
ATOM      3  H   UNL     1      41.349 136.555  15.850  1.00  0.00     0.354 HD
ATOM      4  H   UNL     1      42.840 137.165  16.342  1.00  0.00     0.354 HD
BRANCH   2   5
ATOM      5  C   UNL     1      42.897 135.443  15.234  1.00  0.00     0.270 C 
BRANCH   5   6
ATOM      6  C   UNL     1      42.080 134.677  14.327  1.00  0.00     0.009 C 
ATOM      7  C   UNL     1      41.398 134.035  13.569  1.00  0.00     0.017 C 
ENDBRANCH   5   6
BRANCH   5   8
ATOM      8  N   UNL     1      44.180 135.257  15.216  1.00  0.00    -0.242 NA
ATOM      9  H   UNL     1      44.664 134.822  14.400  1.00  0.00     0.194 HD
ENDBRANCH   5   8
ENDBRANCH   2   5
ENDBRANCH   1   2
BRANCH   1  10
ATOM     10  C   UNL     1      41.066 134.498  17.484  1.00  0.00     0.125 A 
ATOM     11  C   UNL     1      39.755 134.537  17.013  1.00  0.00     0.089 A 
ATOM     12  N   UNL     1      41.235 133.253  17.980  1.00  0.00    -0.210 N 
ATOM     13  N   UNL     1      39.202 133.323  17.213  1.00  0.00    -0.135 NA
ATOM     14  N   UNL     1      40.116 132.570  17.805  1.00  0.00    -0.062 NA
ATOM     15  C   UNL     1      39.032 135.654  16.328  1.00  0.00     0.071 C 
BRANCH  12  16
ATOM     16  C   UNL     1      42.404 132.714  18.618  1.00  0.00     0.083 A 
ATOM     17  C   UNL     1      42.553 132.815  20.016  1.00  0.00     0.009 A 
ATOM     18  C   UNL     1      43.391 132.069  17.844  1.00  0.00     0.009 A 
ATOM     19  C   UNL     1      41.573 133.470  20.795  1.00  0.00     0.011 A 
ATOM     20  C   UNL     1      43.686 132.244  20.656  1.00  0.00    -0.005 A 
ATOM     21  C   UNL     1      43.247 131.961  16.444  1.00  0.00     0.011 A 
ATOM     22  C   UNL     1      44.541 131.519  18.471  1.00  0.00    -0.005 A 
ATOM     23  C   UNL     1      41.687 133.526  22.182  1.00  0.00     0.001 A 
ATOM     24  C   UNL     1      43.759 132.294  22.070  1.00  0.00     0.009 A 
ATOM     25  C   UNL     1      44.695 131.613  19.880  1.00  0.00     0.030 A 
ATOM     26  C   UNL     1      44.222 131.332  15.672  1.00  0.00     0.001 A 
ATOM     27  C   UNL     1      45.524 130.902  17.659  1.00  0.00     0.009 A 
ATOM     28  C   UNL     1      42.770 132.933  22.818  1.00  0.00     0.001 A 
ATOM     29  C   UNL     1      45.359 130.809  16.277  1.00  0.00     0.001 A 
BRANCH  25  30
ATOM     30  C   UNL     1      45.910 131.057  20.525  1.00  0.00     0.261 C 
ATOM     31  O   UNL     1      46.888 131.799  20.805  1.00  0.00    -0.298 OA
ENDBRANCH  25  30
ENDBRANCH  12  16
ENDBRANCH   1  10
BRANCH   1  32
ATOM     32  C   UNL     1      41.849 136.559  18.754  1.00  0.00     0.048 C 
ATOM     33  C   UNL     1      40.487 136.311  19.414  1.00  0.00     0.014 C 
ATOM     34  C   UNL     1      42.958 136.582  19.819  1.00  0.00     0.014 C 
ENDBRANCH   1  32
TORSDOF 8
ENDMDL
MODEL 7
REMARK VINA RESULT:      -5.5      2.806      5.274
REMARK SMILES [H]/N=C(/C#C)[NH2+][C@H](c1c(C)nnn1-c1c2ccccc2c(C=O)c2ccccc12)C(C)C
REMARK SMILES IDX 7 1 6 2 3 5 4 6 5 7 2 8 1 9 8 10 9 11 13 12 11 13 12 14
REMARK SMILES IDX 10 15 14 16 15 17 29 18 16 19 20 20 28 21 24 22 17 23 19 24
REMARK SMILES IDX 21 25 27 26 25 27 18 28 26 29 22 30 23 31 30 32 31 33 32 34
REMARK H PARENT 6 3 6 4
ROOT
ATOM      1  C   UNL     1      44.704 134.199  21.317  1.00  0.00     0.243 C 
ENDROOT
BRANCH   1   2
ATOM      2  N   UNL     1      44.208 135.261  22.235  1.00  0.00    -0.282 N 
ATOM      3  H   UNL     1      43.257 135.011  22.593  1.00  0.00     0.354 HD
ATOM      4  H   UNL     1      44.836 135.359  23.063  1.00  0.00     0.354 HD
BRANCH   2   5
ATOM      5  C   UNL     1      44.059 136.542  21.581  1.00  0.00     0.270 C 
BRANCH   5   6
ATOM      6  C   UNL     1      44.344 136.682  20.176  1.00  0.00     0.009 C 
ATOM      7  C   UNL     1      44.584 136.798  19.001  1.00  0.00     0.017 C 
ENDBRANCH   5   6
BRANCH   5   8
ATOM      8  N   UNL     1      43.796 137.611  22.267  1.00  0.00    -0.242 NA
ATOM      9  H   UNL     1      42.955 137.680  22.881  1.00  0.00     0.194 HD
ENDBRANCH   5   8
ENDBRANCH   2   5
ENDBRANCH   1   2
BRANCH   1  10
ATOM     10  C   UNL     1      43.847 132.937  21.388  1.00  0.00     0.125 A 
ATOM     11  C   UNL     1      43.618 132.068  22.452  1.00  0.00     0.089 A 
ATOM     12  N   UNL     1      43.195 132.397  20.334  1.00  0.00    -0.210 N 
ATOM     13  N   UNL     1      42.827 131.068  22.013  1.00  0.00    -0.135 NA
ATOM     14  N   UNL     1      42.592 131.288  20.730  1.00  0.00    -0.062 NA
ATOM     15  C   UNL     1      44.068 132.181  23.875  1.00  0.00     0.071 C 
BRANCH  12  16
ATOM     16  C   UNL     1      43.149 132.891  18.986  1.00  0.00     0.083 A 
ATOM     17  C   UNL     1      42.253 133.926  18.645  1.00  0.00     0.009 A 
ATOM     18  C   UNL     1      44.014 132.352  18.011  1.00  0.00     0.009 A 
ATOM     19  C   UNL     1      41.377 134.462  19.614  1.00  0.00     0.011 A 
ATOM     20  C   UNL     1      42.236 134.448  17.324  1.00  0.00    -0.005 A 
ATOM     21  C   UNL     1      44.916 131.319  18.346  1.00  0.00     0.011 A 
ATOM     22  C   UNL     1      43.986 132.848  16.680  1.00  0.00    -0.005 A 
ATOM     23  C   UNL     1      40.527 135.520  19.299  1.00  0.00     0.001 A 
ATOM     24  C   UNL     1      41.381 135.541  17.041  1.00  0.00     0.009 A 
ATOM     25  C   UNL     1      43.089 133.893  16.331  1.00  0.00     0.030 A 
ATOM     26  C   UNL     1      45.767 130.776  17.387  1.00  0.00     0.001 A 
ATOM     27  C   UNL     1      44.850 132.265  15.722  1.00  0.00     0.009 A 
ATOM     28  C   UNL     1      40.536 136.063  18.020  1.00  0.00     0.001 A 
ATOM     29  C   UNL     1      45.731 131.244  16.078  1.00  0.00     0.001 A 
BRANCH  25  30
ATOM     30  C   UNL     1      43.049 134.391  14.934  1.00  0.00     0.261 C 
ATOM     31  O   UNL     1      43.734 135.388  14.585  1.00  0.00    -0.298 OA
ENDBRANCH  25  30
ENDBRANCH  12  16
ENDBRANCH   1  10
BRANCH   1  32
ATOM     32  C   UNL     1      46.220 133.848  21.484  1.00  0.00     0.048 C 
ATOM     33  C   UNL     1      46.790 134.307  22.832  1.00  0.00     0.014 C 
ATOM     34  C   UNL     1      46.571 132.372  21.235  1.00  0.00     0.014 C 
ENDBRANCH   1  32
TORSDOF 8
ENDMDL
MODEL 8
REMARK VINA RESULT:      -5.5      2.810      5.769
REMARK SMILES [H]/N=C(/C#C)[NH2+][C@H](c1c(C)nnn1-c1c2ccccc2c(C=O)c2ccccc12)C(C)C
REMARK SMILES IDX 7 1 6 2 3 5 4 6 5 7 2 8 1 9 8 10 9 11 13 12 11 13 12 14
REMARK SMILES IDX 10 15 14 16 15 17 29 18 16 19 20 20 28 21 24 22 17 23 19 24
REMARK SMILES IDX 21 25 27 26 25 27 18 28 26 29 22 30 23 31 30 32 31 33 32 34
REMARK H PARENT 6 3 6 4
ROOT
ATOM      1  C   UNL     1      42.010 136.063  17.444  1.00  0.00     0.243 C 
ENDROOT
BRANCH   1   2
ATOM      2  N   UNL     1      41.467 137.236  16.705  1.00  0.00    -0.282 N 
ATOM      3  H   UNL     1      40.435 137.311  16.859  1.00  0.00     0.354 HD
ATOM      4  H   UNL     1      41.898 138.122  17.046  1.00  0.00     0.354 HD
BRANCH   2   5
ATOM      5  C   UNL     1      41.645 137.126  15.274  1.00  0.00     0.270 C 
BRANCH   5   6
ATOM      6  C   UNL     1      40.732 136.341  14.483  1.00  0.00     0.009 C 
ATOM      7  C   UNL     1      39.967 135.684  13.822  1.00  0.00     0.017 C 
ENDBRANCH   5   6
BRANCH   5   8
ATOM      8  N   UNL     1      42.695 137.621  14.695  1.00  0.00    -0.242 NA
ATOM      9  H   UNL     1      42.713 138.597  14.326  1.00  0.00     0.194 HD
ENDBRANCH   5   8
ENDBRANCH   2   5
ENDBRANCH   1   2
BRANCH   1  10
ATOM     10  C   UNL     1      40.909 135.090  17.858  1.00  0.00     0.125 A 
ATOM     11  C   UNL     1      39.593 135.337  18.246  1.00  0.00     0.089 A 
ATOM     12  N   UNL     1      41.079 133.756  17.991  1.00  0.00    -0.210 N 
ATOM     13  N   UNL     1      39.022 134.158  18.565  1.00  0.00    -0.135 NA
ATOM     14  N   UNL     1      39.944 133.221  18.409  1.00  0.00    -0.062 NA
ATOM     15  C   UNL     1      38.844 136.633  18.266  1.00  0.00     0.071 C 
BRANCH  12  16
ATOM     16  C   UNL     1      42.276 132.998  17.753  1.00  0.00     0.083 A 
ATOM     17  C   UNL     1      43.115 132.648  18.831  1.00  0.00     0.009 A 
ATOM     18  C   UNL     1      42.597 132.587  16.442  1.00  0.00     0.009 A 
ATOM     19  C   UNL     1      42.805 133.066  20.143  1.00  0.00     0.011 A 
ATOM     20  C   UNL     1      44.276 131.860  18.605  1.00  0.00    -0.005 A 
ATOM     21  C   UNL     1      41.759 132.929  15.358  1.00  0.00     0.011 A 
ATOM     22  C   UNL     1      43.769 131.822  16.202  1.00  0.00    -0.005 A 
ATOM     23  C   UNL     1      43.600 132.681  21.220  1.00  0.00     0.001 A 
ATOM     24  C   UNL     1      45.049 131.462  19.723  1.00  0.00     0.009 A 
ATOM     25  C   UNL     1      44.617 131.464  17.283  1.00  0.00     0.030 A 
ATOM     26  C   UNL     1      42.074 132.535  14.061  1.00  0.00     0.001 A 
ATOM     27  C   UNL     1      44.073 131.450  14.869  1.00  0.00     0.009 A 
ATOM     28  C   UNL     1      44.712 131.874  21.012  1.00  0.00     0.001 A 
ATOM     29  C   UNL     1      43.230 131.802  13.816  1.00  0.00     0.001 A 
BRANCH  25  30
ATOM     30  C   UNL     1      45.852 130.684  17.022  1.00  0.00     0.261 C 
ATOM     31  O   UNL     1      45.790 129.468  16.702  1.00  0.00    -0.298 OA
ENDBRANCH  25  30
ENDBRANCH  12  16
ENDBRANCH   1  10
BRANCH   1  32
ATOM     32  C   UNL     1      42.916 136.426  18.667  1.00  0.00     0.048 C 
ATOM     33  C   UNL     1      44.394 136.090  18.431  1.00  0.00     0.014 C 
ATOM     34  C   UNL     1      42.774 137.874  19.166  1.00  0.00     0.014 C 
ENDBRANCH   1  32
TORSDOF 8
ENDMDL
MODEL 9
REMARK VINA RESULT:      -5.4      2.331      6.179
REMARK SMILES [H]/N=C(/C#C)[NH2+][C@H](c1c(C)nnn1-c1c2ccccc2c(C=O)c2ccccc12)C(C)C
REMARK SMILES IDX 7 1 6 2 3 5 4 6 5 7 2 8 1 9 8 10 9 11 13 12 11 13 12 14
REMARK SMILES IDX 10 15 14 16 15 17 29 18 16 19 20 20 28 21 24 22 17 23 19 24
REMARK SMILES IDX 21 25 27 26 25 27 18 28 26 29 22 30 23 31 30 32 31 33 32 34
REMARK H PARENT 6 3 6 4
ROOT
ATOM      1  C   UNL     1      42.209 133.651  16.679  1.00  0.00     0.243 C 
ENDROOT
BRANCH   1   2
ATOM      2  N   UNL     1      42.792 132.293  16.861  1.00  0.00    -0.282 N 
ATOM      3  H   UNL     1      42.470 131.882  17.768  1.00  0.00     0.354 HD
ATOM      4  H   UNL     1      42.480 131.650  16.100  1.00  0.00     0.354 HD
BRANCH   2   5
ATOM      5  C   UNL     1      44.236 132.308  16.925  1.00  0.00     0.270 C 
BRANCH   5   6
ATOM      6  C   UNL     1      44.938 131.394  17.790  1.00  0.00     0.009 C 
ATOM      7  C   UNL     1      45.527 130.631  18.513  1.00  0.00     0.017 C 
ENDBRANCH   5   6
BRANCH   5   8
ATOM      8  N   UNL     1      44.919 133.223  16.310  1.00  0.00    -0.242 NA
ATOM      9  H   UNL     1      44.462 133.936  15.700  1.00  0.00     0.194 HD
ENDBRANCH   5   8
ENDBRANCH   2   5
ENDBRANCH   1   2
BRANCH   1  10
ATOM     10  C   UNL     1      41.146 133.961  17.731  1.00  0.00     0.125 A 
ATOM     11  C   UNL     1      39.759 134.026  17.611  1.00  0.00     0.089 A 
ATOM     12  N   UNL     1      41.415 134.315  19.006  1.00  0.00    -0.210 N 
ATOM     13  N   UNL     1      39.252 134.384  18.808  1.00  0.00    -0.135 NA
ATOM     14  N   UNL     1      40.275 134.559  19.630  1.00  0.00    -0.062 NA
ATOM     15  C   UNL     1      38.898 133.705  16.430  1.00  0.00     0.071 C 
BRANCH  12  16
ATOM     16  C   UNL     1      42.705 134.441  19.627  1.00  0.00     0.083 A 
ATOM     17  C   UNL     1      43.212 133.391  20.418  1.00  0.00     0.009 A 
ATOM     18  C   UNL     1      43.469 135.610  19.425  1.00  0.00     0.009 A 
ATOM     19  C   UNL     1      42.447 132.223  20.633  1.00  0.00     0.011 A 
ATOM     20  C   UNL     1      44.506 133.493  20.997  1.00  0.00    -0.005 A 
ATOM     21  C   UNL     1      42.969 136.664  18.630  1.00  0.00     0.011 A 
ATOM     22  C   UNL     1      44.752 135.734  20.021  1.00  0.00    -0.005 A 
ATOM     23  C   UNL     1      42.963 131.159  21.370  1.00  0.00     0.001 A 
ATOM     24  C   UNL     1      45.013 132.384  21.717  1.00  0.00     0.009 A 
ATOM     25  C   UNL     1      45.271 134.678  20.816  1.00  0.00     0.030 A 
ATOM     26  C   UNL     1      43.714 137.825  18.434  1.00  0.00     0.001 A 
ATOM     27  C   UNL     1      45.479 136.933  19.819  1.00  0.00     0.009 A 
ATOM     28  C   UNL     1      44.244 131.236  21.901  1.00  0.00     0.001 A 
ATOM     29  C   UNL     1      44.963 137.961  19.030  1.00  0.00     0.001 A 
BRANCH  25  30
ATOM     30  C   UNL     1      46.602 134.824  21.455  1.00  0.00     0.261 C 
ATOM     31  O   UNL     1      46.707 135.240  22.638  1.00  0.00    -0.298 OA
ENDBRANCH  25  30
ENDBRANCH  12  16
ENDBRANCH   1  10
BRANCH   1  32
ATOM     32  C   UNL     1      41.664 133.939  15.240  1.00  0.00     0.048 C 
ATOM     33  C   UNL     1      42.103 135.306  14.702  1.00  0.00     0.014 C 
ATOM     34  C   UNL     1      41.964 132.840  14.206  1.00  0.00     0.014 C 
ENDBRANCH   1  32
TORSDOF 8
ENDMDL


