REMARK SMILES CCN(CC/N=C(/OC(=O)[C@H]1C[C@@H]1CO)C1(C#N)CC1)c1cc(N=[N+]=[N-])c2c3c(cccc13)C(=O)[N-]2
REMARK SMILES IDX 6 1 7 2 8 3 9 4 10 5 11 6 13 7 12 8 14 9 15 10 16 12 19 13
REMARK SMILES IDX 20 14 17 15 18 16 5 17 4 18 3 19 21 20 22 21 33 22 23 23
REMARK SMILES IDX 32 24 28 25 27 26 31 27 29 28 36 29 30 30 34 31 35 32 24 33
REMARK SMILES IDX 25 34 26 35 2 36 1 37
REMARK H PARENT 15 11
ROOT
ATOM      1  N   UNL     1       1.377  -0.924  -0.855  1.00  0.00    -0.252 NA
ENDROOT
BRANCH   1   2
ATOM      2  C   UNL     1       1.760  -0.008  -1.699  1.00  0.00     0.214 C 
BRANCH   2   3
ATOM      3  O   UNL     1       2.990   0.649  -1.529  1.00  0.00    -0.410 OA
BRANCH   3   4
ATOM      4  C   UNL     1       3.879   0.464  -0.461  1.00  0.00     0.315 C 
ATOM      5  O   UNL     1       3.622  -0.335   0.480  1.00  0.00    -0.251 OA
BRANCH   4   6
ATOM      6  C   UNL     1       5.178   1.203  -0.466  1.00  0.00     0.105 C 
ATOM      7  C   UNL     1       5.428   2.063   0.767  1.00  0.00     0.030 C 
ATOM      8  C   UNL     1       5.024   2.717  -0.548  1.00  0.00     0.022 C 
BRANCH   7   9
ATOM      9  C   UNL     1       6.899   2.246   1.153  1.00  0.00     0.160 C 
BRANCH   9  10
ATOM     10  O   UNL     1       7.273   1.270   2.086  1.00  0.00    -0.396 OA
ATOM     11  H   UNL     1       6.839   1.518   2.945  1.00  0.00     0.210 HD
ENDBRANCH   9  10
ENDBRANCH   7   9
ENDBRANCH   4   6
ENDBRANCH   3   4
ENDBRANCH   2   3
BRANCH   2  12
ATOM     12  C   UNL     1       0.930   0.353  -2.903  1.00  0.00     0.133 C 
ATOM     13  C   UNL     1       0.881   1.839  -3.243  1.00  0.00     0.034 C 
ATOM     14  C   UNL     1      -0.348   1.148  -2.669  1.00  0.00     0.034 C 
BRANCH  12  15
ATOM     15  C   UNL     1       0.953  -0.540  -4.069  1.00  0.00     0.079 C 
ATOM     16  N   UNL     1       0.973  -1.245  -4.988  1.00  0.00    -0.197 NA
ENDBRANCH  12  15
ENDBRANCH   2  12
ENDBRANCH   1   2
BRANCH   1  17
ATOM     17  C   UNL     1       0.149  -1.713  -0.951  1.00  0.00     0.167 C 
BRANCH  17  18
ATOM     18  C   UNL     1       0.014  -2.595   0.288  1.00  0.00     0.140 C 
BRANCH  18  19
ATOM     19  N   UNL     1      -0.184  -1.771   1.488  1.00  0.00    -0.369 N 
BRANCH  19  20
ATOM     20  C   UNL     1      -1.453  -1.140   1.712  1.00  0.00     0.045 A 
ATOM     21  C   UNL     1      -2.598  -1.936   1.993  1.00  0.00     0.035 A 
ATOM     22  C   UNL     1      -1.585   0.266   1.656  1.00  0.00     0.005 A 
ATOM     23  C   UNL     1      -3.869  -1.341   2.224  1.00  0.00     0.026 A 
ATOM     24  C   UNL     1      -0.551   1.185   1.367  1.00  0.00     0.011 A 
ATOM     25  C   UNL     1      -2.844   0.792   1.889  1.00  0.00    -0.021 A 
ATOM     26  C   UNL     1      -3.955   0.050   2.162  1.00  0.00    -0.116 A 
ATOM     27  C   UNL     1      -0.834   2.576   1.330  1.00  0.00     0.001 A 
ATOM     28  C   UNL     1      -3.132   2.117   1.861  1.00  0.00     0.006 A 
ATOM     29  N   UNL     1      -5.109   0.880   2.345  1.00  0.00    -0.622 NA
ATOM     30  C   UNL     1      -2.141   3.057   1.579  1.00  0.00     0.011 A 
ATOM     31  C   UNL     1      -4.561   2.194   2.148  1.00  0.00     0.086 C 
ATOM     32  O   UNL     1      -5.238   3.252   2.218  1.00  0.00    -0.315 OA
BRANCH  23  33
ATOM     33  N   UNL     1      -5.037  -2.117   2.511  1.00  0.00    -0.062 NA
BRANCH  33  34
ATOM     34  N   UNL     1      -4.996  -3.345   2.596  1.00  0.00     0.005 N 
ATOM     35  N   UNL     1      -4.952  -4.572   2.683  1.00  0.00    -0.003 NA
ENDBRANCH  33  34
ENDBRANCH  23  33
ENDBRANCH  19  20
BRANCH  19  36
ATOM     36  C   UNL     1       0.811  -1.779   2.566  1.00  0.00     0.113 C 
ATOM     37  C   UNL     1       0.662  -3.032   3.421  1.00  0.00     0.027 C 
ENDBRANCH  19  36
ENDBRANCH  18  19
ENDBRANCH  17  18
ENDBRANCH   1  17
TORSDOF 15


