MODEL 1
REMARK VINA RESULT:      -7.3      0.000      0.000
REMARK SMILES C#CCO/C([O-])=C\[C@H]1CC[C@@H]2C(O/C([O-])=C\CC)=NC(=O)c3c(N=[N+]=[N-])cc(Cl)c1c32
REMARK SMILES IDX 8 1 30 2 28 3 29 4 27 5 23 6 22 7 31 8 11 9 12 10 19 11
REMARK SMILES IDX 20 12 21 13 10 14 9 15 7 16 5 17 6 18 4 19 3 20 2 21 1 22
REMARK SMILES IDX 24 23 25 24 26 25 13 26 14 27 15 28 16 29 17 30 18 31
REMARK H PARENT
ROOT
ATOM      1  C   UNL     1      45.159 131.562  16.892  1.00  0.00     0.045 C 
ATOM      2  C   UNL     1      44.209 132.020  17.988  1.00  0.00    -0.018 A 
ATOM      3  C   UNL     1      44.526 131.909  19.358  1.00  0.00     0.045 A 
ATOM      4  Cl  UNL     1      46.080 131.298  19.924  1.00  0.00    -0.084 Cl
ATOM      5  C   UNL     1      43.606 132.325  20.320  1.00  0.00     0.032 A 
ATOM      6  C   UNL     1      42.374 132.890  19.950  1.00  0.00     0.052 A 
ATOM      7  C   UNL     1      42.071 133.053  18.578  1.00  0.00     0.056 A 
ATOM      8  C   UNL     1      42.993 132.624  17.604  1.00  0.00    -0.020 A 
ATOM      9  C   UNL     1      42.698 132.755  16.118  1.00  0.00     0.077 C 
ATOM     10  C   UNL     1      41.490 133.610  15.795  1.00  0.00     0.091 C 
ATOM     11  N   UNL     1      40.658 133.991  16.718  1.00  0.00    -0.205 NA
ATOM     12  C   UNL     1      40.827 133.702  18.106  1.00  0.00     0.278 C 
ATOM     13  O   UNL     1      39.911 134.028  18.908  1.00  0.00    -0.267 OA
ATOM     14  C   UNL     1      43.946 133.272  15.356  1.00  0.00     0.016 C 
ATOM     15  C   UNL     1      45.299 132.703  15.862  1.00  0.00     0.014 C 
ENDROOT
BRANCH   1  16
ATOM     16  C   UNL     1      44.682 130.290  16.219  1.00  0.00     0.005 C 
BRANCH  16  17
ATOM     17  C   UNL     1      45.502 129.350  15.739  1.00  0.00     0.049 C 
ATOM     18  O   UNL     1      44.988 128.089  15.449  1.00  0.00    -0.547 OA
BRANCH  17  19
ATOM     19  O   UNL     1      46.857 129.615  15.537  1.00  0.00    -0.601 OA
BRANCH  19  20
ATOM     20  C   UNL     1      47.540 129.218  14.354  1.00  0.00     0.160 C 
BRANCH  20  21
ATOM     21  C   UNL     1      47.076 130.032  13.230  1.00  0.00    -0.095 C 
ATOM     22  C   UNL     1      46.695 130.702  12.304  1.00  0.00     0.005 C 
ENDBRANCH  20  21
ENDBRANCH  19  20
ENDBRANCH  17  19
ENDBRANCH  16  17
ENDBRANCH   1  16
BRANCH   6  23
ATOM     23  N   UNL     1      41.441 133.324  20.953  1.00  0.00    -0.060 NA
BRANCH  23  24
ATOM     24  N   UNL     1      41.772 134.023  21.912  1.00  0.00     0.005 N 
ATOM     25  N   UNL     1      42.103 134.722  22.869  1.00  0.00    -0.003 NA
ENDBRANCH  23  24
ENDBRANCH   6  23
BRANCH  10  26
ATOM     26  O   UNL     1      41.261 133.935  14.451  1.00  0.00    -0.567 OA
BRANCH  26  27
ATOM     27  C   UNL     1      40.017 134.246  13.881  1.00  0.00     0.053 C 
ATOM     28  O   UNL     1      38.991 133.307  13.837  1.00  0.00    -0.547 OA
BRANCH  27  29
ATOM     29  C   UNL     1      39.802 135.462  13.374  1.00  0.00    -0.003 C 
BRANCH  29  30
ATOM     30  C   UNL     1      38.426 135.975  13.049  1.00  0.00     0.026 C 
ATOM     31  C   UNL     1      38.265 137.438  13.451  1.00  0.00     0.008 C 
ENDBRANCH  29  30
ENDBRANCH  27  29
ENDBRANCH  26  27
ENDBRANCH  10  26
TORSDOF 11
ENDMDL
MODEL 2
REMARK VINA RESULT:      -7.2      3.219      6.578
REMARK SMILES C#CCO/C([O-])=C\[C@H]1CC[C@@H]2C(O/C([O-])=C\CC)=NC(=O)c3c(N=[N+]=[N-])cc(Cl)c1c32
REMARK SMILES IDX 8 1 30 2 28 3 29 4 27 5 23 6 22 7 31 8 11 9 12 10 19 11
REMARK SMILES IDX 20 12 21 13 10 14 9 15 7 16 5 17 6 18 4 19 3 20 2 21 1 22
REMARK SMILES IDX 24 23 25 24 26 25 13 26 14 27 15 28 16 29 17 30 18 31
REMARK H PARENT
ROOT
ATOM      1  C   UNL     1      42.419 135.230  17.005  1.00  0.00     0.045 C 
ATOM      2  C   UNL     1      42.816 134.234  18.082  1.00  0.00    -0.018 A 
ATOM      3  C   UNL     1      42.209 134.215  19.355  1.00  0.00     0.045 A 
ATOM      4  Cl  UNL     1      40.886 135.297  19.789  1.00  0.00    -0.084 Cl
ATOM      5  C   UNL     1      42.629 133.292  20.313  1.00  0.00     0.032 A 
ATOM      6  C   UNL     1      43.628 132.348  20.021  1.00  0.00     0.052 A 
ATOM      7  C   UNL     1      44.205 132.327  18.729  1.00  0.00     0.056 A 
ATOM      8  C   UNL     1      43.790 133.264  17.764  1.00  0.00    -0.020 A 
ATOM      9  C   UNL     1      44.401 133.294  16.372  1.00  0.00     0.077 C 
ATOM     10  C   UNL     1      45.263 132.093  16.043  1.00  0.00     0.091 C 
ATOM     11  N   UNL     1      45.628 131.244  16.958  1.00  0.00    -0.205 NA
ATOM     12  C   UNL     1      45.212 131.321  18.321  1.00  0.00     0.278 C 
ATOM     13  O   UNL     1      45.703 130.509  19.150  1.00  0.00    -0.267 OA
ATOM     14  C   UNL     1      43.301 133.482  15.296  1.00  0.00     0.016 C 
ATOM     15  C   UNL     1      42.159 134.454  15.696  1.00  0.00     0.014 C 
ENDROOT
BRANCH   1  16
ATOM     16  C   UNL     1      43.479 136.293  16.793  1.00  0.00     0.005 C 
BRANCH  16  17
ATOM     17  C   UNL     1      43.289 137.593  17.041  1.00  0.00     0.049 C 
ATOM     18  O   UNL     1      42.572 138.358  16.124  1.00  0.00    -0.547 OA
BRANCH  17  19
ATOM     19  O   UNL     1      43.807 138.188  18.192  1.00  0.00    -0.601 OA
BRANCH  19  20
ATOM     20  C   UNL     1      43.478 137.728  19.497  1.00  0.00     0.160 C 
BRANCH  20  21
ATOM     21  C   UNL     1      44.557 136.875  19.996  1.00  0.00    -0.095 C 
ATOM     22  C   UNL     1      45.445 136.172  20.408  1.00  0.00     0.005 C 
ENDBRANCH  20  21
ENDBRANCH  19  20
ENDBRANCH  17  19
ENDBRANCH  16  17
ENDBRANCH   1  16
BRANCH   6  23
ATOM     23  N   UNL     1      44.043 131.396  21.015  1.00  0.00    -0.060 NA
BRANCH  23  24
ATOM     24  N   UNL     1      43.250 130.837  21.774  1.00  0.00     0.005 N 
ATOM     25  N   UNL     1      42.458 130.280  22.532  1.00  0.00    -0.003 NA
ENDBRANCH  23  24
ENDBRANCH   6  23
BRANCH  10  26
ATOM     26  O   UNL     1      45.708 131.951  14.721  1.00  0.00    -0.567 OA
BRANCH  26  27
ATOM     27  C   UNL     1      45.397 130.889  13.858  1.00  0.00     0.053 C 
ATOM     28  O   UNL     1      44.220 130.163  14.008  1.00  0.00    -0.547 OA
BRANCH  27  29
ATOM     29  C   UNL     1      46.235 130.565  12.871  1.00  0.00    -0.003 C 
BRANCH  29  30
ATOM     30  C   UNL     1      47.720 130.779  12.962  1.00  0.00     0.026 C 
ATOM     31  C   UNL     1      48.423 129.567  13.567  1.00  0.00     0.008 C 
ENDBRANCH  29  30
ENDBRANCH  27  29
ENDBRANCH  26  27
ENDBRANCH  10  26
TORSDOF 11
ENDMDL
MODEL 3
REMARK VINA RESULT:      -7.0      2.823      6.468
REMARK SMILES C#CCO/C([O-])=C\[C@H]1CC[C@@H]2C(O/C([O-])=C\CC)=NC(=O)c3c(N=[N+]=[N-])cc(Cl)c1c32
REMARK SMILES IDX 8 1 30 2 28 3 29 4 27 5 23 6 22 7 31 8 11 9 12 10 19 11
REMARK SMILES IDX 20 12 21 13 10 14 9 15 7 16 5 17 6 18 4 19 3 20 2 21 1 22
REMARK SMILES IDX 24 23 25 24 26 25 13 26 14 27 15 28 16 29 17 30 18 31
REMARK H PARENT
ROOT
ATOM      1  C   UNL     1      42.168 134.127  15.811  1.00  0.00     0.045 C 
ATOM      2  C   UNL     1      42.281 133.570  17.222  1.00  0.00    -0.018 A 
ATOM      3  C   UNL     1      41.306 133.813  18.210  1.00  0.00     0.045 A 
ATOM      4  Cl  UNL     1      39.832 134.724  17.883  1.00  0.00    -0.084 Cl
ATOM      5  C   UNL     1      41.473 133.295  19.494  1.00  0.00     0.032 A 
ATOM      6  C   UNL     1      42.584 132.498  19.816  1.00  0.00     0.052 A 
ATOM      7  C   UNL     1      43.541 132.207  18.815  1.00  0.00     0.056 A 
ATOM      8  C   UNL     1      43.380 132.737  17.521  1.00  0.00    -0.020 A 
ATOM      9  C   UNL     1      44.396 132.471  16.422  1.00  0.00     0.077 C 
ATOM     10  C   UNL     1      45.411 131.397  16.756  1.00  0.00     0.091 C 
ATOM     11  N   UNL     1      45.533 130.927  17.962  1.00  0.00    -0.205 NA
ATOM     12  C   UNL     1      44.701 131.319  19.054  1.00  0.00     0.278 C 
ATOM     13  O   UNL     1      44.968 130.881  20.205  1.00  0.00    -0.267 OA
ATOM     14  C   UNL     1      43.683 132.144  15.085  1.00  0.00     0.016 C 
ATOM     15  C   UNL     1      42.399 132.973  14.813  1.00  0.00     0.014 C 
ENDROOT
BRANCH   1  16
ATOM     16  C   UNL     1      43.153 135.254  15.563  1.00  0.00     0.005 C 
BRANCH  16  17
ATOM     17  C   UNL     1      43.360 136.262  16.416  1.00  0.00     0.049 C 
ATOM     18  O   UNL     1      44.469 136.219  17.257  1.00  0.00    -0.547 OA
BRANCH  17  19
ATOM     19  O   UNL     1      42.478 137.341  16.479  1.00  0.00    -0.601 OA
BRANCH  19  20
ATOM     20  C   UNL     1      42.806 138.621  15.951  1.00  0.00     0.160 C 
BRANCH  20  21
ATOM     21  C   UNL     1      41.842 138.977  14.910  1.00  0.00    -0.095 C 
ATOM     22  C   UNL     1      41.049 139.272  14.052  1.00  0.00     0.005 C 
ENDBRANCH  20  21
ENDBRANCH  19  20
ENDBRANCH  17  19
ENDBRANCH  16  17
ENDBRANCH   1  16
BRANCH   6  23
ATOM     23  N   UNL     1      42.737 131.962  21.141  1.00  0.00    -0.060 NA
BRANCH  23  24
ATOM     24  N   UNL     1      42.444 132.599  22.155  1.00  0.00     0.005 N 
ATOM     25  N   UNL     1      42.149 133.233  23.166  1.00  0.00    -0.003 NA
ENDBRANCH  23  24
ENDBRANCH   6  23
BRANCH  10  26
ATOM     26  O   UNL     1      46.262 130.961  15.731  1.00  0.00    -0.567 OA
BRANCH  26  27
ATOM     27  C   UNL     1      46.217 129.706  15.105  1.00  0.00     0.053 C 
ATOM     28  O   UNL     1      45.222 128.784  15.411  1.00  0.00    -0.547 OA
BRANCH  27  29
ATOM     29  C   UNL     1      47.139 129.383  14.194  1.00  0.00    -0.003 C 
BRANCH  29  30
ATOM     30  C   UNL     1      47.827 130.408  13.335  1.00  0.00     0.026 C 
ATOM     31  C   UNL     1      47.083 130.624  12.020  1.00  0.00     0.008 C 
ENDBRANCH  29  30
ENDBRANCH  27  29
ENDBRANCH  26  27
ENDBRANCH  10  26
TORSDOF 11
ENDMDL
MODEL 4
REMARK VINA RESULT:      -6.9      2.743      6.520
REMARK SMILES C#CCO/C([O-])=C\[C@H]1CC[C@@H]2C(O/C([O-])=C\CC)=NC(=O)c3c(N=[N+]=[N-])cc(Cl)c1c32
REMARK SMILES IDX 8 1 30 2 28 3 29 4 27 5 23 6 22 7 31 8 11 9 12 10 19 11
REMARK SMILES IDX 20 12 21 13 10 14 9 15 7 16 5 17 6 18 4 19 3 20 2 21 1 22
REMARK SMILES IDX 24 23 25 24 26 25 13 26 14 27 15 28 16 29 17 30 18 31
REMARK H PARENT
ROOT
ATOM      1  C   UNL     1      42.304 133.338  16.081  1.00  0.00     0.045 C 
ATOM      2  C   UNL     1      42.647 132.811  17.465  1.00  0.00    -0.018 A 
ATOM      3  C   UNL     1      41.771 132.940  18.562  1.00  0.00     0.045 A 
ATOM      4  Cl  UNL     1      40.169 133.660  18.414  1.00  0.00    -0.084 Cl
ATOM      5  C   UNL     1      42.149 132.456  19.815  1.00  0.00     0.032 A 
ATOM      6  C   UNL     1      43.380 131.804  20.000  1.00  0.00     0.052 A 
ATOM      7  C   UNL     1      44.242 131.625  18.892  1.00  0.00     0.056 A 
ATOM      8  C   UNL     1      43.868 132.121  17.629  1.00  0.00    -0.020 A 
ATOM      9  C   UNL     1      44.774 131.973  16.417  1.00  0.00     0.077 C 
ATOM     10  C   UNL     1      45.945 131.034  16.624  1.00  0.00     0.091 C 
ATOM     11  N   UNL     1      46.263 130.592  17.805  1.00  0.00    -0.205 NA
ATOM     12  C   UNL     1      45.523 130.888  18.989  1.00  0.00     0.278 C 
ATOM     13  O   UNL     1      45.973 130.495  20.098  1.00  0.00    -0.267 OA
ATOM     14  C   UNL     1      43.956 131.550  15.170  1.00  0.00     0.016 C 
ATOM     15  C   UNL     1      42.557 132.213  15.055  1.00  0.00     0.014 C 
ENDROOT
BRANCH   1  16
ATOM     16  C   UNL     1      43.108 134.575  15.727  1.00  0.00     0.005 C 
BRANCH  16  17
ATOM     17  C   UNL     1      42.962 135.755  16.336  1.00  0.00     0.049 C 
ATOM     18  O   UNL     1      44.061 136.328  16.971  1.00  0.00    -0.547 OA
BRANCH  17  19
ATOM     19  O   UNL     1      41.729 136.408  16.352  1.00  0.00    -0.601 OA
BRANCH  19  20
ATOM     20  C   UNL     1      41.161 136.986  15.184  1.00  0.00     0.160 C 
BRANCH  20  21
ATOM     21  C   UNL     1      41.926 138.175  14.810  1.00  0.00    -0.095 C 
ATOM     22  C   UNL     1      42.557 139.155  14.501  1.00  0.00     0.005 C 
ENDBRANCH  20  21
ENDBRANCH  19  20
ENDBRANCH  17  19
ENDBRANCH  16  17
ENDBRANCH   1  16
BRANCH   6  23
ATOM     23  N   UNL     1      43.751 131.302  21.294  1.00  0.00    -0.060 NA
BRANCH  23  24
ATOM     24  N   UNL     1      42.932 131.119  22.197  1.00  0.00     0.005 N 
ATOM     25  N   UNL     1      42.113 130.937  23.097  1.00  0.00    -0.003 NA
ENDBRANCH  23  24
ENDBRANCH   6  23
BRANCH  10  26
ATOM     26  O   UNL     1      46.718 130.697  15.504  1.00  0.00    -0.567 OA
BRANCH  26  27
ATOM     27  C   UNL     1      46.659 129.485  14.800  1.00  0.00     0.053 C 
ATOM     28  O   UNL     1      45.670 128.545  15.069  1.00  0.00    -0.547 OA
BRANCH  27  29
ATOM     29  C   UNL     1      47.561 129.222  13.851  1.00  0.00    -0.003 C 
BRANCH  29  30
ATOM     30  C   UNL     1      48.126 130.285  12.950  1.00  0.00     0.026 C 
ATOM     31  C   UNL     1      47.156 130.640  11.827  1.00  0.00     0.008 C 
ENDBRANCH  29  30
ENDBRANCH  27  29
ENDBRANCH  26  27
ENDBRANCH  10  26
TORSDOF 11
ENDMDL
MODEL 5
REMARK VINA RESULT:      -6.9      0.967      1.338
REMARK SMILES C#CCO/C([O-])=C\[C@H]1CC[C@@H]2C(O/C([O-])=C\CC)=NC(=O)c3c(N=[N+]=[N-])cc(Cl)c1c32
REMARK SMILES IDX 8 1 30 2 28 3 29 4 27 5 23 6 22 7 31 8 11 9 12 10 19 11
REMARK SMILES IDX 20 12 21 13 10 14 9 15 7 16 5 17 6 18 4 19 3 20 2 21 1 22
REMARK SMILES IDX 24 23 25 24 26 25 13 26 14 27 15 28 16 29 17 30 18 31
REMARK H PARENT
ROOT
ATOM      1  C   UNL     1      45.129 131.345  16.771  1.00  0.00     0.045 C 
ATOM      2  C   UNL     1      44.284 131.824  17.941  1.00  0.00    -0.018 A 
ATOM      3  C   UNL     1      44.638 131.573  19.282  1.00  0.00     0.045 A 
ATOM      4  Cl  UNL     1      46.128 130.744  19.729  1.00  0.00    -0.084 Cl
ATOM      5  C   UNL     1      43.812 132.017  20.315  1.00  0.00     0.032 A 
ATOM      6  C   UNL     1      42.642 132.748  20.045  1.00  0.00     0.052 A 
ATOM      7  C   UNL     1      42.308 133.049  18.704  1.00  0.00     0.056 A 
ATOM      8  C   UNL     1      43.134 132.593  17.659  1.00  0.00    -0.020 A 
ATOM      9  C   UNL     1      42.800 132.871  16.202  1.00  0.00     0.077 C 
ATOM     10  C   UNL     1      41.690 133.882  15.999  1.00  0.00     0.091 C 
ATOM     11  N   UNL     1      40.945 134.284  16.986  1.00  0.00    -0.205 NA
ATOM     12  C   UNL     1      41.133 133.873  18.340  1.00  0.00     0.278 C 
ATOM     13  O   UNL     1      40.294 134.240  19.205  1.00  0.00    -0.267 OA
ATOM     14  C   UNL     1      44.069 133.296  15.421  1.00  0.00     0.016 C 
ATOM     15  C   UNL     1      45.363 132.538  15.820  1.00  0.00     0.014 C 
ENDROOT
BRANCH   1  16
ATOM     16  C   UNL     1      44.478 130.192  16.032  1.00  0.00     0.005 C 
BRANCH  16  17
ATOM     17  C   UNL     1      45.079 129.498  15.061  1.00  0.00     0.049 C 
ATOM     18  O   UNL     1      45.756 128.326  15.386  1.00  0.00    -0.547 OA
BRANCH  17  19
ATOM     19  O   UNL     1      45.043 129.939  13.737  1.00  0.00    -0.601 OA
BRANCH  19  20
ATOM     20  C   UNL     1      46.084 130.724  13.171  1.00  0.00     0.160 C 
BRANCH  20  21
ATOM     21  C   UNL     1      47.337 129.970  13.210  1.00  0.00    -0.095 C 
ATOM     22  C   UNL     1      48.369 129.349  13.243  1.00  0.00     0.005 C 
ENDBRANCH  20  21
ENDBRANCH  19  20
ENDBRANCH  17  19
ENDBRANCH  16  17
ENDBRANCH   1  16
BRANCH   6  23
ATOM     23  N   UNL     1      41.807 133.208  21.120  1.00  0.00    -0.060 NA
BRANCH  23  24
ATOM     24  N   UNL     1      42.228 133.921  22.032  1.00  0.00     0.005 N 
ATOM     25  N   UNL     1      42.650 134.632  22.944  1.00  0.00    -0.003 NA
ENDBRANCH  23  24
ENDBRANCH   6  23
BRANCH  10  26
ATOM     26  O   UNL     1      41.449 134.333  14.693  1.00  0.00    -0.567 OA
BRANCH  26  27
ATOM     27  C   UNL     1      40.702 135.467  14.341  1.00  0.00     0.053 C 
ATOM     28  O   UNL     1      41.069 136.735  14.781  1.00  0.00    -0.547 OA
BRANCH  27  29
ATOM     29  C   UNL     1      39.621 135.339  13.568  1.00  0.00    -0.003 C 
BRANCH  29  30
ATOM     30  C   UNL     1      38.647 134.203  13.714  1.00  0.00     0.026 C 
ATOM     31  C   UNL     1      37.431 134.391  12.811  1.00  0.00     0.008 C 
ENDBRANCH  29  30
ENDBRANCH  27  29
ENDBRANCH  26  27
ENDBRANCH  10  26
TORSDOF 11
ENDMDL
MODEL 6
REMARK VINA RESULT:      -6.8      2.829      6.473
REMARK SMILES C#CCO/C([O-])=C\[C@H]1CC[C@@H]2C(O/C([O-])=C\CC)=NC(=O)c3c(N=[N+]=[N-])cc(Cl)c1c32
REMARK SMILES IDX 8 1 30 2 28 3 29 4 27 5 23 6 22 7 31 8 11 9 12 10 19 11
REMARK SMILES IDX 20 12 21 13 10 14 9 15 7 16 5 17 6 18 4 19 3 20 2 21 1 22
REMARK SMILES IDX 24 23 25 24 26 25 13 26 14 27 15 28 16 29 17 30 18 31
REMARK H PARENT
ROOT
ATOM      1  C   UNL     1      42.483 133.698  15.654  1.00  0.00     0.045 C 
ATOM      2  C   UNL     1      42.559 133.300  17.120  1.00  0.00    -0.018 A 
ATOM      3  C   UNL     1      41.585 133.691  18.061  1.00  0.00     0.045 A 
ATOM      4  Cl  UNL     1      40.153 134.616  17.611  1.00  0.00    -0.084 Cl
ATOM      5  C   UNL     1      41.718 133.316  19.398  1.00  0.00     0.032 A 
ATOM      6  C   UNL     1      42.793 132.518  19.824  1.00  0.00     0.052 A 
ATOM      7  C   UNL     1      43.747 132.077  18.876  1.00  0.00     0.056 A 
ATOM      8  C   UNL     1      43.621 132.464  17.527  1.00  0.00    -0.020 A 
ATOM      9  C   UNL     1      44.636 132.035  16.480  1.00  0.00     0.077 C 
ATOM     10  C   UNL     1      45.603 130.967  16.948  1.00  0.00     0.091 C 
ATOM     11  N   UNL     1      45.694 130.632  18.201  1.00  0.00    -0.205 NA
ATOM     12  C   UNL     1      44.868 131.178  19.230  1.00  0.00     0.278 C 
ATOM     13  O   UNL     1      45.105 130.863  20.426  1.00  0.00    -0.267 OA
ATOM     14  C   UNL     1      43.924 131.587  15.178  1.00  0.00     0.016 C 
ATOM     15  C   UNL     1      42.677 132.429  14.796  1.00  0.00     0.014 C 
ENDROOT
BRANCH   1  16
ATOM     16  C   UNL     1      43.516 134.749  15.295  1.00  0.00     0.005 C 
BRANCH  16  17
ATOM     17  C   UNL     1      43.241 136.052  15.180  1.00  0.00     0.049 C 
ATOM     18  O   UNL     1      43.904 136.799  14.210  1.00  0.00    -0.547 OA
BRANCH  17  19
ATOM     19  O   UNL     1      42.314 136.667  16.022  1.00  0.00    -0.601 OA
BRANCH  19  20
ATOM     20  C   UNL     1      42.700 137.338  17.215  1.00  0.00     0.160 C 
BRANCH  20  21
ATOM     21  C   UNL     1      41.527 137.972  17.816  1.00  0.00    -0.095 C 
ATOM     22  C   UNL     1      40.561 138.495  18.311  1.00  0.00     0.005 C 
ENDBRANCH  20  21
ENDBRANCH  19  20
ENDBRANCH  17  19
ENDBRANCH  16  17
ENDBRANCH   1  16
BRANCH   6  23
ATOM     23  N   UNL     1      42.911 132.130  21.202  1.00  0.00    -0.060 NA
BRANCH  23  24
ATOM     24  N   UNL     1      43.226 132.922  22.092  1.00  0.00     0.005 N 
ATOM     25  N   UNL     1      43.540 133.714  22.979  1.00  0.00    -0.003 NA
ENDBRANCH  23  24
ENDBRANCH   6  23
BRANCH  10  26
ATOM     26  O   UNL     1      46.446 130.384  15.992  1.00  0.00    -0.567 OA
BRANCH  26  27
ATOM     27  C   UNL     1      46.087 129.373  15.088  1.00  0.00     0.053 C 
ATOM     28  O   UNL     1      45.063 128.477  15.380  1.00  0.00    -0.547 OA
BRANCH  27  29
ATOM     29  C   UNL     1      46.729 129.262  13.923  1.00  0.00    -0.003 C 
BRANCH  29  30
ATOM     30  C   UNL     1      46.675 130.325  12.860  1.00  0.00     0.026 C 
ATOM     31  C   UNL     1      47.882 131.257  12.940  1.00  0.00     0.008 C 
ENDBRANCH  29  30
ENDBRANCH  27  29
ENDBRANCH  26  27
ENDBRANCH  10  26
TORSDOF 11
ENDMDL
MODEL 7
REMARK VINA RESULT:      -6.7      3.384      6.274
REMARK SMILES C#CCO/C([O-])=C\[C@H]1CC[C@@H]2C(O/C([O-])=C\CC)=NC(=O)c3c(N=[N+]=[N-])cc(Cl)c1c32
REMARK SMILES IDX 8 1 30 2 28 3 29 4 27 5 23 6 22 7 31 8 11 9 12 10 19 11
REMARK SMILES IDX 20 12 21 13 10 14 9 15 7 16 5 17 6 18 4 19 3 20 2 21 1 22
REMARK SMILES IDX 24 23 25 24 26 25 13 26 14 27 15 28 16 29 17 30 18 31
REMARK H PARENT
ROOT
ATOM      1  C   UNL     1      43.315 131.925  17.025  1.00  0.00     0.045 C 
ATOM      2  C   UNL     1      43.215 133.344  16.487  1.00  0.00    -0.018 A 
ATOM      3  C   UNL     1      42.759 133.627  15.183  1.00  0.00     0.045 A 
ATOM      4  Cl  UNL     1      42.196 132.369  14.084  1.00  0.00    -0.084 Cl
ATOM      5  C   UNL     1      42.710 134.947  14.735  1.00  0.00     0.032 A 
ATOM      6  C   UNL     1      43.073 136.013  15.575  1.00  0.00     0.052 A 
ATOM      7  C   UNL     1      43.482 135.740  16.902  1.00  0.00     0.056 A 
ATOM      8  C   UNL     1      43.543 134.408  17.354  1.00  0.00    -0.020 A 
ATOM      9  C   UNL     1      44.001 134.067  18.763  1.00  0.00     0.077 C 
ATOM     10  C   UNL     1      44.114 135.261  19.688  1.00  0.00     0.091 C 
ATOM     11  N   UNL     1      44.052 136.480  19.239  1.00  0.00    -0.205 NA
ATOM     12  C   UNL     1      43.814 136.809  17.871  1.00  0.00     0.278 C 
ATOM     13  O   UNL     1      43.874 138.018  17.520  1.00  0.00    -0.267 OA
ATOM     14  C   UNL     1      43.087 132.983  19.388  1.00  0.00     0.016 C 
ATOM     15  C   UNL     1      42.620 131.878  18.403  1.00  0.00     0.014 C 
ENDROOT
BRANCH   1  16
ATOM     16  C   UNL     1      44.754 131.458  17.136  1.00  0.00     0.005 C 
BRANCH  16  17
ATOM     17  C   UNL     1      45.395 130.792  16.171  1.00  0.00     0.049 C 
ATOM     18  O   UNL     1      44.830 129.624  15.664  1.00  0.00    -0.547 OA
BRANCH  17  19
ATOM     19  O   UNL     1      46.620 131.245  15.679  1.00  0.00    -0.601 OA
BRANCH  19  20
ATOM     20  C   UNL     1      46.842 131.477  14.294  1.00  0.00     0.160 C 
BRANCH  20  21
ATOM     21  C   UNL     1      47.579 130.349  13.725  1.00  0.00    -0.095 C 
ATOM     22  C   UNL     1      48.186 129.419  13.256  1.00  0.00     0.005 C 
ENDBRANCH  20  21
ENDBRANCH  19  20
ENDBRANCH  17  19
ENDBRANCH  16  17
ENDBRANCH   1  16
BRANCH   6  23
ATOM     23  N   UNL     1      43.007 137.368  15.102  1.00  0.00    -0.060 NA
BRANCH  23  24
ATOM     24  N   UNL     1      41.954 137.897  14.742  1.00  0.00     0.005 N 
ATOM     25  N   UNL     1      40.903 138.426  14.382  1.00  0.00    -0.003 NA
ENDBRANCH  23  24
ENDBRANCH   6  23
BRANCH  10  26
ATOM     26  O   UNL     1      44.346 135.014  21.049  1.00  0.00    -0.567 OA
BRANCH  26  27
ATOM     27  C   UNL     1      45.600 134.820  21.646  1.00  0.00     0.053 C 
ATOM     28  O   UNL     1      46.492 135.877  21.805  1.00  0.00    -0.547 OA
BRANCH  27  29
ATOM     29  C   UNL     1      45.953 133.607  22.076  1.00  0.00    -0.003 C 
BRANCH  29  30
ATOM     30  C   UNL     1      46.270 132.473  21.141  1.00  0.00     0.026 C 
ATOM     31  C   UNL     1      45.471 131.220  21.490  1.00  0.00     0.008 C 
ENDBRANCH  29  30
ENDBRANCH  27  29
ENDBRANCH  26  27
ENDBRANCH  10  26
TORSDOF 11
ENDMDL
MODEL 8
REMARK VINA RESULT:      -6.6      1.228      1.566
REMARK SMILES C#CCO/C([O-])=C\[C@H]1CC[C@@H]2C(O/C([O-])=C\CC)=NC(=O)c3c(N=[N+]=[N-])cc(Cl)c1c32
REMARK SMILES IDX 8 1 30 2 28 3 29 4 27 5 23 6 22 7 31 8 11 9 12 10 19 11
REMARK SMILES IDX 20 12 21 13 10 14 9 15 7 16 5 17 6 18 4 19 3 20 2 21 1 22
REMARK SMILES IDX 24 23 25 24 26 25 13 26 14 27 15 28 16 29 17 30 18 31
REMARK H PARENT
ROOT
ATOM      1  C   UNL     1      45.165 131.630  16.875  1.00  0.00     0.045 C 
ATOM      2  C   UNL     1      44.247 132.004  18.029  1.00  0.00    -0.018 A 
ATOM      3  C   UNL     1      44.591 131.769  19.375  1.00  0.00     0.045 A 
ATOM      4  Cl  UNL     1      46.146 131.086  19.850  1.00  0.00    -0.084 Cl
ATOM      5  C   UNL     1      43.699 132.113  20.392  1.00  0.00     0.032 A 
ATOM      6  C   UNL     1      42.470 132.727  20.101  1.00  0.00     0.052 A 
ATOM      7  C   UNL     1      42.140 133.014  18.755  1.00  0.00     0.056 A 
ATOM      8  C   UNL     1      43.033 132.658  17.726  1.00  0.00    -0.020 A 
ATOM      9  C   UNL     1      42.709 132.924  16.265  1.00  0.00     0.077 C 
ATOM     10  C   UNL     1      41.509 133.822  16.046  1.00  0.00     0.091 C 
ATOM     11  N   UNL     1      40.703 134.133  17.018  1.00  0.00    -0.205 NA
ATOM     12  C   UNL     1      40.898 133.721  18.371  1.00  0.00     0.278 C 
ATOM     13  O   UNL     1      40.005 133.990  19.219  1.00  0.00    -0.267 OA
ATOM     14  C   UNL     1      43.948 133.485  15.523  1.00  0.00     0.016 C 
ATOM     15  C   UNL     1      45.301 132.854  15.946  1.00  0.00     0.014 C 
ENDROOT
BRANCH   1  16
ATOM     16  C   UNL     1      44.651 130.429  16.105  1.00  0.00     0.005 C 
BRANCH  16  17
ATOM     17  C   UNL     1      45.439 129.465  15.619  1.00  0.00     0.049 C 
ATOM     18  O   UNL     1      44.872 128.242  15.266  1.00  0.00    -0.547 OA
BRANCH  17  19
ATOM     19  O   UNL     1      46.812 129.666  15.472  1.00  0.00    -0.601 OA
BRANCH  19  20
ATOM     20  C   UNL     1      47.344 130.739  14.707  1.00  0.00     0.160 C 
BRANCH  20  21
ATOM     21  C   UNL     1      46.912 130.605  13.316  1.00  0.00    -0.095 C 
ATOM     22  C   UNL     1      46.557 130.494  12.170  1.00  0.00     0.005 C 
ENDBRANCH  20  21
ENDBRANCH  19  20
ENDBRANCH  17  19
ENDBRANCH  16  17
ENDBRANCH   1  16
BRANCH   6  23
ATOM     23  N   UNL     1      41.566 133.085  21.159  1.00  0.00    -0.060 NA
BRANCH  23  24
ATOM     24  N   UNL     1      41.940 133.637  22.196  1.00  0.00     0.005 N 
ATOM     25  N   UNL     1      42.312 134.187  23.231  1.00  0.00    -0.003 NA
ENDBRANCH  23  24
ENDBRANCH   6  23
BRANCH  10  26
ATOM     26  O   UNL     1      41.256 134.267  14.741  1.00  0.00    -0.567 OA
BRANCH  26  27
ATOM     27  C   UNL     1      40.744 135.524  14.386  1.00  0.00     0.053 C 
ATOM     28  O   UNL     1      39.737 135.648  13.434  1.00  0.00    -0.547 OA
BRANCH  27  29
ATOM     29  C   UNL     1      41.221 136.626  14.969  1.00  0.00    -0.003 C 
BRANCH  29  30
ATOM     30  C   UNL     1      42.693 136.918  15.074  1.00  0.00     0.026 C 
ATOM     31  C   UNL     1      43.140 137.020  16.530  1.00  0.00     0.008 C 
ENDBRANCH  29  30
ENDBRANCH  27  29
ENDBRANCH  26  27
ENDBRANCH  10  26
TORSDOF 11
ENDMDL
MODEL 9
REMARK VINA RESULT:      -6.6      3.547      7.028
REMARK SMILES C#CCO/C([O-])=C\[C@H]1CC[C@@H]2C(O/C([O-])=C\CC)=NC(=O)c3c(N=[N+]=[N-])cc(Cl)c1c32
REMARK SMILES IDX 8 1 30 2 28 3 29 4 27 5 23 6 22 7 31 8 11 9 12 10 19 11
REMARK SMILES IDX 20 12 21 13 10 14 9 15 7 16 5 17 6 18 4 19 3 20 2 21 1 22
REMARK SMILES IDX 24 23 25 24 26 25 13 26 14 27 15 28 16 29 17 30 18 31
REMARK H PARENT
ROOT
ATOM      1  C   UNL     1      42.572 135.522  18.740  1.00  0.00     0.045 C 
ATOM      2  C   UNL     1      41.691 135.019  17.607  1.00  0.00    -0.018 A 
ATOM      3  C   UNL     1      40.352 135.433  17.449  1.00  0.00     0.045 A 
ATOM      4  Cl  UNL     1      39.600 136.626  18.507  1.00  0.00    -0.084 Cl
ATOM      5  C   UNL     1      39.584 134.921  16.404  1.00  0.00     0.032 A 
ATOM      6  C   UNL     1      40.131 134.020  15.475  1.00  0.00     0.052 A 
ATOM      7  C   UNL     1      41.489 133.640  15.596  1.00  0.00     0.056 A 
ATOM      8  C   UNL     1      42.264 134.148  16.656  1.00  0.00    -0.020 A 
ATOM      9  C   UNL     1      43.719 133.747  16.840  1.00  0.00     0.077 C 
ATOM     10  C   UNL     1      44.313 132.999  15.664  1.00  0.00     0.091 C 
ATOM     11  N   UNL     1      43.570 132.545  14.699  1.00  0.00    -0.205 NA
ATOM     12  C   UNL     1      42.160 132.753  14.619  1.00  0.00     0.278 C 
ATOM     13  O   UNL     1      41.516 132.184  13.698  1.00  0.00    -0.267 OA
ATOM     14  C   UNL     1      44.587 134.982  17.190  1.00  0.00     0.016 C 
ATOM     15  C   UNL     1      43.908 136.007  18.138  1.00  0.00     0.014 C 
ENDROOT
BRANCH   1  16
ATOM     16  C   UNL     1      42.814 134.456  19.790  1.00  0.00     0.005 C 
BRANCH  16  17
ATOM     17  C   UNL     1      43.445 134.681  20.946  1.00  0.00     0.049 C 
ATOM     18  O   UNL     1      42.692 134.915  22.093  1.00  0.00    -0.547 OA
BRANCH  17  19
ATOM     19  O   UNL     1      44.840 134.694  21.013  1.00  0.00    -0.601 OA
BRANCH  19  20
ATOM     20  C   UNL     1      45.540 134.739  22.249  1.00  0.00     0.160 C 
BRANCH  20  21
ATOM     21  C   UNL     1      46.971 134.560  22.003  1.00  0.00    -0.095 C 
ATOM     22  C   UNL     1      48.149 134.413  21.801  1.00  0.00     0.005 C 
ENDBRANCH  20  21
ENDBRANCH  19  20
ENDBRANCH  17  19
ENDBRANCH  16  17
ENDBRANCH   1  16
BRANCH   6  23
ATOM     23  N   UNL     1      39.330 133.509  14.397  1.00  0.00    -0.060 NA
BRANCH  23  24
ATOM     24  N   UNL     1      38.262 134.023  14.060  1.00  0.00     0.005 N 
ATOM     25  N   UNL     1      37.196 134.536  13.722  1.00  0.00    -0.003 NA
ENDBRANCH  23  24
ENDBRANCH   6  23
BRANCH  10  26
ATOM     26  O   UNL     1      45.695 132.760  15.673  1.00  0.00    -0.567 OA
BRANCH  26  27
ATOM     27  C   UNL     1      46.310 131.499  15.661  1.00  0.00     0.053 C 
ATOM     28  O   UNL     1      46.279 130.673  16.780  1.00  0.00    -0.547 OA
BRANCH  27  29
ATOM     29  C   UNL     1      46.934 131.073  14.560  1.00  0.00    -0.003 C 
BRANCH  29  30
ATOM     30  C   UNL     1      46.197 130.671  13.312  1.00  0.00     0.026 C 
ATOM     31  C   UNL     1      47.137 130.582  12.112  1.00  0.00     0.008 C 
ENDBRANCH  29  30
ENDBRANCH  27  29
ENDBRANCH  26  27
ENDBRANCH  10  26
TORSDOF 11
ENDMDL


