MODEL 1
REMARK VINA RESULT:      -8.7      0.000      0.000
REMARK SMILES Cc1nnn(/C=C(\O)Nc2cccc(C#N)c2C)c1-c1cc2ccccc2c2ccccc12
REMARK SMILES IDX 7 1 8 2 6 4 5 5 4 6 19 7 3 8 2 9 1 10 20 11 21 12 33 13
REMARK SMILES IDX 22 14 32 15 28 16 23 17 27 18 31 19 29 20 24 21 26 22 30 23
REMARK SMILES IDX 25 24 9 25 10 27 11 28 17 29 12 30 14 31 13 32 18 33 15 34
REMARK SMILES IDX 16 35
REMARK H PARENT 8 3 9 26
ROOT
ATOM      1  C   UNL     1      43.176 133.325  14.997  1.00  0.00     0.207 C 
ENDROOT
BRANCH   1   2
ATOM      2  O   UNL     1      44.326 134.069  15.256  1.00  0.00    -0.493 OA
ATOM      3  H   UNL     1      44.927 133.849  16.040  1.00  0.00     0.295 HD
ENDBRANCH   1   2
BRANCH   1   4
ATOM      4  C   UNL     1      42.023 133.958  14.738  1.00  0.00     0.181 C 
BRANCH   4   5
ATOM      5  N   UNL     1      40.892 133.831  15.606  1.00  0.00    -0.214 N 
ATOM      6  N   UNL     1      39.666 133.559  15.191  1.00  0.00    -0.062 NA
ATOM      7  C   UNL     1      40.847 134.072  16.931  1.00  0.00     0.097 A 
ATOM      8  N   UNL     1      38.813 133.598  16.206  1.00  0.00    -0.135 NA
ATOM      9  C   UNL     1      39.524 133.933  17.303  1.00  0.00     0.088 A 
ATOM     10  C   UNL     1      38.933 134.129  18.662  1.00  0.00     0.071 C 
BRANCH   7  11
ATOM     11  C   UNL     1      41.955 134.634  17.736  1.00  0.00     0.011 A 
ATOM     12  C   UNL     1      42.328 135.955  17.482  1.00  0.00     0.019 A 
ATOM     13  C   UNL     1      42.650 133.880  18.709  1.00  0.00    -0.008 A 
ATOM     14  C   UNL     1      43.376 136.556  18.179  1.00  0.00    -0.017 A 
ATOM     15  C   UNL     1      42.321 132.527  18.941  1.00  0.00     0.009 A 
ATOM     16  C   UNL     1      43.720 134.478  19.445  1.00  0.00    -0.010 A 
ATOM     17  C   UNL     1      43.720 137.885  17.881  1.00  0.00     0.009 A 
ATOM     18  C   UNL     1      44.089 135.832  19.173  1.00  0.00    -0.010 A 
ATOM     19  C   UNL     1      43.000 131.781  19.899  1.00  0.00     0.001 A 
ATOM     20  C   UNL     1      44.385 133.689  20.418  1.00  0.00     0.009 A 
ATOM     21  C   UNL     1      44.766 138.510  18.554  1.00  0.00     0.001 A 
ATOM     22  C   UNL     1      45.152 136.496  19.837  1.00  0.00     0.009 A 
ATOM     23  C   UNL     1      44.022 132.361  20.638  1.00  0.00     0.001 A 
ATOM     24  C   UNL     1      45.480 137.818  19.527  1.00  0.00     0.001 A 
ENDBRANCH   7  11
ENDBRANCH   4   5
ENDBRANCH   1   4
BRANCH   1  25
ATOM     25  N   UNL     1      43.251 131.892  15.018  1.00  0.00    -0.325 N 
ATOM     26  H   UNL     1      42.350 131.369  15.109  1.00  0.00     0.170 HD
BRANCH  25  27
ATOM     27  C   UNL     1      44.431 131.222  15.477  1.00  0.00     0.045 A 
ATOM     28  C   UNL     1      44.693 131.164  16.852  1.00  0.00     0.026 A 
ATOM     29  C   UNL     1      45.338 130.641  14.557  1.00  0.00    -0.010 A 
ATOM     30  C   UNL     1      45.841 130.530  17.325  1.00  0.00     0.004 A 
ATOM     31  C   UNL     1      46.514 130.023  15.050  1.00  0.00     0.057 A 
ATOM     32  C   UNL     1      46.748 129.963  16.430  1.00  0.00     0.020 A 
ATOM     33  C   UNL     1      45.075 130.749  13.072  1.00  0.00     0.048 C 
BRANCH  31  34
ATOM     34  C   UNL     1      47.503 129.456  14.165  1.00  0.00     0.099 C 
ATOM     35  N   UNL     1      48.296 129.001  13.455  1.00  0.00    -0.192 NA
ENDBRANCH  31  34
ENDBRANCH  25  27
ENDBRANCH   1  25
TORSDOF 7
ENDMDL
MODEL 2
REMARK VINA RESULT:      -8.3      3.197      6.369
REMARK SMILES Cc1nnn(/C=C(\O)Nc2cccc(C#N)c2C)c1-c1cc2ccccc2c2ccccc12
REMARK SMILES IDX 7 1 8 2 6 4 5 5 4 6 19 7 3 8 2 9 1 10 20 11 21 12 33 13
REMARK SMILES IDX 22 14 32 15 28 16 23 17 27 18 31 19 29 20 24 21 26 22 30 23
REMARK SMILES IDX 25 24 9 25 10 27 11 28 17 29 12 30 14 31 13 32 18 33 15 34
REMARK SMILES IDX 16 35
REMARK H PARENT 8 3 9 26
ROOT
ATOM      1  C   UNL     1      44.602 137.632  18.649  1.00  0.00     0.207 C 
ENDROOT
BRANCH   1   2
ATOM      2  O   UNL     1      44.100 138.596  17.777  1.00  0.00    -0.493 OA
ATOM      3  H   UNL     1      44.273 138.544  16.781  1.00  0.00     0.295 HD
ENDBRANCH   1   2
BRANCH   1   4
ATOM      4  C   UNL     1      44.379 136.334  18.400  1.00  0.00     0.181 C 
BRANCH   4   5
ATOM      5  N   UNL     1      43.051 135.821  18.254  1.00  0.00    -0.214 N 
ATOM      6  N   UNL     1      41.957 136.491  18.579  1.00  0.00    -0.062 NA
ATOM      7  C   UNL     1      42.691 134.575  17.889  1.00  0.00     0.097 A 
ATOM      8  N   UNL     1      40.883 135.728  18.425  1.00  0.00    -0.135 NA
ATOM      9  C   UNL     1      41.316 134.520  18.010  1.00  0.00     0.088 A 
ATOM     10  C   UNL     1      40.425 133.347  17.758  1.00  0.00     0.071 C 
BRANCH   7  11
ATOM     11  C   UNL     1      43.623 133.444  17.674  1.00  0.00     0.011 A 
ATOM     12  C   UNL     1      43.924 133.101  16.356  1.00  0.00     0.019 A 
ATOM     13  C   UNL     1      44.177 132.699  18.741  1.00  0.00    -0.008 A 
ATOM     14  C   UNL     1      44.775 132.035  16.063  1.00  0.00    -0.017 A 
ATOM     15  C   UNL     1      43.841 132.999  20.079  1.00  0.00     0.009 A 
ATOM     16  C   UNL     1      45.061 131.610  18.466  1.00  0.00    -0.010 A 
ATOM     17  C   UNL     1      45.040 131.723  14.719  1.00  0.00     0.009 A 
ATOM     18  C   UNL     1      45.360 131.272  17.109  1.00  0.00    -0.010 A 
ATOM     19  C   UNL     1      44.386 132.271  21.132  1.00  0.00     0.001 A 
ATOM     20  C   UNL     1      45.603 130.895  19.565  1.00  0.00     0.009 A 
ATOM     21  C   UNL     1      45.879 130.660  14.395  1.00  0.00     0.001 A 
ATOM     22  C   UNL     1      46.207 130.194  16.746  1.00  0.00     0.009 A 
ATOM     23  C   UNL     1      45.267 131.229  20.876  1.00  0.00     0.001 A 
ATOM     24  C   UNL     1      46.458 129.898  15.404  1.00  0.00     0.001 A 
ENDBRANCH   7  11
ENDBRANCH   4   5
ENDBRANCH   1   4
BRANCH   1  25
ATOM     25  N   UNL     1      45.347 138.052  19.802  1.00  0.00    -0.325 N 
ATOM     26  H   UNL     1      45.027 138.923  20.284  1.00  0.00     0.170 HD
BRANCH  25  27
ATOM     27  C   UNL     1      46.728 137.704  19.955  1.00  0.00     0.045 A 
ATOM     28  C   UNL     1      47.681 138.304  19.122  1.00  0.00     0.026 A 
ATOM     29  C   UNL     1      47.132 136.750  20.921  1.00  0.00    -0.010 A 
ATOM     30  C   UNL     1      49.030 137.974  19.240  1.00  0.00     0.004 A 
ATOM     31  C   UNL     1      48.503 136.404  21.012  1.00  0.00     0.057 A 
ATOM     32  C   UNL     1      49.440 137.029  20.179  1.00  0.00     0.020 A 
ATOM     33  C   UNL     1      46.094 136.069  21.784  1.00  0.00     0.048 C 
BRANCH  31  34
ATOM     34  C   UNL     1      48.974 135.404  21.940  1.00  0.00     0.099 C 
ATOM     35  N   UNL     1      49.352 134.601  22.684  1.00  0.00    -0.192 NA
ENDBRANCH  31  34
ENDBRANCH  25  27
ENDBRANCH   1  25
TORSDOF 7
ENDMDL
MODEL 3
REMARK VINA RESULT:      -7.8      3.495      7.174
REMARK SMILES Cc1nnn(/C=C(\O)Nc2cccc(C#N)c2C)c1-c1cc2ccccc2c2ccccc12
REMARK SMILES IDX 7 1 8 2 6 4 5 5 4 6 19 7 3 8 2 9 1 10 20 11 21 12 33 13
REMARK SMILES IDX 22 14 32 15 28 16 23 17 27 18 31 19 29 20 24 21 26 22 30 23
REMARK SMILES IDX 25 24 9 25 10 27 11 28 17 29 12 30 14 31 13 32 18 33 15 34
REMARK SMILES IDX 16 35
REMARK H PARENT 8 3 9 26
ROOT
ATOM      1  C   UNL     1      44.475 136.938  18.862  1.00  0.00     0.207 C 
ENDROOT
BRANCH   1   2
ATOM      2  O   UNL     1      43.980 138.092  18.257  1.00  0.00    -0.493 OA
ATOM      3  H   UNL     1      43.323 138.040  17.488  1.00  0.00     0.295 HD
ENDBRANCH   1   2
BRANCH   1   4
ATOM      4  C   UNL     1      44.109 135.737  18.394  1.00  0.00     0.181 C 
BRANCH   4   5
ATOM      5  N   UNL     1      43.603 134.720  19.266  1.00  0.00    -0.214 N 
ATOM      6  N   UNL     1      43.434 134.877  20.569  1.00  0.00    -0.062 NA
ATOM      7  C   UNL     1      43.331 133.437  18.955  1.00  0.00     0.097 A 
ATOM      8  N   UNL     1      43.043 133.738  21.125  1.00  0.00    -0.135 NA
ATOM      9  C   UNL     1      42.987 132.818  20.141  1.00  0.00     0.088 A 
ATOM     10  C   UNL     1      42.630 131.382  20.350  1.00  0.00     0.071 C 
BRANCH   7  11
ATOM     11  C   UNL     1      43.617 132.794  17.652  1.00  0.00     0.011 A 
ATOM     12  C   UNL     1      44.757 131.994  17.568  1.00  0.00     0.019 A 
ATOM     13  C   UNL     1      42.806 132.987  16.511  1.00  0.00    -0.008 A 
ATOM     14  C   UNL     1      45.114 131.368  16.373  1.00  0.00    -0.017 A 
ATOM     15  C   UNL     1      41.678 133.836  16.565  1.00  0.00     0.009 A 
ATOM     16  C   UNL     1      43.143 132.347  15.279  1.00  0.00    -0.010 A 
ATOM     17  C   UNL     1      46.277 130.580  16.336  1.00  0.00     0.009 A 
ATOM     18  C   UNL     1      44.315 131.530  15.209  1.00  0.00    -0.010 A 
ATOM     19  C   UNL     1      40.875 134.027  15.446  1.00  0.00     0.001 A 
ATOM     20  C   UNL     1      42.298 132.560  14.160  1.00  0.00     0.009 A 
ATOM     21  C   UNL     1      46.663 129.950  15.156  1.00  0.00     0.001 A 
ATOM     22  C   UNL     1      44.737 130.878  14.023  1.00  0.00     0.009 A 
ATOM     23  C   UNL     1      41.179 133.388  14.252  1.00  0.00     0.001 A 
ATOM     24  C   UNL     1      45.897 130.099  14.005  1.00  0.00     0.001 A 
ENDBRANCH   7  11
ENDBRANCH   4   5
ENDBRANCH   1   4
BRANCH   1  25
ATOM     25  N   UNL     1      45.366 137.062  19.981  1.00  0.00    -0.325 N 
ATOM     26  H   UNL     1      44.932 137.197  20.922  1.00  0.00     0.170 HD
BRANCH  25  27
ATOM     27  C   UNL     1      46.698 137.563  19.811  1.00  0.00     0.045 A 
ATOM     28  C   UNL     1      46.963 138.460  18.769  1.00  0.00     0.026 A 
ATOM     29  C   UNL     1      47.743 137.143  20.669  1.00  0.00    -0.010 A 
ATOM     30  C   UNL     1      48.253 138.951  18.573  1.00  0.00     0.004 A 
ATOM     31  C   UNL     1      49.054 137.630  20.443  1.00  0.00     0.057 A 
ATOM     32  C   UNL     1      49.294 138.539  19.403  1.00  0.00     0.020 A 
ATOM     33  C   UNL     1      47.460 136.136  21.762  1.00  0.00     0.048 C 
BRANCH  31  34
ATOM     34  C   UNL     1      50.173 137.205  21.249  1.00  0.00     0.099 C 
ATOM     35  N   UNL     1      51.071 136.863  21.895  1.00  0.00    -0.192 NA
ENDBRANCH  31  34
ENDBRANCH  25  27
ENDBRANCH   1  25
TORSDOF 7
ENDMDL
MODEL 4
REMARK VINA RESULT:      -7.7      2.364      5.776
REMARK SMILES Cc1nnn(/C=C(\O)Nc2cccc(C#N)c2C)c1-c1cc2ccccc2c2ccccc12
REMARK SMILES IDX 7 1 8 2 6 4 5 5 4 6 19 7 3 8 2 9 1 10 20 11 21 12 33 13
REMARK SMILES IDX 22 14 32 15 28 16 23 17 27 18 31 19 29 20 24 21 26 22 30 23
REMARK SMILES IDX 25 24 9 25 10 27 11 28 17 29 12 30 14 31 13 32 18 33 15 34
REMARK SMILES IDX 16 35
REMARK H PARENT 8 3 9 26
ROOT
ATOM      1  C   UNL     1      39.395 134.413  16.942  1.00  0.00     0.207 C 
ENDROOT
BRANCH   1   2
ATOM      2  O   UNL     1      39.091 133.064  17.124  1.00  0.00    -0.493 OA
ATOM      3  H   UNL     1      39.797 132.404  17.425  1.00  0.00     0.295 HD
ENDBRANCH   1   2
BRANCH   1   4
ATOM      4  C   UNL     1      40.132 134.788  15.888  1.00  0.00     0.181 C 
BRANCH   4   5
ATOM      5  N   UNL     1      41.096 133.907  15.301  1.00  0.00    -0.214 N 
ATOM      6  N   UNL     1      40.838 133.090  14.294  1.00  0.00    -0.062 NA
ATOM      7  C   UNL     1      42.354 133.674  15.725  1.00  0.00     0.097 A 
ATOM      8  N   UNL     1      41.894 132.332  14.030  1.00  0.00    -0.135 NA
ATOM      9  C   UNL     1      42.850 132.666  14.921  1.00  0.00     0.088 A 
ATOM     10  C   UNL     1      44.192 132.014  15.000  1.00  0.00     0.071 C 
BRANCH   7  11
ATOM     11  C   UNL     1      42.951 134.209  16.970  1.00  0.00     0.011 A 
ATOM     12  C   UNL     1      43.615 135.434  16.889  1.00  0.00     0.019 A 
ATOM     13  C   UNL     1      42.897 133.517  18.201  1.00  0.00    -0.008 A 
ATOM     14  C   UNL     1      44.224 136.000  18.008  1.00  0.00    -0.017 A 
ATOM     15  C   UNL     1      42.276 132.252  18.289  1.00  0.00     0.009 A 
ATOM     16  C   UNL     1      43.504 134.082  19.365  1.00  0.00    -0.010 A 
ATOM     17  C   UNL     1      44.889 137.231  17.874  1.00  0.00     0.009 A 
ATOM     18  C   UNL     1      44.180 135.338  19.265  1.00  0.00    -0.010 A 
ATOM     19  C   UNL     1      42.217 131.568  19.498  1.00  0.00     0.001 A 
ATOM     20  C   UNL     1      43.419 133.359  20.582  1.00  0.00     0.009 A 
ATOM     21  C   UNL     1      45.514 137.818  18.971  1.00  0.00     0.001 A 
ATOM     22  C   UNL     1      44.829 135.960  20.362  1.00  0.00     0.009 A 
ATOM     23  C   UNL     1      42.780 132.121  20.640  1.00  0.00     0.001 A 
ATOM     24  C   UNL     1      45.485 137.184  20.209  1.00  0.00     0.001 A 
ENDBRANCH   7  11
ENDBRANCH   4   5
ENDBRANCH   1   4
BRANCH   1  25
ATOM     25  N   UNL     1      38.913 135.373  17.894  1.00  0.00    -0.325 N 
ATOM     26  H   UNL     1      37.966 135.780  17.722  1.00  0.00     0.170 HD
BRANCH  25  27
ATOM     27  C   UNL     1      39.823 136.168  18.665  1.00  0.00     0.045 A 
ATOM     28  C   UNL     1      40.369 137.326  18.097  1.00  0.00     0.026 A 
ATOM     29  C   UNL     1      40.186 135.782  19.978  1.00  0.00    -0.010 A 
ATOM     30  C   UNL     1      41.267 138.110  18.820  1.00  0.00     0.004 A 
ATOM     31  C   UNL     1      41.120 136.574  20.692  1.00  0.00     0.057 A 
ATOM     32  C   UNL     1      41.642 137.737  20.110  1.00  0.00     0.020 A 
ATOM     33  C   UNL     1      39.631 134.505  20.568  1.00  0.00     0.048 C 
BRANCH  31  34
ATOM     34  C   UNL     1      41.571 136.212  22.014  1.00  0.00     0.099 C 
ATOM     35  N   UNL     1      41.932 135.921  23.075  1.00  0.00    -0.192 NA
ENDBRANCH  31  34
ENDBRANCH  25  27
ENDBRANCH   1  25
TORSDOF 7
ENDMDL
MODEL 5
REMARK VINA RESULT:      -7.7      2.266      6.044
REMARK SMILES Cc1nnn(/C=C(\O)Nc2cccc(C#N)c2C)c1-c1cc2ccccc2c2ccccc12
REMARK SMILES IDX 7 1 8 2 6 4 5 5 4 6 19 7 3 8 2 9 1 10 20 11 21 12 33 13
REMARK SMILES IDX 22 14 32 15 28 16 23 17 27 18 31 19 29 20 24 21 26 22 30 23
REMARK SMILES IDX 25 24 9 25 10 27 11 28 17 29 12 30 14 31 13 32 18 33 15 34
REMARK SMILES IDX 16 35
REMARK H PARENT 8 3 9 26
ROOT
ATOM      1  C   UNL     1      44.036 132.925  15.573  1.00  0.00     0.207 C 
ENDROOT
BRANCH   1   2
ATOM      2  O   UNL     1      45.194 133.702  15.600  1.00  0.00    -0.493 OA
ATOM      3  H   UNL     1      45.146 134.711  15.663  1.00  0.00     0.295 HD
ENDBRANCH   1   2
BRANCH   1   4
ATOM      4  C   UNL     1      43.983 131.794  16.289  1.00  0.00     0.181 C 
BRANCH   4   5
ATOM      5  N   UNL     1      44.350 131.770  17.673  1.00  0.00    -0.214 N 
ATOM      6  N   UNL     1      45.187 130.892  18.202  1.00  0.00    -0.062 NA
ATOM      7  C   UNL     1      43.843 132.526  18.666  1.00  0.00     0.097 A 
ATOM      8  N   UNL     1      45.259 131.057  19.517  1.00  0.00    -0.135 NA
ATOM      9  C   UNL     1      44.416 132.061  19.834  1.00  0.00     0.088 A 
ATOM     10  C   UNL     1      44.163 132.539  21.227  1.00  0.00     0.071 C 
BRANCH   7  11
ATOM     11  C   UNL     1      42.707 133.465  18.532  1.00  0.00     0.011 A 
ATOM     12  C   UNL     1      41.446 132.918  18.288  1.00  0.00     0.019 A 
ATOM     13  C   UNL     1      42.863 134.868  18.611  1.00  0.00    -0.008 A 
ATOM     14  C   UNL     1      40.325 133.732  18.126  1.00  0.00    -0.017 A 
ATOM     15  C   UNL     1      44.139 135.440  18.805  1.00  0.00     0.009 A 
ATOM     16  C   UNL     1      41.727 135.722  18.461  1.00  0.00    -0.010 A 
ATOM     17  C   UNL     1      39.079 133.134  17.872  1.00  0.00     0.009 A 
ATOM     18  C   UNL     1      40.442 135.145  18.211  1.00  0.00    -0.010 A 
ATOM     19  C   UNL     1      44.298 136.820  18.886  1.00  0.00     0.001 A 
ATOM     20  C   UNL     1      41.926 137.123  18.555  1.00  0.00     0.009 A 
ATOM     21  C   UNL     1      37.943 133.919  17.698  1.00  0.00     0.001 A 
ATOM     22  C   UNL     1      39.267 135.917  18.026  1.00  0.00     0.009 A 
ATOM     23  C   UNL     1      43.197 137.656  18.768  1.00  0.00     0.001 A 
ATOM     24  C   UNL     1      38.037 135.305  17.774  1.00  0.00     0.001 A 
ENDBRANCH   7  11
ENDBRANCH   4   5
ENDBRANCH   1   4
BRANCH   1  25
ATOM     25  N   UNL     1      42.925 133.353  14.772  1.00  0.00    -0.325 N 
ATOM     26  H   UNL     1      42.739 132.821  13.891  1.00  0.00     0.170 HD
BRANCH  25  27
ATOM     27  C   UNL     1      42.470 134.712  14.808  1.00  0.00     0.045 A 
ATOM     28  C   UNL     1      43.388 135.733  15.081  1.00  0.00     0.026 A 
ATOM     29  C   UNL     1      41.105 135.023  14.593  1.00  0.00    -0.010 A 
ATOM     30  C   UNL     1      42.969 137.062  15.136  1.00  0.00     0.004 A 
ATOM     31  C   UNL     1      40.688 136.375  14.678  1.00  0.00     0.057 A 
ATOM     32  C   UNL     1      41.628 137.383  14.936  1.00  0.00     0.020 A 
ATOM     33  C   UNL     1      40.109 133.912  14.348  1.00  0.00     0.048 C 
BRANCH  31  34
ATOM     34  C   UNL     1      39.305 136.756  14.518  1.00  0.00     0.099 C 
ATOM     35  N   UNL     1      38.196 137.061  14.391  1.00  0.00    -0.192 NA
ENDBRANCH  31  34
ENDBRANCH  25  27
ENDBRANCH   1  25
TORSDOF 7
ENDMDL
MODEL 6
REMARK VINA RESULT:      -7.7      1.671      3.600
REMARK SMILES Cc1nnn(/C=C(\O)Nc2cccc(C#N)c2C)c1-c1cc2ccccc2c2ccccc12
REMARK SMILES IDX 7 1 8 2 6 4 5 5 4 6 19 7 3 8 2 9 1 10 20 11 21 12 33 13
REMARK SMILES IDX 22 14 32 15 28 16 23 17 27 18 31 19 29 20 24 21 26 22 30 23
REMARK SMILES IDX 25 24 9 25 10 27 11 28 17 29 12 30 14 31 13 32 18 33 15 34
REMARK SMILES IDX 16 35
REMARK H PARENT 8 3 9 26
ROOT
ATOM      1  C   UNL     1      42.810 133.439  15.351  1.00  0.00     0.207 C 
ENDROOT
BRANCH   1   2
ATOM      2  O   UNL     1      42.287 133.917  14.150  1.00  0.00    -0.493 OA
ATOM      3  H   UNL     1      42.141 133.301  13.360  1.00  0.00     0.295 HD
ENDBRANCH   1   2
BRANCH   1   4
ATOM      4  C   UNL     1      43.269 134.306  16.263  1.00  0.00     0.181 C 
BRANCH   4   5
ATOM      5  N   UNL     1      42.383 135.168  16.986  1.00  0.00    -0.214 N 
ATOM      6  N   UNL     1      41.619 136.088  16.420  1.00  0.00    -0.062 NA
ATOM      7  C   UNL     1      42.257 135.276  18.323  1.00  0.00     0.097 A 
ATOM      8  N   UNL     1      40.980 136.792  17.345  1.00  0.00    -0.135 NA
ATOM      9  C   UNL     1      41.374 136.315  18.544  1.00  0.00     0.088 A 
ATOM     10  C   UNL     1      40.922 136.864  19.859  1.00  0.00     0.071 C 
BRANCH   7  11
ATOM     11  C   UNL     1      43.110 134.591  19.321  1.00  0.00     0.011 A 
ATOM     12  C   UNL     1      42.717 133.319  19.738  1.00  0.00     0.019 A 
ATOM     13  C   UNL     1      44.267 135.188  19.873  1.00  0.00    -0.008 A 
ATOM     14  C   UNL     1      43.450 132.612  20.690  1.00  0.00    -0.017 A 
ATOM     15  C   UNL     1      44.649 136.495  19.502  1.00  0.00     0.009 A 
ATOM     16  C   UNL     1      45.041 134.478  20.842  1.00  0.00    -0.010 A 
ATOM     17  C   UNL     1      43.008 131.338  21.085  1.00  0.00     0.009 A 
ATOM     18  C   UNL     1      44.625 133.175  21.259  1.00  0.00    -0.010 A 
ATOM     19  C   UNL     1      45.788 137.085  20.040  1.00  0.00     0.001 A 
ATOM     20  C   UNL     1      46.199 135.109  21.365  1.00  0.00     0.009 A 
ATOM     21  C   UNL     1      43.714 130.611  22.040  1.00  0.00     0.001 A 
ATOM     22  C   UNL     1      45.319 132.412  22.231  1.00  0.00     0.009 A 
ATOM     23  C   UNL     1      46.562 136.394  20.962  1.00  0.00     0.001 A 
ATOM     24  C   UNL     1      44.864 131.147  22.611  1.00  0.00     0.001 A 
ENDBRANCH   7  11
ENDBRANCH   4   5
ENDBRANCH   1   4
BRANCH   1  25
ATOM     25  N   UNL     1      42.848 132.023  15.583  1.00  0.00    -0.325 N 
ATOM     26  H   UNL     1      41.955 131.565  15.878  1.00  0.00     0.170 HD
BRANCH  25  27
ATOM     27  C   UNL     1      44.063 131.372  15.973  1.00  0.00     0.045 A 
ATOM     28  C   UNL     1      44.430 131.361  17.324  1.00  0.00     0.026 A 
ATOM     29  C   UNL     1      44.900 130.763  15.005  1.00  0.00    -0.010 A 
ATOM     30  C   UNL     1      45.614 130.746  17.729  1.00  0.00     0.004 A 
ATOM     31  C   UNL     1      46.113 130.165  15.427  1.00  0.00     0.057 A 
ATOM     32  C   UNL     1      46.452 130.152  16.787  1.00  0.00     0.020 A 
ATOM     33  C   UNL     1      44.524 130.822  13.542  1.00  0.00     0.048 C 
BRANCH  31  34
ATOM     34  C   UNL     1      47.035 129.572  14.488  1.00  0.00     0.099 C 
ATOM     35  N   UNL     1      47.774 129.095  13.735  1.00  0.00    -0.192 NA
ENDBRANCH  31  34
ENDBRANCH  25  27
ENDBRANCH   1  25
TORSDOF 7
ENDMDL
MODEL 7
REMARK VINA RESULT:      -7.7      1.850      3.823
REMARK SMILES Cc1nnn(/C=C(\O)Nc2cccc(C#N)c2C)c1-c1cc2ccccc2c2ccccc12
REMARK SMILES IDX 7 1 8 2 6 4 5 5 4 6 19 7 3 8 2 9 1 10 20 11 21 12 33 13
REMARK SMILES IDX 22 14 32 15 28 16 23 17 27 18 31 19 29 20 24 21 26 22 30 23
REMARK SMILES IDX 25 24 9 25 10 27 11 28 17 29 12 30 14 31 13 32 18 33 15 34
REMARK SMILES IDX 16 35
REMARK H PARENT 8 3 9 26
ROOT
ATOM      1  C   UNL     1      42.484 132.222  14.608  1.00  0.00     0.207 C 
ENDROOT
BRANCH   1   2
ATOM      2  O   UNL     1      41.258 132.370  13.962  1.00  0.00    -0.493 OA
ATOM      3  H   UNL     1      41.139 133.036  13.209  1.00  0.00     0.295 HD
ENDBRANCH   1   2
BRANCH   1   4
ATOM      4  C   UNL     1      42.649 132.726  15.839  1.00  0.00     0.181 C 
BRANCH   4   5
ATOM      5  N   UNL     1      43.193 134.034  16.042  1.00  0.00    -0.214 N 
ATOM      6  N   UNL     1      43.644 134.809  15.069  1.00  0.00    -0.062 NA
ATOM      7  C   UNL     1      43.445 134.641  17.218  1.00  0.00     0.097 A 
ATOM      8  N   UNL     1      44.174 135.918  15.568  1.00  0.00    -0.135 NA
ATOM      9  C   UNL     1      44.076 135.831  16.910  1.00  0.00     0.088 A 
ATOM     10  C   UNL     1      44.597 136.860  17.861  1.00  0.00     0.071 C 
BRANCH   7  11
ATOM     11  C   UNL     1      43.309 134.013  18.552  1.00  0.00     0.011 A 
ATOM     12  C   UNL     1      44.296 133.106  18.939  1.00  0.00     0.019 A 
ATOM     13  C   UNL     1      42.217 134.274  19.411  1.00  0.00    -0.008 A 
ATOM     14  C   UNL     1      44.234 132.451  20.169  1.00  0.00    -0.017 A 
ATOM     15  C   UNL     1      41.182 135.149  19.013  1.00  0.00     0.009 A 
ATOM     16  C   UNL     1      42.138 133.626  20.682  1.00  0.00    -0.010 A 
ATOM     17  C   UNL     1      45.248 131.539  20.509  1.00  0.00     0.009 A 
ATOM     18  C   UNL     1      43.158 132.699  21.063  1.00  0.00    -0.010 A 
ATOM     19  C   UNL     1      40.107 135.412  19.856  1.00  0.00     0.001 A 
ATOM     20  C   UNL     1      41.030 133.923  21.517  1.00  0.00     0.009 A 
ATOM     21  C   UNL     1      45.209 130.865  21.726  1.00  0.00     0.001 A 
ATOM     22  C   UNL     1      43.146 131.993  22.293  1.00  0.00     0.009 A 
ATOM     23  C   UNL     1      40.035 134.808  21.103  1.00  0.00     0.001 A 
ATOM     24  C   UNL     1      44.162 131.090  22.613  1.00  0.00     0.001 A 
ENDBRANCH   7  11
ENDBRANCH   4   5
ENDBRANCH   1   4
BRANCH   1  25
ATOM     25  N   UNL     1      43.550 131.534  13.936  1.00  0.00    -0.325 N 
ATOM     26  H   UNL     1      43.325 131.094  13.014  1.00  0.00     0.170 HD
BRANCH  25  27
ATOM     27  C   UNL     1      44.639 130.963  14.671  1.00  0.00     0.045 A 
ATOM     28  C   UNL     1      44.550 130.874  16.066  1.00  0.00     0.026 A 
ATOM     29  C   UNL     1      45.803 130.510  14.004  1.00  0.00    -0.010 A 
ATOM     30  C   UNL     1      45.601 130.336  16.807  1.00  0.00     0.004 A 
ATOM     31  C   UNL     1      46.874 129.989  14.772  1.00  0.00     0.057 A 
ATOM     32  C   UNL     1      46.757 129.896  16.166  1.00  0.00     0.020 A 
ATOM     33  C   UNL     1      45.914 130.653  12.503  1.00  0.00     0.048 C 
BRANCH  31  34
ATOM     34  C   UNL     1      48.109 129.557  14.161  1.00  0.00     0.099 C 
ATOM     35  N   UNL     1      49.099 129.210  13.671  1.00  0.00    -0.192 NA
ENDBRANCH  31  34
ENDBRANCH  25  27
ENDBRANCH   1  25
TORSDOF 7
ENDMDL
MODEL 8
REMARK VINA RESULT:      -7.6      2.340      6.457
REMARK SMILES Cc1nnn(/C=C(\O)Nc2cccc(C#N)c2C)c1-c1cc2ccccc2c2ccccc12
REMARK SMILES IDX 7 1 8 2 6 4 5 5 4 6 19 7 3 8 2 9 1 10 20 11 21 12 33 13
REMARK SMILES IDX 22 14 32 15 28 16 23 17 27 18 31 19 29 20 24 21 26 22 30 23
REMARK SMILES IDX 25 24 9 25 10 27 11 28 17 29 12 30 14 31 13 32 18 33 15 34
REMARK SMILES IDX 16 35
REMARK H PARENT 8 3 9 26
ROOT
ATOM      1  C   UNL     1      40.929 134.160  14.900  1.00  0.00     0.207 C 
ENDROOT
BRANCH   1   2
ATOM      2  O   UNL     1      41.324 132.830  15.032  1.00  0.00    -0.493 OA
ATOM      3  H   UNL     1      42.111 132.572  15.614  1.00  0.00     0.295 HD
ENDBRANCH   1   2
BRANCH   1   4
ATOM      4  C   UNL     1      41.827 135.082  14.527  1.00  0.00     0.181 C 
BRANCH   4   5
ATOM      5  N   UNL     1      42.385 136.003  15.471  1.00  0.00    -0.214 N 
ATOM      6  N   UNL     1      42.283 137.318  15.373  1.00  0.00    -0.062 NA
ATOM      7  C   UNL     1      43.182 135.717  16.520  1.00  0.00     0.097 A 
ATOM      8  N   UNL     1      42.977 137.910  16.336  1.00  0.00    -0.135 NA
ATOM      9  C   UNL     1      43.562 136.932  17.057  1.00  0.00     0.088 A 
ATOM     10  C   UNL     1      44.474 137.171  18.216  1.00  0.00     0.071 C 
BRANCH   7  11
ATOM     11  C   UNL     1      43.735 134.380  16.835  1.00  0.00     0.011 A 
ATOM     12  C   UNL     1      44.628 133.823  15.919  1.00  0.00     0.019 A 
ATOM     13  C   UNL     1      43.368 133.656  17.992  1.00  0.00    -0.008 A 
ATOM     14  C   UNL     1      45.180 132.559  16.126  1.00  0.00    -0.017 A 
ATOM     15  C   UNL     1      42.425 134.182  18.902  1.00  0.00     0.009 A 
ATOM     16  C   UNL     1      43.929 132.364  18.232  1.00  0.00    -0.010 A 
ATOM     17  C   UNL     1      46.067 132.036  15.171  1.00  0.00     0.009 A 
ATOM     18  C   UNL     1      44.843 131.807  17.284  1.00  0.00    -0.010 A 
ATOM     19  C   UNL     1      42.063 133.475  20.043  1.00  0.00     0.001 A 
ATOM     20  C   UNL     1      43.541 131.675  19.410  1.00  0.00     0.009 A 
ATOM     21  C   UNL     1      46.628 130.774  15.345  1.00  0.00     0.001 A 
ATOM     22  C   UNL     1      45.428 130.523  17.431  1.00  0.00     0.009 A 
ATOM     23  C   UNL     1      42.623 132.231  20.299  1.00  0.00     0.001 A 
ATOM     24  C   UNL     1      46.308 130.020  16.470  1.00  0.00     0.001 A 
ENDBRANCH   7  11
ENDBRANCH   4   5
ENDBRANCH   1   4
BRANCH   1  25
ATOM     25  N   UNL     1      39.565 134.515  15.170  1.00  0.00    -0.325 N 
ATOM     26  H   UNL     1      38.921 134.589  14.350  1.00  0.00     0.170 HD
BRANCH  25  27
ATOM     27  C   UNL     1      39.219 135.284  16.329  1.00  0.00     0.045 A 
ATOM     28  C   UNL     1      39.132 136.677  16.225  1.00  0.00     0.026 A 
ATOM     29  C   UNL     1      38.987 134.649  17.574  1.00  0.00    -0.010 A 
ATOM     30  C   UNL     1      38.810 137.449  17.341  1.00  0.00     0.004 A 
ATOM     31  C   UNL     1      38.687 135.448  18.706  1.00  0.00     0.057 A 
ATOM     32  C   UNL     1      38.589 136.840  18.575  1.00  0.00     0.020 A 
ATOM     33  C   UNL     1      39.130 133.148  17.692  1.00  0.00     0.048 C 
BRANCH  31  34
ATOM     34  C   UNL     1      38.488 134.870  20.013  1.00  0.00     0.099 C 
ATOM     35  N   UNL     1      38.329 134.407  21.063  1.00  0.00    -0.192 NA
ENDBRANCH  31  34
ENDBRANCH  25  27
ENDBRANCH   1  25
TORSDOF 7
ENDMDL
MODEL 9
REMARK VINA RESULT:      -7.6      1.592      2.120
REMARK SMILES Cc1nnn(/C=C(\O)Nc2cccc(C#N)c2C)c1-c1cc2ccccc2c2ccccc12
REMARK SMILES IDX 7 1 8 2 6 4 5 5 4 6 19 7 3 8 2 9 1 10 20 11 21 12 33 13
REMARK SMILES IDX 22 14 32 15 28 16 23 17 27 18 31 19 29 20 24 21 26 22 30 23
REMARK SMILES IDX 25 24 9 25 10 27 11 28 17 29 12 30 14 31 13 32 18 33 15 34
REMARK SMILES IDX 16 35
REMARK H PARENT 8 3 9 26
ROOT
ATOM      1  C   UNL     1      42.451 133.278  14.801  1.00  0.00     0.207 C 
ENDROOT
BRANCH   1   2
ATOM      2  O   UNL     1      41.844 133.220  13.547  1.00  0.00    -0.493 OA
ATOM      3  H   UNL     1      41.443 132.358  13.199  1.00  0.00     0.295 HD
ENDBRANCH   1   2
BRANCH   1   4
ATOM      4  C   UNL     1      42.983 134.433  15.224  1.00  0.00     0.181 C 
BRANCH   4   5
ATOM      5  N   UNL     1      42.165 135.577  15.493  1.00  0.00    -0.214 N 
ATOM      6  N   UNL     1      41.378 136.152  14.598  1.00  0.00    -0.062 NA
ATOM      7  C   UNL     1      42.135 136.315  16.620  1.00  0.00     0.097 A 
ATOM      8  N   UNL     1      40.819 137.242  15.106  1.00  0.00    -0.135 NA
ATOM      9  C   UNL     1      41.288 137.375  16.364  1.00  0.00     0.088 A 
ATOM     10  C   UNL     1      40.939 138.505  17.278  1.00  0.00     0.071 C 
BRANCH   7  11
ATOM     11  C   UNL     1      43.046 136.147  17.776  1.00  0.00     0.011 A 
ATOM     12  C   UNL     1      44.116 137.036  17.885  1.00  0.00     0.019 A 
ATOM     13  C   UNL     1      42.884 135.118  18.732  1.00  0.00    -0.008 A 
ATOM     14  C   UNL     1      45.034 136.936  18.930  1.00  0.00    -0.017 A 
ATOM     15  C   UNL     1      41.837 134.178  18.607  1.00  0.00     0.009 A 
ATOM     16  C   UNL     1      43.804 135.003  19.818  1.00  0.00    -0.010 A 
ATOM     17  C   UNL     1      46.101 137.848  18.991  1.00  0.00     0.009 A 
ATOM     18  C   UNL     1      44.896 135.922  19.916  1.00  0.00    -0.010 A 
ATOM     19  C   UNL     1      41.672 133.166  19.546  1.00  0.00     0.001 A 
ATOM     20  C   UNL     1      43.600 133.962  20.760  1.00  0.00     0.009 A 
ATOM     21  C   UNL     1      47.038 137.769  20.017  1.00  0.00     0.001 A 
ATOM     22  C   UNL     1      45.868 135.866  20.946  1.00  0.00     0.009 A 
ATOM     23  C   UNL     1      42.544 133.062  20.621  1.00  0.00     0.001 A 
ATOM     24  C   UNL     1      46.922 136.781  20.990  1.00  0.00     0.001 A 
ENDBRANCH   7  11
ENDBRANCH   4   5
ENDBRANCH   1   4
BRANCH   1  25
ATOM     25  N   UNL     1      42.497 132.095  15.612  1.00  0.00    -0.325 N 
ATOM     26  H   UNL     1      41.677 131.913  16.234  1.00  0.00     0.170 HD
BRANCH  25  27
ATOM     27  C   UNL     1      43.749 131.526  16.015  1.00  0.00     0.045 A 
ATOM     28  C   UNL     1      44.143 131.621  17.355  1.00  0.00     0.026 A 
ATOM     29  C   UNL     1      44.592 130.891  15.071  1.00  0.00    -0.010 A 
ATOM     30  C   UNL     1      45.362 131.087  17.772  1.00  0.00     0.004 A 
ATOM     31  C   UNL     1      45.840 130.377  15.502  1.00  0.00     0.057 A 
ATOM     32  C   UNL     1      46.207 130.469  16.852  1.00  0.00     0.020 A 
ATOM     33  C   UNL     1      44.184 130.835  13.616  1.00  0.00     0.048 C 
BRANCH  31  34
ATOM     34  C   UNL     1      46.769 129.763  14.583  1.00  0.00     0.099 C 
ATOM     35  N   UNL     1      47.514 129.270  13.847  1.00  0.00    -0.192 NA
ENDBRANCH  31  34
ENDBRANCH  25  27
ENDBRANCH   1  25
TORSDOF 7
ENDMDL


