REMARK SMILES C#CCOC(=O)C[C@@H]1CC[C@H]2C(=O)[N-]c3c(N=[N+]=[N-])cc(Cl)c1c32
REMARK SMILES IDX 5 1 6 2 4 3 3 4 2 5 1 6 7 7 8 8 23 9 9 10 21 11 24 12 10 13
REMARK SMILES IDX 20 14 15 15 11 16 16 17 14 18 12 19 22 20 13 21 17 22 18 23
REMARK SMILES IDX 19 24
REMARK H PARENT
ROOT
ATOM      1  C   UNL     1       0.764  -1.006   1.707  1.00  0.00     0.307 C 
ATOM      2  O   UNL     1       1.047  -2.143   1.240  1.00  0.00    -0.252 OA
ENDROOT
BRANCH   1   3
ATOM      3  O   UNL     1       1.433  -0.509   2.829  1.00  0.00    -0.452 OA
BRANCH   3   4
ATOM      4  C   UNL     1       2.457  -1.238   3.496  1.00  0.00     0.322 C 
BRANCH   4   5
ATOM      5  C   UNL     1       2.963  -0.443   4.615  1.00  0.00    -0.065 C 
ATOM      6  C   UNL     1       3.380   0.212   5.537  1.00  0.00     0.007 C 
ENDBRANCH   4   5
ENDBRANCH   3   4
ENDBRANCH   1   3
BRANCH   1   7
ATOM      7  C   UNL     1      -0.273  -0.162   1.031  1.00  0.00     0.131 C 
BRANCH   7   8
ATOM      8  C   UNL     1       0.310   0.572  -0.197  1.00  0.00     0.032 C 
ATOM      9  C   UNL     1      -0.824   1.181  -1.017  1.00  0.00    -0.023 A 
ATOM     10  C   UNL     1       1.413   1.609   0.240  1.00  0.00     0.010 C 
ATOM     11  C   UNL     1      -1.636   0.424  -1.899  1.00  0.00     0.045 A 
ATOM     12  C   UNL     1      -0.992   2.565  -1.015  1.00  0.00    -0.048 A 
ATOM     13  C   UNL     1       1.333   2.984  -0.458  1.00  0.00     0.015 C 
ATOM     14  C   UNL     1      -2.525   1.079  -2.779  1.00  0.00     0.029 A 
ATOM     15  C   UNL     1      -1.770   3.208  -1.952  1.00  0.00    -0.120 A 
ATOM     16  C   UNL     1      -0.093   3.517  -0.329  1.00  0.00     0.066 C 
ATOM     17  C   UNL     1      -2.571   2.490  -2.840  1.00  0.00     0.025 A 
ATOM     18  N   UNL     1      -1.459   4.591  -2.051  1.00  0.00    -0.626 NA
ATOM     19  C   UNL     1      -0.397   4.758  -1.111  1.00  0.00     0.062 C 
ATOM     20  Cl  UNL     1      -1.506  -1.328  -2.003  1.00  0.00    -0.084 Cl
ATOM     21  O   UNL     1       0.186   5.860  -0.937  1.00  0.00    -0.320 OA
BRANCH  17  22
ATOM     22  N   UNL     1      -3.363   3.190  -3.808  1.00  0.00    -0.062 NA
BRANCH  22  23
ATOM     23  N   UNL     1      -4.072   2.601  -4.625  1.00  0.00     0.005 N 
ATOM     24  N   UNL     1      -4.781   2.014  -5.441  1.00  0.00    -0.003 NA
ENDBRANCH  22  23
ENDBRANCH  17  22
ENDBRANCH   7   8
ENDBRANCH   1   7
TORSDOF 7


