MODEL 1
REMARK VINA RESULT:      -7.8      0.000      0.000
REMARK SMILES C#CCO/C([O-])=C\[C@@H]1CC[C@@H]2C(OC(=O)[C@H](C)C(F)(F)F)=Nc3c(N=[N+]=[N-])cc(Cl)c1c32
REMARK SMILES IDX 8 1 31 2 29 3 30 4 28 5 24 6 23 7 32 8 11 9 12 10 22 11
REMARK SMILES IDX 10 12 9 13 7 14 5 15 6 16 4 17 3 18 2 19 1 20 25 21 26 22
REMARK SMILES IDX 27 23 13 24 14 25 15 26 16 27 17 28 18 29 19 30 20 31 21 32
REMARK H PARENT
ROOT
ATOM      1  C   UNL     1      43.124 135.041  16.585  1.00  0.00     0.045 C 
ATOM      2  C   UNL     1      43.645 134.314  17.824  1.00  0.00    -0.016 A 
ATOM      3  C   UNL     1      43.244 134.637  19.146  1.00  0.00     0.045 A 
ATOM      4  Cl  UNL     1      42.445 136.159  19.519  1.00  0.00    -0.084 Cl
ATOM      5  C   UNL     1      43.439 133.701  20.189  1.00  0.00     0.033 A 
ATOM      6  C   UNL     1      44.001 132.432  19.919  1.00  0.00     0.065 A 
ATOM      7  C   UNL     1      44.469 132.192  18.627  1.00  0.00     0.081 A 
ATOM      8  C   UNL     1      44.384 133.147  17.655  1.00  0.00    -0.004 A 
ATOM      9  C   UNL     1      44.846 132.573  16.377  1.00  0.00     0.109 C 
ATOM     10  C   UNL     1      44.976 131.131  16.791  1.00  0.00     0.206 C 
ATOM     11  N   UNL     1      44.818 130.934  18.069  1.00  0.00    -0.216 NA
ATOM     12  C   UNL     1      43.830 132.885  15.281  1.00  0.00     0.019 C 
ATOM     13  C   UNL     1      43.602 134.413  15.233  1.00  0.00     0.014 C 
ENDROOT
BRANCH   1  14
ATOM     14  C   UNL     1      41.611 135.176  16.588  1.00  0.00     0.005 C 
BRANCH  14  15
ATOM     15  C   UNL     1      40.778 134.458  15.827  1.00  0.00     0.049 C 
ATOM     16  O   UNL     1      40.693 134.737  14.465  1.00  0.00    -0.547 OA
BRANCH  15  17
ATOM     17  O   UNL     1      39.986 133.450  16.381  1.00  0.00    -0.601 OA
BRANCH  17  18
ATOM     18  C   UNL     1      38.726 133.706  16.983  1.00  0.00     0.160 C 
BRANCH  18  19
ATOM     19  C   UNL     1      37.838 134.319  15.996  1.00  0.00    -0.095 C 
ATOM     20  C   UNL     1      37.106 134.821  15.180  1.00  0.00     0.005 C 
ENDBRANCH  18  19
ENDBRANCH  17  18
ENDBRANCH  15  17
ENDBRANCH  14  15
ENDBRANCH   1  14
BRANCH   6  21
ATOM     21  N   UNL     1      44.078 131.397  20.909  1.00  0.00    -0.058 NA
BRANCH  21  22
ATOM     22  N   UNL     1      44.401 131.629  22.074  1.00  0.00     0.005 N 
ATOM     23  N   UNL     1      44.725 131.860  23.238  1.00  0.00    -0.003 NA
ENDBRANCH  21  22
ENDBRANCH   6  21
BRANCH  10  24
ATOM     24  O   UNL     1      45.275 130.109  15.883  1.00  0.00    -0.410 OA
BRANCH  24  25
ATOM     25  C   UNL     1      46.552 129.830  15.376  1.00  0.00     0.324 C 
ATOM     26  O   UNL     1      47.564 129.827  16.126  1.00  0.00    -0.251 OA
BRANCH  25  27
ATOM     27  C   UNL     1      46.712 129.502  13.916  1.00  0.00     0.201 C 
ATOM     28  C   UNL     1      48.168 129.126  13.614  1.00  0.00     0.030 C 
BRANCH  27  29
ATOM     29  C   UNL     1      46.235 130.674  13.043  1.00  0.00     0.401 C 
ATOM     30  F   UNL     1      46.787 130.575  11.777  1.00  0.00    -0.170 F 
ATOM     31  F   UNL     1      44.857 130.642  12.923  1.00  0.00    -0.170 F 
ATOM     32  F   UNL     1      46.608 131.886  13.600  1.00  0.00    -0.170 F 
ENDBRANCH  27  29
ENDBRANCH  25  27
ENDBRANCH  24  25
ENDBRANCH  10  24
TORSDOF 11
ENDMDL
MODEL 2
REMARK VINA RESULT:      -7.4      0.941      1.301
REMARK SMILES C#CCO/C([O-])=C\[C@@H]1CC[C@@H]2C(OC(=O)[C@H](C)C(F)(F)F)=Nc3c(N=[N+]=[N-])cc(Cl)c1c32
REMARK SMILES IDX 8 1 31 2 29 3 30 4 28 5 24 6 23 7 32 8 11 9 12 10 22 11
REMARK SMILES IDX 10 12 9 13 7 14 5 15 6 16 4 17 3 18 2 19 1 20 25 21 26 22
REMARK SMILES IDX 27 23 13 24 14 25 15 26 16 27 17 28 18 29 19 30 20 31 21 32
REMARK H PARENT
ROOT
ATOM      1  C   UNL     1      43.362 135.562  17.064  1.00  0.00     0.045 C 
ATOM      2  C   UNL     1      43.725 134.715  18.283  1.00  0.00    -0.016 A 
ATOM      3  C   UNL     1      43.318 135.031  19.604  1.00  0.00     0.045 A 
ATOM      4  Cl  UNL     1      42.722 136.633  20.024  1.00  0.00    -0.084 Cl
ATOM      5  C   UNL     1      43.337 134.033  20.605  1.00  0.00     0.033 A 
ATOM      6  C   UNL     1      43.730 132.710  20.293  1.00  0.00     0.065 A 
ATOM      7  C   UNL     1      44.214 132.465  19.008  1.00  0.00     0.081 A 
ATOM      8  C   UNL     1      44.303 133.465  18.082  1.00  0.00    -0.004 A 
ATOM      9  C   UNL     1      44.735 132.889  16.795  1.00  0.00     0.109 C 
ATOM     10  C   UNL     1      44.647 131.427  17.140  1.00  0.00     0.206 C 
ATOM     11  N   UNL     1      44.409 131.197  18.401  1.00  0.00    -0.216 NA
ATOM     12  C   UNL     1      43.818 133.388  15.680  1.00  0.00     0.019 C 
ATOM     13  C   UNL     1      43.806 134.934  15.700  1.00  0.00     0.014 C 
ENDROOT
BRANCH   1  14
ATOM     14  C   UNL     1      41.884 135.907  17.020  1.00  0.00     0.005 C 
BRANCH  14  15
ATOM     15  C   UNL     1      40.891 135.012  16.975  1.00  0.00     0.049 C 
ATOM     16  O   UNL     1      40.453 134.427  18.161  1.00  0.00    -0.547 OA
BRANCH  15  17
ATOM     17  O   UNL     1      40.303 134.650  15.762  1.00  0.00    -0.601 OA
BRANCH  17  18
ATOM     18  C   UNL     1      39.048 133.990  15.684  1.00  0.00     0.160 C 
BRANCH  18  19
ATOM     19  C   UNL     1      38.509 134.143  14.333  1.00  0.00    -0.095 C 
ATOM     20  C   UNL     1      38.068 134.272  13.218  1.00  0.00     0.005 C 
ENDBRANCH  18  19
ENDBRANCH  17  18
ENDBRANCH  15  17
ENDBRANCH  14  15
ENDBRANCH   1  14
BRANCH   6  21
ATOM     21  N   UNL     1      43.621 131.632  21.232  1.00  0.00    -0.058 NA
BRANCH  21  22
ATOM     22  N   UNL     1      44.590 131.224  21.874  1.00  0.00     0.005 N 
ATOM     23  N   UNL     1      45.557 130.817  22.514  1.00  0.00    -0.003 NA
ENDBRANCH  21  22
ENDBRANCH   6  21
BRANCH  10  24
ATOM     24  O   UNL     1      44.839 130.414  16.193  1.00  0.00    -0.410 OA
BRANCH  24  25
ATOM     25  C   UNL     1      46.087 129.957  15.746  1.00  0.00     0.324 C 
ATOM     26  O   UNL     1      47.070 129.872  16.531  1.00  0.00    -0.251 OA
BRANCH  25  27
ATOM     27  C   UNL     1      46.248 129.534  14.311  1.00  0.00     0.201 C 
ATOM     28  C   UNL     1      47.694 129.099  14.045  1.00  0.00     0.030 C 
BRANCH  27  29
ATOM     29  C   UNL     1      45.811 130.663  13.362  1.00  0.00     0.401 C 
ATOM     30  F   UNL     1      44.439 130.625  13.185  1.00  0.00    -0.170 F 
ATOM     31  F   UNL     1      46.148 131.890  13.906  1.00  0.00    -0.170 F 
ATOM     32  F   UNL     1      46.427 130.535  12.129  1.00  0.00    -0.170 F 
ENDBRANCH  27  29
ENDBRANCH  25  27
ENDBRANCH  24  25
ENDBRANCH  10  24
TORSDOF 11
ENDMDL
MODEL 3
REMARK VINA RESULT:      -7.4      1.610      1.930
REMARK SMILES C#CCO/C([O-])=C\[C@@H]1CC[C@@H]2C(OC(=O)[C@H](C)C(F)(F)F)=Nc3c(N=[N+]=[N-])cc(Cl)c1c32
REMARK SMILES IDX 8 1 31 2 29 3 30 4 28 5 24 6 23 7 32 8 11 9 12 10 22 11
REMARK SMILES IDX 10 12 9 13 7 14 5 15 6 16 4 17 3 18 2 19 1 20 25 21 26 22
REMARK SMILES IDX 27 23 13 24 14 25 15 26 16 27 17 28 18 29 19 30 20 31 21 32
REMARK H PARENT
ROOT
ATOM      1  C   UNL     1      41.651 134.310  15.736  1.00  0.00     0.045 C 
ATOM      2  C   UNL     1      42.596 134.144  16.925  1.00  0.00    -0.016 A 
ATOM      3  C   UNL     1      42.360 134.723  18.198  1.00  0.00     0.045 A 
ATOM      4  Cl  UNL     1      41.191 136.021  18.415  1.00  0.00    -0.084 Cl
ATOM      5  C   UNL     1      43.035 134.223  19.336  1.00  0.00     0.033 A 
ATOM      6  C   UNL     1      43.920 133.126  19.220  1.00  0.00     0.065 A 
ATOM      7  C   UNL     1      44.197 132.649  17.939  1.00  0.00     0.081 A 
ATOM      8  C   UNL     1      43.632 133.218  16.834  1.00  0.00    -0.004 A 
ATOM      9  C   UNL     1      44.014 132.437  15.643  1.00  0.00     0.109 C 
ATOM     10  C   UNL     1      44.679 131.269  16.322  1.00  0.00     0.206 C 
ATOM     11  N   UNL     1      44.829 131.422  17.607  1.00  0.00    -0.216 NA
ATOM     12  C   UNL     1      42.770 132.132  14.812  1.00  0.00     0.019 C 
ATOM     13  C   UNL     1      42.053 133.462  14.482  1.00  0.00     0.014 C 
ENDROOT
BRANCH   1  14
ATOM     14  C   UNL     1      40.204 134.035  16.105  1.00  0.00     0.005 C 
BRANCH  14  15
ATOM     15  C   UNL     1      39.149 134.674  15.588  1.00  0.00     0.049 C 
ATOM     16  O   UNL     1      37.867 134.242  15.918  1.00  0.00    -0.547 OA
BRANCH  15  17
ATOM     17  O   UNL     1      39.316 135.752  14.717  1.00  0.00    -0.601 OA
BRANCH  17  18
ATOM     18  C   UNL     1      38.245 136.310  13.970  1.00  0.00     0.160 C 
BRANCH  18  19
ATOM     19  C   UNL     1      38.702 137.538  13.320  1.00  0.00    -0.095 C 
ATOM     20  C   UNL     1      39.082 138.548  12.782  1.00  0.00     0.005 C 
ENDBRANCH  18  19
ENDBRANCH  17  18
ENDBRANCH  15  17
ENDBRANCH  14  15
ENDBRANCH   1  14
BRANCH   6  21
ATOM     21  N   UNL     1      44.508 132.487  20.361  1.00  0.00    -0.058 NA
BRANCH  21  22
ATOM     22  N   UNL     1      45.454 132.984  20.974  1.00  0.00     0.005 N 
ATOM     23  N   UNL     1      46.399 133.479  21.585  1.00  0.00    -0.003 NA
ENDBRANCH  21  22
ENDBRANCH   6  21
BRANCH  10  24
ATOM     24  O   UNL     1      45.123 130.142  15.621  1.00  0.00    -0.410 OA
BRANCH  24  25
ATOM     25  C   UNL     1      46.449 129.907  15.231  1.00  0.00     0.324 C 
ATOM     26  O   UNL     1      47.394 129.971  16.063  1.00  0.00    -0.251 OA
BRANCH  25  27
ATOM     27  C   UNL     1      46.746 129.545  13.801  1.00  0.00     0.201 C 
ATOM     28  C   UNL     1      48.234 129.212  13.636  1.00  0.00     0.030 C 
BRANCH  27  29
ATOM     29  C   UNL     1      46.310 130.677  12.855  1.00  0.00     0.401 C 
ATOM     30  F   UNL     1      46.922 130.524  11.623  1.00  0.00    -0.170 F 
ATOM     31  F   UNL     1      44.939 130.635  12.672  1.00  0.00    -0.170 F 
ATOM     32  F   UNL     1      46.654 131.913  13.376  1.00  0.00    -0.170 F 
ENDBRANCH  27  29
ENDBRANCH  25  27
ENDBRANCH  24  25
ENDBRANCH  10  24
TORSDOF 11
ENDMDL
MODEL 4
REMARK VINA RESULT:      -7.3      1.073      1.292
REMARK SMILES C#CCO/C([O-])=C\[C@@H]1CC[C@@H]2C(OC(=O)[C@H](C)C(F)(F)F)=Nc3c(N=[N+]=[N-])cc(Cl)c1c32
REMARK SMILES IDX 8 1 31 2 29 3 30 4 28 5 24 6 23 7 32 8 11 9 12 10 22 11
REMARK SMILES IDX 10 12 9 13 7 14 5 15 6 16 4 17 3 18 2 19 1 20 25 21 26 22
REMARK SMILES IDX 27 23 13 24 14 25 15 26 16 27 17 28 18 29 19 30 20 31 21 32
REMARK H PARENT
ROOT
ATOM      1  C   UNL     1      42.870 135.212  16.350  1.00  0.00     0.045 C 
ATOM      2  C   UNL     1      43.473 134.601  17.614  1.00  0.00    -0.016 A 
ATOM      3  C   UNL     1      43.137 135.026  18.924  1.00  0.00     0.045 A 
ATOM      4  Cl  UNL     1      42.326 136.560  19.214  1.00  0.00    -0.084 Cl
ATOM      5  C   UNL     1      43.408 134.185  20.029  1.00  0.00     0.033 A 
ATOM      6  C   UNL     1      43.984 132.908  19.835  1.00  0.00     0.065 A 
ATOM      7  C   UNL     1      44.386 132.568  18.543  1.00  0.00     0.081 A 
ATOM      8  C   UNL     1      44.228 133.437  17.501  1.00  0.00    -0.004 A 
ATOM      9  C   UNL     1      44.633 132.766  16.252  1.00  0.00     0.109 C 
ATOM     10  C   UNL     1      44.817 131.367  16.776  1.00  0.00     0.206 C 
ATOM     11  N   UNL     1      44.733 131.275  18.073  1.00  0.00    -0.216 NA
ATOM     12  C   UNL     1      43.553 132.967  15.192  1.00  0.00     0.019 C 
ATOM     13  C   UNL     1      43.289 134.481  15.029  1.00  0.00     0.014 C 
ENDROOT
BRANCH   1  14
ATOM     14  C   UNL     1      41.358 135.320  16.425  1.00  0.00     0.005 C 
BRANCH  14  15
ATOM     15  C   UNL     1      40.657 136.431  16.169  1.00  0.00     0.049 C 
ATOM     16  O   UNL     1      41.154 137.347  15.245  1.00  0.00    -0.547 OA
BRANCH  15  17
ATOM     17  O   UNL     1      39.450 136.687  16.823  1.00  0.00    -0.601 OA
BRANCH  17  18
ATOM     18  C   UNL     1      38.858 135.768  17.729  1.00  0.00     0.160 C 
BRANCH  18  19
ATOM     19  C   UNL     1      37.501 135.458  17.279  1.00  0.00    -0.095 C 
ATOM     20  C   UNL     1      36.382 135.201  16.912  1.00  0.00     0.005 C 
ENDBRANCH  18  19
ENDBRANCH  17  18
ENDBRANCH  15  17
ENDBRANCH  14  15
ENDBRANCH   1  14
BRANCH   6  21
ATOM     21  N   UNL     1      44.137 131.961  20.901  1.00  0.00    -0.058 NA
BRANCH  21  22
ATOM     22  N   UNL     1      44.546 132.291  22.015  1.00  0.00     0.005 N 
ATOM     23  N   UNL     1      44.956 132.620  23.126  1.00  0.00    -0.003 NA
ENDBRANCH  21  22
ENDBRANCH   6  21
BRANCH  10  24
ATOM     24  O   UNL     1      45.089 130.277  15.940  1.00  0.00    -0.410 OA
BRANCH  24  25
ATOM     25  C   UNL     1      46.366 129.893  15.508  1.00  0.00     0.324 C 
ATOM     26  O   UNL     1      47.334 129.824  16.314  1.00  0.00    -0.251 OA
BRANCH  25  27
ATOM     27  C   UNL     1      46.580 129.529  14.064  1.00  0.00     0.201 C 
ATOM     28  C   UNL     1      48.053 129.184  13.816  1.00  0.00     0.030 C 
BRANCH  27  29
ATOM     29  C   UNL     1      46.101 130.665  13.144  1.00  0.00     0.401 C 
ATOM     30  F   UNL     1      44.723 130.624  13.022  1.00  0.00    -0.170 F 
ATOM     31  F   UNL     1      46.455 131.889  13.685  1.00  0.00    -0.170 F 
ATOM     32  F   UNL     1      46.667 130.551  11.886  1.00  0.00    -0.170 F 
ENDBRANCH  27  29
ENDBRANCH  25  27
ENDBRANCH  24  25
ENDBRANCH  10  24
TORSDOF 11
ENDMDL
MODEL 5
REMARK VINA RESULT:      -7.2      1.703      2.276
REMARK SMILES C#CCO/C([O-])=C\[C@@H]1CC[C@@H]2C(OC(=O)[C@H](C)C(F)(F)F)=Nc3c(N=[N+]=[N-])cc(Cl)c1c32
REMARK SMILES IDX 8 1 31 2 29 3 30 4 28 5 24 6 23 7 32 8 11 9 12 10 22 11
REMARK SMILES IDX 10 12 9 13 7 14 5 15 6 16 4 17 3 18 2 19 1 20 25 21 26 22
REMARK SMILES IDX 27 23 13 24 14 25 15 26 16 27 17 28 18 29 19 30 20 31 21 32
REMARK H PARENT
ROOT
ATOM      1  C   UNL     1      41.331 134.594  16.311  1.00  0.00     0.045 C 
ATOM      2  C   UNL     1      42.166 134.045  17.467  1.00  0.00    -0.016 A 
ATOM      3  C   UNL     1      41.651 133.836  18.772  1.00  0.00     0.045 A 
ATOM      4  Cl  UNL     1      40.142 134.574  19.294  1.00  0.00    -0.084 Cl
ATOM      5  C   UNL     1      42.330 132.977  19.667  1.00  0.00     0.033 A 
ATOM      6  C   UNL     1      43.502 132.298  19.261  1.00  0.00     0.065 A 
ATOM      7  C   UNL     1      44.027 132.605  18.005  1.00  0.00     0.081 A 
ATOM      8  C   UNL     1      43.428 133.526  17.194  1.00  0.00    -0.004 A 
ATOM      9  C   UNL     1      44.133 133.555  15.899  1.00  0.00     0.109 C 
ATOM     10  C   UNL     1      45.039 132.368  16.089  1.00  0.00     0.206 C 
ATOM     11  N   UNL     1      45.015 131.875  17.295  1.00  0.00    -0.216 NA
ATOM     12  C   UNL     1      43.116 133.468  14.764  1.00  0.00     0.019 C 
ATOM     13  C   UNL     1      42.079 134.602  14.935  1.00  0.00     0.014 C 
ENDROOT
BRANCH   1  14
ATOM     14  C   UNL     1      39.997 133.882  16.171  1.00  0.00     0.005 C 
BRANCH  14  15
ATOM     15  C   UNL     1      38.849 134.471  15.818  1.00  0.00     0.049 C 
ATOM     16  O   UNL     1      37.807 134.532  16.741  1.00  0.00    -0.547 OA
BRANCH  15  17
ATOM     17  O   UNL     1      38.679 135.009  14.541  1.00  0.00    -0.601 OA
BRANCH  17  18
ATOM     18  C   UNL     1      38.145 136.305  14.317  1.00  0.00     0.160 C 
BRANCH  18  19
ATOM     19  C   UNL     1      39.036 137.300  14.914  1.00  0.00    -0.095 C 
ATOM     20  C   UNL     1      39.774 138.120  15.402  1.00  0.00     0.005 C 
ENDBRANCH  18  19
ENDBRANCH  17  18
ENDBRANCH  15  17
ENDBRANCH  14  15
ENDBRANCH   1  14
BRANCH   6  21
ATOM     21  N   UNL     1      44.138 131.304  20.075  1.00  0.00    -0.058 NA
BRANCH  21  22
ATOM     22  N   UNL     1      45.278 131.452  20.518  1.00  0.00     0.005 N 
ATOM     23  N   UNL     1      46.415 131.598  20.962  1.00  0.00    -0.003 NA
ENDBRANCH  21  22
ENDBRANCH   6  21
BRANCH  10  24
ATOM     24  O   UNL     1      45.856 131.870  15.067  1.00  0.00    -0.410 OA
BRANCH  24  25
ATOM     25  C   UNL     1      45.548 130.772  14.253  1.00  0.00     0.324 C 
ATOM     26  O   UNL     1      44.369 130.566  13.855  1.00  0.00    -0.251 OA
BRANCH  25  27
ATOM     27  C   UNL     1      46.647 129.837  13.825  1.00  0.00     0.201 C 
ATOM     28  C   UNL     1      47.655 129.647  14.965  1.00  0.00     0.030 C 
BRANCH  27  29
ATOM     29  C   UNL     1      47.327 130.354  12.546  1.00  0.00     0.401 C 
ATOM     30  F   UNL     1      46.370 130.781  11.642  1.00  0.00    -0.170 F 
ATOM     31  F   UNL     1      48.151 131.424  12.850  1.00  0.00    -0.170 F 
ATOM     32  F   UNL     1      48.088 129.357  11.956  1.00  0.00    -0.170 F 
ENDBRANCH  27  29
ENDBRANCH  25  27
ENDBRANCH  24  25
ENDBRANCH  10  24
TORSDOF 11
ENDMDL
MODEL 6
REMARK VINA RESULT:      -7.2      1.208      1.558
REMARK SMILES C#CCO/C([O-])=C\[C@@H]1CC[C@@H]2C(OC(=O)[C@H](C)C(F)(F)F)=Nc3c(N=[N+]=[N-])cc(Cl)c1c32
REMARK SMILES IDX 8 1 31 2 29 3 30 4 28 5 24 6 23 7 32 8 11 9 12 10 22 11
REMARK SMILES IDX 10 12 9 13 7 14 5 15 6 16 4 17 3 18 2 19 1 20 25 21 26 22
REMARK SMILES IDX 27 23 13 24 14 25 15 26 16 27 17 28 18 29 19 30 20 31 21 32
REMARK H PARENT
ROOT
ATOM      1  C   UNL     1      42.587 135.330  16.881  1.00  0.00     0.045 C 
ATOM      2  C   UNL     1      42.716 134.470  18.137  1.00  0.00    -0.016 A 
ATOM      3  C   UNL     1      41.759 134.465  19.183  1.00  0.00     0.045 A 
ATOM      4  Cl  UNL     1      40.558 135.742  19.337  1.00  0.00    -0.084 Cl
ATOM      5  C   UNL     1      41.724 133.390  20.101  1.00  0.00     0.033 A 
ATOM      6  C   UNL     1      42.616 132.301  19.965  1.00  0.00     0.065 A 
ATOM      7  C   UNL     1      43.603 132.390  18.984  1.00  0.00     0.081 A 
ATOM      8  C   UNL     1      43.703 133.489  18.178  1.00  0.00    -0.004 A 
ATOM      9  C   UNL     1      44.754 133.252  17.171  1.00  0.00     0.109 C 
ATOM     10  C   UNL     1      45.026 131.796  17.443  1.00  0.00     0.206 C 
ATOM     11  N   UNL     1      44.419 131.335  18.499  1.00  0.00    -0.216 NA
ATOM     12  C   UNL     1      44.219 133.604  15.785  1.00  0.00     0.019 C 
ATOM     13  C   UNL     1      43.694 135.057  15.807  1.00  0.00     0.014 C 
ENDROOT
BRANCH   1  14
ATOM     14  C   UNL     1      41.211 135.222  16.246  1.00  0.00     0.005 C 
BRANCH  14  15
ATOM     15  C   UNL     1      40.704 134.108  15.705  1.00  0.00     0.049 C 
ATOM     16  O   UNL     1      41.213 133.652  14.491  1.00  0.00    -0.547 OA
BRANCH  15  17
ATOM     17  O   UNL     1      39.668 133.412  16.331  1.00  0.00    -0.601 OA
BRANCH  17  18
ATOM     18  C   UNL     1      38.500 134.052  16.823  1.00  0.00     0.160 C 
BRANCH  18  19
ATOM     19  C   UNL     1      37.676 134.481  15.694  1.00  0.00    -0.095 C 
ATOM     20  C   UNL     1      36.999 134.836  14.761  1.00  0.00     0.005 C 
ENDBRANCH  18  19
ENDBRANCH  17  18
ENDBRANCH  15  17
ENDBRANCH  14  15
ENDBRANCH   1  14
BRANCH   6  21
ATOM     21  N   UNL     1      42.520 131.121  20.774  1.00  0.00    -0.058 NA
BRANCH  21  22
ATOM     22  N   UNL     1      42.838 131.115  21.964  1.00  0.00     0.005 N 
ATOM     23  N   UNL     1      43.153 131.109  23.152  1.00  0.00    -0.003 NA
ENDBRANCH  21  22
ENDBRANCH   6  21
BRANCH  10  24
ATOM     24  O   UNL     1      45.885 131.028  16.648  1.00  0.00    -0.410 OA
BRANCH  24  25
ATOM     25  C   UNL     1      45.495 130.290  15.522  1.00  0.00     0.324 C 
ATOM     26  O   UNL     1      45.113 129.093  15.626  1.00  0.00    -0.251 OA
BRANCH  25  27
ATOM     27  C   UNL     1      45.504 130.948  14.168  1.00  0.00     0.201 C 
ATOM     28  C   UNL     1      44.181 130.681  13.439  1.00  0.00     0.030 C 
BRANCH  27  29
ATOM     29  C   UNL     1      46.712 130.470  13.344  1.00  0.00     0.401 C 
ATOM     30  F   UNL     1      47.853 131.143  13.746  1.00  0.00    -0.170 F 
ATOM     31  F   UNL     1      46.911 129.115  13.543  1.00  0.00    -0.170 F 
ATOM     32  F   UNL     1      46.508 130.699  11.993  1.00  0.00    -0.170 F 
ENDBRANCH  27  29
ENDBRANCH  25  27
ENDBRANCH  24  25
ENDBRANCH  10  24
TORSDOF 11
ENDMDL
MODEL 7
REMARK VINA RESULT:      -7.2      3.391      5.499
REMARK SMILES C#CCO/C([O-])=C\[C@@H]1CC[C@@H]2C(OC(=O)[C@H](C)C(F)(F)F)=Nc3c(N=[N+]=[N-])cc(Cl)c1c32
REMARK SMILES IDX 8 1 31 2 29 3 30 4 28 5 24 6 23 7 32 8 11 9 12 10 22 11
REMARK SMILES IDX 10 12 9 13 7 14 5 15 6 16 4 17 3 18 2 19 1 20 25 21 26 22
REMARK SMILES IDX 27 23 13 24 14 25 15 26 16 27 17 28 18 29 19 30 20 31 21 32
REMARK H PARENT
ROOT
ATOM      1  C   UNL     1      42.447 132.774  19.486  1.00  0.00     0.045 C 
ATOM      2  C   UNL     1      41.692 133.162  18.215  1.00  0.00    -0.016 A 
ATOM      3  C   UNL     1      40.604 134.070  18.198  1.00  0.00     0.045 A 
ATOM      4  Cl  UNL     1      39.751 134.511  19.672  1.00  0.00    -0.084 Cl
ATOM      5  C   UNL     1      40.217 134.683  16.983  1.00  0.00     0.033 A 
ATOM      6  C   UNL     1      40.928 134.422  15.789  1.00  0.00     0.065 A 
ATOM      7  C   UNL     1      41.928 133.451  15.829  1.00  0.00     0.081 A 
ATOM      8  C   UNL     1      42.215 132.778  16.983  1.00  0.00    -0.004 A 
ATOM      9  C   UNL     1      43.383 131.907  16.753  1.00  0.00     0.109 C 
ATOM     10  C   UNL     1      43.780 132.391  15.383  1.00  0.00     0.206 C 
ATOM     11  N   UNL     1      42.926 133.216  14.848  1.00  0.00    -0.216 NA
ATOM     12  C   UNL     1      44.398 132.110  17.875  1.00  0.00     0.019 C 
ATOM     13  C   UNL     1      43.697 131.867  19.231  1.00  0.00     0.014 C 
ENDROOT
BRANCH   1  14
ATOM     14  C   UNL     1      42.843 133.984  20.314  1.00  0.00     0.005 C 
BRANCH  14  15
ATOM     15  C   UNL     1      43.854 134.811  20.023  1.00  0.00     0.049 C 
ATOM     16  O   UNL     1      43.714 135.706  18.965  1.00  0.00    -0.547 OA
BRANCH  15  17
ATOM     17  O   UNL     1      45.044 134.778  20.753  1.00  0.00    -0.601 OA
BRANCH  17  18
ATOM     18  C   UNL     1      45.303 133.806  21.756  1.00  0.00     0.160 C 
BRANCH  18  19
ATOM     19  C   UNL     1      45.020 134.384  23.069  1.00  0.00    -0.095 C 
ATOM     20  C   UNL     1      44.787 134.857  24.153  1.00  0.00     0.005 C 
ENDBRANCH  18  19
ENDBRANCH  17  18
ENDBRANCH  15  17
ENDBRANCH  14  15
ENDBRANCH   1  14
BRANCH   6  21
ATOM     21  N   UNL     1      40.671 135.131  14.569  1.00  0.00    -0.058 NA
BRANCH  21  22
ATOM     22  N   UNL     1      39.730 134.841  13.829  1.00  0.00     0.005 N 
ATOM     23  N   UNL     1      38.792 134.552  13.089  1.00  0.00    -0.003 NA
ENDBRANCH  21  22
ENDBRANCH   6  21
BRANCH  10  24
ATOM     24  O   UNL     1      44.946 131.960  14.739  1.00  0.00    -0.410 OA
BRANCH  24  25
ATOM     25  C   UNL     1      45.060 130.784  13.984  1.00  0.00     0.324 C 
ATOM     26  O   UNL     1      44.112 130.381  13.257  1.00  0.00    -0.251 OA
BRANCH  25  27
ATOM     27  C   UNL     1      46.347 130.004  14.021  1.00  0.00     0.201 C 
ATOM     28  C   UNL     1      46.971 130.077  15.420  1.00  0.00     0.030 C 
BRANCH  27  29
ATOM     29  C   UNL     1      47.316 130.511  12.939  1.00  0.00     0.401 C 
ATOM     30  F   UNL     1      47.847 131.732  13.316  1.00  0.00    -0.170 F 
ATOM     31  F   UNL     1      48.357 129.612  12.782  1.00  0.00    -0.170 F 
ATOM     32  F   UNL     1      46.666 130.659  11.726  1.00  0.00    -0.170 F 
ENDBRANCH  27  29
ENDBRANCH  25  27
ENDBRANCH  24  25
ENDBRANCH  10  24
TORSDOF 11
ENDMDL
MODEL 8
REMARK VINA RESULT:      -7.2      1.052      1.418
REMARK SMILES C#CCO/C([O-])=C\[C@@H]1CC[C@@H]2C(OC(=O)[C@H](C)C(F)(F)F)=Nc3c(N=[N+]=[N-])cc(Cl)c1c32
REMARK SMILES IDX 8 1 31 2 29 3 30 4 28 5 24 6 23 7 32 8 11 9 12 10 22 11
REMARK SMILES IDX 10 12 9 13 7 14 5 15 6 16 4 17 3 18 2 19 1 20 25 21 26 22
REMARK SMILES IDX 27 23 13 24 14 25 15 26 16 27 17 28 18 29 19 30 20 31 21 32
REMARK H PARENT
ROOT
ATOM      1  C   UNL     1      43.684 134.542  16.702  1.00  0.00     0.045 C 
ATOM      2  C   UNL     1      43.962 133.800  18.008  1.00  0.00    -0.016 A 
ATOM      3  C   UNL     1      43.261 134.052  19.214  1.00  0.00     0.045 A 
ATOM      4  Cl  UNL     1      42.308 135.514  19.436  1.00  0.00    -0.084 Cl
ATOM      5  C   UNL     1      43.277 133.091  20.252  1.00  0.00     0.033 A 
ATOM      6  C   UNL     1      43.962 131.865  20.085  1.00  0.00     0.065 A 
ATOM      7  C   UNL     1      44.717 131.698  18.924  1.00  0.00     0.081 A 
ATOM      8  C   UNL     1      44.791 132.682  17.980  1.00  0.00    -0.004 A 
ATOM      9  C   UNL     1      45.558 132.182  16.824  1.00  0.00     0.109 C 
ATOM     10  C   UNL     1      45.681 130.735  17.222  1.00  0.00     0.206 C 
ATOM     11  N   UNL     1      45.258 130.483  18.428  1.00  0.00    -0.216 NA
ATOM     12  C   UNL     1      44.791 132.477  15.537  1.00  0.00     0.019 C 
ATOM     13  C   UNL     1      44.487 133.992  15.475  1.00  0.00     0.014 C 
ENDROOT
BRANCH   1  14
ATOM     14  C   UNL     1      42.203 134.595  16.371  1.00  0.00     0.005 C 
BRANCH  14  15
ATOM     15  C   UNL     1      41.505 133.592  15.827  1.00  0.00     0.049 C 
ATOM     16  O   UNL     1      41.598 133.366  14.456  1.00  0.00    -0.547 OA
BRANCH  15  17
ATOM     17  O   UNL     1      40.678 132.784  16.611  1.00  0.00    -0.601 OA
BRANCH  17  18
ATOM     18  C   UNL     1      40.304 133.126  17.937  1.00  0.00     0.160 C 
BRANCH  18  19
ATOM     19  C   UNL     1      38.905 133.554  17.946  1.00  0.00    -0.095 C 
ATOM     20  C   UNL     1      37.751 133.903  17.956  1.00  0.00     0.005 C 
ENDBRANCH  18  19
ENDBRANCH  17  18
ENDBRANCH  15  17
ENDBRANCH  14  15
ENDBRANCH   1  14
BRANCH   6  21
ATOM     21  N   UNL     1      43.882 130.801  21.042  1.00  0.00    -0.058 NA
BRANCH  21  22
ATOM     22  N   UNL     1      44.601 130.764  22.041  1.00  0.00     0.005 N 
ATOM     23  N   UNL     1      45.318 130.728  23.039  1.00  0.00    -0.003 NA
ENDBRANCH  21  22
ENDBRANCH   6  21
BRANCH  10  24
ATOM     24  O   UNL     1      46.235 129.765  16.379  1.00  0.00    -0.410 OA
BRANCH  24  25
ATOM     25  C   UNL     1      45.763 129.447  15.098  1.00  0.00     0.324 C 
ATOM     26  O   UNL     1      44.540 129.222  14.891  1.00  0.00    -0.251 OA
BRANCH  25  27
ATOM     27  C   UNL     1      46.729 129.400  13.945  1.00  0.00     0.201 C 
ATOM     28  C   UNL     1      48.173 129.396  14.463  1.00  0.00     0.030 C 
BRANCH  27  29
ATOM     29  C   UNL     1      46.476 130.570  12.980  1.00  0.00     0.401 C 
ATOM     30  F   UNL     1      45.118 130.710  12.754  1.00  0.00    -0.170 F 
ATOM     31  F   UNL     1      46.951 131.747  13.532  1.00  0.00    -0.170 F 
ATOM     32  F   UNL     1      47.113 130.356  11.769  1.00  0.00    -0.170 F 
ENDBRANCH  27  29
ENDBRANCH  25  27
ENDBRANCH  24  25
ENDBRANCH  10  24
TORSDOF 11
ENDMDL
MODEL 9
REMARK VINA RESULT:      -7.0      1.170      1.617
REMARK SMILES C#CCO/C([O-])=C\[C@@H]1CC[C@@H]2C(OC(=O)[C@H](C)C(F)(F)F)=Nc3c(N=[N+]=[N-])cc(Cl)c1c32
REMARK SMILES IDX 8 1 31 2 29 3 30 4 28 5 24 6 23 7 32 8 11 9 12 10 22 11
REMARK SMILES IDX 10 12 9 13 7 14 5 15 6 16 4 17 3 18 2 19 1 20 25 21 26 22
REMARK SMILES IDX 27 23 13 24 14 25 15 26 16 27 17 28 18 29 19 30 20 31 21 32
REMARK H PARENT
ROOT
ATOM      1  C   UNL     1      43.237 135.387  17.031  1.00  0.00     0.045 C 
ATOM      2  C   UNL     1      43.667 134.559  18.242  1.00  0.00    -0.016 A 
ATOM      3  C   UNL     1      43.261 134.847  19.569  1.00  0.00     0.045 A 
ATOM      4  Cl  UNL     1      42.579 136.410  20.004  1.00  0.00    -0.084 Cl
ATOM      5  C   UNL     1      43.354 133.848  20.566  1.00  0.00     0.033 A 
ATOM      6  C   UNL     1      43.818 132.552  20.243  1.00  0.00     0.065 A 
ATOM      7  C   UNL     1      44.297 132.339  18.950  1.00  0.00     0.081 A 
ATOM      8  C   UNL     1      44.313 133.345  18.027  1.00  0.00    -0.004 A 
ATOM      9  C   UNL     1      44.758 132.800  16.731  1.00  0.00     0.109 C 
ATOM     10  C   UNL     1      44.761 131.334  17.072  1.00  0.00     0.206 C 
ATOM     11  N   UNL     1      44.556 131.086  18.335  1.00  0.00    -0.216 NA
ATOM     12  C   UNL     1      43.798 133.248  15.632  1.00  0.00     0.019 C 
ATOM     13  C   UNL     1      43.696 134.791  15.658  1.00  0.00     0.014 C 
ENDROOT
BRANCH   1  14
ATOM     14  C   UNL     1      41.741 135.646  17.010  1.00  0.00     0.005 C 
BRANCH  14  15
ATOM     15  C   UNL     1      40.802 134.730  17.275  1.00  0.00     0.049 C 
ATOM     16  O   UNL     1      40.590 133.696  16.367  1.00  0.00    -0.547 OA
BRANCH  15  17
ATOM     17  O   UNL     1      40.029 134.807  18.435  1.00  0.00    -0.601 OA
BRANCH  17  18
ATOM     18  C   UNL     1      38.671 135.224  18.426  1.00  0.00     0.160 C 
BRANCH  18  19
ATOM     19  C   UNL     1      38.021 134.766  19.654  1.00  0.00    -0.095 C 
ATOM     20  C   UNL     1      37.489 134.387  20.667  1.00  0.00     0.005 C 
ENDBRANCH  18  19
ENDBRANCH  17  18
ENDBRANCH  15  17
ENDBRANCH  14  15
ENDBRANCH   1  14
BRANCH   6  21
ATOM     21  N   UNL     1      43.787 131.467  21.179  1.00  0.00    -0.058 NA
BRANCH  21  22
ATOM     22  N   UNL     1      43.651 131.650  22.389  1.00  0.00     0.005 N 
ATOM     23  N   UNL     1      43.514 131.833  23.597  1.00  0.00    -0.003 NA
ENDBRANCH  21  22
ENDBRANCH   6  21
BRANCH  10  24
ATOM     24  O   UNL     1      44.998 130.337  16.118  1.00  0.00    -0.410 OA
BRANCH  24  25
ATOM     25  C   UNL     1      46.264 129.946  15.660  1.00  0.00     0.324 C 
ATOM     26  O   UNL     1      47.248 129.876  16.444  1.00  0.00    -0.251 OA
BRANCH  25  27
ATOM     27  C   UNL     1      46.444 129.579  14.212  1.00  0.00     0.201 C 
ATOM     28  C   UNL     1      47.917 129.258  13.925  1.00  0.00     0.030 C 
BRANCH  27  29
ATOM     29  C   UNL     1      45.920 130.701  13.300  1.00  0.00     0.401 C 
ATOM     30  F   UNL     1      44.544 130.607  13.180  1.00  0.00    -0.170 F 
ATOM     31  F   UNL     1      46.228 131.934  13.847  1.00  0.00    -0.170 F 
ATOM     32  F   UNL     1      46.487 130.616  12.039  1.00  0.00    -0.170 F 
ENDBRANCH  27  29
ENDBRANCH  25  27
ENDBRANCH  24  25
ENDBRANCH  10  24
TORSDOF 11
ENDMDL


