MODEL 1
REMARK VINA RESULT:      -6.1      0.000      0.000
REMARK SMILES C[C@@H](C#N)N(C)CCCCc1cn(-c2cc(N)c3c4c(cccc24)C(=O)[N-]3)nn1
REMARK SMILES IDX 8 1 7 2 5 3 6 4 2 5 1 6 3 7 4 8 9 9 10 10 11 11 12 12 29 13
REMARK SMILES IDX 13 14 28 15 14 16 15 17 24 18 16 19 23 20 19 21 18 22 22 23
REMARK SMILES IDX 20 24 27 25 21 26 25 27 26 28 17 29
REMARK H PARENT 17 30 17 31
ROOT
ATOM      1  C   UNL     1      38.896 134.173  17.029  1.00  0.00     0.016 C 
ENDROOT
BRANCH   1   2
ATOM      2  C   UNL     1      39.144 135.523  16.334  1.00  0.00     0.085 C 
BRANCH   2   3
ATOM      3  N   UNL     1      38.055 135.854  15.385  1.00  0.00    -0.291 NA
ATOM      4  C   UNL     1      37.283 137.018  15.867  1.00  0.00     0.106 C 
BRANCH   3   5
ATOM      5  C   UNL     1      38.553 136.004  13.989  1.00  0.00     0.157 C 
ATOM      6  C   UNL     1      38.919 137.462  13.692  1.00  0.00     0.041 C 
BRANCH   5   7
ATOM      7  C   UNL     1      39.690 135.112  13.682  1.00  0.00     0.081 C 
ATOM      8  N   UNL     1      40.580 134.411  13.439  1.00  0.00    -0.197 NA
ENDBRANCH   5   7
ENDBRANCH   3   5
ENDBRANCH   2   3
ENDBRANCH   1   2
BRANCH   1   9
ATOM      9  C   UNL     1      38.176 134.287  18.388  1.00  0.00     0.008 C 
BRANCH   9  10
ATOM     10  C   UNL     1      39.118 134.462  19.591  1.00  0.00     0.060 C 
BRANCH  10  11
ATOM     11  C   UNL     1      40.558 134.292  19.212  1.00  0.00     0.083 A 
ATOM     12  C   UNL     1      41.185 133.112  18.879  1.00  0.00     0.140 A 
ATOM     13  N   UNL     1      41.462 135.290  19.153  1.00  0.00    -0.135 NA
ATOM     14  N   UNL     1      42.468 133.429  18.637  1.00  0.00    -0.220 N 
ATOM     15  N   UNL     1      42.613 134.737  18.796  1.00  0.00    -0.062 NA
BRANCH  14  16
ATOM     16  C   UNL     1      43.503 132.535  18.193  1.00  0.00     0.076 A 
ATOM     17  C   UNL     1      44.449 132.036  19.137  1.00  0.00     0.053 A 
ATOM     18  C   UNL     1      43.605 132.129  16.835  1.00  0.00     0.007 A 
ATOM     19  C   UNL     1      45.471 131.133  18.752  1.00  0.00     0.019 A 
ATOM     20  C   UNL     1      42.800 132.576  15.760  1.00  0.00     0.011 A 
ATOM     21  C   UNL     1      44.623 131.239  16.518  1.00  0.00    -0.020 A 
ATOM     22  C   UNL     1      45.528 130.744  17.412  1.00  0.00    -0.102 A 
ATOM     23  C   UNL     1      43.045 132.102  14.443  1.00  0.00     0.001 A 
ATOM     24  C   UNL     1      44.874 130.781  15.265  1.00  0.00     0.006 A 
ATOM     25  N   UNL     1      46.476 129.876  16.778  1.00  0.00    -0.620 NA
ATOM     26  C   UNL     1      44.097 131.194  14.185  1.00  0.00     0.011 A 
ATOM     27  C   UNL     1      46.041 129.918  15.408  1.00  0.00     0.086 C 
ATOM     28  O   UNL     1      46.608 129.293  14.474  1.00  0.00    -0.315 OA
BRANCH  19  29
ATOM     29  N   UNL     1      46.414 130.641  19.707  1.00  0.00    -0.400 N 
ATOM     30  H   UNL     1      46.687 131.218  20.534  1.00  0.00     0.156 HD
ATOM     31  H   UNL     1      46.857 129.702  19.588  1.00  0.00     0.156 HD
ENDBRANCH  19  29
ENDBRANCH  14  16
ENDBRANCH  10  11
ENDBRANCH   9  10
ENDBRANCH   1   9
TORSDOF 9
ENDMDL
MODEL 2
REMARK VINA RESULT:      -6.0      1.618      2.052
REMARK SMILES C[C@@H](C#N)N(C)CCCCc1cn(-c2cc(N)c3c4c(cccc24)C(=O)[N-]3)nn1
REMARK SMILES IDX 8 1 7 2 5 3 6 4 2 5 1 6 3 7 4 8 9 9 10 10 11 11 12 12 29 13
REMARK SMILES IDX 13 14 28 15 14 16 15 17 24 18 16 19 23 20 19 21 18 22 22 23
REMARK SMILES IDX 20 24 27 25 21 26 25 27 26 28 17 29
REMARK H PARENT 17 30 17 31
ROOT
ATOM      1  C   UNL     1      38.680 136.953  16.196  1.00  0.00     0.016 C 
ENDROOT
BRANCH   1   2
ATOM      2  C   UNL     1      37.662 136.223  15.302  1.00  0.00     0.085 C 
BRANCH   2   3
ATOM      3  N   UNL     1      37.971 136.409  13.865  1.00  0.00    -0.291 NA
ATOM      4  C   UNL     1      39.189 135.658  13.494  1.00  0.00     0.106 C 
BRANCH   3   5
ATOM      5  C   UNL     1      36.799 136.112  12.995  1.00  0.00     0.157 C 
ATOM      6  C   UNL     1      36.376 137.354  12.204  1.00  0.00     0.041 C 
BRANCH   5   7
ATOM      7  C   UNL     1      37.028 134.972  12.085  1.00  0.00     0.081 C 
ATOM      8  N   UNL     1      37.211 134.077  11.373  1.00  0.00    -0.197 NA
ENDBRANCH   5   7
ENDBRANCH   3   5
ENDBRANCH   2   3
ENDBRANCH   1   2
BRANCH   1   9
ATOM      9  C   UNL     1      39.786 136.041  16.765  1.00  0.00     0.008 C 
BRANCH   9  10
ATOM     10  C   UNL     1      39.284 134.974  17.752  1.00  0.00     0.060 C 
BRANCH  10  11
ATOM     11  C   UNL     1      40.132 133.739  17.729  1.00  0.00     0.083 A 
ATOM     12  C   UNL     1      41.474 133.669  17.430  1.00  0.00     0.140 A 
ATOM     13  N   UNL     1      39.686 132.493  17.993  1.00  0.00    -0.135 NA
ATOM     14  N   UNL     1      41.806 132.369  17.509  1.00  0.00    -0.220 N 
ATOM     15  N   UNL     1      40.727 131.683  17.857  1.00  0.00    -0.062 NA
BRANCH  14  16
ATOM     16  C   UNL     1      43.118 131.808  17.339  1.00  0.00     0.076 A 
ATOM     17  C   UNL     1      43.933 131.574  18.486  1.00  0.00     0.053 A 
ATOM     18  C   UNL     1      43.626 131.474  16.054  1.00  0.00     0.007 A 
ATOM     19  C   UNL     1      45.224 131.001  18.372  1.00  0.00     0.019 A 
ATOM     20  C   UNL     1      42.987 131.699  14.812  1.00  0.00     0.011 A 
ATOM     21  C   UNL     1      44.894 130.910  16.005  1.00  0.00    -0.020 A 
ATOM     22  C   UNL     1      45.680 130.669  17.094  1.00  0.00    -0.102 A 
ATOM     23  C   UNL     1      43.637 131.338  13.601  1.00  0.00     0.001 A 
ATOM     24  C   UNL     1      45.531 130.564  14.857  1.00  0.00     0.006 A 
ATOM     25  N   UNL     1      46.946 130.113  16.719  1.00  0.00    -0.620 NA
ATOM     26  C   UNL     1      44.929 130.766  13.617  1.00  0.00     0.011 A 
ATOM     27  C   UNL     1      46.830 130.058  15.288  1.00  0.00     0.086 C 
ATOM     28  O   UNL     1      47.739 129.635  14.527  1.00  0.00    -0.315 OA
BRANCH  19  29
ATOM     29  N   UNL     1      46.031 130.772  19.530  1.00  0.00    -0.400 N 
ATOM     30  H   UNL     1      46.935 130.256  19.456  1.00  0.00     0.156 HD
ATOM     31  H   UNL     1      45.723 131.103  20.472  1.00  0.00     0.156 HD
ENDBRANCH  19  29
ENDBRANCH  14  16
ENDBRANCH  10  11
ENDBRANCH   9  10
ENDBRANCH   1   9
TORSDOF 9
ENDMDL
MODEL 3
REMARK VINA RESULT:      -6.0      2.786      7.332
REMARK SMILES C[C@@H](C#N)N(C)CCCCc1cn(-c2cc(N)c3c4c(cccc24)C(=O)[N-]3)nn1
REMARK SMILES IDX 8 1 7 2 5 3 6 4 2 5 1 6 3 7 4 8 9 9 10 10 11 11 12 12 29 13
REMARK SMILES IDX 13 14 28 15 14 16 15 17 24 18 16 19 23 20 19 21 18 22 22 23
REMARK SMILES IDX 20 24 27 25 21 26 25 27 26 28 17 29
REMARK H PARENT 17 30 17 31
ROOT
ATOM      1  C   UNL     1      45.688 130.290  17.303  1.00  0.00     0.016 C 
ENDROOT
BRANCH   1   2
ATOM      2  C   UNL     1      45.875 131.414  16.269  1.00  0.00     0.085 C 
BRANCH   2   3
ATOM      3  N   UNL     1      46.788 131.002  15.178  1.00  0.00    -0.291 NA
ATOM      4  C   UNL     1      47.233 129.606  15.371  1.00  0.00     0.106 C 
BRANCH   3   5
ATOM      5  C   UNL     1      46.206 131.262  13.831  1.00  0.00     0.157 C 
ATOM      6  C   UNL     1      47.009 130.545  12.740  1.00  0.00     0.041 C 
BRANCH   5   7
ATOM      7  C   UNL     1      44.776 130.904  13.740  1.00  0.00     0.081 C 
ATOM      8  N   UNL     1      43.654 130.627  13.671  1.00  0.00    -0.197 NA
ENDBRANCH   5   7
ENDBRANCH   3   5
ENDBRANCH   2   3
ENDBRANCH   1   2
BRANCH   1   9
ATOM      9  C   UNL     1      45.501 130.790  18.750  1.00  0.00     0.008 C 
BRANCH   9  10
ATOM     10  C   UNL     1      45.007 132.242  18.860  1.00  0.00     0.060 C 
BRANCH  10  11
ATOM     11  C   UNL     1      43.514 132.340  18.774  1.00  0.00     0.083 A 
ATOM     12  C   UNL     1      42.791 133.100  17.883  1.00  0.00     0.140 A 
ATOM     13  N   UNL     1      42.652 131.690  19.583  1.00  0.00    -0.135 NA
ATOM     14  N   UNL     1      41.498 132.899  18.186  1.00  0.00    -0.220 N 
ATOM     15  N   UNL     1      41.433 132.045  19.198  1.00  0.00    -0.062 NA
BRANCH  14  16
ATOM     16  C   UNL     1      40.361 133.435  17.489  1.00  0.00     0.076 A 
ATOM     17  C   UNL     1      39.118 133.572  18.177  1.00  0.00     0.053 A 
ATOM     18  C   UNL     1      40.443 133.839  16.129  1.00  0.00     0.007 A 
ATOM     19  C   UNL     1      37.977 134.118  17.540  1.00  0.00     0.019 A 
ATOM     20  C   UNL     1      41.567 133.712  15.279  1.00  0.00     0.011 A 
ATOM     21  C   UNL     1      39.293 134.371  15.559  1.00  0.00    -0.020 A 
ATOM     22  C   UNL     1      38.102 134.520  16.208  1.00  0.00    -0.102 A 
ATOM     23  C   UNL     1      41.487 134.134  13.924  1.00  0.00     0.001 A 
ATOM     24  C   UNL     1      39.198 134.774  14.266  1.00  0.00     0.006 A 
ATOM     25  N   UNL     1      37.095 135.066  15.346  1.00  0.00    -0.620 NA
ATOM     26  C   UNL     1      40.287 134.670  13.404  1.00  0.00     0.011 A 
ATOM     27  C   UNL     1      37.817 135.217  14.112  1.00  0.00     0.086 C 
ATOM     28  O   UNL     1      37.306 135.664  13.052  1.00  0.00    -0.315 OA
BRANCH  19  29
ATOM     29  N   UNL     1      36.737 134.249  18.240  1.00  0.00    -0.400 N 
ATOM     30  H   UNL     1      36.383 135.189  18.525  1.00  0.00     0.156 HD
ATOM     31  H   UNL     1      36.173 133.408  18.493  1.00  0.00     0.156 HD
ENDBRANCH  19  29
ENDBRANCH  14  16
ENDBRANCH  10  11
ENDBRANCH   9  10
ENDBRANCH   1   9
TORSDOF 9
ENDMDL
MODEL 4
REMARK VINA RESULT:      -5.9      1.617      2.177
REMARK SMILES C[C@@H](C#N)N(C)CCCCc1cn(-c2cc(N)c3c4c(cccc24)C(=O)[N-]3)nn1
REMARK SMILES IDX 8 1 7 2 5 3 6 4 2 5 1 6 3 7 4 8 9 9 10 10 11 11 12 12 29 13
REMARK SMILES IDX 13 14 28 15 14 16 15 17 24 18 16 19 23 20 19 21 18 22 22 23
REMARK SMILES IDX 20 24 27 25 21 26 25 27 26 28 17 29
REMARK H PARENT 17 30 17 31
ROOT
ATOM      1  C   UNL     1      38.106 134.216  15.872  1.00  0.00     0.016 C 
ENDROOT
BRANCH   1   2
ATOM      2  C   UNL     1      38.160 134.077  14.341  1.00  0.00     0.085 C 
BRANCH   2   3
ATOM      3  N   UNL     1      38.966 135.157  13.725  1.00  0.00    -0.291 NA
ATOM      4  C   UNL     1      40.395 134.784  13.692  1.00  0.00     0.106 C 
BRANCH   3   5
ATOM      5  C   UNL     1      38.427 135.575  12.400  1.00  0.00     0.157 C 
ATOM      6  C   UNL     1      36.972 135.127  12.236  1.00  0.00     0.041 C 
BRANCH   5   7
ATOM      7  C   UNL     1      38.553 137.027  12.157  1.00  0.00     0.081 C 
ATOM      8  N   UNL     1      38.655 138.164  11.964  1.00  0.00    -0.197 NA
ENDBRANCH   5   7
ENDBRANCH   3   5
ENDBRANCH   2   3
ENDBRANCH   1   2
BRANCH   1   9
ATOM      9  C   UNL     1      37.811 135.648  16.365  1.00  0.00     0.008 C 
BRANCH   9  10
ATOM     10  C   UNL     1      38.972 136.308  17.127  1.00  0.00     0.060 C 
BRANCH  10  11
ATOM     11  C   UNL     1      39.794 135.307  17.881  1.00  0.00     0.083 A 
ATOM     12  C   UNL     1      40.925 134.666  17.429  1.00  0.00     0.140 A 
ATOM     13  N   UNL     1      39.529 134.879  19.133  1.00  0.00    -0.135 NA
ATOM     14  N   UNL     1      41.312 133.848  18.423  1.00  0.00    -0.220 N 
ATOM     15  N   UNL     1      40.471 133.996  19.437  1.00  0.00    -0.062 NA
BRANCH  14  16
ATOM     16  C   UNL     1      42.482 133.014  18.440  1.00  0.00     0.076 A 
ATOM     17  C   UNL     1      43.033 132.607  19.691  1.00  0.00     0.053 A 
ATOM     18  C   UNL     1      43.106 132.579  17.239  1.00  0.00     0.007 A 
ATOM     19  C   UNL     1      44.171 131.766  19.760  1.00  0.00     0.019 A 
ATOM     20  C   UNL     1      42.738 132.940  15.921  1.00  0.00     0.011 A 
ATOM     21  C   UNL     1      44.214 131.752  17.369  1.00  0.00    -0.020 A 
ATOM     22  C   UNL     1      44.745 131.344  18.558  1.00  0.00    -0.102 A 
ATOM     23  C   UNL     1      43.481 132.447  14.815  1.00  0.00     0.001 A 
ATOM     24  C   UNL     1      44.938 131.277  16.323  1.00  0.00     0.006 A 
ATOM     25  N   UNL     1      45.905 130.526  18.366  1.00  0.00    -0.620 NA
ATOM     26  C   UNL     1      44.600 131.606  15.012  1.00  0.00     0.011 A 
ATOM     27  C   UNL     1      46.012 130.500  16.932  1.00  0.00     0.086 C 
ATOM     28  O   UNL     1      46.919 129.889  16.308  1.00  0.00    -0.315 OA
BRANCH  19  29
ATOM     29  N   UNL     1      44.714 131.365  21.020  1.00  0.00    -0.400 N 
ATOM     30  H   UNL     1      44.099 131.269  21.859  1.00  0.00     0.156 HD
ATOM     31  H   UNL     1      45.736 131.177  21.129  1.00  0.00     0.156 HD
ENDBRANCH  19  29
ENDBRANCH  14  16
ENDBRANCH  10  11
ENDBRANCH   9  10
ENDBRANCH   1   9
TORSDOF 9
ENDMDL
MODEL 5
REMARK VINA RESULT:      -5.8      2.232      4.376
REMARK SMILES C[C@@H](C#N)N(C)CCCCc1cn(-c2cc(N)c3c4c(cccc24)C(=O)[N-]3)nn1
REMARK SMILES IDX 8 1 7 2 5 3 6 4 2 5 1 6 3 7 4 8 9 9 10 10 11 11 12 12 29 13
REMARK SMILES IDX 13 14 28 15 14 16 15 17 24 18 16 19 23 20 19 21 18 22 22 23
REMARK SMILES IDX 20 24 27 25 21 26 25 27 26 28 17 29
REMARK H PARENT 17 30 17 31
ROOT
ATOM      1  C   UNL     1      39.754 134.891  20.195  1.00  0.00     0.016 C 
ENDROOT
BRANCH   1   2
ATOM      2  C   UNL     1      38.969 134.892  21.518  1.00  0.00     0.085 C 
BRANCH   2   3
ATOM      3  N   UNL     1      39.819 135.320  22.654  1.00  0.00    -0.291 NA
ATOM      4  C   UNL     1      41.082 134.553  22.675  1.00  0.00     0.106 C 
BRANCH   3   5
ATOM      5  C   UNL     1      40.017 136.797  22.682  1.00  0.00     0.157 C 
ATOM      6  C   UNL     1      39.990 137.325  24.119  1.00  0.00     0.041 C 
BRANCH   5   7
ATOM      7  C   UNL     1      41.252 137.228  21.994  1.00  0.00     0.081 C 
ATOM      8  N   UNL     1      42.220 137.568  21.458  1.00  0.00    -0.197 NA
ENDBRANCH   5   7
ENDBRANCH   3   5
ENDBRANCH   2   3
ENDBRANCH   1   2
BRANCH   1   9
ATOM      9  C   UNL     1      39.020 135.579  19.026  1.00  0.00     0.008 C 
BRANCH   9  10
ATOM     10  C   UNL     1      39.661 135.343  17.648  1.00  0.00     0.060 C 
BRANCH  10  11
ATOM     11  C   UNL     1      40.417 134.050  17.590  1.00  0.00     0.083 A 
ATOM     12  C   UNL     1      41.761 133.895  17.339  1.00  0.00     0.140 A 
ATOM     13  N   UNL     1      39.871 132.830  17.771  1.00  0.00    -0.135 NA
ATOM     14  N   UNL     1      41.994 132.572  17.360  1.00  0.00    -0.220 N 
ATOM     15  N   UNL     1      40.855 131.951  17.630  1.00  0.00    -0.062 NA
BRANCH  14  16
ATOM     16  C   UNL     1      43.268 131.924  17.210  1.00  0.00     0.076 A 
ATOM     17  C   UNL     1      44.078 131.694  18.361  1.00  0.00     0.053 A 
ATOM     18  C   UNL     1      43.743 131.498  15.939  1.00  0.00     0.007 A 
ATOM     19  C   UNL     1      45.329 131.038  18.267  1.00  0.00     0.019 A 
ATOM     20  C   UNL     1      43.108 131.704  14.691  1.00  0.00     0.011 A 
ATOM     21  C   UNL     1      44.973 130.855  15.909  1.00  0.00    -0.020 A 
ATOM     22  C   UNL     1      45.753 130.618  17.004  1.00  0.00    -0.102 A 
ATOM     23  C   UNL     1      43.724 131.246  13.495  1.00  0.00     0.001 A 
ATOM     24  C   UNL     1      45.578 130.417  14.775  1.00  0.00     0.006 A 
ATOM     25  N   UNL     1      46.979 129.968  16.648  1.00  0.00    -0.620 NA
ATOM     26  C   UNL     1      44.979 130.596  13.531  1.00  0.00     0.011 A 
ATOM     27  C   UNL     1      46.848 129.853  15.222  1.00  0.00     0.086 C 
ATOM     28  O   UNL     1      47.722 129.339  14.477  1.00  0.00    -0.315 OA
BRANCH  19  29
ATOM     29  N   UNL     1      46.131 130.815  19.430  1.00  0.00    -0.400 N 
ATOM     30  H   UNL     1      46.493 131.618  19.990  1.00  0.00     0.156 HD
ATOM     31  H   UNL     1      46.381 129.846  19.730  1.00  0.00     0.156 HD
ENDBRANCH  19  29
ENDBRANCH  14  16
ENDBRANCH  10  11
ENDBRANCH   9  10
ENDBRANCH   1   9
TORSDOF 9
ENDMDL
MODEL 6
REMARK VINA RESULT:      -5.7      3.121      8.158
REMARK SMILES C[C@@H](C#N)N(C)CCCCc1cn(-c2cc(N)c3c4c(cccc24)C(=O)[N-]3)nn1
REMARK SMILES IDX 8 1 7 2 5 3 6 4 2 5 1 6 3 7 4 8 9 9 10 10 11 11 12 12 29 13
REMARK SMILES IDX 13 14 28 15 14 16 15 17 24 18 16 19 23 20 19 21 18 22 22 23
REMARK SMILES IDX 20 24 27 25 21 26 25 27 26 28 17 29
REMARK H PARENT 17 30 17 31
ROOT
ATOM      1  C   UNL     1      44.360 131.307  17.221  1.00  0.00     0.016 C 
ENDROOT
BRANCH   1   2
ATOM      2  C   UNL     1      44.755 131.737  18.645  1.00  0.00     0.085 C 
BRANCH   2   3
ATOM      3  N   UNL     1      43.665 132.494  19.305  1.00  0.00    -0.291 NA
ATOM      4  C   UNL     1      42.349 131.915  18.962  1.00  0.00     0.106 C 
BRANCH   3   5
ATOM      5  C   UNL     1      43.890 132.638  20.771  1.00  0.00     0.157 C 
ATOM      6  C   UNL     1      42.973 133.714  21.361  1.00  0.00     0.041 C 
BRANCH   5   7
ATOM      7  C   UNL     1      43.738 131.366  21.507  1.00  0.00     0.081 C 
ATOM      8  N   UNL     1      43.618 130.371  22.087  1.00  0.00    -0.197 NA
ENDBRANCH   5   7
ENDBRANCH   3   5
ENDBRANCH   2   3
ENDBRANCH   1   2
BRANCH   1   9
ATOM      9  C   UNL     1      45.279 131.867  16.117  1.00  0.00     0.008 C 
BRANCH   9  10
ATOM     10  C   UNL     1      44.720 131.721  14.692  1.00  0.00     0.060 C 
BRANCH  10  11
ATOM     11  C   UNL     1      43.347 132.307  14.560  1.00  0.00     0.083 A 
ATOM     12  C   UNL     1      42.911 133.503  15.084  1.00  0.00     0.140 A 
ATOM     13  N   UNL     1      42.321 131.726  13.905  1.00  0.00    -0.135 NA
ATOM     14  N   UNL     1      41.616 133.610  14.740  1.00  0.00    -0.220 N 
ATOM     15  N   UNL     1      41.284 132.543  14.027  1.00  0.00    -0.062 NA
BRANCH  14  16
ATOM     16  C   UNL     1      40.746 134.722  15.010  1.00  0.00     0.076 A 
ATOM     17  C   UNL     1      40.836 135.893  14.201  1.00  0.00     0.053 A 
ATOM     18  C   UNL     1      39.792 134.684  16.062  1.00  0.00     0.007 A 
ATOM     19  C   UNL     1      39.984 137.005  14.412  1.00  0.00     0.019 A 
ATOM     20  C   UNL     1      39.613 133.639  17.000  1.00  0.00     0.011 A 
ATOM     21  C   UNL     1      38.981 135.801  16.218  1.00  0.00    -0.020 A 
ATOM     22  C   UNL     1      39.047 136.923  15.444  1.00  0.00    -0.102 A 
ATOM     23  C   UNL     1      38.633 133.759  18.022  1.00  0.00     0.001 A 
ATOM     24  C   UNL     1      38.044 135.934  17.192  1.00  0.00     0.006 A 
ATOM     25  N   UNL     1      38.106 137.916  15.872  1.00  0.00    -0.620 NA
ATOM     26  C   UNL     1      37.837 134.922  18.127  1.00  0.00     0.011 A 
ATOM     27  C   UNL     1      37.480 137.264  16.990  1.00  0.00     0.086 C 
ATOM     28  O   UNL     1      36.575 137.789  17.690  1.00  0.00    -0.315 OA
BRANCH  19  29
ATOM     29  N   UNL     1      40.085 138.174  13.594  1.00  0.00    -0.400 N 
ATOM     30  H   UNL     1      39.691 139.085  13.916  1.00  0.00     0.156 HD
ATOM     31  H   UNL     1      40.541 138.133  12.655  1.00  0.00     0.156 HD
ENDBRANCH  19  29
ENDBRANCH  14  16
ENDBRANCH  10  11
ENDBRANCH   9  10
ENDBRANCH   1   9
TORSDOF 9
ENDMDL
MODEL 7
REMARK VINA RESULT:      -5.7      3.198      8.012
REMARK SMILES C[C@@H](C#N)N(C)CCCCc1cn(-c2cc(N)c3c4c(cccc24)C(=O)[N-]3)nn1
REMARK SMILES IDX 8 1 7 2 5 3 6 4 2 5 1 6 3 7 4 8 9 9 10 10 11 11 12 12 29 13
REMARK SMILES IDX 13 14 28 15 14 16 15 17 24 18 16 19 23 20 19 21 18 22 22 23
REMARK SMILES IDX 20 24 27 25 21 26 25 27 26 28 17 29
REMARK H PARENT 17 30 17 31
ROOT
ATOM      1  C   UNL     1      45.089 131.525  18.763  1.00  0.00     0.016 C 
ENDROOT
BRANCH   1   2
ATOM      2  C   UNL     1      44.706 130.939  20.133  1.00  0.00     0.085 C 
BRANCH   2   3
ATOM      3  N   UNL     1      44.738 131.973  21.194  1.00  0.00    -0.291 NA
ATOM      4  C   UNL     1      45.262 133.248  20.661  1.00  0.00     0.106 C 
BRANCH   3   5
ATOM      5  C   UNL     1      43.426 132.109  21.886  1.00  0.00     0.157 C 
ATOM      6  C   UNL     1      42.807 130.735  22.160  1.00  0.00     0.041 C 
BRANCH   5   7
ATOM      7  C   UNL     1      43.509 132.897  23.132  1.00  0.00     0.081 C 
ATOM      8  N   UNL     1      43.576 133.513  24.111  1.00  0.00    -0.197 NA
ENDBRANCH   5   7
ENDBRANCH   3   5
ENDBRANCH   2   3
ENDBRANCH   1   2
BRANCH   1   9
ATOM      9  C   UNL     1      45.678 130.494  17.779  1.00  0.00     0.008 C 
BRANCH   9  10
ATOM     10  C   UNL     1      45.781 130.989  16.327  1.00  0.00     0.060 C 
BRANCH  10  11
ATOM     11  C   UNL     1      44.797 132.080  16.031  1.00  0.00     0.083 A 
ATOM     12  C   UNL     1      43.426 131.995  16.117  1.00  0.00     0.140 A 
ATOM     13  N   UNL     1      45.125 133.322  15.620  1.00  0.00    -0.135 NA
ATOM     14  N   UNL     1      42.954 133.196  15.740  1.00  0.00    -0.220 N 
ATOM     15  N   UNL     1      43.985 133.979  15.456  1.00  0.00    -0.062 NA
BRANCH  14  16
ATOM     16  C   UNL     1      41.578 133.610  15.726  1.00  0.00     0.076 A 
ATOM     17  C   UNL     1      40.924 133.824  14.476  1.00  0.00     0.053 A 
ATOM     18  C   UNL     1      40.846 133.807  16.929  1.00  0.00     0.007 A 
ATOM     19  C   UNL     1      39.562 134.209  14.411  1.00  0.00     0.019 A 
ATOM     20  C   UNL     1      41.351 133.707  18.247  1.00  0.00     0.011 A 
ATOM     21  C   UNL     1      39.514 134.178  16.802  1.00  0.00    -0.020 A 
ATOM     22  C   UNL     1      38.872 134.375  15.614  1.00  0.00    -0.102 A 
ATOM     23  C   UNL     1      40.501 133.965  19.356  1.00  0.00     0.001 A 
ATOM     24  C   UNL     1      38.690 134.434  17.850  1.00  0.00     0.006 A 
ATOM     25  N   UNL     1      37.513 134.785  15.810  1.00  0.00    -0.620 NA
ATOM     26  C   UNL     1      39.152 134.338  19.161  1.00  0.00     0.011 A 
ATOM     27  C   UNL     1      37.420 134.820  17.244  1.00  0.00     0.086 C 
ATOM     28  O   UNL     1      36.380 135.147  17.871  1.00  0.00    -0.315 OA
BRANCH  19  29
ATOM     29  N   UNL     1      38.919 134.421  13.152  1.00  0.00    -0.400 N 
ATOM     30  H   UNL     1      38.840 133.647  12.456  1.00  0.00     0.156 HD
ATOM     31  H   UNL     1      38.529 135.357  12.900  1.00  0.00     0.156 HD
ENDBRANCH  19  29
ENDBRANCH  14  16
ENDBRANCH  10  11
ENDBRANCH   9  10
ENDBRANCH   1   9
TORSDOF 9
ENDMDL
MODEL 8
REMARK VINA RESULT:      -5.7      3.880      7.060
REMARK SMILES C[C@@H](C#N)N(C)CCCCc1cn(-c2cc(N)c3c4c(cccc24)C(=O)[N-]3)nn1
REMARK SMILES IDX 8 1 7 2 5 3 6 4 2 5 1 6 3 7 4 8 9 9 10 10 11 11 12 12 29 13
REMARK SMILES IDX 13 14 28 15 14 16 15 17 24 18 16 19 23 20 19 21 18 22 22 23
REMARK SMILES IDX 20 24 27 25 21 26 25 27 26 28 17 29
REMARK H PARENT 17 30 17 31
ROOT
ATOM      1  C   UNL     1      43.899 131.057  14.688  1.00  0.00     0.016 C 
ENDROOT
BRANCH   1   2
ATOM      2  C   UNL     1      45.323 131.556  14.390  1.00  0.00     0.085 C 
BRANCH   2   3
ATOM      3  N   UNL     1      46.346 130.588  14.849  1.00  0.00    -0.291 NA
ATOM      4  C   UNL     1      45.750 129.246  15.020  1.00  0.00     0.106 C 
BRANCH   3   5
ATOM      5  C   UNL     1      47.557 130.597  13.982  1.00  0.00     0.157 C 
ATOM      6  C   UNL     1      48.486 129.428  14.327  1.00  0.00     0.041 C 
BRANCH   5   7
ATOM      7  C   UNL     1      47.236 130.594  12.539  1.00  0.00     0.081 C 
ATOM      8  N   UNL     1      46.981 130.591  11.410  1.00  0.00    -0.197 NA
ENDBRANCH   5   7
ENDBRANCH   3   5
ENDBRANCH   2   3
ENDBRANCH   1   2
BRANCH   1   9
ATOM      9  C   UNL     1      42.788 131.869  13.992  1.00  0.00     0.008 C 
BRANCH   9  10
ATOM     10  C   UNL     1      42.363 133.140  14.747  1.00  0.00     0.060 C 
BRANCH  10  11
ATOM     11  C   UNL     1      42.520 132.995  16.231  1.00  0.00     0.083 A 
ATOM     12  C   UNL     1      43.620 133.350  16.979  1.00  0.00     0.140 A 
ATOM     13  N   UNL     1      41.588 132.475  17.057  1.00  0.00    -0.135 NA
ATOM     14  N   UNL     1      43.328 133.020  18.248  1.00  0.00    -0.220 N 
ATOM     15  N   UNL     1      42.106 132.509  18.277  1.00  0.00    -0.062 NA
BRANCH  14  16
ATOM     16  C   UNL     1      44.148 133.257  19.405  1.00  0.00     0.076 A 
ATOM     17  C   UNL     1      44.695 132.147  20.115  1.00  0.00     0.053 A 
ATOM     18  C   UNL     1      44.435 134.573  19.859  1.00  0.00     0.007 A 
ATOM     19  C   UNL     1      45.529 132.330  21.245  1.00  0.00     0.019 A 
ATOM     20  C   UNL     1      43.925 135.779  19.322  1.00  0.00     0.011 A 
ATOM     21  C   UNL     1      45.261 134.690  20.969  1.00  0.00    -0.020 A 
ATOM     22  C   UNL     1      45.802 133.638  21.650  1.00  0.00    -0.102 A 
ATOM     23  C   UNL     1      44.278 137.024  19.908  1.00  0.00     0.001 A 
ATOM     24  C   UNL     1      45.605 135.872  21.544  1.00  0.00     0.006 A 
ATOM     25  N   UNL     1      46.582 134.078  22.769  1.00  0.00    -0.620 NA
ATOM     26  C   UNL     1      45.127 137.078  21.037  1.00  0.00     0.011 A 
ATOM     27  C   UNL     1      46.439 135.506  22.683  1.00  0.00     0.086 C 
ATOM     28  O   UNL     1      46.965 136.312  23.494  1.00  0.00    -0.315 OA
BRANCH  19  29
ATOM     29  N   UNL     1      46.070 131.208  21.948  1.00  0.00    -0.400 N 
ATOM     30  H   UNL     1      46.013 131.153  22.989  1.00  0.00     0.156 HD
ATOM     31  H   UNL     1      46.545 130.432  21.434  1.00  0.00     0.156 HD
ENDBRANCH  19  29
ENDBRANCH  14  16
ENDBRANCH  10  11
ENDBRANCH   9  10
ENDBRANCH   1   9
TORSDOF 9
ENDMDL
MODEL 9
REMARK VINA RESULT:      -5.6      3.001      7.520
REMARK SMILES C[C@@H](C#N)N(C)CCCCc1cn(-c2cc(N)c3c4c(cccc24)C(=O)[N-]3)nn1
REMARK SMILES IDX 8 1 7 2 5 3 6 4 2 5 1 6 3 7 4 8 9 9 10 10 11 11 12 12 29 13
REMARK SMILES IDX 13 14 28 15 14 16 15 17 24 18 16 19 23 20 19 21 18 22 22 23
REMARK SMILES IDX 20 24 27 25 21 26 25 27 26 28 17 29
REMARK H PARENT 17 30 17 31
ROOT
ATOM      1  C   UNL     1      45.416 131.069  17.710  1.00  0.00     0.016 C 
ENDROOT
BRANCH   1   2
ATOM      2  C   UNL     1      44.905 130.560  16.351  1.00  0.00     0.085 C 
BRANCH   2   3
ATOM      3  N   UNL     1      45.551 131.275  15.226  1.00  0.00    -0.291 NA
ATOM      4  C   UNL     1      45.681 132.715  15.532  1.00  0.00     0.106 C 
BRANCH   3   5
ATOM      5  C   UNL     1      46.832 130.635  14.815  1.00  0.00     0.157 C 
ATOM      6  C   UNL     1      46.815 129.133  15.118  1.00  0.00     0.041 C 
BRANCH   5   7
ATOM      7  C   UNL     1      47.168 130.873  13.396  1.00  0.00     0.081 C 
ATOM      8  N   UNL     1      47.434 131.061  12.285  1.00  0.00    -0.197 NA
ENDBRANCH   5   7
ENDBRANCH   3   5
ENDBRANCH   2   3
ENDBRANCH   1   2
BRANCH   1   9
ATOM      9  C   UNL     1      44.298 131.493  18.685  1.00  0.00     0.008 C 
BRANCH   9  10
ATOM     10  C   UNL     1      44.603 132.772  19.482  1.00  0.00     0.060 C 
BRANCH  10  11
ATOM     11  C   UNL     1      43.833 133.953  18.972  1.00  0.00     0.083 A 
ATOM     12  C   UNL     1      43.182 134.049  17.763  1.00  0.00     0.140 A 
ATOM     13  N   UNL     1      43.674 135.115  19.638  1.00  0.00    -0.135 NA
ATOM     14  N   UNL     1      42.654 135.284  17.722  1.00  0.00    -0.220 N 
ATOM     15  N   UNL     1      42.949 135.903  18.856  1.00  0.00    -0.062 NA
BRANCH  14  16
ATOM     16  C   UNL     1      41.829 135.828  16.678  1.00  0.00     0.076 A 
ATOM     17  C   UNL     1      42.297 136.948  15.928  1.00  0.00     0.053 A 
ATOM     18  C   UNL     1      40.557 135.276  16.368  1.00  0.00     0.007 A 
ATOM     19  C   UNL     1      41.532 137.505  14.874  1.00  0.00     0.019 A 
ATOM     20  C   UNL     1      39.910 134.217  17.048  1.00  0.00     0.011 A 
ATOM     21  C   UNL     1      39.854 135.859  15.322  1.00  0.00    -0.020 A 
ATOM     22  C   UNL     1      40.294 136.923  14.588  1.00  0.00    -0.102 A 
ATOM     23  C   UNL     1      38.617 133.792  16.640  1.00  0.00     0.001 A 
ATOM     24  C   UNL     1      38.616 135.470  14.922  1.00  0.00     0.006 A 
ATOM     25  N   UNL     1      39.333 137.319  13.602  1.00  0.00    -0.620 NA
ATOM     26  C   UNL     1      37.954 134.427  15.565  1.00  0.00     0.011 A 
ATOM     27  C   UNL     1      38.269 136.380  13.836  1.00  0.00     0.086 C 
ATOM     28  O   UNL     1      37.191 136.367  13.187  1.00  0.00    -0.315 OA
BRANCH  19  29
ATOM     29  N   UNL     1      42.012 138.627  14.131  1.00  0.00    -0.400 N 
ATOM     30  H   UNL     1      42.739 138.506  13.392  1.00  0.00     0.156 HD
ATOM     31  H   UNL     1      41.656 139.590  14.324  1.00  0.00     0.156 HD
ENDBRANCH  19  29
ENDBRANCH  14  16
ENDBRANCH  10  11
ENDBRANCH   9  10
ENDBRANCH   1   9
TORSDOF 9
ENDMDL


