REMARK SMILES Cc1[nH+]nn(C/C(C#N)=[NH+]\c2cccc(C#N)c2C)c1-c1cc2ccccc2c2ccccc12
REMARK SMILES IDX 10 1 11 3 13 4 14 5 12 6 15 7 18 8 19 9 16 10 17 11 7 12
REMARK SMILES IDX 8 13 9 14 6 15 5 16 4 17 20 18 3 19 2 20 1 22 21 23 22 24
REMARK SMILES IDX 34 25 23 26 33 27 29 28 24 29 28 30 32 31 30 32 25 33 27 34
REMARK SMILES IDX 31 35 26 36
REMARK H PARENT 10 2 3 21
ROOT
ATOM      1  N   UNL     1       0.883  -1.360  -1.928  1.00  0.00    -0.196 N 
ATOM      2  H   UNL     1       0.864  -1.029  -2.921  1.00  0.00     0.455 HD
ENDROOT
BRANCH   1   3
ATOM      3  C   UNL     1      -0.309  -2.011  -1.458  1.00  0.00     0.208 A 
ATOM      4  C   UNL     1      -2.686  -1.856  -0.990  1.00  0.00     0.008 A 
ATOM      5  C   UNL     1      -2.689  -3.171  -0.529  1.00  0.00     0.020 A 
ATOM      6  C   UNL     1      -1.503  -1.278  -1.448  1.00  0.00     0.079 A 
ATOM      7  C   UNL     1      -1.517  -3.936  -0.567  1.00  0.00     0.062 A 
ATOM      8  C   UNL     1      -0.320  -3.378  -1.076  1.00  0.00     0.038 A 
ATOM      9  C   UNL     1       0.924  -4.229  -1.189  1.00  0.00     0.053 C 
BRANCH   7  10
ATOM     10  C   UNL     1      -1.569  -5.295  -0.082  1.00  0.00     0.100 C 
ATOM     11  N   UNL     1      -1.610  -6.385   0.307  1.00  0.00    -0.192 NA
ENDBRANCH   7  10
ENDBRANCH   1   3
BRANCH   1  12
ATOM     12  C   UNL     1       1.927  -1.081  -1.190  1.00  0.00     0.302 C 
BRANCH  12  13
ATOM     13  C   UNL     1       3.059  -0.427  -1.802  1.00  0.00     0.169 C 
ATOM     14  N   UNL     1       3.966   0.098  -2.293  1.00  0.00    -0.186 NA
ENDBRANCH  12  13
BRANCH  12  15
ATOM     15  C   UNL     1       2.036  -1.457   0.273  1.00  0.00     0.390 C 
BRANCH  15  16
ATOM     16  N   UNL     1       2.407  -0.294   1.078  1.00  0.00    -0.118 N 
ATOM     17  N   UNL     1       3.659   0.040   1.358  1.00  0.00     0.089 NA
ATOM     18  C   UNL     1       1.598   0.683   1.544  1.00  0.00     0.201 A 
ATOM     19  N   UNL     1       3.683   1.196   2.002  1.00  0.00    -0.147 N 
ATOM     20  C   UNL     1       2.414   1.625   2.137  1.00  0.00     0.169 A 
ATOM     21  H   UNL     1       4.551   1.683   2.318  1.00  0.00     0.342 HD
ATOM     22  C   UNL     1       2.013   2.940   2.723  1.00  0.00     0.100 C 
BRANCH  18  23
ATOM     23  C   UNL     1       0.132   0.763   1.359  1.00  0.00     0.036 A 
ATOM     24  C   UNL     1      -0.359   1.757   0.515  1.00  0.00     0.022 A 
ATOM     25  C   UNL     1      -0.763  -0.116   2.012  1.00  0.00    -0.006 A 
ATOM     26  C   UNL     1      -1.729   1.899   0.289  1.00  0.00    -0.017 A 
ATOM     27  C   UNL     1      -0.283  -1.103   2.901  1.00  0.00     0.009 A 
ATOM     28  C   UNL     1      -2.169  -0.001   1.784  1.00  0.00    -0.010 A 
ATOM     29  C   UNL     1      -2.178   2.909  -0.578  1.00  0.00     0.009 A 
ATOM     30  C   UNL     1      -2.657   1.027   0.920  1.00  0.00    -0.010 A 
ATOM     31  C   UNL     1      -1.156  -1.996   3.515  1.00  0.00     0.001 A 
ATOM     32  C   UNL     1      -3.028  -0.929   2.425  1.00  0.00     0.009 A 
ATOM     33  C   UNL     1      -3.538   3.072  -0.827  1.00  0.00     0.001 A 
ATOM     34  C   UNL     1      -4.036   1.224   0.652  1.00  0.00     0.009 A 
ATOM     35  C   UNL     1      -2.521  -1.914   3.272  1.00  0.00     0.001 A 
ATOM     36  C   UNL     1      -4.463   2.233  -0.213  1.00  0.00     0.001 A 
ENDBRANCH  18  23
ENDBRANCH  15  16
ENDBRANCH  12  15
ENDBRANCH   1  12
TORSDOF 7


