REMARK SMILES [N-]=[N+]=Nc1cc(Cl)cc2c(C[NH2+]O)c(OCCc3cn(C[C@H](N=[N+]=[N-])C(=O)[O-])[nH+]n3)ccc12
REMARK SMILES IDX 16 1 15 2 14 3 10 4 9 5 31 6 8 7 33 8 32 9 6 10 4 11 5 12
REMARK SMILES IDX 7 13 11 14 12 15 13 18 3 20 2 21 1 22 17 23 18 24 30 25
REMARK SMILES IDX 19 26 29 27 20 28 21 30 22 31 23 32 24 33 25 34 26 35 27 36
REMARK SMILES IDX 28 37
REMARK H PARENT 12 16 12 17 13 19 29 29
ROOT
ATOM      1  C   UNL     1       1.787   1.534  -1.666  1.00  0.00     0.236 C 
ENDROOT
BRANCH   1   2
ATOM      2  O   UNL     1       0.839   0.932  -0.787  1.00  0.00    -0.493 OA
BRANCH   2   3
ATOM      3  C   UNL     1       0.690  -0.450  -0.580  1.00  0.00     0.128 A 
ATOM      4  C   UNL     1      -0.219  -0.898   0.404  1.00  0.00     0.059 A 
ATOM      5  C   UNL     1      -0.424  -2.300   0.585  1.00  0.00    -0.004 A 
ATOM      6  C   UNL     1       1.429  -1.379  -1.323  1.00  0.00     0.047 A 
ATOM      7  C   UNL     1      -1.326  -2.806   1.549  1.00  0.00     0.030 A 
ATOM      8  C   UNL     1       0.304  -3.229  -0.217  1.00  0.00    -0.008 A 
ATOM      9  C   UNL     1       1.252  -2.743  -1.133  1.00  0.00     0.013 A 
ATOM     10  C   UNL     1      -1.477  -4.178   1.741  1.00  0.00     0.042 A 
ATOM     11  C   UNL     1       0.091  -4.626  -0.050  1.00  0.00     0.047 A 
ATOM     12  C   UNL     1      -0.767  -5.078   0.955  1.00  0.00     0.031 A 
ATOM     13  Cl  UNL     1      -2.586  -4.774   2.963  1.00  0.00    -0.084 Cl
BRANCH   4  14
ATOM     14  C   UNL     1      -0.959   0.157   1.219  1.00  0.00     0.337 C 
BRANCH  14  15
ATOM     15  N   UNL     1      -2.184   0.599   0.544  1.00  0.00    -0.200 N 
ATOM     16  H   UNL     1      -2.604   1.391   1.086  1.00  0.00     0.386 HD
ATOM     17  H   UNL     1      -1.967   0.909  -0.434  1.00  0.00     0.386 HD
BRANCH  15  18
ATOM     18  O   UNL     1      -3.070  -0.432   0.511  1.00  0.00    -0.220 OA
ATOM     19  H   UNL     1      -3.877  -0.091   0.042  1.00  0.00     0.288 HD
ENDBRANCH  15  18
ENDBRANCH  14  15
ENDBRANCH   4  14
BRANCH  11  20
ATOM     20  N   UNL     1       0.714  -5.619  -0.877  1.00  0.00    -0.060 NA
BRANCH  20  21
ATOM     21  N   UNL     1       0.720  -5.534  -2.106  1.00  0.00     0.005 N 
ATOM     22  N   UNL     1       0.725  -5.451  -3.333  1.00  0.00    -0.003 NA
ENDBRANCH  20  21
ENDBRANCH  11  20
ENDBRANCH   2   3
ENDBRANCH   1   2
BRANCH   1  23
ATOM     23  C   UNL     1       1.685   3.055  -1.571  1.00  0.00     0.106 C 
BRANCH  23  24
ATOM     24  C   UNL     1       1.938   3.520  -0.170  1.00  0.00     0.135 A 
ATOM     25  N   UNL     1       3.162   3.637   0.386  1.00  0.00     0.020 NA
ATOM     26  C   UNL     1       0.986   3.762   0.801  1.00  0.00     0.183 A 
ATOM     27  N   UNL     1       2.958   3.961   1.654  1.00  0.00    -0.017 N 
ATOM     28  N   UNL     1       1.665   4.045   1.925  1.00  0.00    -0.136 N 
ATOM     29  H   UNL     1       3.723   4.106   2.350  1.00  0.00     0.526 HD
BRANCH  28  30
ATOM     30  C   UNL     1       1.101   4.297   3.250  1.00  0.00     0.207 C 
BRANCH  30  31
ATOM     31  C   UNL     1       0.627   2.991   3.903  1.00  0.00     0.145 C 
BRANCH  31  32
ATOM     32  N   UNL     1       0.030   3.288   5.201  1.00  0.00    -0.083 NA
BRANCH  32  33
ATOM     33  N   UNL     1      -0.547   2.415   5.849  1.00  0.00     0.002 N 
ATOM     34  N   UNL     1      -1.123   1.542   6.497  1.00  0.00    -0.003 NA
ENDBRANCH  32  33
ENDBRANCH  31  32
BRANCH  31  35
ATOM     35  C   UNL     1       1.770   2.027   4.066  1.00  0.00     0.052 C 
ATOM     36  O   UNL     1       2.678   2.251   4.910  1.00  0.00    -0.550 OA
ATOM     37  O   UNL     1       1.847   0.898   3.259  1.00  0.00    -0.550 OA
ENDBRANCH  31  35
ENDBRANCH  30  31
ENDBRANCH  28  30
ENDBRANCH  23  24
ENDBRANCH   1  23
TORSDOF 14


