MODEL 1
REMARK VINA RESULT:      -6.9      0.000      0.000
REMARK SMILES C#C/C(=N\[C@H](c1c(C)nnn1-c1c2ccccc2c(C=O)c2ccccc12)C(C)C)OC(=O)C=C
REMARK SMILES IDX 4 1 3 2 2 3 1 4 31 5 32 6 33 7 34 8 35 9 5 10 6 11 7 12
REMARK SMILES IDX 11 13 9 14 10 15 8 16 12 17 13 18 27 19 14 20 18 21 26 22
REMARK SMILES IDX 22 23 15 24 17 25 19 26 25 27 23 28 16 29 24 30 20 31 21 32
REMARK SMILES IDX 28 33 29 34 30 35
REMARK H PARENT
ROOT
ATOM      1  N   UNL     1      43.183 132.215  16.633  1.00  0.00    -0.233 NA
ENDROOT
BRANCH   1   2
ATOM      2  C   UNL     1      44.113 131.305  16.523  1.00  0.00     0.272 C 
BRANCH   2   3
ATOM      3  C   UNL     1      44.982 130.979  17.625  1.00  0.00    -0.011 C 
ATOM      4  C   UNL     1      45.707 130.709  18.550  1.00  0.00     0.015 C 
ENDBRANCH   2   3
BRANCH   2   5
ATOM      5  O   UNL     1      44.301 130.613  15.319  1.00  0.00    -0.396 OA
BRANCH   5   6
ATOM      6  C   UNL     1      45.539 130.269  14.760  1.00  0.00     0.337 C 
ATOM      7  O   UNL     1      45.872 129.061  14.608  1.00  0.00    -0.246 OA
BRANCH   6   8
ATOM      8  C   UNL     1      46.463 131.349  14.378  1.00  0.00     0.086 C 
ATOM      9  C   UNL     1      47.431 131.182  13.480  1.00  0.00     0.016 C 
ENDBRANCH   6   8
ENDBRANCH   5   6
ENDBRANCH   2   5
ENDBRANCH   1   2
BRANCH   1  10
ATOM     10  C   UNL     1      43.391 133.638  16.919  1.00  0.00     0.163 C 
BRANCH  10  11
ATOM     11  C   UNL     1      42.281 134.147  17.828  1.00  0.00     0.092 A 
ATOM     12  C   UNL     1      40.916 134.274  17.580  1.00  0.00     0.086 A 
ATOM     13  N   UNL     1      42.450 134.512  19.121  1.00  0.00    -0.214 N 
ATOM     14  N   UNL     1      40.326 134.722  18.706  1.00  0.00    -0.135 NA
ATOM     15  N   UNL     1      41.274 134.851  19.621  1.00  0.00    -0.062 NA
ATOM     16  C   UNL     1      40.141 133.978  16.333  1.00  0.00     0.071 C 
BRANCH  13  17
ATOM     17  C   UNL     1      43.661 134.483  19.898  1.00  0.00     0.082 A 
ATOM     18  C   UNL     1      43.980 133.338  20.662  1.00  0.00     0.009 A 
ATOM     19  C   UNL     1      44.524 135.601  19.905  1.00  0.00     0.009 A 
ATOM     20  C   UNL     1      43.143 132.202  20.635  1.00  0.00     0.011 A 
ATOM     21  C   UNL     1      45.134 133.333  21.491  1.00  0.00    -0.005 A 
ATOM     22  C   UNL     1      44.254 136.724  19.092  1.00  0.00     0.011 A 
ATOM     23  C   UNL     1      45.687 135.600  20.724  1.00  0.00    -0.005 A 
ATOM     24  C   UNL     1      43.421 131.092  21.429  1.00  0.00     0.001 A 
ATOM     25  C   UNL     1      45.374 132.202  22.309  1.00  0.00     0.009 A 
ATOM     26  C   UNL     1      45.996 134.463  21.515  1.00  0.00     0.030 A 
ATOM     27  C   UNL     1      45.094 137.835  19.105  1.00  0.00     0.001 A 
ATOM     28  C   UNL     1      46.529 136.738  20.706  1.00  0.00     0.009 A 
ATOM     29  C   UNL     1      44.527 131.095  22.269  1.00  0.00     0.001 A 
ATOM     30  C   UNL     1      46.227 137.842  19.910  1.00  0.00     0.001 A 
BRANCH  26  31
ATOM     31  C   UNL     1      47.224 134.461  22.348  1.00  0.00     0.261 C 
ATOM     32  O   UNL     1      47.194 134.868  23.540  1.00  0.00    -0.298 OA
ENDBRANCH  26  31
ENDBRANCH  13  17
ENDBRANCH  10  11
BRANCH  10  33
ATOM     33  C   UNL     1      43.578 134.464  15.612  1.00  0.00     0.014 C 
ATOM     34  C   UNL     1      43.317 135.958  15.842  1.00  0.00     0.010 C 
ATOM     35  C   UNL     1      42.745 133.958  14.429  1.00  0.00     0.010 C 
ENDBRANCH  10  33
ENDBRANCH   1  10
TORSDOF 10
ENDMDL
MODEL 2
REMARK VINA RESULT:      -6.6      0.830      3.256
REMARK SMILES C#C/C(=N\[C@H](c1c(C)nnn1-c1c2ccccc2c(C=O)c2ccccc12)C(C)C)OC(=O)C=C
REMARK SMILES IDX 4 1 3 2 2 3 1 4 31 5 32 6 33 7 34 8 35 9 5 10 6 11 7 12
REMARK SMILES IDX 11 13 9 14 10 15 8 16 12 17 13 18 27 19 14 20 18 21 26 22
REMARK SMILES IDX 22 23 15 24 17 25 19 26 25 27 23 28 16 29 24 30 20 31 21 32
REMARK SMILES IDX 28 33 29 34 30 35
REMARK H PARENT
ROOT
ATOM      1  N   UNL     1      43.273 132.633  16.614  1.00  0.00    -0.233 NA
ENDROOT
BRANCH   1   2
ATOM      2  C   UNL     1      44.422 132.019  16.527  1.00  0.00     0.272 C 
BRANCH   2   3
ATOM      3  C   UNL     1      44.995 131.328  17.655  1.00  0.00    -0.011 C 
ATOM      4  C   UNL     1      45.478 130.750  18.597  1.00  0.00     0.015 C 
ENDBRANCH   2   3
BRANCH   2   5
ATOM      5  O   UNL     1      45.144 132.013  15.326  1.00  0.00    -0.396 OA
BRANCH   5   6
ATOM      6  C   UNL     1      44.983 131.091  14.282  1.00  0.00     0.337 C 
ATOM      7  O   UNL     1      43.875 130.519  14.083  1.00  0.00    -0.246 OA
BRANCH   6   8
ATOM      8  C   UNL     1      46.144 130.777  13.435  1.00  0.00     0.086 C 
ATOM      9  C   UNL     1      47.372 131.213  13.709  1.00  0.00     0.016 C 
ENDBRANCH   6   8
ENDBRANCH   5   6
ENDBRANCH   2   5
ENDBRANCH   1   2
BRANCH   1  10
ATOM     10  C   UNL     1      43.061 134.020  17.039  1.00  0.00     0.163 C 
BRANCH  10  11
ATOM     11  C   UNL     1      41.952 134.075  18.080  1.00  0.00     0.092 A 
ATOM     12  C   UNL     1      40.574 133.938  17.921  1.00  0.00     0.086 A 
ATOM     13  N   UNL     1      42.151 134.202  19.413  1.00  0.00    -0.214 N 
ATOM     14  N   UNL     1      40.003 134.008  19.140  1.00  0.00    -0.135 NA
ATOM     15  N   UNL     1      40.978 134.161  20.022  1.00  0.00    -0.062 NA
ATOM     16  C   UNL     1      39.774 133.730  16.673  1.00  0.00     0.071 C 
BRANCH  13  17
ATOM     17  C   UNL     1      43.404 134.291  20.116  1.00  0.00     0.082 A 
ATOM     18  C   UNL     1      44.152 135.488  20.073  1.00  0.00     0.009 A 
ATOM     19  C   UNL     1      43.890 133.180  20.841  1.00  0.00     0.009 A 
ATOM     20  C   UNL     1      43.661 136.617  19.382  1.00  0.00     0.011 A 
ATOM     21  C   UNL     1      45.425 135.557  20.701  1.00  0.00    -0.005 A 
ATOM     22  C   UNL     1      43.120 132.001  20.951  1.00  0.00     0.011 A 
ATOM     23  C   UNL     1      45.157 133.243  21.481  1.00  0.00    -0.005 A 
ATOM     24  C   UNL     1      44.418 137.782  19.287  1.00  0.00     0.001 A 
ATOM     25  C   UNL     1      46.184 136.745  20.562  1.00  0.00     0.009 A 
ATOM     26  C   UNL     1      45.925 134.435  21.416  1.00  0.00     0.030 A 
ATOM     27  C   UNL     1      43.599 130.897  21.652  1.00  0.00     0.001 A 
ATOM     28  C   UNL     1      45.612 132.110  22.198  1.00  0.00     0.009 A 
ATOM     29  C   UNL     1      45.678 137.843  19.868  1.00  0.00     0.001 A 
ATOM     30  C   UNL     1      44.841 130.951  22.273  1.00  0.00     0.001 A 
BRANCH  26  31
ATOM     31  C   UNL     1      47.236 134.501  22.107  1.00  0.00     0.261 C 
ATOM     32  O   UNL     1      48.297 134.175  21.509  1.00  0.00    -0.298 OA
ENDBRANCH  26  31
ENDBRANCH  13  17
ENDBRANCH  10  11
BRANCH  10  33
ATOM     33  C   UNL     1      42.843 134.966  15.821  1.00  0.00     0.014 C 
ATOM     34  C   UNL     1      42.647 134.179  14.519  1.00  0.00     0.010 C 
ATOM     35  C   UNL     1      43.944 136.017  15.643  1.00  0.00     0.010 C 
ENDBRANCH  10  33
ENDBRANCH   1  10
TORSDOF 10
ENDMDL
MODEL 3
REMARK VINA RESULT:      -6.6      1.756      2.397
REMARK SMILES C#C/C(=N\[C@H](c1c(C)nnn1-c1c2ccccc2c(C=O)c2ccccc12)C(C)C)OC(=O)C=C
REMARK SMILES IDX 4 1 3 2 2 3 1 4 31 5 32 6 33 7 34 8 35 9 5 10 6 11 7 12
REMARK SMILES IDX 11 13 9 14 10 15 8 16 12 17 13 18 27 19 14 20 18 21 26 22
REMARK SMILES IDX 22 23 15 24 17 25 19 26 25 27 23 28 16 29 24 30 20 31 21 32
REMARK SMILES IDX 28 33 29 34 30 35
REMARK H PARENT
ROOT
ATOM      1  N   UNL     1      44.062 133.915  15.404  1.00  0.00    -0.233 NA
ENDROOT
BRANCH   1   2
ATOM      2  C   UNL     1      44.524 132.710  15.204  1.00  0.00     0.272 C 
BRANCH   2   3
ATOM      3  C   UNL     1      43.811 131.754  14.396  1.00  0.00    -0.011 C 
ATOM      4  C   UNL     1      43.214 130.956  13.717  1.00  0.00     0.015 C 
ENDBRANCH   2   3
BRANCH   2   5
ATOM      5  O   UNL     1      45.737 132.303  15.776  1.00  0.00    -0.396 OA
BRANCH   5   6
ATOM      6  C   UNL     1      46.577 131.298  15.278  1.00  0.00     0.337 C 
ATOM      7  O   UNL     1      46.879 130.294  15.980  1.00  0.00    -0.246 OA
BRANCH   6   8
ATOM      8  C   UNL     1      47.127 131.449  13.922  1.00  0.00     0.086 C 
ATOM      9  C   UNL     1      47.749 130.459  13.284  1.00  0.00     0.016 C 
ENDBRANCH   6   8
ENDBRANCH   5   6
ENDBRANCH   2   5
ENDBRANCH   1   2
BRANCH   1  10
ATOM     10  C   UNL     1      43.758 134.523  16.703  1.00  0.00     0.163 C 
BRANCH  10  11
ATOM     11  C   UNL     1      42.451 133.957  17.242  1.00  0.00     0.092 A 
ATOM     12  C   UNL     1      41.295 133.585  16.559  1.00  0.00     0.086 A 
ATOM     13  N   UNL     1      42.223 133.644  18.539  1.00  0.00    -0.214 N 
ATOM     14  N   UNL     1      40.420 133.088  17.458  1.00  0.00    -0.135 NA
ATOM     15  N   UNL     1      41.008 133.131  18.643  1.00  0.00    -0.062 NA
ATOM     16  C   UNL     1      40.983 133.661  15.097  1.00  0.00     0.071 C 
BRANCH  13  17
ATOM     17  C   UNL     1      43.132 133.754  19.649  1.00  0.00     0.082 A 
ATOM     18  C   UNL     1      44.168 132.806  19.808  1.00  0.00     0.009 A 
ATOM     19  C   UNL     1      42.983 134.801  20.586  1.00  0.00     0.009 A 
ATOM     20  C   UNL     1      44.349 131.777  18.859  1.00  0.00     0.011 A 
ATOM     21  C   UNL     1      45.021 132.865  20.943  1.00  0.00    -0.005 A 
ATOM     22  C   UNL     1      41.997 135.795  20.402  1.00  0.00     0.011 A 
ATOM     23  C   UNL     1      43.838 134.873  21.719  1.00  0.00    -0.005 A 
ATOM     24  C   UNL     1      45.332 130.806  19.038  1.00  0.00     0.001 A 
ATOM     25  C   UNL     1      45.991 131.847  21.112  1.00  0.00     0.009 A 
ATOM     26  C   UNL     1      44.863 133.907  21.897  1.00  0.00     0.030 A 
ATOM     27  C   UNL     1      41.835 136.823  21.329  1.00  0.00     0.001 A 
ATOM     28  C   UNL     1      43.660 135.936  22.637  1.00  0.00     0.009 A 
ATOM     29  C   UNL     1      46.144 130.837  20.164  1.00  0.00     0.001 A 
ATOM     30  C   UNL     1      42.663 136.892  22.443  1.00  0.00     0.001 A 
BRANCH  26  31
ATOM     31  C   UNL     1      45.766 134.003  23.069  1.00  0.00     0.261 C 
ATOM     32  O   UNL     1      45.499 133.395  24.140  1.00  0.00    -0.298 OA
ENDBRANCH  26  31
ENDBRANCH  13  17
ENDBRANCH  10  11
BRANCH  10  33
ATOM     33  C   UNL     1      43.802 136.078  16.633  1.00  0.00     0.014 C 
ATOM     34  C   UNL     1      44.376 136.688  17.918  1.00  0.00     0.010 C 
ATOM     35  C   UNL     1      42.454 136.726  16.297  1.00  0.00     0.010 C 
ENDBRANCH  10  33
ENDBRANCH   1  10
TORSDOF 10
ENDMDL
MODEL 4
REMARK VINA RESULT:      -6.5      2.236      2.903
REMARK SMILES C#C/C(=N\[C@H](c1c(C)nnn1-c1c2ccccc2c(C=O)c2ccccc12)C(C)C)OC(=O)C=C
REMARK SMILES IDX 4 1 3 2 2 3 1 4 31 5 32 6 33 7 34 8 35 9 5 10 6 11 7 12
REMARK SMILES IDX 11 13 9 14 10 15 8 16 12 17 13 18 27 19 14 20 18 21 26 22
REMARK SMILES IDX 22 23 15 24 17 25 19 26 25 27 23 28 16 29 24 30 20 31 21 32
REMARK SMILES IDX 28 33 29 34 30 35
REMARK H PARENT
ROOT
ATOM      1  N   UNL     1      44.393 133.030  15.625  1.00  0.00    -0.233 NA
ENDROOT
BRANCH   1   2
ATOM      2  C   UNL     1      44.622 131.780  15.924  1.00  0.00     0.272 C 
BRANCH   2   3
ATOM      3  C   UNL     1      45.117 131.394  17.222  1.00  0.00    -0.011 C 
ATOM      4  C   UNL     1      45.535 131.073  18.306  1.00  0.00     0.015 C 
ENDBRANCH   2   3
BRANCH   2   5
ATOM      5  O   UNL     1      44.394 130.764  14.986  1.00  0.00    -0.396 OA
BRANCH   5   6
ATOM      6  C   UNL     1      45.233 129.666  14.754  1.00  0.00     0.337 C 
ATOM      7  O   UNL     1      44.995 128.542  15.277  1.00  0.00    -0.246 OA
BRANCH   6   8
ATOM      8  C   UNL     1      46.422 129.854  13.908  1.00  0.00     0.086 C 
ATOM      9  C   UNL     1      46.398 130.568  12.784  1.00  0.00     0.016 C 
ENDBRANCH   6   8
ENDBRANCH   5   6
ENDBRANCH   2   5
ENDBRANCH   1   2
BRANCH   1  10
ATOM     10  C   UNL     1      43.702 134.011  16.466  1.00  0.00     0.163 C 
BRANCH  10  11
ATOM     11  C   UNL     1      42.196 133.865  16.294  1.00  0.00     0.092 A 
ATOM     12  C   UNL     1      41.467 133.390  15.205  1.00  0.00     0.086 A 
ATOM     13  N   UNL     1      41.280 134.124  17.257  1.00  0.00    -0.214 N 
ATOM     14  N   UNL     1      40.161 133.400  15.540  1.00  0.00    -0.135 NA
ATOM     15  N   UNL     1      40.078 133.842  16.785  1.00  0.00    -0.062 NA
ATOM     16  C   UNL     1      41.948 132.915  13.870  1.00  0.00     0.071 C 
BRANCH  13  17
ATOM     17  C   UNL     1      41.517 134.558  18.609  1.00  0.00     0.082 A 
ATOM     18  C   UNL     1      41.940 133.628  19.584  1.00  0.00     0.009 A 
ATOM     19  C   UNL     1      41.315 135.911  18.963  1.00  0.00     0.009 A 
ATOM     20  C   UNL     1      42.180 132.282  19.235  1.00  0.00     0.011 A 
ATOM     21  C   UNL     1      42.102 134.035  20.936  1.00  0.00    -0.005 A 
ATOM     22  C   UNL     1      40.960 136.866  17.984  1.00  0.00     0.011 A 
ATOM     23  C   UNL     1      41.483 136.329  20.311  1.00  0.00    -0.005 A 
ATOM     24  C   UNL     1      42.542 131.347  20.201  1.00  0.00     0.001 A 
ATOM     25  C   UNL     1      42.442 133.056  21.901  1.00  0.00     0.009 A 
ATOM     26  C   UNL     1      41.882 135.392  21.300  1.00  0.00     0.030 A 
ATOM     27  C   UNL     1      40.746 138.198  18.329  1.00  0.00     0.001 A 
ATOM     28  C   UNL     1      41.273 137.693  20.629  1.00  0.00     0.009 A 
ATOM     29  C   UNL     1      42.665 131.731  21.530  1.00  0.00     0.001 A 
ATOM     30  C   UNL     1      40.901 138.610  19.648  1.00  0.00     0.001 A 
BRANCH  26  31
ATOM     31  C   UNL     1      42.079 135.841  22.700  1.00  0.00     0.261 C 
ATOM     32  O   UNL     1      43.218 136.188  23.111  1.00  0.00    -0.298 OA
ENDBRANCH  26  31
ENDBRANCH  13  17
ENDBRANCH  10  11
BRANCH  10  33
ATOM     33  C   UNL     1      44.237 135.453  16.225  1.00  0.00     0.014 C 
ATOM     34  C   UNL     1      44.486 136.196  17.544  1.00  0.00     0.010 C 
ATOM     35  C   UNL     1      43.354 136.300  15.300  1.00  0.00     0.010 C 
ENDBRANCH  10  33
ENDBRANCH   1  10
TORSDOF 10
ENDMDL
MODEL 5
REMARK VINA RESULT:      -6.4      2.102      4.017
REMARK SMILES C#C/C(=N\[C@H](c1c(C)nnn1-c1c2ccccc2c(C=O)c2ccccc12)C(C)C)OC(=O)C=C
REMARK SMILES IDX 4 1 3 2 2 3 1 4 31 5 32 6 33 7 34 8 35 9 5 10 6 11 7 12
REMARK SMILES IDX 11 13 9 14 10 15 8 16 12 17 13 18 27 19 14 20 18 21 26 22
REMARK SMILES IDX 22 23 15 24 17 25 19 26 25 27 23 28 16 29 24 30 20 31 21 32
REMARK SMILES IDX 28 33 29 34 30 35
REMARK H PARENT
ROOT
ATOM      1  N   UNL     1      44.233 133.495  15.538  1.00  0.00    -0.233 NA
ENDROOT
BRANCH   1   2
ATOM      2  C   UNL     1      45.092 132.534  15.744  1.00  0.00     0.272 C 
BRANCH   2   3
ATOM      3  C   UNL     1      45.104 131.785  16.976  1.00  0.00    -0.011 C 
ATOM      4  C   UNL     1      45.117 131.155  18.004  1.00  0.00     0.015 C 
ENDBRANCH   2   3
BRANCH   2   5
ATOM      5  O   UNL     1      46.040 132.197  14.768  1.00  0.00    -0.396 OA
BRANCH   5   6
ATOM      6  C   UNL     1      46.146 130.954  14.129  1.00  0.00     0.337 C 
ATOM      7  O   UNL     1      45.215 130.517  13.397  1.00  0.00    -0.246 OA
BRANCH   6   8
ATOM      8  C   UNL     1      47.357 130.150  14.350  1.00  0.00     0.086 C 
ATOM      9  C   UNL     1      48.036 129.585  13.353  1.00  0.00     0.016 C 
ENDBRANCH   6   8
ENDBRANCH   5   6
ENDBRANCH   2   5
ENDBRANCH   1   2
BRANCH   1  10
ATOM     10  C   UNL     1      43.581 134.311  16.567  1.00  0.00     0.163 C 
BRANCH  10  11
ATOM     11  C   UNL     1      42.074 134.098  16.514  1.00  0.00     0.092 A 
ATOM     12  C   UNL     1      41.278 133.637  15.467  1.00  0.00     0.086 A 
ATOM     13  N   UNL     1      41.234 134.267  17.561  1.00  0.00    -0.214 N 
ATOM     14  N   UNL     1      40.006 133.567  15.909  1.00  0.00    -0.135 NA
ATOM     15  N   UNL     1      40.010 133.947  17.177  1.00  0.00    -0.062 NA
ATOM     16  C   UNL     1      41.663 133.247  14.074  1.00  0.00     0.071 C 
BRANCH  13  17
ATOM     17  C   UNL     1      41.565 134.651  18.909  1.00  0.00     0.082 A 
ATOM     18  C   UNL     1      41.408 135.994  19.317  1.00  0.00     0.009 A 
ATOM     19  C   UNL     1      42.055 133.688  19.819  1.00  0.00     0.009 A 
ATOM     20  C   UNL     1      40.886 136.957  18.428  1.00  0.00     0.011 A 
ATOM     21  C   UNL     1      41.805 136.394  20.622  1.00  0.00    -0.005 A 
ATOM     22  C   UNL     1      42.150 132.329  19.446  1.00  0.00     0.011 A 
ATOM     23  C   UNL     1      42.445 134.077  21.129  1.00  0.00    -0.005 A 
ATOM     24  C   UNL     1      40.782 138.294  18.804  1.00  0.00     0.001 A 
ATOM     25  C   UNL     1      41.714 137.765  20.965  1.00  0.00     0.009 A 
ATOM     26  C   UNL     1      42.315 135.431  21.534  1.00  0.00     0.030 A 
ATOM     27  C   UNL     1      42.645 131.377  20.334  1.00  0.00     0.001 A 
ATOM     28  C   UNL     1      42.931 133.085  22.015  1.00  0.00     0.009 A 
ATOM     29  C   UNL     1      41.202 138.698  20.065  1.00  0.00     0.001 A 
ATOM     30  C   UNL     1      43.036 131.754  21.614  1.00  0.00     0.001 A 
BRANCH  26  31
ATOM     31  C   UNL     1      42.702 135.825  22.911  1.00  0.00     0.261 C 
ATOM     32  O   UNL     1      43.853 136.278  23.153  1.00  0.00    -0.298 OA
ENDBRANCH  26  31
ENDBRANCH  13  17
ENDBRANCH  10  11
BRANCH  10  33
ATOM     33  C   UNL     1      44.020 135.802  16.480  1.00  0.00     0.014 C 
ATOM     34  C   UNL     1      44.439 136.352  17.849  1.00  0.00     0.010 C 
ATOM     35  C   UNL     1      42.977 136.724  15.836  1.00  0.00     0.010 C 
ENDBRANCH  10  33
ENDBRANCH   1  10
TORSDOF 10
ENDMDL
MODEL 6
REMARK VINA RESULT:      -6.0      2.624      5.274
REMARK SMILES C#C/C(=N\[C@H](c1c(C)nnn1-c1c2ccccc2c(C=O)c2ccccc12)C(C)C)OC(=O)C=C
REMARK SMILES IDX 4 1 3 2 2 3 1 4 31 5 32 6 33 7 34 8 35 9 5 10 6 11 7 12
REMARK SMILES IDX 11 13 9 14 10 15 8 16 12 17 13 18 27 19 14 20 18 21 26 22
REMARK SMILES IDX 22 23 15 24 17 25 19 26 25 27 23 28 16 29 24 30 20 31 21 32
REMARK SMILES IDX 28 33 29 34 30 35
REMARK H PARENT
ROOT
ATOM      1  N   UNL     1      43.835 131.429  16.078  1.00  0.00    -0.233 NA
ENDROOT
BRANCH   1   2
ATOM      2  C   UNL     1      44.587 130.717  15.283  1.00  0.00     0.272 C 
BRANCH   2   3
ATOM      3  C   UNL     1      44.882 129.334  15.563  1.00  0.00    -0.011 C 
ATOM      4  C   UNL     1      45.134 128.179  15.797  1.00  0.00     0.015 C 
ENDBRANCH   2   3
BRANCH   2   5
ATOM      5  O   UNL     1      45.140 131.279  14.125  1.00  0.00    -0.396 OA
BRANCH   5   6
ATOM      6  C   UNL     1      46.497 131.254  13.774  1.00  0.00     0.337 C 
ATOM      7  O   UNL     1      47.311 132.087  14.262  1.00  0.00    -0.246 OA
BRANCH   6   8
ATOM      8  C   UNL     1      46.954 130.253  12.798  1.00  0.00     0.086 C 
ATOM      9  C   UNL     1      48.033 129.498  12.994  1.00  0.00     0.016 C 
ENDBRANCH   6   8
ENDBRANCH   5   6
ENDBRANCH   2   5
ENDBRANCH   1   2
BRANCH   1  10
ATOM     10  C   UNL     1      44.192 132.712  16.692  1.00  0.00     0.163 C 
BRANCH  10  11
ATOM     11  C   UNL     1      43.994 132.633  18.200  1.00  0.00     0.092 A 
ATOM     12  C   UNL     1      44.586 131.783  19.131  1.00  0.00     0.086 A 
ATOM     13  N   UNL     1      43.216 133.474  18.920  1.00  0.00    -0.214 N 
ATOM     14  N   UNL     1      44.136 132.125  20.355  1.00  0.00    -0.135 NA
ATOM     15  N   UNL     1      43.315 133.151  20.199  1.00  0.00    -0.062 NA
ATOM     16  C   UNL     1      45.569 130.673  18.921  1.00  0.00     0.071 C 
BRANCH  13  17
ATOM     17  C   UNL     1      42.450 134.597  18.446  1.00  0.00     0.082 A 
ATOM     18  C   UNL     1      43.037 135.881  18.398  1.00  0.00     0.009 A 
ATOM     19  C   UNL     1      41.109 134.417  18.037  1.00  0.00     0.009 A 
ATOM     20  C   UNL     1      44.386 136.067  18.769  1.00  0.00     0.011 A 
ATOM     21  C   UNL     1      42.263 137.005  18.003  1.00  0.00    -0.005 A 
ATOM     22  C   UNL     1      40.531 133.129  18.013  1.00  0.00     0.011 A 
ATOM     23  C   UNL     1      40.330 135.535  17.632  1.00  0.00    -0.005 A 
ATOM     24  C   UNL     1      44.956 137.338  18.779  1.00  0.00     0.001 A 
ATOM     25  C   UNL     1      42.861 138.288  18.051  1.00  0.00     0.009 A 
ATOM     26  C   UNL     1      40.908 136.831  17.609  1.00  0.00     0.030 A 
ATOM     27  C   UNL     1      39.206 132.946  17.625  1.00  0.00     0.001 A 
ATOM     28  C   UNL     1      38.991 135.317  17.229  1.00  0.00     0.009 A 
ATOM     29  C   UNL     1      44.193 138.445  18.429  1.00  0.00     0.001 A 
ATOM     30  C   UNL     1      38.438 134.037  17.236  1.00  0.00     0.001 A 
BRANCH  26  31
ATOM     31  C   UNL     1      40.096 137.988  17.161  1.00  0.00     0.261 C 
ATOM     32  O   UNL     1      40.099 138.349  15.953  1.00  0.00    -0.298 OA
ENDBRANCH  26  31
ENDBRANCH  13  17
ENDBRANCH  10  11
BRANCH  10  33
ATOM     33  C   UNL     1      43.452 133.900  16.010  1.00  0.00     0.014 C 
ATOM     34  C   UNL     1      42.470 133.416  14.935  1.00  0.00     0.010 C 
ATOM     35  C   UNL     1      44.387 134.967  15.429  1.00  0.00     0.010 C 
ENDBRANCH  10  33
ENDBRANCH   1  10
TORSDOF 10
ENDMDL
MODEL 7
REMARK VINA RESULT:      -5.9      2.426      3.656
REMARK SMILES C#C/C(=N\[C@H](c1c(C)nnn1-c1c2ccccc2c(C=O)c2ccccc12)C(C)C)OC(=O)C=C
REMARK SMILES IDX 4 1 3 2 2 3 1 4 31 5 32 6 33 7 34 8 35 9 5 10 6 11 7 12
REMARK SMILES IDX 11 13 9 14 10 15 8 16 12 17 13 18 27 19 14 20 18 21 26 22
REMARK SMILES IDX 22 23 15 24 17 25 19 26 25 27 23 28 16 29 24 30 20 31 21 32
REMARK SMILES IDX 28 33 29 34 30 35
REMARK H PARENT
ROOT
ATOM      1  N   UNL     1      43.982 133.379  16.073  1.00  0.00    -0.233 NA
ENDROOT
BRANCH   1   2
ATOM      2  C   UNL     1      44.570 132.547  15.256  1.00  0.00     0.272 C 
BRANCH   2   3
ATOM      3  C   UNL     1      43.813 131.668  14.401  1.00  0.00    -0.011 C 
ATOM      4  C   UNL     1      43.182 130.934  13.682  1.00  0.00     0.015 C 
ENDBRANCH   2   3
BRANCH   2   5
ATOM      5  O   UNL     1      45.968 132.478  15.185  1.00  0.00    -0.396 OA
BRANCH   5   6
ATOM      6  C   UNL     1      46.716 131.317  14.946  1.00  0.00     0.337 C 
ATOM      7  O   UNL     1      46.804 130.408  15.817  1.00  0.00    -0.246 OA
BRANCH   6   8
ATOM      8  C   UNL     1      47.425 131.189  13.663  1.00  0.00     0.086 C 
ATOM      9  C   UNL     1      46.863 130.654  12.581  1.00  0.00     0.016 C 
ENDBRANCH   6   8
ENDBRANCH   5   6
ENDBRANCH   2   5
ENDBRANCH   1   2
BRANCH   1  10
ATOM     10  C   UNL     1      42.572 133.350  16.473  1.00  0.00     0.163 C 
BRANCH  10  11
ATOM     11  C   UNL     1      41.896 134.653  16.068  1.00  0.00     0.092 A 
ATOM     12  C   UNL     1      41.427 135.061  14.821  1.00  0.00     0.086 A 
ATOM     13  N   UNL     1      41.563 135.648  16.923  1.00  0.00    -0.214 N 
ATOM     14  N   UNL     1      40.857 136.275  14.964  1.00  0.00    -0.135 NA
ATOM     15  N   UNL     1      40.948 136.602  16.244  1.00  0.00    -0.062 NA
ATOM     16  C   UNL     1      41.479 134.353  13.503  1.00  0.00     0.071 C 
BRANCH  13  17
ATOM     17  C   UNL     1      41.747 135.687  18.350  1.00  0.00     0.082 A 
ATOM     18  C   UNL     1      40.710 135.259  19.207  1.00  0.00     0.009 A 
ATOM     19  C   UNL     1      42.961 136.164  18.894  1.00  0.00     0.009 A 
ATOM     20  C   UNL     1      39.506 134.747  18.675  1.00  0.00     0.011 A 
ATOM     21  C   UNL     1      40.857 135.367  20.616  1.00  0.00    -0.005 A 
ATOM     22  C   UNL     1      44.033 136.530  18.050  1.00  0.00     0.011 A 
ATOM     23  C   UNL     1      43.121 136.266  20.302  1.00  0.00    -0.005 A 
ATOM     24  C   UNL     1      38.457 134.376  19.512  1.00  0.00     0.001 A 
ATOM     25  C   UNL     1      39.762 135.009  21.440  1.00  0.00     0.009 A 
ATOM     26  C   UNL     1      42.070 135.863  21.167  1.00  0.00     0.030 A 
ATOM     27  C   UNL     1      45.228 137.013  18.579  1.00  0.00     0.001 A 
ATOM     28  C   UNL     1      44.352 136.748  20.812  1.00  0.00     0.009 A 
ATOM     29  C   UNL     1      38.581 134.514  20.889  1.00  0.00     0.001 A 
ATOM     30  C   UNL     1      45.386 137.123  19.955  1.00  0.00     0.001 A 
BRANCH  26  31
ATOM     31  C   UNL     1      42.254 135.950  22.636  1.00  0.00     0.261 C 
ATOM     32  O   UNL     1      41.909 136.984  23.268  1.00  0.00    -0.298 OA
ENDBRANCH  26  31
ENDBRANCH  13  17
ENDBRANCH  10  11
BRANCH  10  33
ATOM     33  C   UNL     1      42.410 132.987  17.979  1.00  0.00     0.014 C 
ATOM     34  C   UNL     1      43.769 132.820  18.671  1.00  0.00     0.010 C 
ATOM     35  C   UNL     1      41.533 131.756  18.232  1.00  0.00     0.010 C 
ENDBRANCH  10  33
ENDBRANCH   1  10
TORSDOF 10
ENDMDL
MODEL 8
REMARK VINA RESULT:      -5.9      2.451      5.435
REMARK SMILES C#C/C(=N\[C@H](c1c(C)nnn1-c1c2ccccc2c(C=O)c2ccccc12)C(C)C)OC(=O)C=C
REMARK SMILES IDX 4 1 3 2 2 3 1 4 31 5 32 6 33 7 34 8 35 9 5 10 6 11 7 12
REMARK SMILES IDX 11 13 9 14 10 15 8 16 12 17 13 18 27 19 14 20 18 21 26 22
REMARK SMILES IDX 22 23 15 24 17 25 19 26 25 27 23 28 16 29 24 30 20 31 21 32
REMARK SMILES IDX 28 33 29 34 30 35
REMARK H PARENT
ROOT
ATOM      1  N   UNL     1      44.885 132.049  18.903  1.00  0.00    -0.233 NA
ENDROOT
BRANCH   1   2
ATOM      2  C   UNL     1      44.719 131.659  17.668  1.00  0.00     0.272 C 
BRANCH   2   3
ATOM      3  C   UNL     1      43.461 131.832  16.986  1.00  0.00    -0.011 C 
ATOM      4  C   UNL     1      42.408 131.974  16.417  1.00  0.00     0.015 C 
ENDBRANCH   2   3
BRANCH   2   5
ATOM      5  O   UNL     1      45.765 131.052  16.961  1.00  0.00    -0.396 OA
BRANCH   5   6
ATOM      6  C   UNL     1      46.226 131.439  15.695  1.00  0.00     0.337 C 
ATOM      7  O   UNL     1      46.046 132.613  15.268  1.00  0.00    -0.246 OA
BRANCH   6   8
ATOM      8  C   UNL     1      46.902 130.438  14.856  1.00  0.00     0.086 C 
ATOM      9  C   UNL     1      46.238 129.573  14.092  1.00  0.00     0.016 C 
ENDBRANCH   6   8
ENDBRANCH   5   6
ENDBRANCH   2   5
ENDBRANCH   1   2
BRANCH   1  10
ATOM     10  C   UNL     1      43.837 132.529  19.810  1.00  0.00     0.163 C 
BRANCH  10  11
ATOM     11  C   UNL     1      44.171 133.937  20.282  1.00  0.00     0.092 A 
ATOM     12  C   UNL     1      45.254 134.390  21.033  1.00  0.00     0.086 A 
ATOM     13  N   UNL     1      43.461 135.045  19.967  1.00  0.00    -0.214 N 
ATOM     14  N   UNL     1      45.147 135.728  21.157  1.00  0.00    -0.135 NA
ATOM     15  N   UNL     1      44.059 136.097  20.500  1.00  0.00    -0.062 NA
ATOM     16  C   UNL     1      46.394 133.620  21.626  1.00  0.00     0.071 C 
BRANCH  13  17
ATOM     17  C   UNL     1      42.291 135.139  19.134  1.00  0.00     0.082 A 
ATOM     18  C   UNL     1      41.005 135.048  19.712  1.00  0.00     0.009 A 
ATOM     19  C   UNL     1      42.428 135.312  17.739  1.00  0.00     0.009 A 
ATOM     20  C   UNL     1      40.855 134.912  21.109  1.00  0.00     0.011 A 
ATOM     21  C   UNL     1      39.849 135.064  18.886  1.00  0.00    -0.005 A 
ATOM     22  C   UNL     1      43.704 135.475  17.155  1.00  0.00     0.011 A 
ATOM     23  C   UNL     1      41.276 135.338  16.906  1.00  0.00    -0.005 A 
ATOM     24  C   UNL     1      39.594 134.765  21.681  1.00  0.00     0.001 A 
ATOM     25  C   UNL     1      38.582 134.883  19.494  1.00  0.00     0.009 A 
ATOM     26  C   UNL     1      39.983 135.220  17.480  1.00  0.00     0.030 A 
ATOM     27  C   UNL     1      43.847 135.631  15.779  1.00  0.00     0.001 A 
ATOM     28  C   UNL     1      41.451 135.514  15.512  1.00  0.00     0.009 A 
ATOM     29  C   UNL     1      38.462 134.742  20.875  1.00  0.00     0.001 A 
ATOM     30  C   UNL     1      42.724 135.649  14.960  1.00  0.00     0.001 A 
BRANCH  26  31
ATOM     31  C   UNL     1      38.786 135.273  16.606  1.00  0.00     0.261 C 
ATOM     32  O   UNL     1      38.317 136.377  16.222  1.00  0.00    -0.298 OA
ENDBRANCH  26  31
ENDBRANCH  13  17
ENDBRANCH  10  11
BRANCH  10  33
ATOM     33  C   UNL     1      43.566 131.515  20.960  1.00  0.00     0.014 C 
ATOM     34  C   UNL     1      42.871 132.183  22.154  1.00  0.00     0.010 C 
ATOM     35  C   UNL     1      44.813 130.756  21.430  1.00  0.00     0.010 C 
ENDBRANCH  10  33
ENDBRANCH   1  10
TORSDOF 10
ENDMDL
MODEL 9
REMARK VINA RESULT:      -5.8      2.817      5.405
REMARK SMILES C#C/C(=N\[C@H](c1c(C)nnn1-c1c2ccccc2c(C=O)c2ccccc12)C(C)C)OC(=O)C=C
REMARK SMILES IDX 4 1 3 2 2 3 1 4 31 5 32 6 33 7 34 8 35 9 5 10 6 11 7 12
REMARK SMILES IDX 11 13 9 14 10 15 8 16 12 17 13 18 27 19 14 20 18 21 26 22
REMARK SMILES IDX 22 23 15 24 17 25 19 26 25 27 23 28 16 29 24 30 20 31 21 32
REMARK SMILES IDX 28 33 29 34 30 35
REMARK H PARENT
ROOT
ATOM      1  N   UNL     1      44.157 133.282  16.489  1.00  0.00    -0.233 NA
ENDROOT
BRANCH   1   2
ATOM      2  C   UNL     1      45.006 132.305  16.317  1.00  0.00     0.272 C 
BRANCH   2   3
ATOM      3  C   UNL     1      45.338 131.398  17.387  1.00  0.00    -0.011 C 
ATOM      4  C   UNL     1      45.611 130.636  18.280  1.00  0.00     0.015 C 
ENDBRANCH   2   3
BRANCH   2   5
ATOM      5  O   UNL     1      45.631 132.107  15.078  1.00  0.00    -0.396 OA
BRANCH   5   6
ATOM      6  C   UNL     1      45.936 130.864  14.509  1.00  0.00     0.337 C 
ATOM      7  O   UNL     1      45.061 129.958  14.415  1.00  0.00    -0.246 OA
BRANCH   6   8
ATOM      8  C   UNL     1      47.310 130.620  14.045  1.00  0.00     0.086 C 
ATOM      9  C   UNL     1      47.806 131.176  12.941  1.00  0.00     0.016 C 
ENDBRANCH   6   8
ENDBRANCH   5   6
ENDBRANCH   2   5
ENDBRANCH   1   2
BRANCH   1  10
ATOM     10  C   UNL     1      42.741 133.148  16.846  1.00  0.00     0.163 C 
BRANCH  10  11
ATOM     11  C   UNL     1      41.873 133.651  15.700  1.00  0.00     0.092 A 
ATOM     12  C   UNL     1      41.744 133.163  14.401  1.00  0.00     0.086 A 
ATOM     13  N   UNL     1      40.987 134.670  15.794  1.00  0.00    -0.214 N 
ATOM     14  N   UNL     1      40.816 133.906  13.766  1.00  0.00    -0.135 NA
ATOM     15  N   UNL     1      40.372 134.804  14.631  1.00  0.00    -0.062 NA
ATOM     16  C   UNL     1      42.445 132.019  13.737  1.00  0.00     0.071 C 
BRANCH  13  17
ATOM     17  C   UNL     1      40.665 135.460  16.954  1.00  0.00     0.082 A 
ATOM     18  C   UNL     1      41.404 136.630  17.235  1.00  0.00     0.009 A 
ATOM     19  C   UNL     1      39.620 135.059  17.815  1.00  0.00     0.009 A 
ATOM     20  C   UNL     1      42.427 137.060  16.363  1.00  0.00     0.011 A 
ATOM     21  C   UNL     1      41.141 137.372  18.419  1.00  0.00    -0.005 A 
ATOM     22  C   UNL     1      38.827 133.931  17.509  1.00  0.00     0.011 A 
ATOM     23  C   UNL     1      39.344 135.800  18.996  1.00  0.00    -0.005 A 
ATOM     24  C   UNL     1      43.197 138.181  16.663  1.00  0.00     0.001 A 
ATOM     25  C   UNL     1      41.960 138.490  18.711  1.00  0.00     0.009 A 
ATOM     26  C   UNL     1      40.102 136.962  19.297  1.00  0.00     0.030 A 
ATOM     27  C   UNL     1      37.804 133.522  18.361  1.00  0.00     0.001 A 
ATOM     28  C   UNL     1      38.288 135.370  19.836  1.00  0.00     0.009 A 
ATOM     29  C   UNL     1      42.970 138.889  17.837  1.00  0.00     0.001 A 
ATOM     30  C   UNL     1      37.536 134.239  19.521  1.00  0.00     0.001 A 
BRANCH  26  31
ATOM     31  C   UNL     1      39.792 137.744  20.519  1.00  0.00     0.261 C 
ATOM     32  O   UNL     1      40.356 137.479  21.614  1.00  0.00    -0.298 OA
ENDBRANCH  26  31
ENDBRANCH  13  17
ENDBRANCH  10  11
BRANCH  10  33
ATOM     33  C   UNL     1      42.431 133.807  18.222  1.00  0.00     0.014 C 
ATOM     34  C   UNL     1      43.657 134.527  18.796  1.00  0.00     0.010 C 
ATOM     35  C   UNL     1      41.851 132.840  19.260  1.00  0.00     0.010 C 
ENDBRANCH  10  33
ENDBRANCH   1  10
TORSDOF 10
ENDMDL


