REMARK SMILES C#CCOC(=O)C[C@@H]1CC[C@H]2C(=O)[N-]c3c(N=[N+]=[N-])cc(Cl)c1c32
REMARK SMILES IDX 5 1 6 2 4 3 3 4 2 5 1 6 7 7 8 8 23 9 9 10 21 11 24 12 10 13
REMARK SMILES IDX 20 14 15 15 11 16 16 17 14 18 12 19 22 20 13 21 17 22 18 23
REMARK SMILES IDX 19 24
REMARK H PARENT
ROOT
ATOM      1  C   UNL     1       0.175   2.048   1.885  1.00  0.00     0.307 C 
ATOM      2  O   UNL     1       1.279   2.446   1.421  1.00  0.00    -0.252 OA
ENDROOT
BRANCH   1   3
ATOM      3  O   UNL     1      -1.033   2.523   1.362  1.00  0.00    -0.452 OA
BRANCH   3   4
ATOM      4  C   UNL     1      -1.112   3.410   0.250  1.00  0.00     0.322 C 
BRANCH   4   5
ATOM      5  C   UNL     1      -0.828   2.690  -0.995  1.00  0.00    -0.065 C 
ATOM      6  C   UNL     1      -0.597   2.097  -2.019  1.00  0.00     0.007 C 
ENDBRANCH   4   5
ENDBRANCH   3   4
ENDBRANCH   1   3
BRANCH   1   7
ATOM      7  C   UNL     1       0.146   1.029   2.986  1.00  0.00     0.131 C 
BRANCH   7   8
ATOM      8  C   UNL     1       0.130  -0.425   2.456  1.00  0.00     0.032 C 
ATOM      9  C   UNL     1      -0.991  -0.631   1.438  1.00  0.00    -0.023 A 
ATOM     10  C   UNL     1       1.555  -0.860   1.946  1.00  0.00     0.010 C 
ATOM     11  C   UNL     1      -2.356  -0.774   1.791  1.00  0.00     0.045 A 
ATOM     12  C   UNL     1      -0.652  -0.793   0.096  1.00  0.00    -0.048 A 
ATOM     13  C   UNL     1       1.566  -1.634   0.608  1.00  0.00     0.015 C 
ATOM     14  C   UNL     1      -3.303  -1.140   0.810  1.00  0.00     0.029 A 
ATOM     15  C   UNL     1      -1.551  -1.260  -0.834  1.00  0.00    -0.120 A 
ATOM     16  C   UNL     1       0.732  -0.866  -0.415  1.00  0.00     0.066 C 
ATOM     17  C   UNL     1      -2.898  -1.426  -0.514  1.00  0.00     0.025 A 
ATOM     18  N   UNL     1      -0.908  -1.749  -2.003  1.00  0.00    -0.626 NA
ATOM     19  C   UNL     1       0.479  -1.568  -1.716  1.00  0.00     0.062 C 
ATOM     20  Cl  UNL     1      -2.906  -0.587   3.451  1.00  0.00    -0.084 Cl
ATOM     21  O   UNL     1       1.388  -1.925  -2.510  1.00  0.00    -0.320 OA
BRANCH  17  22
ATOM     22  N   UNL     1      -3.809  -1.919  -1.505  1.00  0.00    -0.062 NA
BRANCH  22  23
ATOM     23  N   UNL     1      -5.005  -2.096  -1.267  1.00  0.00     0.005 N 
ATOM     24  N   UNL     1      -6.199  -2.273  -1.030  1.00  0.00    -0.003 NA
ENDBRANCH  22  23
ENDBRANCH  17  22
ENDBRANCH   7   8
ENDBRANCH   1   7
TORSDOF 7


