REMARK SMILES Cc1nnn(/C=C(\O)Nc2cccc(C#N)c2C)c1-c1cc2ccccc2c2ccccc12
REMARK SMILES IDX 7 1 8 2 6 4 5 5 4 6 19 7 3 8 2 9 1 10 20 11 21 12 33 13
REMARK SMILES IDX 22 14 32 15 28 16 23 17 27 18 31 19 29 20 24 21 26 22 30 23
REMARK SMILES IDX 25 24 9 25 10 27 11 28 17 29 12 30 14 31 13 32 18 33 15 34
REMARK SMILES IDX 16 35
REMARK H PARENT 8 3 9 26
ROOT
ATOM      1  C   UNL     1      -1.176  -2.622  -1.200  1.00  0.00     0.207 C 
ENDROOT
BRANCH   1   2
ATOM      2  O   UNL     1       0.091  -3.080  -1.559  1.00  0.00    -0.493 OA
ATOM      3  H   UNL     1       0.475  -2.894  -2.477  1.00  0.00     0.295 HD
ENDBRANCH   1   2
BRANCH   1   4
ATOM      4  C   UNL     1      -1.643  -2.867   0.032  1.00  0.00     0.181 C 
BRANCH   4   5
ATOM      5  N   UNL     1      -0.803  -3.420   1.051  1.00  0.00    -0.214 N 
ATOM      6  N   UNL     1      -1.145  -4.440   1.821  1.00  0.00    -0.062 NA
ATOM      7  C   UNL     1       0.387  -2.950   1.474  1.00  0.00     0.097 A 
ATOM      8  N   UNL     1      -0.208  -4.667   2.732  1.00  0.00    -0.135 NA
ATOM      9  C   UNL     1       0.753  -3.739   2.547  1.00  0.00     0.088 A 
ATOM     10  C   UNL     1       1.976  -3.612   3.397  1.00  0.00     0.071 C 
BRANCH   7  11
ATOM     11  C   UNL     1       1.011  -1.681   1.034  1.00  0.00     0.011 A 
ATOM     12  C   UNL     1       0.281  -0.507   1.222  1.00  0.00     0.019 A 
ATOM     13  C   UNL     1       2.281  -1.630   0.415  1.00  0.00    -0.008 A 
ATOM     14  C   UNL     1       0.784   0.729   0.817  1.00  0.00    -0.017 A 
ATOM     15  C   UNL     1       3.010  -2.814   0.169  1.00  0.00     0.009 A 
ATOM     16  C   UNL     1       2.823  -0.374   0.002  1.00  0.00    -0.010 A 
ATOM     17  C   UNL     1       0.007   1.882   1.019  1.00  0.00     0.009 A 
ATOM     18  C   UNL     1       2.062   0.820   0.202  1.00  0.00    -0.010 A 
ATOM     19  C   UNL     1       4.261  -2.769  -0.437  1.00  0.00     0.001 A 
ATOM     20  C   UNL     1       4.104  -0.366  -0.607  1.00  0.00     0.009 A 
ATOM     21  C   UNL     1       0.478   3.129   0.618  1.00  0.00     0.001 A 
ATOM     22  C   UNL     1       2.512   2.104  -0.198  1.00  0.00     0.009 A 
ATOM     23  C   UNL     1       4.808  -1.551  -0.817  1.00  0.00     0.001 A 
ATOM     24  C   UNL     1       1.725   3.239   0.011  1.00  0.00     0.001 A 
ENDBRANCH   7  11
ENDBRANCH   4   5
ENDBRANCH   1   4
BRANCH   1  25
ATOM     25  N   UNL     1      -1.957  -1.899  -2.163  1.00  0.00    -0.325 N 
ATOM     26  H   UNL     1      -1.659  -1.964  -3.163  1.00  0.00     0.170 HD
BRANCH  25  27
ATOM     27  C   UNL     1      -2.691  -0.727  -1.787  1.00  0.00     0.045 A 
ATOM     28  C   UNL     1      -4.012  -0.861  -1.342  1.00  0.00     0.026 A 
ATOM     29  C   UNL     1      -2.101   0.557  -1.882  1.00  0.00    -0.010 A 
ATOM     30  C   UNL     1      -4.753   0.264  -0.983  1.00  0.00     0.004 A 
ATOM     31  C   UNL     1      -2.874   1.694  -1.539  1.00  0.00     0.057 A 
ATOM     32  C   UNL     1      -4.189   1.535  -1.081  1.00  0.00     0.020 A 
ATOM     33  C   UNL     1      -0.691   0.700  -2.410  1.00  0.00     0.048 C 
BRANCH  31  34
ATOM     34  C   UNL     1      -2.351   3.034  -1.660  1.00  0.00     0.099 C 
ATOM     35  N   UNL     1      -1.932   4.109  -1.757  1.00  0.00    -0.192 NA
ENDBRANCH  31  34
ENDBRANCH  25  27
ENDBRANCH   1  25
TORSDOF 7


