MODEL 1
REMARK VINA RESULT:      -6.1      0.000      0.000
REMARK SMILES [N-]=[N+]=NC(=O)c1cc2c3c(ccc(N=[N+]=[N-])c3c1OCCc1cn(C[C@H](N=C=S)C(=O)[O-])n[nH+]1)CC2
REMARK SMILES IDX 20 1 19 2 18 3 12 4 11 5 13 6 10 7 17 8 9 9 35 10 8 11 36 12
REMARK SMILES IDX 6 13 7 14 14 15 15 16 16 17 4 18 5 19 3 20 2 21 1 22 21 23
REMARK SMILES IDX 22 24 23 25 34 26 24 27 33 28 25 30 26 31 27 32 28 33 29 34
REMARK SMILES IDX 30 35 31 36 32 37
REMARK H PARENT 34 29
ROOT
ATOM      1  C   UNL     1      43.922 132.798  15.149  1.00  0.00     0.238 C 
ENDROOT
BRANCH   1   2
ATOM      2  O   UNL     1      43.457 131.720  15.966  1.00  0.00    -0.492 OA
BRANCH   2   3
ATOM      3  C   UNL     1      44.034 131.435  17.211  1.00  0.00     0.138 A 
ATOM      4  C   UNL     1      41.804 133.068  19.821  1.00  0.00     0.011 A 
ATOM      5  C   UNL     1      42.634 132.924  20.949  1.00  0.00     0.005 A 
ATOM      6  C   UNL     1      42.203 132.572  18.547  1.00  0.00     0.049 A 
ATOM      7  C   UNL     1      43.856 132.273  20.796  1.00  0.00    -0.039 A 
ATOM      8  C   UNL     1      43.477 131.954  18.414  1.00  0.00     0.035 A 
ATOM      9  C   UNL     1      44.237 131.813  19.575  1.00  0.00    -0.008 A 
ATOM     10  C   UNL     1      44.881 131.933  21.830  1.00  0.00     0.041 C 
ATOM     11  C   UNL     1      45.426 131.162  19.628  1.00  0.00    -0.039 A 
ATOM     12  C   UNL     1      45.960 131.156  21.026  1.00  0.00     0.041 C 
ATOM     13  C   UNL     1      45.236 130.664  17.267  1.00  0.00     0.067 A 
ATOM     14  C   UNL     1      45.944 130.553  18.489  1.00  0.00     0.020 A 
BRANCH   6  15
ATOM     15  N   UNL     1      41.302 132.620  17.429  1.00  0.00    -0.060 NA
BRANCH  15  16
ATOM     16  N   UNL     1      40.562 133.582  17.216  1.00  0.00     0.005 N 
ATOM     17  N   UNL     1      39.827 134.544  17.003  1.00  0.00    -0.003 NA
ENDBRANCH  15  16
ENDBRANCH   6  15
BRANCH  13  18
ATOM     18  C   UNL     1      45.750 129.955  16.074  1.00  0.00     0.252 C 
ATOM     19  O   UNL     1      45.131 128.953  15.622  1.00  0.00    -0.287 OA
BRANCH  18  20
ATOM     20  N   UNL     1      46.911 130.440  15.396  1.00  0.00    -0.017 NA
BRANCH  20  21
ATOM     21  N   UNL     1      47.521 129.740  14.587  1.00  0.00     0.009 N 
ATOM     22  N   UNL     1      48.133 129.042  13.781  1.00  0.00    -0.003 NA
ENDBRANCH  20  21
ENDBRANCH  18  20
ENDBRANCH  13  18
ENDBRANCH   2   3
ENDBRANCH   1   2
BRANCH   1  23
ATOM     23  C   UNL     1      44.624 133.874  15.986  1.00  0.00     0.128 C 
BRANCH  23  24
ATOM     24  C   UNL     1      43.810 135.123  16.196  1.00  0.00     0.168 A 
ATOM     25  C   UNL     1      43.511 135.684  17.419  1.00  0.00     0.274 A 
ATOM     26  N   UNL     1      43.193 135.861  15.250  1.00  0.00    -0.148 N 
ATOM     27  N   UNL     1      42.716 136.741  17.169  1.00  0.00    -0.135 N 
ATOM     28  N   UNL     1      42.537 136.837  15.860  1.00  0.00     0.088 NA
ATOM     29  H   UNL     1      43.201 135.718  14.217  1.00  0.00     0.342 HD
BRANCH  27  30
ATOM     30  C   UNL     1      42.122 137.640  18.158  1.00  0.00     0.303 C 
BRANCH  30  31
ATOM     31  C   UNL     1      43.165 138.588  18.767  1.00  0.00     0.206 C 
BRANCH  31  32
ATOM     32  N   UNL     1      44.498 138.238  18.281  1.00  0.00    -0.219 NA
BRANCH  32  33
ATOM     33  C   UNL     1      45.542 138.845  18.686  1.00  0.00     0.059 C 
ATOM     34  S   UNL     1      46.864 139.610  19.198  1.00  0.00    -0.006 S 
ENDBRANCH  32  33
ENDBRANCH  31  32
BRANCH  31  35
ATOM     35  C   UNL     1      43.112 138.550  20.271  1.00  0.00     0.071 C 
ATOM     36  O   UNL     1      43.140 139.623  20.928  1.00  0.00    -0.548 OA
ATOM     37  O   UNL     1      42.980 137.341  20.942  1.00  0.00    -0.548 OA
ENDBRANCH  31  35
ENDBRANCH  30  31
ENDBRANCH  27  30
ENDBRANCH  23  24
ENDBRANCH   1  23
TORSDOF 14
ENDMDL
MODEL 2
REMARK VINA RESULT:      -6.0      3.955      4.907
REMARK SMILES [N-]=[N+]=NC(=O)c1cc2c3c(ccc(N=[N+]=[N-])c3c1OCCc1cn(C[C@H](N=C=S)C(=O)[O-])n[nH+]1)CC2
REMARK SMILES IDX 20 1 19 2 18 3 12 4 11 5 13 6 10 7 17 8 9 9 35 10 8 11 36 12
REMARK SMILES IDX 6 13 7 14 14 15 15 16 16 17 4 18 5 19 3 20 2 21 1 22 21 23
REMARK SMILES IDX 22 24 23 25 34 26 24 27 33 28 25 30 26 31 27 32 28 33 29 34
REMARK SMILES IDX 30 35 31 36 32 37
REMARK H PARENT 34 29
ROOT
ATOM      1  C   UNL     1      44.423 133.321  15.520  1.00  0.00     0.238 C 
ENDROOT
BRANCH   1   2
ATOM      2  O   UNL     1      43.583 132.546  16.381  1.00  0.00    -0.492 OA
BRANCH   2   3
ATOM      3  C   UNL     1      44.053 132.020  17.593  1.00  0.00     0.138 A 
ATOM      4  C   UNL     1      42.052 133.721  20.342  1.00  0.00     0.011 A 
ATOM      5  C   UNL     1      42.800 133.300  21.458  1.00  0.00     0.005 A 
ATOM      6  C   UNL     1      42.404 133.310  19.024  1.00  0.00     0.049 A 
ATOM      7  C   UNL     1      43.891 132.460  21.248  1.00  0.00    -0.039 A 
ATOM      8  C   UNL     1      43.552 132.490  18.840  1.00  0.00     0.035 A 
ATOM      9  C   UNL     1      44.230 132.081  19.987  1.00  0.00    -0.008 A 
ATOM     10  C   UNL     1      44.800 131.823  22.252  1.00  0.00     0.041 C 
ATOM     11  C   UNL     1      45.281 131.224  19.982  1.00  0.00    -0.039 A 
ATOM     12  C   UNL     1      45.753 130.960  21.378  1.00  0.00     0.041 C 
ATOM     13  C   UNL     1      45.094 131.043  17.576  1.00  0.00     0.067 A 
ATOM     14  C   UNL     1      45.725 130.666  18.788  1.00  0.00     0.020 A 
BRANCH   6  15
ATOM     15  N   UNL     1      41.569 133.648  17.906  1.00  0.00    -0.060 NA
BRANCH  15  16
ATOM     16  N   UNL     1      40.481 133.106  17.704  1.00  0.00     0.005 N 
ATOM     17  N   UNL     1      39.396 132.563  17.506  1.00  0.00    -0.003 NA
ENDBRANCH  15  16
ENDBRANCH   6  15
BRANCH  13  18
ATOM     18  C   UNL     1      45.519 130.394  16.315  1.00  0.00     0.252 C 
ATOM     19  O   UNL     1      44.723 129.632  15.701  1.00  0.00    -0.287 OA
BRANCH  18  20
ATOM     20  N   UNL     1      46.806 130.676  15.760  1.00  0.00    -0.017 NA
BRANCH  20  21
ATOM     21  N   UNL     1      46.949 130.913  14.561  1.00  0.00     0.009 N 
ATOM     22  N   UNL     1      47.089 131.147  13.361  1.00  0.00    -0.003 NA
ENDBRANCH  20  21
ENDBRANCH  18  20
ENDBRANCH  13  18
ENDBRANCH   2   3
ENDBRANCH   1   2
BRANCH   1  23
ATOM     23  C   UNL     1      43.865 134.733  15.315  1.00  0.00     0.128 C 
BRANCH  23  24
ATOM     24  C   UNL     1      42.427 134.772  14.870  1.00  0.00     0.168 A 
ATOM     25  C   UNL     1      41.637 135.901  14.824  1.00  0.00     0.274 A 
ATOM     26  N   UNL     1      41.659 133.724  14.506  1.00  0.00    -0.148 N 
ATOM     27  N   UNL     1      40.413 135.493  14.438  1.00  0.00    -0.135 N 
ATOM     28  N   UNL     1      40.444 134.183  14.247  1.00  0.00     0.088 NA
ATOM     29  H   UNL     1      41.933 132.721  14.435  1.00  0.00     0.342 HD
BRANCH  27  30
ATOM     30  C   UNL     1      39.227 136.331  14.266  1.00  0.00     0.303 C 
BRANCH  30  31
ATOM     31  C   UNL     1      38.646 136.216  12.850  1.00  0.00     0.206 C 
BRANCH  31  32
ATOM     32  N   UNL     1      38.088 137.502  12.436  1.00  0.00    -0.219 NA
BRANCH  32  33
ATOM     33  C   UNL     1      37.878 137.782  11.212  1.00  0.00     0.059 C 
ATOM     34  S   UNL     1      37.610 138.136   9.664  1.00  0.00    -0.006 S 
ENDBRANCH  32  33
ENDBRANCH  31  32
BRANCH  31  35
ATOM     35  C   UNL     1      37.605 135.130  12.783  1.00  0.00     0.071 C 
ATOM     36  O   UNL     1      37.865 134.046  12.197  1.00  0.00    -0.548 OA
ATOM     37  O   UNL     1      36.375 135.293  13.407  1.00  0.00    -0.548 OA
ENDBRANCH  31  35
ENDBRANCH  30  31
ENDBRANCH  27  30
ENDBRANCH  23  24
ENDBRANCH   1  23
TORSDOF 14
ENDMDL
MODEL 3
REMARK VINA RESULT:      -5.4      3.622      4.756
REMARK SMILES [N-]=[N+]=NC(=O)c1cc2c3c(ccc(N=[N+]=[N-])c3c1OCCc1cn(C[C@H](N=C=S)C(=O)[O-])n[nH+]1)CC2
REMARK SMILES IDX 20 1 19 2 18 3 12 4 11 5 13 6 10 7 17 8 9 9 35 10 8 11 36 12
REMARK SMILES IDX 6 13 7 14 14 15 15 16 16 17 4 18 5 19 3 20 2 21 1 22 21 23
REMARK SMILES IDX 22 24 23 25 34 26 24 27 33 28 25 30 26 31 27 32 28 33 29 34
REMARK SMILES IDX 30 35 31 36 32 37
REMARK H PARENT 34 29
ROOT
ATOM      1  C   UNL     1      43.943 133.861  15.155  1.00  0.00     0.238 C 
ENDROOT
BRANCH   1   2
ATOM      2  O   UNL     1      43.207 132.979  16.009  1.00  0.00    -0.492 OA
BRANCH   2   3
ATOM      3  C   UNL     1      43.823 132.281  17.056  1.00  0.00     0.138 A 
ATOM      4  C   UNL     1      41.902 133.176  20.212  1.00  0.00     0.011 A 
ATOM      5  C   UNL     1      42.776 132.629  21.170  1.00  0.00     0.005 A 
ATOM      6  C   UNL     1      42.182 133.073  18.819  1.00  0.00     0.049 A 
ATOM      7  C   UNL     1      43.922 131.972  20.727  1.00  0.00    -0.039 A 
ATOM      8  C   UNL     1      43.384 132.438  18.401  1.00  0.00     0.035 A 
ATOM      9  C   UNL     1      44.190 131.889  19.397  1.00  0.00    -0.008 A 
ATOM     10  C   UNL     1      44.967 131.256  21.522  1.00  0.00     0.041 C 
ATOM     11  C   UNL     1      45.315 131.171  19.153  1.00  0.00    -0.039 A 
ATOM     12  C   UNL     1      45.923 130.692  20.433  1.00  0.00     0.041 C 
ATOM     13  C   UNL     1      44.949 131.447  16.776  1.00  0.00     0.067 A 
ATOM     14  C   UNL     1      45.711 130.911  17.844  1.00  0.00     0.020 A 
BRANCH   6  15
ATOM     15  N   UNL     1      41.229 133.530  17.846  1.00  0.00    -0.060 NA
BRANCH  15  16
ATOM     16  N   UNL     1      40.086 133.077  17.777  1.00  0.00     0.005 N 
ATOM     17  N   UNL     1      38.945 132.623  17.709  1.00  0.00    -0.003 NA
ENDBRANCH  15  16
ENDBRANCH   6  15
BRANCH  13  18
ATOM     18  C   UNL     1      45.328 131.109  15.386  1.00  0.00     0.252 C 
ATOM     19  O   UNL     1      44.707 130.202  14.767  1.00  0.00    -0.287 OA
BRANCH  18  20
ATOM     20  N   UNL     1      46.355 131.850  14.721  1.00  0.00    -0.017 NA
BRANCH  20  21
ATOM     21  N   UNL     1      47.124 131.310  13.927  1.00  0.00     0.009 N 
ATOM     22  N   UNL     1      47.891 130.771  13.131  1.00  0.00    -0.003 NA
ENDBRANCH  20  21
ENDBRANCH  18  20
ENDBRANCH  13  18
ENDBRANCH   2   3
ENDBRANCH   1   2
BRANCH   1  23
ATOM     23  C   UNL     1      43.304 135.253  15.102  1.00  0.00     0.128 C 
BRANCH  23  24
ATOM     24  C   UNL     1      41.807 135.241  14.945  1.00  0.00     0.168 A 
ATOM     25  C   UNL     1      41.007 136.359  14.844  1.00  0.00     0.274 A 
ATOM     26  N   UNL     1      40.997 134.161  14.937  1.00  0.00    -0.148 N 
ATOM     27  N   UNL     1      39.737 135.914  14.784  1.00  0.00    -0.135 N 
ATOM     28  N   UNL     1      39.748 134.591  14.838  1.00  0.00     0.088 NA
ATOM     29  H   UNL     1      41.267 133.156  15.002  1.00  0.00     0.342 HD
BRANCH  27  30
ATOM     30  C   UNL     1      38.529 136.733  14.693  1.00  0.00     0.303 C 
BRANCH  30  31
ATOM     31  C   UNL     1      37.524 136.157  13.686  1.00  0.00     0.206 C 
BRANCH  31  32
ATOM     32  N   UNL     1      36.571 135.289  14.375  1.00  0.00    -0.219 NA
BRANCH  32  33
ATOM     33  C   UNL     1      36.484 135.260  15.645  1.00  0.00     0.059 C 
ATOM     34  S   UNL     1      36.375 135.222  17.251  1.00  0.00    -0.006 S 
ENDBRANCH  32  33
ENDBRANCH  31  32
BRANCH  31  35
ATOM     35  C   UNL     1      38.232 135.413  12.585  1.00  0.00     0.071 C 
ATOM     36  O   UNL     1      38.968 136.037  11.776  1.00  0.00    -0.548 OA
ATOM     37  O   UNL     1      38.123 134.032  12.483  1.00  0.00    -0.548 OA
ENDBRANCH  31  35
ENDBRANCH  30  31
ENDBRANCH  27  30
ENDBRANCH  23  24
ENDBRANCH   1  23
TORSDOF 14
ENDMDL
MODEL 4
REMARK VINA RESULT:      -5.4      2.012      2.280
REMARK SMILES [N-]=[N+]=NC(=O)c1cc2c3c(ccc(N=[N+]=[N-])c3c1OCCc1cn(C[C@H](N=C=S)C(=O)[O-])n[nH+]1)CC2
REMARK SMILES IDX 20 1 19 2 18 3 12 4 11 5 13 6 10 7 17 8 9 9 35 10 8 11 36 12
REMARK SMILES IDX 6 13 7 14 14 15 15 16 16 17 4 18 5 19 3 20 2 21 1 22 21 23
REMARK SMILES IDX 22 24 23 25 34 26 24 27 33 28 25 30 26 31 27 32 28 33 29 34
REMARK SMILES IDX 30 35 31 36 32 37
REMARK H PARENT 34 29
ROOT
ATOM      1  C   UNL     1      44.213 133.598  15.827  1.00  0.00     0.238 C 
ENDROOT
BRANCH   1   2
ATOM      2  O   UNL     1      43.571 132.468  16.425  1.00  0.00    -0.492 OA
BRANCH   2   3
ATOM      3  C   UNL     1      43.974 131.963  17.669  1.00  0.00     0.138 A 
ATOM      4  C   UNL     1      41.612 133.459  20.245  1.00  0.00     0.011 A 
ATOM      5  C   UNL     1      42.292 133.082  21.419  1.00  0.00     0.005 A 
ATOM      6  C   UNL     1      42.110 133.097  18.960  1.00  0.00     0.049 A 
ATOM      7  C   UNL     1      43.460 132.334  21.299  1.00  0.00    -0.039 A 
ATOM      8  C   UNL     1      43.331 132.373  18.871  1.00  0.00     0.035 A 
ATOM      9  C   UNL     1      43.937 132.002  20.070  1.00  0.00    -0.008 A 
ATOM     10  C   UNL     1      44.326 131.756  22.374  1.00  0.00     0.041 C 
ATOM     11  C   UNL     1      45.050 131.231  20.151  1.00  0.00    -0.039 A 
ATOM     12  C   UNL     1      45.418 130.984  21.581  1.00  0.00     0.041 C 
ATOM     13  C   UNL     1      45.088 131.071  17.736  1.00  0.00     0.067 A 
ATOM     14  C   UNL     1      45.640 130.727  18.996  1.00  0.00     0.020 A 
BRANCH   6  15
ATOM     15  N   UNL     1      41.351 133.384  17.775  1.00  0.00    -0.060 NA
BRANCH  15  16
ATOM     16  N   UNL     1      40.153 133.112  17.674  1.00  0.00     0.005 N 
ATOM     17  N   UNL     1      38.958 132.843  17.572  1.00  0.00    -0.003 NA
ENDBRANCH  15  16
ENDBRANCH   6  15
BRANCH  13  18
ATOM     18  C   UNL     1      45.672 130.477  16.513  1.00  0.00     0.252 C 
ATOM     19  O   UNL     1      46.906 130.221  16.464  1.00  0.00    -0.287 OA
BRANCH  18  20
ATOM     20  N   UNL     1      44.830 130.133  15.409  1.00  0.00    -0.017 NA
BRANCH  20  21
ATOM     21  N   UNL     1      45.198 130.296  14.246  1.00  0.00     0.009 N 
ATOM     22  N   UNL     1      45.570 130.457  13.085  1.00  0.00    -0.003 NA
ENDBRANCH  20  21
ENDBRANCH  18  20
ENDBRANCH  13  18
ENDBRANCH   2   3
ENDBRANCH   1   2
BRANCH   1  23
ATOM     23  C   UNL     1      43.239 134.398  14.954  1.00  0.00     0.128 C 
BRANCH  23  24
ATOM     24  C   UNL     1      43.044 135.824  15.392  1.00  0.00     0.168 A 
ATOM     25  C   UNL     1      43.145 136.281  16.689  1.00  0.00     0.274 A 
ATOM     26  N   UNL     1      42.683 136.871  14.621  1.00  0.00    -0.148 N 
ATOM     27  N   UNL     1      42.834 137.591  16.657  1.00  0.00    -0.135 N 
ATOM     28  N   UNL     1      42.562 137.931  15.406  1.00  0.00     0.088 NA
ATOM     29  H   UNL     1      42.513 136.882  13.592  1.00  0.00     0.342 HD
BRANCH  27  30
ATOM     30  C   UNL     1      42.781 138.504  17.797  1.00  0.00     0.303 C 
BRANCH  30  31
ATOM     31  C   UNL     1      41.602 138.188  18.728  1.00  0.00     0.206 C 
BRANCH  31  32
ATOM     32  N   UNL     1      41.913 137.015  19.543  1.00  0.00    -0.219 NA
BRANCH  32  33
ATOM     33  C   UNL     1      42.054 137.092  20.806  1.00  0.00     0.059 C 
ATOM     34  S   UNL     1      42.230 137.190  22.405  1.00  0.00    -0.006 S 
ENDBRANCH  32  33
ENDBRANCH  31  32
BRANCH  31  35
ATOM     35  C   UNL     1      40.337 137.974  17.939  1.00  0.00     0.071 C 
ATOM     36  O   UNL     1      39.746 136.864  17.988  1.00  0.00    -0.548 OA
ATOM     37  O   UNL     1      39.785 139.011  17.198  1.00  0.00    -0.548 OA
ENDBRANCH  31  35
ENDBRANCH  30  31
ENDBRANCH  27  30
ENDBRANCH  23  24
ENDBRANCH   1  23
TORSDOF 14
ENDMDL
MODEL 5
REMARK VINA RESULT:      -5.2      2.298      2.628
REMARK SMILES [N-]=[N+]=NC(=O)c1cc2c3c(ccc(N=[N+]=[N-])c3c1OCCc1cn(C[C@H](N=C=S)C(=O)[O-])n[nH+]1)CC2
REMARK SMILES IDX 20 1 19 2 18 3 12 4 11 5 13 6 10 7 17 8 9 9 35 10 8 11 36 12
REMARK SMILES IDX 6 13 7 14 14 15 15 16 16 17 4 18 5 19 3 20 2 21 1 22 21 23
REMARK SMILES IDX 22 24 23 25 34 26 24 27 33 28 25 30 26 31 27 32 28 33 29 34
REMARK SMILES IDX 30 35 31 36 32 37
REMARK H PARENT 34 29
ROOT
ATOM      1  C   UNL     1      44.090 132.622  15.155  1.00  0.00     0.238 C 
ENDROOT
BRANCH   1   2
ATOM      2  O   UNL     1      43.481 131.696  16.059  1.00  0.00    -0.492 OA
BRANCH   2   3
ATOM      3  C   UNL     1      44.044 131.407  17.309  1.00  0.00     0.138 A 
ATOM      4  C   UNL     1      41.712 132.915  19.906  1.00  0.00     0.011 A 
ATOM      5  C   UNL     1      42.525 132.776  21.046  1.00  0.00     0.005 A 
ATOM      6  C   UNL     1      42.151 132.457  18.630  1.00  0.00     0.049 A 
ATOM      7  C   UNL     1      43.770 132.169  20.905  1.00  0.00    -0.039 A 
ATOM      8  C   UNL     1      43.448 131.884  18.511  1.00  0.00     0.035 A 
ATOM      9  C   UNL     1      44.189 131.745  19.683  1.00  0.00    -0.008 A 
ATOM     10  C   UNL     1      44.787 131.843  21.952  1.00  0.00     0.041 C 
ATOM     11  C   UNL     1      45.398 131.133  19.747  1.00  0.00    -0.039 A 
ATOM     12  C   UNL     1      45.906 131.117  21.155  1.00  0.00     0.041 C 
ATOM     13  C   UNL     1      45.269 130.674  17.374  1.00  0.00     0.067 A 
ATOM     14  C   UNL     1      45.958 130.563  18.608  1.00  0.00     0.020 A 
BRANCH   6  15
ATOM     15  N   UNL     1      41.270 132.496  17.496  1.00  0.00    -0.060 NA
BRANCH  15  16
ATOM     16  N   UNL     1      40.318 133.275  17.425  1.00  0.00     0.005 N 
ATOM     17  N   UNL     1      39.370 134.055  17.353  1.00  0.00    -0.003 NA
ENDBRANCH  15  16
ENDBRANCH   6  15
BRANCH  13  18
ATOM     18  C   UNL     1      45.829 130.006  16.178  1.00  0.00     0.252 C 
ATOM     19  O   UNL     1      47.037 130.187  15.864  1.00  0.00    -0.287 OA
BRANCH  18  20
ATOM     20  N   UNL     1      45.021 129.106  15.414  1.00  0.00    -0.017 NA
BRANCH  20  21
ATOM     21  N   UNL     1      44.944 127.912  15.701  1.00  0.00     0.009 N 
ATOM     22  N   UNL     1      44.863 126.719  15.989  1.00  0.00    -0.003 NA
ENDBRANCH  20  21
ENDBRANCH  18  20
ENDBRANCH  13  18
ENDBRANCH   2   3
ENDBRANCH   1   2
BRANCH   1  23
ATOM     23  C   UNL     1      43.200 133.849  14.925  1.00  0.00     0.128 C 
BRANCH  23  24
ATOM     24  C   UNL     1      43.371 134.938  15.949  1.00  0.00     0.168 A 
ATOM     25  C   UNL     1      42.588 136.068  16.051  1.00  0.00     0.274 A 
ATOM     26  N   UNL     1      44.337 135.030  16.888  1.00  0.00    -0.148 N 
ATOM     27  N   UNL     1      43.112 136.807  17.046  1.00  0.00    -0.135 N 
ATOM     28  N   UNL     1      44.161 136.168  17.541  1.00  0.00     0.088 NA
ATOM     29  H   UNL     1      45.104 134.352  17.088  1.00  0.00     0.342 HD
BRANCH  27  30
ATOM     30  C   UNL     1      42.636 138.109  17.511  1.00  0.00     0.303 C 
BRANCH  30  31
ATOM     31  C   UNL     1      41.364 137.981  18.361  1.00  0.00     0.206 C 
BRANCH  31  32
ATOM     32  N   UNL     1      41.322 136.666  18.998  1.00  0.00    -0.219 NA
BRANCH  32  33
ATOM     33  C   UNL     1      40.767 136.483  20.129  1.00  0.00     0.059 C 
ATOM     34  S   UNL     1      40.065 136.249  21.559  1.00  0.00    -0.006 S 
ENDBRANCH  32  33
ENDBRANCH  31  32
BRANCH  31  35
ATOM     35  C   UNL     1      40.133 138.215  17.526  1.00  0.00     0.071 C 
ATOM     36  O   UNL     1      38.992 138.022  18.022  1.00  0.00    -0.548 OA
ATOM     37  O   UNL     1      40.243 138.692  16.226  1.00  0.00    -0.548 OA
ENDBRANCH  31  35
ENDBRANCH  30  31
ENDBRANCH  27  30
ENDBRANCH  23  24
ENDBRANCH   1  23
TORSDOF 14
ENDMDL
MODEL 6
REMARK VINA RESULT:      -5.2      3.204      3.819
REMARK SMILES [N-]=[N+]=NC(=O)c1cc2c3c(ccc(N=[N+]=[N-])c3c1OCCc1cn(C[C@H](N=C=S)C(=O)[O-])n[nH+]1)CC2
REMARK SMILES IDX 20 1 19 2 18 3 12 4 11 5 13 6 10 7 17 8 9 9 35 10 8 11 36 12
REMARK SMILES IDX 6 13 7 14 14 15 15 16 16 17 4 18 5 19 3 20 2 21 1 22 21 23
REMARK SMILES IDX 22 24 23 25 34 26 24 27 33 28 25 30 26 31 27 32 28 33 29 34
REMARK SMILES IDX 30 35 31 36 32 37
REMARK H PARENT 34 29
ROOT
ATOM      1  C   UNL     1      44.078 133.449  15.659  1.00  0.00     0.238 C 
ENDROOT
BRANCH   1   2
ATOM      2  O   UNL     1      43.448 132.381  16.373  1.00  0.00    -0.492 OA
BRANCH   2   3
ATOM      3  C   UNL     1      43.921 131.947  17.619  1.00  0.00     0.138 A 
ATOM      4  C   UNL     1      41.563 133.401  20.222  1.00  0.00     0.011 A 
ATOM      5  C   UNL     1      42.302 133.107  21.384  1.00  0.00     0.005 A 
ATOM      6  C   UNL     1      42.038 133.020  18.934  1.00  0.00     0.049 A 
ATOM      7  C   UNL     1      43.508 132.423  21.250  1.00  0.00    -0.039 A 
ATOM      8  C   UNL     1      43.296 132.364  18.828  1.00  0.00     0.035 A 
ATOM      9  C   UNL     1      43.961 132.073  20.017  1.00  0.00    -0.008 A 
ATOM     10  C   UNL     1      44.441 131.936  22.313  1.00  0.00     0.041 C 
ATOM     11  C   UNL     1      45.119 131.370  20.086  1.00  0.00    -0.039 A 
ATOM     12  C   UNL     1      45.548 131.198  21.509  1.00  0.00     0.041 C 
ATOM     13  C   UNL     1      45.087 131.123  17.678  1.00  0.00     0.067 A 
ATOM     14  C   UNL     1      45.699 130.858  18.928  1.00  0.00     0.020 A 
BRANCH   6  15
ATOM     15  N   UNL     1      41.225 133.220  17.768  1.00  0.00    -0.060 NA
BRANCH  15  16
ATOM     16  N   UNL     1      39.994 133.168  17.802  1.00  0.00     0.005 N 
ATOM     17  N   UNL     1      38.766 133.119  17.838  1.00  0.00    -0.003 NA
ENDBRANCH  15  16
ENDBRANCH   6  15
BRANCH  13  18
ATOM     18  C   UNL     1      45.662 130.517  16.457  1.00  0.00     0.252 C 
ATOM     19  O   UNL     1      46.893 130.648  16.209  1.00  0.00    -0.287 OA
BRANCH  18  20
ATOM     20  N   UNL     1      44.841 129.731  15.589  1.00  0.00    -0.017 NA
BRANCH  20  21
ATOM     21  N   UNL     1      44.581 130.100  14.444  1.00  0.00     0.009 N 
ATOM     22  N   UNL     1      44.322 130.472  13.301  1.00  0.00    -0.003 NA
ENDBRANCH  20  21
ENDBRANCH  18  20
ENDBRANCH  13  18
ENDBRANCH   2   3
ENDBRANCH   1   2
BRANCH   1  23
ATOM     23  C   UNL     1      44.327 134.659  16.565  1.00  0.00     0.128 C 
BRANCH  23  24
ATOM     24  C   UNL     1      43.321 135.767  16.408  1.00  0.00     0.168 A 
ATOM     25  C   UNL     1      42.588 136.024  15.269  1.00  0.00     0.274 A 
ATOM     26  N   UNL     1      43.011 136.721  17.311  1.00  0.00    -0.148 N 
ATOM     27  N   UNL     1      41.864 137.130  15.522  1.00  0.00    -0.135 N 
ATOM     28  N   UNL     1      42.126 137.535  16.756  1.00  0.00     0.088 NA
ATOM     29  H   UNL     1      43.384 136.834  18.279  1.00  0.00     0.342 HD
BRANCH  27  30
ATOM     30  C   UNL     1      40.946 137.802  14.604  1.00  0.00     0.303 C 
BRANCH  30  31
ATOM     31  C   UNL     1      39.533 137.918  15.191  1.00  0.00     0.206 C 
BRANCH  31  32
ATOM     32  N   UNL     1      39.157 136.661  15.834  1.00  0.00    -0.219 NA
BRANCH  32  33
ATOM     33  C   UNL     1      38.401 136.628  16.858  1.00  0.00     0.059 C 
ATOM     34  S   UNL     1      37.443 136.586  18.152  1.00  0.00    -0.006 S 
ENDBRANCH  32  33
ENDBRANCH  31  32
BRANCH  31  35
ATOM     35  C   UNL     1      38.537 138.296  14.126  1.00  0.00     0.071 C 
ATOM     36  O   UNL     1      37.990 137.400  13.431  1.00  0.00    -0.548 OA
ATOM     37  O   UNL     1      38.176 139.624  13.937  1.00  0.00    -0.548 OA
ENDBRANCH  31  35
ENDBRANCH  30  31
ENDBRANCH  27  30
ENDBRANCH  23  24
ENDBRANCH   1  23
TORSDOF 14
ENDMDL
MODEL 7
REMARK VINA RESULT:      -5.1      4.243      6.210
REMARK SMILES [N-]=[N+]=NC(=O)c1cc2c3c(ccc(N=[N+]=[N-])c3c1OCCc1cn(C[C@H](N=C=S)C(=O)[O-])n[nH+]1)CC2
REMARK SMILES IDX 20 1 19 2 18 3 12 4 11 5 13 6 10 7 17 8 9 9 35 10 8 11 36 12
REMARK SMILES IDX 6 13 7 14 14 15 15 16 16 17 4 18 5 19 3 20 2 21 1 22 21 23
REMARK SMILES IDX 22 24 23 25 34 26 24 27 33 28 25 30 26 31 27 32 28 33 29 34
REMARK SMILES IDX 30 35 31 36 32 37
REMARK H PARENT 34 29
ROOT
ATOM      1  C   UNL     1      43.205 135.312  17.092  1.00  0.00     0.238 C 
ENDROOT
BRANCH   1   2
ATOM      2  O   UNL     1      42.424 134.140  16.840  1.00  0.00    -0.492 OA
BRANCH   2   3
ATOM      3  C   UNL     1      42.972 133.005  16.226  1.00  0.00     0.138 A 
ATOM      4  C   UNL     1      45.141 131.313  18.850  1.00  0.00     0.011 A 
ATOM      5  C   UNL     1      45.802 130.381  18.028  1.00  0.00     0.005 A 
ATOM      6  C   UNL     1      44.166 132.203  18.314  1.00  0.00     0.049 A 
ATOM      7  C   UNL     1      45.476 130.339  16.674  1.00  0.00    -0.039 A 
ATOM      8  C   UNL     1      43.890 132.167  16.919  1.00  0.00     0.035 A 
ATOM      9  C   UNL     1      44.555 131.200  16.167  1.00  0.00    -0.008 A 
ATOM     10  C   UNL     1      45.975 129.414  15.611  1.00  0.00     0.041 C 
ATOM     11  C   UNL     1      44.329 130.978  14.847  1.00  0.00    -0.039 A 
ATOM     12  C   UNL     1      45.174 129.847  14.351  1.00  0.00     0.041 C 
ATOM     13  C   UNL     1      42.650 132.722  14.863  1.00  0.00     0.067 A 
ATOM     14  C   UNL     1      43.360 131.711  14.169  1.00  0.00     0.020 A 
BRANCH   6  15
ATOM     15  N   UNL     1      43.413 133.068  19.178  1.00  0.00    -0.060 NA
BRANCH  15  16
ATOM     16  N   UNL     1      43.044 132.723  20.302  1.00  0.00     0.005 N 
ATOM     17  N   UNL     1      42.673 132.381  21.423  1.00  0.00    -0.003 NA
ENDBRANCH  15  16
ENDBRANCH   6  15
BRANCH  13  18
ATOM     18  C   UNL     1      41.570 133.450  14.161  1.00  0.00     0.252 C 
ATOM     19  O   UNL     1      41.858 134.381  13.359  1.00  0.00    -0.287 OA
BRANCH  18  20
ATOM     20  N   UNL     1      40.206 133.061  14.341  1.00  0.00    -0.017 NA
BRANCH  20  21
ATOM     21  N   UNL     1      39.652 133.155  15.436  1.00  0.00     0.009 N 
ATOM     22  N   UNL     1      39.096 133.246  16.529  1.00  0.00    -0.003 NA
ENDBRANCH  20  21
ENDBRANCH  18  20
ENDBRANCH  13  18
ENDBRANCH   2   3
ENDBRANCH   1   2
BRANCH   1  23
ATOM     23  C   UNL     1      42.316 136.529  17.371  1.00  0.00     0.128 C 
BRANCH  23  24
ATOM     24  C   UNL     1      40.979 136.489  16.681  1.00  0.00     0.168 A 
ATOM     25  C   UNL     1      40.781 136.568  15.319  1.00  0.00     0.274 A 
ATOM     26  N   UNL     1      39.763 136.434  17.264  1.00  0.00    -0.148 N 
ATOM     27  N   UNL     1      39.449 136.563  15.127  1.00  0.00    -0.135 N 
ATOM     28  N   UNL     1      38.851 136.479  16.306  1.00  0.00     0.088 NA
ATOM     29  H   UNL     1      39.541 136.374  18.282  1.00  0.00     0.342 HD
BRANCH  27  30
ATOM     30  C   UNL     1      38.751 136.653  13.845  1.00  0.00     0.303 C 
BRANCH  30  31
ATOM     31  C   UNL     1      37.500 137.537  13.936  1.00  0.00     0.206 C 
BRANCH  31  32
ATOM     32  N   UNL     1      36.767 137.493  12.672  1.00  0.00    -0.219 NA
BRANCH  32  33
ATOM     33  C   UNL     1      37.345 137.231  11.568  1.00  0.00     0.059 C 
ATOM     34  S   UNL     1      38.076 136.901  10.171  1.00  0.00    -0.006 S 
ENDBRANCH  32  33
ENDBRANCH  31  32
BRANCH  31  35
ATOM     35  C   UNL     1      37.865 138.952  14.297  1.00  0.00     0.071 C 
ATOM     36  O   UNL     1      37.304 139.517  15.272  1.00  0.00    -0.548 OA
ATOM     37  O   UNL     1      38.857 139.625  13.595  1.00  0.00    -0.548 OA
ENDBRANCH  31  35
ENDBRANCH  30  31
ENDBRANCH  27  30
ENDBRANCH  23  24
ENDBRANCH   1  23
TORSDOF 14
ENDMDL
MODEL 8
REMARK VINA RESULT:      -5.1      3.511      4.552
REMARK SMILES [N-]=[N+]=NC(=O)c1cc2c3c(ccc(N=[N+]=[N-])c3c1OCCc1cn(C[C@H](N=C=S)C(=O)[O-])n[nH+]1)CC2
REMARK SMILES IDX 20 1 19 2 18 3 12 4 11 5 13 6 10 7 17 8 9 9 35 10 8 11 36 12
REMARK SMILES IDX 6 13 7 14 14 15 15 16 16 17 4 18 5 19 3 20 2 21 1 22 21 23
REMARK SMILES IDX 22 24 23 25 34 26 24 27 33 28 25 30 26 31 27 32 28 33 29 34
REMARK SMILES IDX 30 35 31 36 32 37
REMARK H PARENT 34 29
ROOT
ATOM      1  C   UNL     1      43.616 133.496  15.034  1.00  0.00     0.238 C 
ENDROOT
BRANCH   1   2
ATOM      2  O   UNL     1      44.737 133.499  15.923  1.00  0.00    -0.492 OA
BRANCH   2   3
ATOM      3  C   UNL     1      44.708 132.823  17.150  1.00  0.00     0.138 A 
ATOM      4  C   UNL     1      43.226 135.251  19.673  1.00  0.00     0.011 A 
ATOM      5  C   UNL     1      43.505 134.543  20.857  1.00  0.00     0.005 A 
ATOM      6  C   UNL     1      43.582 134.721  18.399  1.00  0.00     0.049 A 
ATOM      7  C   UNL     1      44.129 133.301  20.758  1.00  0.00    -0.039 A 
ATOM      8  C   UNL     1      44.261 133.472  18.336  1.00  0.00     0.035 A 
ATOM      9  C   UNL     1      44.477 132.807  19.541  1.00  0.00    -0.008 A 
ATOM     10  C   UNL     1      44.473 132.328  21.841  1.00  0.00     0.041 C 
ATOM     11  C   UNL     1      45.023 131.568  19.636  1.00  0.00    -0.039 A 
ATOM     12  C   UNL     1      45.080 131.126  21.065  1.00  0.00     0.041 C 
ATOM     13  C   UNL     1      45.195 131.482  17.223  1.00  0.00     0.067 A 
ATOM     14  C   UNL     1      45.373 130.866  18.487  1.00  0.00     0.020 A 
BRANCH   6  15
ATOM     15  N   UNL     1      43.190 135.394  17.192  1.00  0.00    -0.060 NA
BRANCH  15  16
ATOM     16  N   UNL     1      43.182 136.622  17.093  1.00  0.00     0.005 N 
ATOM     17  N   UNL     1      43.177 137.848  16.993  1.00  0.00    -0.003 NA
ENDBRANCH  15  16
ENDBRANCH   6  15
BRANCH  13  18
ATOM     18  C   UNL     1      45.499 130.707  16.000  1.00  0.00     0.252 C 
ATOM     19  O   UNL     1      44.564 130.153  15.357  1.00  0.00    -0.287 OA
BRANCH  18  20
ATOM     20  N   UNL     1      46.840 130.636  15.508  1.00  0.00    -0.017 NA
BRANCH  20  21
ATOM     21  N   UNL     1      47.107 130.063  14.453  1.00  0.00     0.009 N 
ATOM     22  N   UNL     1      47.376 129.493  13.397  1.00  0.00    -0.003 NA
ENDBRANCH  20  21
ENDBRANCH  18  20
ENDBRANCH  13  18
ENDBRANCH   2   3
ENDBRANCH   1   2
BRANCH   1  23
ATOM     23  C   UNL     1      42.453 132.674  15.602  1.00  0.00     0.128 C 
BRANCH  23  24
ATOM     24  C   UNL     1      41.146 133.417  15.670  1.00  0.00     0.168 A 
ATOM     25  C   UNL     1      40.468 133.938  14.588  1.00  0.00     0.274 A 
ATOM     26  N   UNL     1      40.454 133.749  16.780  1.00  0.00    -0.148 N 
ATOM     27  N   UNL     1      39.391 134.574  15.085  1.00  0.00    -0.135 N 
ATOM     28  N   UNL     1      39.395 134.449  16.403  1.00  0.00     0.088 NA
ATOM     29  H   UNL     1      40.683 133.521  17.771  1.00  0.00     0.342 HD
BRANCH  27  30
ATOM     30  C   UNL     1      38.379 135.304  14.322  1.00  0.00     0.303 C 
BRANCH  30  31
ATOM     31  C   UNL     1      38.645 136.816  14.321  1.00  0.00     0.206 C 
BRANCH  31  32
ATOM     32  N   UNL     1      37.526 137.518  14.947  1.00  0.00    -0.219 NA
BRANCH  32  33
ATOM     33  C   UNL     1      37.339 137.498  16.206  1.00  0.00     0.059 C 
ATOM     34  S   UNL     1      37.104 137.474  17.800  1.00  0.00    -0.006 S 
ENDBRANCH  32  33
ENDBRANCH  31  32
BRANCH  31  35
ATOM     35  C   UNL     1      38.881 137.320  12.922  1.00  0.00     0.071 C 
ATOM     36  O   UNL     1      39.181 138.528  12.731  1.00  0.00    -0.548 OA
ATOM     37  O   UNL     1      38.823 136.451  11.840  1.00  0.00    -0.548 OA
ENDBRANCH  31  35
ENDBRANCH  30  31
ENDBRANCH  27  30
ENDBRANCH  23  24
ENDBRANCH   1  23
TORSDOF 14
ENDMDL
MODEL 9
REMARK VINA RESULT:      -5.0      3.733      4.931
REMARK SMILES [N-]=[N+]=NC(=O)c1cc2c3c(ccc(N=[N+]=[N-])c3c1OCCc1cn(C[C@H](N=C=S)C(=O)[O-])n[nH+]1)CC2
REMARK SMILES IDX 20 1 19 2 18 3 12 4 11 5 13 6 10 7 17 8 9 9 35 10 8 11 36 12
REMARK SMILES IDX 6 13 7 14 14 15 15 16 16 17 4 18 5 19 3 20 2 21 1 22 21 23
REMARK SMILES IDX 22 24 23 25 34 26 24 27 33 28 25 30 26 31 27 32 28 33 29 34
REMARK SMILES IDX 30 35 31 36 32 37
REMARK H PARENT 34 29
ROOT
ATOM      1  C   UNL     1      44.304 134.814  17.126  1.00  0.00     0.238 C 
ENDROOT
BRANCH   1   2
ATOM      2  O   UNL     1      43.415 133.858  17.711  1.00  0.00    -0.492 OA
BRANCH   2   3
ATOM      3  C   UNL     1      43.823 133.006  18.746  1.00  0.00     0.138 A 
ATOM      4  C   UNL     1      42.619 134.604  21.979  1.00  0.00     0.011 A 
ATOM      5  C   UNL     1      43.314 133.798  22.901  1.00  0.00     0.005 A 
ATOM      6  C   UNL     1      42.728 134.377  20.577  1.00  0.00     0.049 A 
ATOM      7  C   UNL     1      44.107 132.762  22.412  1.00  0.00    -0.039 A 
ATOM      8  C   UNL     1      43.583 133.341  20.109  1.00  0.00     0.035 A 
ATOM      9  C   UNL     1      44.216 132.559  21.073  1.00  0.00    -0.008 A 
ATOM     10  C   UNL     1      44.886 131.733  23.168  1.00  0.00     0.041 C 
ATOM     11  C   UNL     1      44.984 131.477  20.787  1.00  0.00    -0.039 A 
ATOM     12  C   UNL     1      45.483 130.838  22.045  1.00  0.00     0.041 C 
ATOM     13  C   UNL     1      44.547 131.816  18.431  1.00  0.00     0.067 A 
ATOM     14  C   UNL     1      45.151 131.063  19.469  1.00  0.00     0.020 A 
BRANCH   6  15
ATOM     15  N   UNL     1      41.926 135.127  19.651  1.00  0.00    -0.060 NA
BRANCH  15  16
ATOM     16  N   UNL     1      40.696 135.063  19.638  1.00  0.00     0.005 N 
ATOM     17  N   UNL     1      39.468 135.001  19.622  1.00  0.00    -0.003 NA
ENDBRANCH  15  16
ENDBRANCH   6  15
BRANCH  13  18
ATOM     18  C   UNL     1      44.664 131.334  17.037  1.00  0.00     0.252 C 
ATOM     19  O   UNL     1      43.650 131.329  16.285  1.00  0.00    -0.287 OA
BRANCH  18  20
ATOM     20  N   UNL     1      45.935 130.932  16.519  1.00  0.00    -0.017 NA
BRANCH  20  21
ATOM     21  N   UNL     1      46.351 131.355  15.441  1.00  0.00     0.009 N 
ATOM     22  N   UNL     1      46.769 131.781  14.365  1.00  0.00    -0.003 NA
ENDBRANCH  20  21
ENDBRANCH  18  20
ENDBRANCH  13  18
ENDBRANCH   2   3
ENDBRANCH   1   2
BRANCH   1  23
ATOM     23  C   UNL     1      43.559 136.080  16.690  1.00  0.00     0.128 C 
BRANCH  23  24
ATOM     24  C   UNL     1      42.564 135.861  15.582  1.00  0.00     0.168 A 
ATOM     25  C   UNL     1      41.397 136.573  15.405  1.00  0.00     0.274 A 
ATOM     26  N   UNL     1      42.606 134.910  14.625  1.00  0.00    -0.148 N 
ATOM     27  N   UNL     1      40.771 136.023  14.348  1.00  0.00    -0.135 N 
ATOM     28  N   UNL     1      41.512 135.026  13.888  1.00  0.00     0.088 NA
ATOM     29  H   UNL     1      43.346 134.192  14.466  1.00  0.00     0.342 HD
BRANCH  27  30
ATOM     30  C   UNL     1      39.481 136.425  13.790  1.00  0.00     0.303 C 
BRANCH  30  31
ATOM     31  C   UNL     1      38.984 135.436  12.727  1.00  0.00     0.206 C 
BRANCH  31  32
ATOM     32  N   UNL     1      38.268 136.155  11.675  1.00  0.00    -0.219 NA
BRANCH  32  33
ATOM     33  C   UNL     1      38.177 137.425  11.670  1.00  0.00     0.059 C 
ATOM     34  S   UNL     1      38.060 139.031  11.662  1.00  0.00    -0.006 S 
ENDBRANCH  32  33
ENDBRANCH  31  32
BRANCH  31  35
ATOM     35  C   UNL     1      38.111 134.376  13.345  1.00  0.00     0.071 C 
ATOM     36  O   UNL     1      36.858 134.496  13.311  1.00  0.00    -0.548 OA
ATOM     37  O   UNL     1      38.674 133.238  13.908  1.00  0.00    -0.548 OA
ENDBRANCH  31  35
ENDBRANCH  30  31
ENDBRANCH  27  30
ENDBRANCH  23  24
ENDBRANCH   1  23
TORSDOF 14
ENDMDL


