REMARK SMILES COC[C@@H](C)NCc1c(C)n[nH+]n1-c1cc2ccccc2c2ccccc12
REMARK SMILES IDX 4 1 5 2 3 3 2 4 1 5 6 6 7 8 8 9 9 10 13 11 11 12 12 13 10 14
REMARK SMILES IDX 14 16 15 17 27 18 16 19 26 20 22 21 17 22 21 23 25 24 23 25
REMARK SMILES IDX 18 26 20 27 24 28 19 29
REMARK H PARENT 6 7 12 15
ROOT
ATOM      1  C   UNL     1       2.379   0.400  -1.722  1.00  0.00     0.076 C 
ATOM      2  C   UNL     1       3.758   0.045  -2.286  1.00  0.00     0.027 C 
ENDROOT
BRANCH   1   3
ATOM      3  C   UNL     1       2.410   1.805  -1.093  1.00  0.00     0.178 C 
BRANCH   3   4
ATOM      4  O   UNL     1       1.098   2.177  -0.719  1.00  0.00    -0.383 OA
ATOM      5  C   UNL     1       1.145   3.334   0.084  1.00  0.00     0.194 C 
ENDBRANCH   3   4
ENDBRANCH   1   3
BRANCH   1   6
ATOM      6  N   UNL     1       1.991  -0.623  -0.727  1.00  0.00    -0.306 NA
ATOM      7  H   UNL     1       1.508  -0.175   0.085  1.00  0.00     0.123 HD
BRANCH   6   8
ATOM      8  C   UNL     1       1.079  -1.620  -1.303  1.00  0.00     0.144 C 
BRANCH   8   9
ATOM      9  C   UNL     1       0.635  -2.588  -0.240  1.00  0.00     0.126 A 
ATOM     10  C   UNL     1       1.194  -3.815   0.069  1.00  0.00     0.134 A 
ATOM     11  N   UNL     1      -0.263  -2.325   0.732  1.00  0.00    -0.099 N 
ATOM     12  N   UNL     1       0.634  -4.260   1.216  1.00  0.00     0.020 NA
ATOM     13  N   UNL     1      -0.240  -3.335   1.586  1.00  0.00    -0.012 N 
ATOM     14  C   UNL     1       2.313  -4.501  -0.641  1.00  0.00     0.076 C 
ATOM     15  H   UNL     1      -0.808  -3.386   2.461  1.00  0.00     0.527 HD
BRANCH  11  16
ATOM     16  C   UNL     1      -0.980  -1.099   0.940  1.00  0.00     0.116 A 
ATOM     17  C   UNL     1      -0.565  -0.257   1.971  1.00  0.00     0.042 A 
ATOM     18  C   UNL     1      -2.032  -0.706   0.087  1.00  0.00     0.012 A 
ATOM     19  C   UNL     1      -1.133   1.006   2.141  1.00  0.00    -0.015 A 
ATOM     20  C   UNL     1      -2.500  -1.582  -0.913  1.00  0.00     0.011 A 
ATOM     21  C   UNL     1      -2.636   0.578   0.242  1.00  0.00    -0.008 A 
ATOM     22  C   UNL     1      -0.654   1.841   3.164  1.00  0.00     0.009 A 
ATOM     23  C   UNL     1      -2.171   1.450   1.275  1.00  0.00    -0.010 A 
ATOM     24  C   UNL     1      -3.530  -1.202  -1.766  1.00  0.00     0.001 A 
ATOM     25  C   UNL     1      -3.680   0.934  -0.646  1.00  0.00     0.009 A 
ATOM     26  C   UNL     1      -1.188   3.114   3.344  1.00  0.00     0.001 A 
ATOM     27  C   UNL     1      -2.696   2.751   1.485  1.00  0.00     0.009 A 
ATOM     28  C   UNL     1      -4.114   0.052  -1.636  1.00  0.00     0.001 A 
ATOM     29  C   UNL     1      -2.205   3.566   2.507  1.00  0.00     0.001 A 
ENDBRANCH  11  16
ENDBRANCH   8   9
ENDBRANCH   6   8
ENDBRANCH   1   6
TORSDOF 6


