REMARK SMILES CC(=O)n1cc[nH+]c1[C@H](N=C=O)C(=O)Oc1cccc2c(Cl)c(Cl)c(Cl)c(N=[N+]=[N-])c12
REMARK SMILES IDX 13 1 14 2 9 3 8 4 4 5 5 6 6 7 7 8 2 10 1 11 3 12 10 13 11 14
REMARK SMILES IDX 12 15 15 16 16 17 17 18 31 19 18 20 27 21 20 22 19 23 25 24
REMARK SMILES IDX 21 25 23 26 26 27 22 28 24 29 28 30 29 31 30 32
REMARK H PARENT 7 9
ROOT
ATOM      1  C   UNL     1      -0.903   1.931  -0.080  1.00  0.00     0.350 C 
ATOM      2  O   UNL     1      -0.627   2.967  -0.745  1.00  0.00    -0.248 OA
ENDROOT
BRANCH   1   3
ATOM      3  C   UNL     1      -2.185   1.872   0.713  1.00  0.00     0.342 C 
BRANCH   3   4
ATOM      4  C   UNL     1      -2.481   0.462   1.172  1.00  0.00     0.299 A 
ATOM      5  N   UNL     1      -2.664  -0.627   0.373  1.00  0.00    -0.167 N 
ATOM      6  C   UNL     1      -2.847  -1.660   1.226  1.00  0.00     0.252 A 
ATOM      7  C   UNL     1      -2.777  -1.188   2.518  1.00  0.00     0.241 A 
ATOM      8  N   UNL     1      -2.548   0.137   2.481  1.00  0.00    -0.245 N 
ATOM      9  H   UNL     1      -2.437   0.775   3.301  1.00  0.00     0.311 HD
BRANCH   5  10
ATOM     10  C   UNL     1      -2.669  -0.722  -1.069  1.00  0.00     0.311 C 
ATOM     11  C   UNL     1      -2.758  -2.055  -1.753  1.00  0.00     0.145 C 
ATOM     12  O   UNL     1      -2.625   0.316  -1.783  1.00  0.00    -0.247 OA
ENDBRANCH   5  10
ENDBRANCH   3   4
BRANCH   3  13
ATOM     13  N   UNL     1      -3.322   2.378  -0.055  1.00  0.00    -0.177 NA
BRANCH  13  14
ATOM     14  C   UNL     1      -3.495   3.623  -0.272  1.00  0.00     0.236 C 
ATOM     15  O   UNL     1      -3.663   4.831  -0.482  1.00  0.00    -0.211 OA
ENDBRANCH  13  14
ENDBRANCH   3  13
ENDBRANCH   1   3
BRANCH   1  16
ATOM     16  O   UNL     1       0.027   0.886   0.032  1.00  0.00    -0.424 OA
BRANCH  16  17
ATOM     17  C   UNL     1       1.143   0.683  -0.794  1.00  0.00     0.139 A 
ATOM     18  C   UNL     1       1.090   1.055  -2.147  1.00  0.00     0.048 A 
ATOM     19  C   UNL     1       2.319   0.066  -0.275  1.00  0.00     0.037 A 
ATOM     20  C   UNL     1       2.187   0.873  -2.978  1.00  0.00     0.005 A 
ATOM     21  C   UNL     1       2.404  -0.382   1.075  1.00  0.00     0.069 A 
ATOM     22  C   UNL     1       3.443  -0.108  -1.136  1.00  0.00     0.006 A 
ATOM     23  C   UNL     1       3.356   0.308  -2.480  1.00  0.00     0.010 A 
ATOM     24  C   UNL     1       3.618  -0.921   1.562  1.00  0.00     0.071 A 
ATOM     25  C   UNL     1       4.632  -0.688  -0.641  1.00  0.00     0.069 A 
ATOM     26  C   UNL     1       4.718  -1.077   0.706  1.00  0.00     0.079 A 
ATOM     27  Cl  UNL     1       3.808  -1.323   3.276  1.00  0.00    -0.082 Cl
ATOM     28  Cl  UNL     1       6.044  -0.920  -1.686  1.00  0.00    -0.082 Cl
ATOM     29  Cl  UNL     1       6.232  -1.742   1.334  1.00  0.00    -0.081 Cl
BRANCH  21  30
ATOM     30  N   UNL     1       1.262  -0.261   1.940  1.00  0.00    -0.058 NA
BRANCH  30  31
ATOM     31  N   UNL     1       0.923  -1.151   2.723  1.00  0.00     0.005 N 
ATOM     32  N   UNL     1       0.578  -2.039   3.502  1.00  0.00    -0.003 NA
ENDBRANCH  30  31
ENDBRANCH  21  30
ENDBRANCH  16  17
ENDBRANCH   1  16
TORSDOF 9


