MODEL 1
REMARK VINA RESULT:      -8.1      0.000      0.000
REMARK SMILES [H]/N=C\N(C(=O)/C(C)=C\n1n[nH+]c(C)c1-c1c2ccccc2cc2c(N=[N+]=[N-])cccc12)C(O)=C1CC1
REMARK SMILES IDX 7 1 8 2 5 3 6 4 4 5 3 6 2 7 1 8 33 9 34 10 35 12 36 13 37 14
REMARK SMILES IDX 9 15 10 16 11 17 15 18 12 19 13 20 14 22 16 23 17 24 32 25
REMARK SMILES IDX 18 26 22 27 31 28 24 29 19 30 21 31 23 32 30 33 25 34 20 35
REMARK SMILES IDX 29 36 26 37 27 38 28 39
REMARK H PARENT 34 11 12 21
ROOT
ATOM      1  C   UNL     1      43.968 131.749  17.773  1.00  0.00     0.057 C 
ATOM      2  C   UNL     1      44.273 132.554  19.010  1.00  0.00     0.054 C 
ENDROOT
BRANCH   1   3
ATOM      3  C   UNL     1      45.045 130.871  17.243  1.00  0.00     0.265 C 
ATOM      4  O   UNL     1      45.843 130.345  18.067  1.00  0.00    -0.268 OA
BRANCH   3   5
ATOM      5  N   UNL     1      45.244 130.642  15.829  1.00  0.00    -0.238 N 
BRANCH   5   6
ATOM      6  C   UNL     1      44.804 129.405  15.232  1.00  0.00     0.201 C 
BRANCH   6   7
ATOM      7  N   UNL     1      45.254 128.255  15.628  1.00  0.00    -0.291 NA
ATOM      8  H   UNL     1      44.807 127.351  15.358  1.00  0.00     0.189 HD
ENDBRANCH   6   7
ENDBRANCH   5   6
BRANCH   5   9
ATOM      9  C   UNL     1      46.004 131.548  14.999  1.00  0.00     0.198 C 
BRANCH   9  10
ATOM     10  O   UNL     1      45.974 132.918  15.246  1.00  0.00    -0.494 OA
ATOM     11  H   UNL     1      46.802 133.429  15.530  1.00  0.00     0.295 HD
ENDBRANCH   9  10
BRANCH   9  12
ATOM     12  C   UNL     1      46.722 131.119  13.965  1.00  0.00    -0.009 C 
ATOM     13  C   UNL     1      48.014 130.665  13.289  1.00  0.00     0.041 C 
ATOM     14  C   UNL     1      46.824 130.687  12.505  1.00  0.00     0.041 C 
ENDBRANCH   9  12
ENDBRANCH   5   9
ENDBRANCH   3   5
ENDBRANCH   1   3
BRANCH   1  15
ATOM     15  C   UNL     1      42.729 131.826  17.250  1.00  0.00     0.242 C 
BRANCH  15  16
ATOM     16  N   UNL     1      42.369 132.650  16.130  1.00  0.00    -0.101 N 
ATOM     17  N   UNL     1      42.450 132.293  14.855  1.00  0.00     0.093 NA
ATOM     18  C   UNL     1      41.766 133.856  16.188  1.00  0.00     0.207 A 
ATOM     19  N   UNL     1      41.948 133.249  14.087  1.00  0.00    -0.147 N 
ATOM     20  C   UNL     1      41.500 134.234  14.887  1.00  0.00     0.170 A 
ATOM     21  H   UNL     1      41.911 133.216  13.045  1.00  0.00     0.342 HD
ATOM     22  C   UNL     1      40.894 135.516  14.415  1.00  0.00     0.100 C 
BRANCH  18  23
ATOM     23  C   UNL     1      41.426 134.595  17.429  1.00  0.00     0.044 A 
ATOM     24  C   UNL     1      42.374 135.466  18.022  1.00  0.00    -0.006 A 
ATOM     25  C   UNL     1      40.161 134.402  18.048  1.00  0.00    -0.006 A 
ATOM     26  C   UNL     1      43.632 135.712  17.428  1.00  0.00     0.009 A 
ATOM     27  C   UNL     1      42.067 136.107  19.246  1.00  0.00    -0.017 A 
ATOM     28  C   UNL     1      39.179 133.571  17.468  1.00  0.00     0.009 A 
ATOM     29  C   UNL     1      39.865 135.058  19.275  1.00  0.00    -0.007 A 
ATOM     30  C   UNL     1      44.559 136.556  18.042  1.00  0.00     0.001 A 
ATOM     31  C   UNL     1      43.010 136.955  19.852  1.00  0.00     0.009 A 
ATOM     32  C   UNL     1      40.827 135.898  19.858  1.00  0.00     0.018 A 
ATOM     33  C   UNL     1      37.946 133.384  18.087  1.00  0.00     0.001 A 
ATOM     34  C   UNL     1      38.608 134.861  19.899  1.00  0.00     0.045 A 
ATOM     35  C   UNL     1      44.250 137.174  19.252  1.00  0.00     0.001 A 
ATOM     36  C   UNL     1      37.661 134.019  19.292  1.00  0.00     0.011 A 
BRANCH  34  37
ATOM     37  N   UNL     1      38.312 135.520  21.143  1.00  0.00    -0.060 NA
BRANCH  37  38
ATOM     38  N   UNL     1      37.630 136.544  21.205  1.00  0.00     0.005 N 
ATOM     39  N   UNL     1      36.949 137.567  21.266  1.00  0.00    -0.003 NA
ENDBRANCH  37  38
ENDBRANCH  34  37
ENDBRANCH  18  23
ENDBRANCH  15  16
ENDBRANCH   1  15
TORSDOF 12
ENDMDL
MODEL 2
REMARK VINA RESULT:      -7.2      2.900      4.807
REMARK SMILES [H]/N=C\N(C(=O)/C(C)=C\n1n[nH+]c(C)c1-c1c2ccccc2cc2c(N=[N+]=[N-])cccc12)C(O)=C1CC1
REMARK SMILES IDX 7 1 8 2 5 3 6 4 4 5 3 6 2 7 1 8 33 9 34 10 35 12 36 13 37 14
REMARK SMILES IDX 9 15 10 16 11 17 15 18 12 19 13 20 14 22 16 23 17 24 32 25
REMARK SMILES IDX 18 26 22 27 31 28 24 29 19 30 21 31 23 32 30 33 25 34 20 35
REMARK SMILES IDX 29 36 26 37 27 38 28 39
REMARK H PARENT 34 11 12 21
ROOT
ATOM      1  C   UNL     1      43.145 132.658  16.003  1.00  0.00     0.057 C 
ATOM      2  C   UNL     1      42.831 133.684  14.944  1.00  0.00     0.054 C 
ENDROOT
BRANCH   1   3
ATOM      3  C   UNL     1      44.565 132.247  16.159  1.00  0.00     0.265 C 
ATOM      4  O   UNL     1      45.349 133.032  16.760  1.00  0.00    -0.268 OA
BRANCH   3   5
ATOM      5  N   UNL     1      45.091 131.017  15.608  1.00  0.00    -0.238 N 
BRANCH   5   6
ATOM      6  C   UNL     1      45.658 130.021  16.483  1.00  0.00     0.201 C 
BRANCH   6   7
ATOM      7  N   UNL     1      46.524 130.326  17.397  1.00  0.00    -0.291 NA
ATOM      8  H   UNL     1      46.419 131.158  18.020  1.00  0.00     0.189 HD
ENDBRANCH   6   7
ENDBRANCH   5   6
BRANCH   5   9
ATOM      9  C   UNL     1      45.206 130.797  14.184  1.00  0.00     0.198 C 
BRANCH   9  10
ATOM     10  O   UNL     1      44.064 130.726  13.390  1.00  0.00    -0.494 OA
ATOM     11  H   UNL     1      43.268 130.156  13.649  1.00  0.00     0.295 HD
ENDBRANCH   9  10
BRANCH   9  12
ATOM     12  C   UNL     1      46.385 130.622  13.594  1.00  0.00    -0.009 C 
ATOM     13  C   UNL     1      47.641 131.107  12.871  1.00  0.00     0.041 C 
ATOM     14  C   UNL     1      47.526 129.712  13.146  1.00  0.00     0.041 C 
ENDBRANCH   9  12
ENDBRANCH   5   9
ENDBRANCH   3   5
ENDBRANCH   1   3
BRANCH   1  15
ATOM     15  C   UNL     1      42.139 132.214  16.780  1.00  0.00     0.242 C 
BRANCH  15  16
ATOM     16  N   UNL     1      41.123 133.054  17.352  1.00  0.00    -0.101 N 
ATOM     17  N   UNL     1      39.827 132.988  17.077  1.00  0.00     0.093 NA
ATOM     18  C   UNL     1      41.292 133.941  18.355  1.00  0.00     0.207 A 
ATOM     19  N   UNL     1      39.160 133.834  17.848  1.00  0.00    -0.147 N 
ATOM     20  C   UNL     1      40.042 134.436  18.667  1.00  0.00     0.170 A 
ATOM     21  H   UNL     1      38.128 133.983  17.812  1.00  0.00     0.342 HD
ATOM     22  C   UNL     1      39.703 135.491  19.669  1.00  0.00     0.100 C 
BRANCH  18  23
ATOM     23  C   UNL     1      42.582 134.272  19.008  1.00  0.00     0.044 A 
ATOM     24  C   UNL     1      43.157 133.377  19.945  1.00  0.00    -0.006 A 
ATOM     25  C   UNL     1      43.228 135.505  18.724  1.00  0.00    -0.006 A 
ATOM     26  C   UNL     1      42.568 132.127  20.238  1.00  0.00     0.009 A 
ATOM     27  C   UNL     1      44.349 133.737  20.618  1.00  0.00    -0.017 A 
ATOM     28  C   UNL     1      42.704 136.405  17.771  1.00  0.00     0.009 A 
ATOM     29  C   UNL     1      44.428 135.851  19.404  1.00  0.00    -0.007 A 
ATOM     30  C   UNL     1      43.139 131.271  21.181  1.00  0.00     0.001 A 
ATOM     31  C   UNL     1      44.914 132.865  21.565  1.00  0.00     0.009 A 
ATOM     32  C   UNL     1      44.968 134.961  20.347  1.00  0.00     0.018 A 
ATOM     33  C   UNL     1      43.341 137.615  17.506  1.00  0.00     0.001 A 
ATOM     34  C   UNL     1      45.069 137.085  19.129  1.00  0.00     0.045 A 
ATOM     35  C   UNL     1      44.308 131.641  21.845  1.00  0.00     0.001 A 
ATOM     36  C   UNL     1      44.511 137.956  18.178  1.00  0.00     0.011 A 
BRANCH  34  37
ATOM     37  N   UNL     1      46.279 137.436  19.822  1.00  0.00    -0.060 NA
BRANCH  37  38
ATOM     38  N   UNL     1      47.223 137.998  19.265  1.00  0.00     0.005 N 
ATOM     39  N   UNL     1      48.167 138.560  18.709  1.00  0.00    -0.003 NA
ENDBRANCH  37  38
ENDBRANCH  34  37
ENDBRANCH  18  23
ENDBRANCH  15  16
ENDBRANCH   1  15
TORSDOF 12
ENDMDL
MODEL 3
REMARK VINA RESULT:      -7.0      3.489      5.408
REMARK SMILES [H]/N=C\N(C(=O)/C(C)=C\n1n[nH+]c(C)c1-c1c2ccccc2cc2c(N=[N+]=[N-])cccc12)C(O)=C1CC1
REMARK SMILES IDX 7 1 8 2 5 3 6 4 4 5 3 6 2 7 1 8 33 9 34 10 35 12 36 13 37 14
REMARK SMILES IDX 9 15 10 16 11 17 15 18 12 19 13 20 14 22 16 23 17 24 32 25
REMARK SMILES IDX 18 26 22 27 31 28 24 29 19 30 21 31 23 32 30 33 25 34 20 35
REMARK SMILES IDX 29 36 26 37 27 38 28 39
REMARK H PARENT 34 11 12 21
ROOT
ATOM      1  C   UNL     1      44.575 132.578  16.387  1.00  0.00     0.057 C 
ATOM      2  C   UNL     1      44.806 133.962  15.839  1.00  0.00     0.054 C 
ENDROOT
BRANCH   1   3
ATOM      3  C   UNL     1      44.384 131.474  15.410  1.00  0.00     0.265 C 
ATOM      4  O   UNL     1      43.443 131.575  14.575  1.00  0.00    -0.268 OA
BRANCH   3   5
ATOM      5  N   UNL     1      45.194 130.276  15.413  1.00  0.00    -0.238 N 
BRANCH   5   6
ATOM      6  C   UNL     1      44.634 129.031  15.878  1.00  0.00     0.201 C 
BRANCH   6   7
ATOM      7  N   UNL     1      45.231 127.897  15.684  1.00  0.00    -0.291 NA
ATOM      8  H   UNL     1      46.243 127.748  15.898  1.00  0.00     0.189 HD
ENDBRANCH   6   7
ENDBRANCH   5   6
BRANCH   5   9
ATOM      9  C   UNL     1      46.605 130.296  15.101  1.00  0.00     0.198 C 
BRANCH   9  10
ATOM     10  O   UNL     1      47.545 129.988  16.082  1.00  0.00    -0.494 OA
ATOM     11  H   UNL     1      47.465 129.157  16.656  1.00  0.00     0.295 HD
ENDBRANCH   9  10
BRANCH   9  12
ATOM     12  C   UNL     1      47.053 130.637  13.896  1.00  0.00    -0.009 C 
ATOM     13  C   UNL     1      48.053 131.284  12.939  1.00  0.00     0.041 C 
ATOM     14  C   UNL     1      46.914 130.637  12.377  1.00  0.00     0.041 C 
ENDBRANCH   9  12
ENDBRANCH   5   9
ENDBRANCH   3   5
ENDBRANCH   1   3
BRANCH   1  15
ATOM     15  C   UNL     1      44.607 132.407  17.723  1.00  0.00     0.242 C 
BRANCH  15  16
ATOM     16  N   UNL     1      43.459 132.499  18.583  1.00  0.00    -0.101 N 
ATOM     17  N   UNL     1      42.564 131.539  18.774  1.00  0.00     0.093 NA
ATOM     18  C   UNL     1      43.178 133.507  19.435  1.00  0.00     0.207 A 
ATOM     19  N   UNL     1      41.693 131.914  19.699  1.00  0.00    -0.147 N 
ATOM     20  C   UNL     1      42.054 133.132  20.143  1.00  0.00     0.170 A 
ATOM     21  H   UNL     1      40.881 131.342  20.018  1.00  0.00     0.342 HD
ATOM     22  C   UNL     1      41.312 133.930  21.165  1.00  0.00     0.100 C 
BRANCH  18  23
ATOM     23  C   UNL     1      43.969 134.753  19.590  1.00  0.00     0.044 A 
ATOM     24  C   UNL     1      43.662 135.893  18.805  1.00  0.00    -0.006 A 
ATOM     25  C   UNL     1      45.058 134.796  20.501  1.00  0.00    -0.006 A 
ATOM     26  C   UNL     1      42.571 135.909  17.909  1.00  0.00     0.009 A 
ATOM     27  C   UNL     1      44.470 137.052  18.908  1.00  0.00    -0.017 A 
ATOM     28  C   UNL     1      45.370 133.693  21.324  1.00  0.00     0.009 A 
ATOM     29  C   UNL     1      45.857 135.969  20.597  1.00  0.00    -0.007 A 
ATOM     30  C   UNL     1      42.302 137.035  17.129  1.00  0.00     0.001 A 
ATOM     31  C   UNL     1      44.187 138.179  18.117  1.00  0.00     0.009 A 
ATOM     32  C   UNL     1      45.552 137.079  19.793  1.00  0.00     0.018 A 
ATOM     33  C   UNL     1      46.446 133.743  22.208  1.00  0.00     0.001 A 
ATOM     34  C   UNL     1      46.950 136.010  21.498  1.00  0.00     0.045 A 
ATOM     35  C   UNL     1      43.110 138.166  17.231  1.00  0.00     0.001 A 
ATOM     36  C   UNL     1      47.231 134.888  22.294  1.00  0.00     0.011 A 
BRANCH  34  37
ATOM     37  N   UNL     1      47.761 137.195  21.590  1.00  0.00    -0.060 NA
BRANCH  37  38
ATOM     38  N   UNL     1      48.988 137.169  21.484  1.00  0.00     0.005 N 
ATOM     39  N   UNL     1      50.213 137.144  21.378  1.00  0.00    -0.003 NA
ENDBRANCH  37  38
ENDBRANCH  34  37
ENDBRANCH  18  23
ENDBRANCH  15  16
ENDBRANCH   1  15
TORSDOF 12
ENDMDL
MODEL 4
REMARK VINA RESULT:      -6.5      3.989      6.255
REMARK SMILES [H]/N=C\N(C(=O)/C(C)=C\n1n[nH+]c(C)c1-c1c2ccccc2cc2c(N=[N+]=[N-])cccc12)C(O)=C1CC1
REMARK SMILES IDX 7 1 8 2 5 3 6 4 4 5 3 6 2 7 1 8 33 9 34 10 35 12 36 13 37 14
REMARK SMILES IDX 9 15 10 16 11 17 15 18 12 19 13 20 14 22 16 23 17 24 32 25
REMARK SMILES IDX 18 26 22 27 31 28 24 29 19 30 21 31 23 32 30 33 25 34 20 35
REMARK SMILES IDX 29 36 26 37 27 38 28 39
REMARK H PARENT 34 11 12 21
ROOT
ATOM      1  C   UNL     1      44.199 133.101  16.781  1.00  0.00     0.057 C 
ATOM      2  C   UNL     1      44.702 134.102  15.773  1.00  0.00     0.054 C 
ENDROOT
BRANCH   1   3
ATOM      3  C   UNL     1      43.769 131.771  16.274  1.00  0.00     0.265 C 
ATOM      4  O   UNL     1      42.577 131.412  16.480  1.00  0.00    -0.268 OA
BRANCH   3   5
ATOM      5  N   UNL     1      44.671 130.859  15.606  1.00  0.00    -0.238 N 
BRANCH   5   6
ATOM      6  C   UNL     1      45.586 130.057  16.380  1.00  0.00     0.201 C 
BRANCH   6   7
ATOM      7  N   UNL     1      46.146 130.507  17.460  1.00  0.00    -0.291 NA
ATOM      8  H   UNL     1      45.813 130.251  18.417  1.00  0.00     0.189 HD
ENDBRANCH   6   7
ENDBRANCH   5   6
BRANCH   5   9
ATOM      9  C   UNL     1      44.801 130.815  14.167  1.00  0.00     0.198 C 
BRANCH   9  10
ATOM     10  O   UNL     1      43.667 130.728  13.363  1.00  0.00    -0.494 OA
ATOM     11  H   UNL     1      42.889 131.369  13.466  1.00  0.00     0.295 HD
ENDBRANCH   9  10
BRANCH   9  12
ATOM     12  C   UNL     1      45.988 130.821  13.569  1.00  0.00    -0.009 C 
ATOM     13  C   UNL     1      46.950 130.487  12.430  1.00  0.00     0.041 C 
ATOM     14  C   UNL     1      47.461 131.219  13.541  1.00  0.00     0.041 C 
ENDBRANCH   9  12
ENDBRANCH   5   9
ENDBRANCH   3   5
ENDBRANCH   1   3
BRANCH   1  15
ATOM     15  C   UNL     1      44.217 133.443  18.084  1.00  0.00     0.242 C 
BRANCH  15  16
ATOM     16  N   UNL     1      43.181 134.189  18.744  1.00  0.00    -0.101 N 
ATOM     17  N   UNL     1      42.071 134.634  18.170  1.00  0.00     0.093 NA
ATOM     18  C   UNL     1      43.095 134.436  20.067  1.00  0.00     0.207 A 
ATOM     19  N   UNL     1      41.288 135.194  19.080  1.00  0.00    -0.147 N 
ATOM     20  C   UNL     1      41.890 135.076  20.278  1.00  0.00     0.170 A 
ATOM     21  H   UNL     1      40.365 135.635  18.879  1.00  0.00     0.342 HD
ATOM     22  C   UNL     1      41.355 135.612  21.566  1.00  0.00     0.100 C 
BRANCH  18  23
ATOM     23  C   UNL     1      44.100 134.046  21.087  1.00  0.00     0.044 A 
ATOM     24  C   UNL     1      43.970 132.817  21.782  1.00  0.00    -0.006 A 
ATOM     25  C   UNL     1      45.175 134.921  21.398  1.00  0.00    -0.006 A 
ATOM     26  C   UNL     1      42.935 131.902  21.488  1.00  0.00     0.009 A 
ATOM     27  C   UNL     1      44.892 132.490  22.806  1.00  0.00    -0.017 A 
ATOM     28  C   UNL     1      45.357 136.136  20.702  1.00  0.00     0.009 A 
ATOM     29  C   UNL     1      46.097 134.576  22.425  1.00  0.00    -0.007 A 
ATOM     30  C   UNL     1      42.813 130.708  22.200  1.00  0.00     0.001 A 
ATOM     31  C   UNL     1      44.757 131.284  23.515  1.00  0.00     0.009 A 
ATOM     32  C   UNL     1      45.936 133.365  23.118  1.00  0.00     0.018 A 
ATOM     33  C   UNL     1      46.411 136.989  21.020  1.00  0.00     0.001 A 
ATOM     34  C   UNL     1      47.165 135.452  22.742  1.00  0.00     0.045 A 
ATOM     35  C   UNL     1      43.720 130.401  23.213  1.00  0.00     0.001 A 
ATOM     36  C   UNL     1      47.306 136.655  22.031  1.00  0.00     0.011 A 
BRANCH  34  37
ATOM     37  N   UNL     1      48.092 135.105  23.785  1.00  0.00    -0.060 NA
BRANCH  37  38
ATOM     38  N   UNL     1      49.241 134.725  23.552  1.00  0.00     0.005 N 
ATOM     39  N   UNL     1      50.388 134.346  23.318  1.00  0.00    -0.003 NA
ENDBRANCH  37  38
ENDBRANCH  34  37
ENDBRANCH  18  23
ENDBRANCH  15  16
ENDBRANCH   1  15
TORSDOF 12
ENDMDL
MODEL 5
REMARK VINA RESULT:      -6.4      2.788      4.587
REMARK SMILES [H]/N=C\N(C(=O)/C(C)=C\n1n[nH+]c(C)c1-c1c2ccccc2cc2c(N=[N+]=[N-])cccc12)C(O)=C1CC1
REMARK SMILES IDX 7 1 8 2 5 3 6 4 4 5 3 6 2 7 1 8 33 9 34 10 35 12 36 13 37 14
REMARK SMILES IDX 9 15 10 16 11 17 15 18 12 19 13 20 14 22 16 23 17 24 32 25
REMARK SMILES IDX 18 26 22 27 31 28 24 29 19 30 21 31 23 32 30 33 25 34 20 35
REMARK SMILES IDX 29 36 26 37 27 38 28 39
REMARK H PARENT 34 11 12 21
ROOT
ATOM      1  C   UNL     1      44.184 131.884  18.735  1.00  0.00     0.057 C 
ATOM      2  C   UNL     1      42.697 131.826  18.492  1.00  0.00     0.054 C 
ENDROOT
BRANCH   1   3
ATOM      3  C   UNL     1      45.050 131.008  17.903  1.00  0.00     0.265 C 
ATOM      4  O   UNL     1      45.846 130.226  18.493  1.00  0.00    -0.268 OA
BRANCH   3   5
ATOM      5  N   UNL     1      45.055 131.056  16.458  1.00  0.00    -0.238 N 
BRANCH   5   6
ATOM      6  C   UNL     1      44.911 129.839  15.698  1.00  0.00     0.201 C 
BRANCH   6   7
ATOM      7  N   UNL     1      45.935 129.119  15.358  1.00  0.00    -0.291 NA
ATOM      8  H   UNL     1      46.690 129.473  14.730  1.00  0.00     0.189 HD
ENDBRANCH   6   7
ENDBRANCH   5   6
BRANCH   5   9
ATOM      9  C   UNL     1      45.345 132.268  15.726  1.00  0.00     0.198 C 
BRANCH   9  10
ATOM     10  O   UNL     1      46.414 132.311  14.835  1.00  0.00    -0.494 OA
ATOM     11  H   UNL     1      46.293 132.586  13.867  1.00  0.00     0.295 HD
ENDBRANCH   9  10
BRANCH   9  12
ATOM     12  C   UNL     1      44.635 133.379  15.898  1.00  0.00    -0.009 C 
ATOM     13  C   UNL     1      44.436 134.819  16.370  1.00  0.00     0.041 C 
ATOM     14  C   UNL     1      43.340 134.169  15.730  1.00  0.00     0.041 C 
ENDBRANCH   9  12
ENDBRANCH   5   9
ENDBRANCH   3   5
ENDBRANCH   1   3
BRANCH   1  15
ATOM     15  C   UNL     1      44.647 132.760  19.648  1.00  0.00     0.242 C 
BRANCH  15  16
ATOM     16  N   UNL     1      43.911 133.198  20.802  1.00  0.00    -0.101 N 
ATOM     17  N   UNL     1      43.704 132.482  21.898  1.00  0.00     0.093 NA
ATOM     18  C   UNL     1      43.434 134.441  21.018  1.00  0.00     0.207 A 
ATOM     19  N   UNL     1      43.074 133.217  22.804  1.00  0.00    -0.147 N 
ATOM     20  C   UNL     1      42.902 134.451  22.292  1.00  0.00     0.170 A 
ATOM     21  H   UNL     1      42.782 132.878  23.745  1.00  0.00     0.342 HD
ATOM     22  C   UNL     1      42.198 135.575  22.979  1.00  0.00     0.100 C 
BRANCH  18  23
ATOM     23  C   UNL     1      43.515 135.577  20.067  1.00  0.00     0.044 A 
ATOM     24  C   UNL     1      44.678 136.386  20.022  1.00  0.00    -0.006 A 
ATOM     25  C   UNL     1      42.412 135.881  19.224  1.00  0.00    -0.006 A 
ATOM     26  C   UNL     1      45.811 136.107  20.818  1.00  0.00     0.009 A 
ATOM     27  C   UNL     1      44.716 137.513  19.164  1.00  0.00    -0.017 A 
ATOM     28  C   UNL     1      41.252 135.076  19.216  1.00  0.00     0.009 A 
ATOM     29  C   UNL     1      42.466 137.012  18.364  1.00  0.00    -0.007 A 
ATOM     30  C   UNL     1      46.937 136.931  20.773  1.00  0.00     0.001 A 
ATOM     31  C   UNL     1      45.856 138.333  19.129  1.00  0.00     0.009 A 
ATOM     32  C   UNL     1      43.618 137.815  18.352  1.00  0.00     0.018 A 
ATOM     33  C   UNL     1      40.174 135.387  18.392  1.00  0.00     0.001 A 
ATOM     34  C   UNL     1      41.364 137.322  17.530  1.00  0.00     0.045 A 
ATOM     35  C   UNL     1      46.958 138.043  19.933  1.00  0.00     0.001 A 
ATOM     36  C   UNL     1      40.225 136.500  17.557  1.00  0.00     0.011 A 
BRANCH  34  37
ATOM     37  N   UNL     1      41.417 138.469  16.664  1.00  0.00    -0.060 NA
BRANCH  37  38
ATOM     38  N   UNL     1      42.019 138.462  15.589  1.00  0.00     0.005 N 
ATOM     39  N   UNL     1      42.620 138.455  14.516  1.00  0.00    -0.003 NA
ENDBRANCH  37  38
ENDBRANCH  34  37
ENDBRANCH  18  23
ENDBRANCH  15  16
ENDBRANCH   1  15
TORSDOF 12
ENDMDL
MODEL 6
REMARK VINA RESULT:      -6.4      3.365      4.366
REMARK SMILES [H]/N=C\N(C(=O)/C(C)=C\n1n[nH+]c(C)c1-c1c2ccccc2cc2c(N=[N+]=[N-])cccc12)C(O)=C1CC1
REMARK SMILES IDX 7 1 8 2 5 3 6 4 4 5 3 6 2 7 1 8 33 9 34 10 35 12 36 13 37 14
REMARK SMILES IDX 9 15 10 16 11 17 15 18 12 19 13 20 14 22 16 23 17 24 32 25
REMARK SMILES IDX 18 26 22 27 31 28 24 29 19 30 21 31 23 32 30 33 25 34 20 35
REMARK SMILES IDX 29 36 26 37 27 38 28 39
REMARK H PARENT 34 11 12 21
ROOT
ATOM      1  C   UNL     1      44.819 131.993  16.939  1.00  0.00     0.057 C 
ATOM      2  C   UNL     1      44.935 133.253  16.121  1.00  0.00     0.054 C 
ENDROOT
BRANCH   1   3
ATOM      3  C   UNL     1      45.552 130.792  16.459  1.00  0.00     0.265 C 
ATOM      4  O   UNL     1      46.671 130.531  16.980  1.00  0.00    -0.268 OA
BRANCH   3   5
ATOM      5  N   UNL     1      45.062 129.950  15.390  1.00  0.00    -0.238 N 
BRANCH   5   6
ATOM      6  C   UNL     1      44.550 128.636  15.687  1.00  0.00     0.201 C 
BRANCH   6   7
ATOM      7  N   UNL     1      45.300 127.580  15.635  1.00  0.00    -0.291 NA
ATOM      8  H   UNL     1      45.351 126.885  16.413  1.00  0.00     0.189 HD
ENDBRANCH   6   7
ENDBRANCH   5   6
BRANCH   5   9
ATOM      9  C   UNL     1      45.196 130.314  13.997  1.00  0.00     0.198 C 
BRANCH   9  10
ATOM     10  O   UNL     1      44.082 130.732  13.272  1.00  0.00    -0.494 OA
ATOM     11  H   UNL     1      43.159 130.777  13.687  1.00  0.00     0.295 HD
ENDBRANCH   9  10
BRANCH   9  12
ATOM     12  C   UNL     1      46.359 130.233  13.359  1.00  0.00    -0.009 C 
ATOM     13  C   UNL     1      47.781 129.709  13.164  1.00  0.00     0.041 C 
ATOM     14  C   UNL     1      47.270 130.627  12.200  1.00  0.00     0.041 C 
ENDBRANCH   9  12
ENDBRANCH   5   9
ENDBRANCH   3   5
ENDBRANCH   1   3
BRANCH   1  15
ATOM     15  C   UNL     1      44.107 132.037  18.083  1.00  0.00     0.242 C 
BRANCH  15  16
ATOM     16  N   UNL     1      42.762 132.532  18.184  1.00  0.00    -0.101 N 
ATOM     17  N   UNL     1      41.715 132.051  17.526  1.00  0.00     0.093 NA
ATOM     18  C   UNL     1      42.316 133.460  19.056  1.00  0.00     0.207 A 
ATOM     19  N   UNL     1      40.612 132.668  17.923  1.00  0.00    -0.147 N 
ATOM     20  C   UNL     1      40.948 133.545  18.887  1.00  0.00     0.170 A 
ATOM     21  H   UNL     1      39.658 132.482  17.544  1.00  0.00     0.342 HD
ATOM     22  C   UNL     1      40.000 134.471  19.576  1.00  0.00     0.100 C 
BRANCH  18  23
ATOM     23  C   UNL     1      43.153 134.204  20.030  1.00  0.00     0.044 A 
ATOM     24  C   UNL     1      43.886 135.344  19.614  1.00  0.00    -0.006 A 
ATOM     25  C   UNL     1      43.250 133.754  21.374  1.00  0.00    -0.006 A 
ATOM     26  C   UNL     1      43.798 135.846  18.297  1.00  0.00     0.009 A 
ATOM     27  C   UNL     1      44.739 136.001  20.534  1.00  0.00    -0.017 A 
ATOM     28  C   UNL     1      42.507 132.645  21.832  1.00  0.00     0.009 A 
ATOM     29  C   UNL     1      44.107 134.428  22.287  1.00  0.00    -0.007 A 
ATOM     30  C   UNL     1      44.547 136.956  17.904  1.00  0.00     0.001 A 
ATOM     31  C   UNL     1      45.487 137.118  20.125  1.00  0.00     0.009 A 
ATOM     32  C   UNL     1      44.843 135.541  21.850  1.00  0.00     0.018 A 
ATOM     33  C   UNL     1      42.616 132.208  23.150  1.00  0.00     0.001 A 
ATOM     34  C   UNL     1      44.212 133.976  23.626  1.00  0.00     0.045 A 
ATOM     35  C   UNL     1      45.392 137.589  18.815  1.00  0.00     0.001 A 
ATOM     36  C   UNL     1      43.461 132.863  24.040  1.00  0.00     0.011 A 
BRANCH  34  37
ATOM     37  N   UNL     1      45.084 134.654  24.548  1.00  0.00    -0.060 NA
BRANCH  37  38
ATOM     38  N   UNL     1      46.302 134.468  24.569  1.00  0.00     0.005 N 
ATOM     39  N   UNL     1      47.518 134.283  24.591  1.00  0.00    -0.003 NA
ENDBRANCH  37  38
ENDBRANCH  34  37
ENDBRANCH  18  23
ENDBRANCH  15  16
ENDBRANCH   1  15
TORSDOF 12
ENDMDL
MODEL 7
REMARK VINA RESULT:      -6.2      3.635      5.658
REMARK SMILES [H]/N=C\N(C(=O)/C(C)=C\n1n[nH+]c(C)c1-c1c2ccccc2cc2c(N=[N+]=[N-])cccc12)C(O)=C1CC1
REMARK SMILES IDX 7 1 8 2 5 3 6 4 4 5 3 6 2 7 1 8 33 9 34 10 35 12 36 13 37 14
REMARK SMILES IDX 9 15 10 16 11 17 15 18 12 19 13 20 14 22 16 23 17 24 32 25
REMARK SMILES IDX 18 26 22 27 31 28 24 29 19 30 21 31 23 32 30 33 25 34 20 35
REMARK SMILES IDX 29 36 26 37 27 38 28 39
REMARK H PARENT 34 11 12 21
ROOT
ATOM      1  C   UNL     1      45.020 131.895  17.231  1.00  0.00     0.057 C 
ATOM      2  C   UNL     1      45.380 130.435  17.325  1.00  0.00     0.054 C 
ENDROOT
BRANCH   1   3
ATOM      3  C   UNL     1      44.848 132.474  15.873  1.00  0.00     0.265 C 
ATOM      4  O   UNL     1      45.653 133.374  15.503  1.00  0.00    -0.268 OA
BRANCH   3   5
ATOM      5  N   UNL     1      43.772 132.089  14.987  1.00  0.00    -0.238 N 
BRANCH   5   6
ATOM      6  C   UNL     1      42.420 132.494  15.279  1.00  0.00     0.201 C 
BRANCH   6   7
ATOM      7  N   UNL     1      42.158 133.571  15.952  1.00  0.00    -0.291 NA
ATOM      8  H   UNL     1      42.691 134.460  15.826  1.00  0.00     0.189 HD
ENDBRANCH   6   7
ENDBRANCH   5   6
BRANCH   5   9
ATOM      9  C   UNL     1      43.971 131.181  13.880  1.00  0.00     0.198 C 
BRANCH   9  10
ATOM     10  O   UNL     1      42.897 130.815  13.071  1.00  0.00    -0.494 OA
ATOM     11  H   UNL     1      42.841 131.093  12.099  1.00  0.00     0.295 HD
ENDBRANCH   9  10
BRANCH   9  12
ATOM     12  C   UNL     1      45.158 130.644  13.616  1.00  0.00    -0.009 C 
ATOM     13  C   UNL     1      46.439 130.485  12.799  1.00  0.00     0.041 C 
ATOM     14  C   UNL     1      46.289 129.681  13.967  1.00  0.00     0.041 C 
ENDBRANCH   9  12
ENDBRANCH   5   9
ENDBRANCH   3   5
ENDBRANCH   1   3
BRANCH   1  15
ATOM     15  C   UNL     1      44.821 132.578  18.375  1.00  0.00     0.242 C 
BRANCH  15  16
ATOM     16  N   UNL     1      43.528 132.925  18.899  1.00  0.00    -0.101 N 
ATOM     17  N   UNL     1      42.470 132.128  18.924  1.00  0.00     0.093 NA
ATOM     18  C   UNL     1      43.218 134.052  19.573  1.00  0.00     0.207 A 
ATOM     19  N   UNL     1      41.472 132.723  19.563  1.00  0.00    -0.147 N 
ATOM     20  C   UNL     1      41.909 133.921  19.993  1.00  0.00     0.170 A 
ATOM     21  H   UNL     1      40.525 132.309  19.702  1.00  0.00     0.342 HD
ATOM     22  C   UNL     1      41.081 134.925  20.727  1.00  0.00     0.100 C 
BRANCH  18  23
ATOM     23  C   UNL     1      44.139 135.186  19.835  1.00  0.00     0.044 A 
ATOM     24  C   UNL     1      44.061 136.363  19.048  1.00  0.00    -0.006 A 
ATOM     25  C   UNL     1      45.126 135.080  20.851  1.00  0.00    -0.006 A 
ATOM     26  C   UNL     1      43.078 136.526  18.048  1.00  0.00     0.009 A 
ATOM     27  C   UNL     1      44.994 137.408  19.257  1.00  0.00    -0.017 A 
ATOM     28  C   UNL     1      45.210 133.939  21.677  1.00  0.00     0.009 A 
ATOM     29  C   UNL     1      46.053 136.141  21.052  1.00  0.00    -0.007 A 
ATOM     30  C   UNL     1      43.035 137.685  17.270  1.00  0.00     0.001 A 
ATOM     31  C   UNL     1      44.938 138.569  18.467  1.00  0.00     0.009 A 
ATOM     32  C   UNL     1      45.974 137.288  20.247  1.00  0.00     0.018 A 
ATOM     33  C   UNL     1      46.187 133.843  22.665  1.00  0.00     0.001 A 
ATOM     34  C   UNL     1      47.045 136.034  22.059  1.00  0.00     0.045 A 
ATOM     35  C   UNL     1      43.965 138.702  17.478  1.00  0.00     0.001 A 
ATOM     36  C   UNL     1      47.099 134.878  22.855  1.00  0.00     0.011 A 
BRANCH  34  37
ATOM     37  N   UNL     1      47.985 137.104  22.258  1.00  0.00    -0.060 NA
BRANCH  37  38
ATOM     38  N   UNL     1      49.189 136.980  22.032  1.00  0.00     0.005 N 
ATOM     39  N   UNL     1      50.392 136.854  21.806  1.00  0.00    -0.003 NA
ENDBRANCH  37  38
ENDBRANCH  34  37
ENDBRANCH  18  23
ENDBRANCH  15  16
ENDBRANCH   1  15
TORSDOF 12
ENDMDL
MODEL 8
REMARK VINA RESULT:      -6.2      2.978      4.750
REMARK SMILES [H]/N=C\N(C(=O)/C(C)=C\n1n[nH+]c(C)c1-c1c2ccccc2cc2c(N=[N+]=[N-])cccc12)C(O)=C1CC1
REMARK SMILES IDX 7 1 8 2 5 3 6 4 4 5 3 6 2 7 1 8 33 9 34 10 35 12 36 13 37 14
REMARK SMILES IDX 9 15 10 16 11 17 15 18 12 19 13 20 14 22 16 23 17 24 32 25
REMARK SMILES IDX 18 26 22 27 31 28 24 29 19 30 21 31 23 32 30 33 25 34 20 35
REMARK SMILES IDX 29 36 26 37 27 38 28 39
REMARK H PARENT 34 11 12 21
ROOT
ATOM      1  C   UNL     1      43.800 131.861  18.093  1.00  0.00     0.057 C 
ATOM      2  C   UNL     1      42.304 131.683  18.070  1.00  0.00     0.054 C 
ENDROOT
BRANCH   1   3
ATOM      3  C   UNL     1      44.559 131.448  16.883  1.00  0.00     0.265 C 
ATOM      4  O   UNL     1      45.739 131.028  17.036  1.00  0.00    -0.268 OA
BRANCH   3   5
ATOM      5  N   UNL     1      44.022 131.560  15.545  1.00  0.00    -0.238 N 
BRANCH   5   6
ATOM      6  C   UNL     1      44.436 130.629  14.524  1.00  0.00     0.201 C 
BRANCH   6   7
ATOM      7  N   UNL     1      45.530 130.794  13.849  1.00  0.00    -0.291 NA
ATOM      8  H   UNL     1      45.629 130.495  12.853  1.00  0.00     0.189 HD
ENDBRANCH   6   7
ENDBRANCH   5   6
BRANCH   5   9
ATOM      9  C   UNL     1      43.185 132.665  15.138  1.00  0.00     0.198 C 
BRANCH   9  10
ATOM     10  O   UNL     1      41.995 132.430  14.454  1.00  0.00    -0.494 OA
ATOM     11  H   UNL     1      41.921 132.553  13.451  1.00  0.00     0.295 HD
ENDBRANCH   9  10
BRANCH   9  12
ATOM     12  C   UNL     1      43.531 133.929  15.367  1.00  0.00    -0.009 C 
ATOM     13  C   UNL     1      44.374 135.021  16.023  1.00  0.00     0.041 C 
ATOM     14  C   UNL     1      43.347 135.424  15.119  1.00  0.00     0.041 C 
ENDBRANCH   9  12
ENDBRANCH   5   9
ENDBRANCH   3   5
ENDBRANCH   1   3
BRANCH   1  15
ATOM     15  C   UNL     1      44.359 132.432  19.178  1.00  0.00     0.242 C 
BRANCH  15  16
ATOM     16  N   UNL     1      43.637 132.796  20.366  1.00  0.00    -0.101 N 
ATOM     17  N   UNL     1      43.276 131.962  21.332  1.00  0.00     0.093 NA
ATOM     18  C   UNL     1      43.334 134.050  20.762  1.00  0.00     0.207 A 
ATOM     19  N   UNL     1      42.716 132.638  22.324  1.00  0.00    -0.147 N 
ATOM     20  C   UNL     1      42.748 133.946  22.008  1.00  0.00     0.170 A 
ATOM     21  H   UNL     1      42.332 132.209  23.193  1.00  0.00     0.342 HD
ATOM     22  C   UNL     1      42.181 135.047  22.844  1.00  0.00     0.100 C 
BRANCH  18  23
ATOM     23  C   UNL     1      43.625 135.292  20.003  1.00  0.00     0.044 A 
ATOM     24  C   UNL     1      44.857 135.968  20.189  1.00  0.00    -0.006 A 
ATOM     25  C   UNL     1      42.654 135.827  19.115  1.00  0.00    -0.006 A 
ATOM     26  C   UNL     1      45.865 135.459  21.039  1.00  0.00     0.009 A 
ATOM     27  C   UNL     1      45.093 137.191  19.517  1.00  0.00    -0.017 A 
ATOM     28  C   UNL     1      41.432 135.162  18.878  1.00  0.00     0.009 A 
ATOM     29  C   UNL     1      42.908 137.054  18.442  1.00  0.00    -0.007 A 
ATOM     30  C   UNL     1      47.061 136.154  21.224  1.00  0.00     0.001 A 
ATOM     31  C   UNL     1      46.303 137.880  19.713  1.00  0.00     0.009 A 
ATOM     32  C   UNL     1      44.125 137.721  18.659  1.00  0.00     0.018 A 
ATOM     33  C   UNL     1      40.484 135.700  18.010  1.00  0.00     0.001 A 
ATOM     34  C   UNL     1      41.937 137.594  17.563  1.00  0.00     0.045 A 
ATOM     35  C   UNL     1      47.278 137.363  20.565  1.00  0.00     0.001 A 
ATOM     36  C   UNL     1      40.730 136.905  17.360  1.00  0.00     0.011 A 
BRANCH  34  37
ATOM     37  N   UNL     1      42.192 138.838  16.888  1.00  0.00    -0.060 NA
BRANCH  37  38
ATOM     38  N   UNL     1      42.273 138.923  15.661  1.00  0.00     0.005 N 
ATOM     39  N   UNL     1      42.352 139.008  14.436  1.00  0.00    -0.003 NA
ENDBRANCH  37  38
ENDBRANCH  34  37
ENDBRANCH  18  23
ENDBRANCH  15  16
ENDBRANCH   1  15
TORSDOF 12
ENDMDL
MODEL 9
REMARK VINA RESULT:      -6.1      3.375      5.332
REMARK SMILES [H]/N=C\N(C(=O)/C(C)=C\n1n[nH+]c(C)c1-c1c2ccccc2cc2c(N=[N+]=[N-])cccc12)C(O)=C1CC1
REMARK SMILES IDX 7 1 8 2 5 3 6 4 4 5 3 6 2 7 1 8 33 9 34 10 35 12 36 13 37 14
REMARK SMILES IDX 9 15 10 16 11 17 15 18 12 19 13 20 14 22 16 23 17 24 32 25
REMARK SMILES IDX 18 26 22 27 31 28 24 29 19 30 21 31 23 32 30 33 25 34 20 35
REMARK SMILES IDX 29 36 26 37 27 38 28 39
REMARK H PARENT 34 11 12 21
ROOT
ATOM      1  C   UNL     1      44.711 131.681  16.378  1.00  0.00     0.057 C 
ATOM      2  C   UNL     1      45.428 132.924  15.919  1.00  0.00     0.054 C 
ENDROOT
BRANCH   1   3
ATOM      3  C   UNL     1      44.707 130.512  15.459  1.00  0.00     0.265 C 
ATOM      4  O   UNL     1      44.760 129.357  15.965  1.00  0.00    -0.268 OA
BRANCH   3   5
ATOM      5  N   UNL     1      44.701 130.647  14.019  1.00  0.00    -0.238 N 
BRANCH   5   6
ATOM      6  C   UNL     1      43.455 130.850  13.322  1.00  0.00     0.201 C 
BRANCH   6   7
ATOM      7  N   UNL     1      42.528 131.626  13.788  1.00  0.00    -0.291 NA
ATOM      8  H   UNL     1      41.706 131.266  14.323  1.00  0.00     0.189 HD
ENDBRANCH   6   7
ENDBRANCH   5   6
BRANCH   5   9
ATOM      9  C   UNL     1      45.886 130.442  13.219  1.00  0.00     0.198 C 
BRANCH   9  10
ATOM     10  O   UNL     1      45.853 130.668  11.845  1.00  0.00    -0.494 OA
ATOM     11  H   UNL     1      46.124 131.558  11.443  1.00  0.00     0.295 HD
ENDBRANCH   9  10
BRANCH   9  12
ATOM     12  C   UNL     1      47.025 130.005  13.749  1.00  0.00    -0.009 C 
ATOM     13  C   UNL     1      47.970 129.711  14.913  1.00  0.00     0.041 C 
ATOM     14  C   UNL     1      48.409 129.380  13.597  1.00  0.00     0.041 C 
ENDBRANCH   9  12
ENDBRANCH   5   9
ENDBRANCH   3   5
ENDBRANCH   1   3
BRANCH   1  15
ATOM     15  C   UNL     1      44.165 131.677  17.609  1.00  0.00     0.242 C 
BRANCH  15  16
ATOM     16  N   UNL     1      42.902 132.278  17.940  1.00  0.00    -0.101 N 
ATOM     17  N   UNL     1      41.743 131.998  17.361  1.00  0.00     0.093 NA
ATOM     18  C   UNL     1      42.662 133.112  18.973  1.00  0.00     0.207 A 
ATOM     19  N   UNL     1      40.766 132.656  17.969  1.00  0.00    -0.147 N 
ATOM     20  C   UNL     1      41.303 133.351  18.988  1.00  0.00     0.170 A 
ATOM     21  H   UNL     1      39.761 132.617  17.691  1.00  0.00     0.342 HD
ATOM     22  C   UNL     1      40.546 134.257  19.903  1.00  0.00     0.100 C 
BRANCH  18  23
ATOM     23  C   UNL     1      43.679 133.628  19.923  1.00  0.00     0.044 A 
ATOM     24  C   UNL     1      44.012 132.884  21.083  1.00  0.00    -0.006 A 
ATOM     25  C   UNL     1      44.295 134.887  19.692  1.00  0.00    -0.006 A 
ATOM     26  C   UNL     1      43.449 131.614  21.340  1.00  0.00     0.009 A 
ATOM     27  C   UNL     1      44.928 133.420  22.020  1.00  0.00    -0.017 A 
ATOM     28  C   UNL     1      44.015 135.639  18.531  1.00  0.00     0.009 A 
ATOM     29  C   UNL     1      45.217 135.410  20.640  1.00  0.00    -0.007 A 
ATOM     30  C   UNL     1      43.774 130.910  22.500  1.00  0.00     0.001 A 
ATOM     31  C   UNL     1      45.246 132.699  23.184  1.00  0.00     0.009 A 
ATOM     32  C   UNL     1      45.515 134.668  21.795  1.00  0.00     0.018 A 
ATOM     33  C   UNL     1      44.620 136.876  18.318  1.00  0.00     0.001 A 
ATOM     34  C   UNL     1      45.826 136.670  20.417  1.00  0.00     0.045 A 
ATOM     35  C   UNL     1      44.668 131.452  23.421  1.00  0.00     0.001 A 
ATOM     36  C   UNL     1      45.515 137.390  19.251  1.00  0.00     0.011 A 
BRANCH  34  37
ATOM     37  N   UNL     1      46.754 137.201  21.379  1.00  0.00    -0.060 NA
BRANCH  37  38
ATOM     38  N   UNL     1      47.975 137.127  21.234  1.00  0.00     0.005 N 
ATOM     39  N   UNL     1      49.194 137.053  21.088  1.00  0.00    -0.003 NA
ENDBRANCH  37  38
ENDBRANCH  34  37
ENDBRANCH  18  23
ENDBRANCH  15  16
ENDBRANCH   1  15
TORSDOF 12
ENDMDL


