MODEL 1
REMARK VINA RESULT:      -6.2      0.000      0.000
REMARK SMILES C#C[C@@](O)(c1cc(N=[N+]=[N-])cc(OC(=O)[C@]2(N)C[C@@H](CO)C2)c(C(=O)N=[N+]=[N-])cc2cc1CC2)C(C)(C)C
REMARK SMILES IDX 13 1 12 2 5 3 6 4 32 5 7 6 31 7 33 8 11 9 30 10 34 11 29 12
REMARK SMILES IDX 23 13 3 14 2 15 1 16 4 17 35 19 36 20 37 21 38 22 8 23 9 24
REMARK SMILES IDX 10 25 24 26 25 27 26 28 27 29 28 30 14 31 15 32 16 33 22 34
REMARK SMILES IDX 18 35 19 36 17 37 20 40 21 41
REMARK H PARENT 4 18 17 38 17 39 21 42
ROOT
ATOM      1  O   UNL     1      43.058 132.472  16.260  1.00  0.00    -0.424 OA
ENDROOT
BRANCH   1   2
ATOM      2  C   UNL     1      42.408 133.556  16.868  1.00  0.00     0.142 A 
ATOM      3  C   UNL     1      41.610 134.120  21.060  1.00  0.00    -0.000 A 
ATOM      4  C   UNL     1      42.639 133.272  20.538  1.00  0.00     0.018 A 
ATOM      5  C   UNL     1      40.639 134.732  20.213  1.00  0.00    -0.040 A 
ATOM      6  C   UNL     1      42.999 133.007  19.189  1.00  0.00     0.042 A 
ATOM      7  C   UNL     1      40.227 134.213  19.004  1.00  0.00     0.008 A 
ATOM      8  C   UNL     1      40.332 136.207  20.247  1.00  0.00     0.041 C 
ATOM      9  C   UNL     1      42.810 133.950  18.163  1.00  0.00     0.058 A 
ATOM     10  C   UNL     1      40.107 135.243  18.094  1.00  0.00    -0.047 A 
ATOM     11  C   UNL     1      40.000 136.554  18.791  1.00  0.00     0.040 C 
ATOM     12  C   UNL     1      40.470 135.165  16.741  1.00  0.00     0.019 A 
ATOM     13  C   UNL     1      41.366 134.227  16.157  1.00  0.00     0.067 A 
BRANCH   3  14
ATOM     14  C   UNL     1      41.613 134.444  22.586  1.00  0.00     0.155 C 
BRANCH  14  15
ATOM     15  C   UNL     1      40.201 134.481  23.012  1.00  0.00    -0.066 C 
ATOM     16  C   UNL     1      39.044 134.502  23.351  1.00  0.00     0.007 C 
ENDBRANCH  14  15
BRANCH  14  17
ATOM     17  O   UNL     1      42.180 133.361  23.289  1.00  0.00    -0.373 OA
ATOM     18  H   UNL     1      41.444 132.873  23.744  1.00  0.00     0.213 HD
ENDBRANCH  14  17
BRANCH  14  19
ATOM     19  C   UNL     1      42.386 135.793  23.028  1.00  0.00     0.006 C 
ATOM     20  C   UNL     1      43.171 135.540  24.346  1.00  0.00     0.015 C 
ATOM     21  C   UNL     1      41.462 137.015  23.329  1.00  0.00     0.015 C 
ATOM     22  C   UNL     1      43.413 136.224  21.954  1.00  0.00     0.015 C 
ENDBRANCH  14  19
ENDBRANCH   3  14
BRANCH   6  23
ATOM     23  N   UNL     1      43.569 131.731  18.855  1.00  0.00    -0.061 NA
BRANCH  23  24
ATOM     24  N   UNL     1      44.625 131.324  19.344  1.00  0.00     0.005 N 
ATOM     25  N   UNL     1      45.682 130.925  19.831  1.00  0.00    -0.003 NA
ENDBRANCH  23  24
ENDBRANCH   6  23
BRANCH  13  26
ATOM     26  C   UNL     1      41.221 133.992  14.696  1.00  0.00     0.252 C 
ATOM     27  O   UNL     1      42.040 134.503  13.880  1.00  0.00    -0.287 OA
BRANCH  26  28
ATOM     28  N   UNL     1      40.166 133.155  14.208  1.00  0.00    -0.017 NA
BRANCH  28  29
ATOM     29  N   UNL     1      39.060 133.619  13.924  1.00  0.00     0.009 N 
ATOM     30  N   UNL     1      37.964 134.086  13.628  1.00  0.00    -0.003 NA
ENDBRANCH  28  29
ENDBRANCH  26  28
ENDBRANCH  13  26
ENDBRANCH   1   2
BRANCH   1  31
ATOM     31  C   UNL     1      44.347 132.571  15.717  1.00  0.00     0.331 C 
ATOM     32  O   UNL     1      44.824 133.705  15.439  1.00  0.00    -0.250 OA
BRANCH  31  33
ATOM     33  C   UNL     1      45.156 131.338  15.410  1.00  0.00     0.116 C 
ATOM     34  C   UNL     1      46.551 131.672  14.870  1.00  0.00     0.040 C 
ATOM     35  C   UNL     1      44.814 130.621  14.091  1.00  0.00     0.040 C 
ATOM     36  C   UNL     1      46.207 130.962  13.556  1.00  0.00     0.019 C 
BRANCH  33  37
ATOM     37  N   UNL     1      45.194 130.424  16.556  1.00  0.00    -0.316 NA
ATOM     38  H   UNL     1      46.065 129.842  16.521  1.00  0.00     0.119 HD
ATOM     39  H   UNL     1      44.386 129.763  16.478  1.00  0.00     0.119 HD
ENDBRANCH  33  37
BRANCH  36  40
ATOM     40  C   UNL     1      47.083 129.730  13.271  1.00  0.00     0.159 C 
BRANCH  40  41
ATOM     41  O   UNL     1      48.439 130.056  13.429  1.00  0.00    -0.396 OA
ATOM     42  H   UNL     1      48.523 131.019  13.205  1.00  0.00     0.210 HD
ENDBRANCH  40  41
ENDBRANCH  36  40
ENDBRANCH  31  33
ENDBRANCH   1  31
TORSDOF 15
ENDMDL
MODEL 2
REMARK VINA RESULT:      -5.6      2.266      5.479
REMARK SMILES C#C[C@@](O)(c1cc(N=[N+]=[N-])cc(OC(=O)[C@]2(N)C[C@@H](CO)C2)c(C(=O)N=[N+]=[N-])cc2cc1CC2)C(C)(C)C
REMARK SMILES IDX 13 1 12 2 5 3 6 4 32 5 7 6 31 7 33 8 11 9 30 10 34 11 29 12
REMARK SMILES IDX 23 13 3 14 2 15 1 16 4 17 35 19 36 20 37 21 38 22 8 23 9 24
REMARK SMILES IDX 10 25 24 26 25 27 26 28 27 29 28 30 14 31 15 32 16 33 22 34
REMARK SMILES IDX 18 35 19 36 17 37 20 40 21 41
REMARK H PARENT 4 18 17 38 17 39 21 42
ROOT
ATOM      1  O   UNL     1      43.380 131.459  17.673  1.00  0.00    -0.424 OA
ENDROOT
BRANCH   1   2
ATOM      2  C   UNL     1      42.626 132.223  18.575  1.00  0.00     0.142 A 
ATOM      3  C   UNL     1      39.724 135.264  17.653  1.00  0.00    -0.000 A 
ATOM      4  C   UNL     1      40.118 134.221  16.754  1.00  0.00     0.018 A 
ATOM      5  C   UNL     1      40.394 135.481  18.893  1.00  0.00    -0.040 A 
ATOM      6  C   UNL     1      41.054 133.169  16.941  1.00  0.00     0.042 A 
ATOM      7  C   UNL     1      41.713 135.158  19.129  1.00  0.00     0.008 A 
ATOM      8  C   UNL     1      39.671 135.592  20.210  1.00  0.00     0.041 C 
ATOM      9  C   UNL     1      41.322 132.619  18.207  1.00  0.00     0.058 A 
ATOM     10  C   UNL     1      41.820 134.610  20.390  1.00  0.00    -0.047 A 
ATOM     11  C   UNL     1      40.638 134.967  21.222  1.00  0.00     0.040 C 
ATOM     12  C   UNL     1      42.652 133.533  20.730  1.00  0.00     0.019 A 
ATOM     13  C   UNL     1      43.199 132.570  19.837  1.00  0.00     0.067 A 
BRANCH   3  14
ATOM     14  C   UNL     1      38.471 136.122  17.295  1.00  0.00     0.155 C 
BRANCH  14  15
ATOM     15  C   UNL     1      37.763 135.406  16.216  1.00  0.00    -0.066 C 
ATOM     16  C   UNL     1      37.182 134.810  15.344  1.00  0.00     0.007 C 
ENDBRANCH  14  15
BRANCH  14  17
ATOM     17  O   UNL     1      37.578 136.117  18.386  1.00  0.00    -0.373 OA
ATOM     18  H   UNL     1      36.894 136.820  18.225  1.00  0.00     0.213 HD
ENDBRANCH  14  17
BRANCH  14  19
ATOM     19  C   UNL     1      38.753 137.658  16.880  1.00  0.00     0.006 C 
ATOM     20  C   UNL     1      38.760 138.553  18.152  1.00  0.00     0.015 C 
ATOM     21  C   UNL     1      37.683 138.296  15.938  1.00  0.00     0.015 C 
ATOM     22  C   UNL     1      40.135 137.808  16.203  1.00  0.00     0.015 C 
ENDBRANCH  14  19
ENDBRANCH   3  14
BRANCH   6  23
ATOM     23  N   UNL     1      41.760 132.650  15.802  1.00  0.00    -0.061 NA
BRANCH  23  24
ATOM     24  N   UNL     1      41.659 133.140  14.675  1.00  0.00     0.005 N 
ATOM     25  N   UNL     1      41.552 133.624  13.549  1.00  0.00    -0.003 NA
ENDBRANCH  23  24
ENDBRANCH   6  23
BRANCH  13  26
ATOM     26  C   UNL     1      44.418 131.855  20.298  1.00  0.00     0.252 C 
ATOM     27  O   UNL     1      45.567 132.263  19.963  1.00  0.00    -0.287 OA
BRANCH  26  28
ATOM     28  N   UNL     1      44.296 130.712  21.153  1.00  0.00    -0.017 NA
BRANCH  28  29
ATOM     29  N   UNL     1      44.605 130.769  22.345  1.00  0.00     0.009 N 
ATOM     30  N   UNL     1      44.898 130.825  23.536  1.00  0.00    -0.003 NA
ENDBRANCH  28  29
ENDBRANCH  26  28
ENDBRANCH  13  26
ENDBRANCH   1   2
BRANCH   1  31
ATOM     31  C   UNL     1      44.495 131.973  16.995  1.00  0.00     0.331 C 
ATOM     32  O   UNL     1      44.658 133.221  16.914  1.00  0.00    -0.250 OA
BRANCH  31  33
ATOM     33  C   UNL     1      45.478 131.058  16.313  1.00  0.00     0.116 C 
ATOM     34  C   UNL     1      46.238 131.754  15.179  1.00  0.00     0.040 C 
ATOM     35  C   UNL     1      44.881 130.060  15.304  1.00  0.00     0.040 C 
ATOM     36  C   UNL     1      45.638 130.763  14.175  1.00  0.00     0.019 C 
BRANCH  33  37
ATOM     37  N   UNL     1      46.370 130.413  17.283  1.00  0.00    -0.316 NA
ATOM     38  H   UNL     1      47.348 130.771  17.162  1.00  0.00     0.119 HD
ATOM     39  H   UNL     1      46.396 129.387  17.077  1.00  0.00     0.119 HD
ENDBRANCH  33  37
BRANCH  36  40
ATOM     40  C   UNL     1      46.685 129.875  13.482  1.00  0.00     0.159 C 
BRANCH  40  41
ATOM     41  O   UNL     1      47.482 129.231  14.441  1.00  0.00    -0.396 OA
ATOM     42  H   UNL     1      47.202 128.279  14.443  1.00  0.00     0.210 HD
ENDBRANCH  40  41
ENDBRANCH  36  40
ENDBRANCH  31  33
ENDBRANCH   1  31
TORSDOF 15
ENDMDL
MODEL 3
REMARK VINA RESULT:      -5.5      2.149      5.487
REMARK SMILES C#C[C@@](O)(c1cc(N=[N+]=[N-])cc(OC(=O)[C@]2(N)C[C@@H](CO)C2)c(C(=O)N=[N+]=[N-])cc2cc1CC2)C(C)(C)C
REMARK SMILES IDX 13 1 12 2 5 3 6 4 32 5 7 6 31 7 33 8 11 9 30 10 34 11 29 12
REMARK SMILES IDX 23 13 3 14 2 15 1 16 4 17 35 19 36 20 37 21 38 22 8 23 9 24
REMARK SMILES IDX 10 25 24 26 25 27 26 28 27 29 28 30 14 31 15 32 16 33 22 34
REMARK SMILES IDX 18 35 19 36 17 37 20 40 21 41
REMARK H PARENT 4 18 17 38 17 39 21 42
ROOT
ATOM      1  O   UNL     1      43.638 131.566  17.680  1.00  0.00    -0.424 OA
ENDROOT
BRANCH   1   2
ATOM      2  C   UNL     1      42.941 132.394  18.571  1.00  0.00     0.142 A 
ATOM      3  C   UNL     1      40.004 135.392  17.617  1.00  0.00    -0.000 A 
ATOM      4  C   UNL     1      40.341 134.289  16.768  1.00  0.00     0.018 A 
ATOM      5  C   UNL     1      40.746 135.685  18.799  1.00  0.00    -0.040 A 
ATOM      6  C   UNL     1      41.282 133.244  16.970  1.00  0.00     0.042 A 
ATOM      7  C   UNL     1      42.075 135.367  18.980  1.00  0.00     0.008 A 
ATOM      8  C   UNL     1      40.100 135.889  20.145  1.00  0.00     0.041 C 
ATOM      9  C   UNL     1      41.620 132.776  18.253  1.00  0.00     0.058 A 
ATOM     10  C   UNL     1      42.252 134.903  20.266  1.00  0.00    -0.047 A 
ATOM     11  C   UNL     1      41.122 135.323  21.140  1.00  0.00     0.040 C 
ATOM     12  C   UNL     1      43.098 133.844  20.629  1.00  0.00     0.019 A 
ATOM     13  C   UNL     1      43.588 132.819  19.772  1.00  0.00     0.067 A 
BRANCH   3  14
ATOM     14  C   UNL     1      38.737 136.236  17.275  1.00  0.00     0.155 C 
BRANCH  14  15
ATOM     15  C   UNL     1      38.922 137.553  17.914  1.00  0.00    -0.066 C 
ATOM     16  C   UNL     1      39.076 138.622  18.449  1.00  0.00     0.007 C 
ENDBRANCH  14  15
BRANCH  14  17
ATOM     17  O   UNL     1      38.715 136.500  15.891  1.00  0.00    -0.373 OA
ATOM     18  H   UNL     1      38.146 135.811  15.456  1.00  0.00     0.213 HD
ENDBRANCH  14  17
BRANCH  14  19
ATOM     19  C   UNL     1      37.315 135.588  17.688  1.00  0.00     0.006 C 
ATOM     20  C   UNL     1      37.549 134.311  18.544  1.00  0.00     0.015 C 
ATOM     21  C   UNL     1      36.427 135.123  16.491  1.00  0.00     0.015 C 
ATOM     22  C   UNL     1      36.483 136.571  18.545  1.00  0.00     0.015 C 
ENDBRANCH  14  19
ENDBRANCH   3  14
BRANCH   6  23
ATOM     23  N   UNL     1      41.918 132.645  15.830  1.00  0.00    -0.061 NA
BRANCH  23  24
ATOM     24  N   UNL     1      41.859 133.134  14.699  1.00  0.00     0.005 N 
ATOM     25  N   UNL     1      41.792 133.625  13.573  1.00  0.00    -0.003 NA
ENDBRANCH  23  24
ENDBRANCH   6  23
BRANCH  13  26
ATOM     26  C   UNL     1      44.828 132.126  20.209  1.00  0.00     0.252 C 
ATOM     27  O   UNL     1      44.914 130.866  20.144  1.00  0.00    -0.287 OA
BRANCH  26  28
ATOM     28  N   UNL     1      45.946 132.887  20.678  1.00  0.00    -0.017 NA
BRANCH  28  29
ATOM     29  N   UNL     1      46.038 133.229  21.859  1.00  0.00     0.009 N 
ATOM     30  N   UNL     1      46.116 133.575  23.034  1.00  0.00    -0.003 NA
ENDBRANCH  28  29
ENDBRANCH  26  28
ENDBRANCH  13  26
ENDBRANCH   1   2
BRANCH   1  31
ATOM     31  C   UNL     1      44.696 132.032  16.886  1.00  0.00     0.331 C 
ATOM     32  O   UNL     1      44.877 133.272  16.748  1.00  0.00    -0.250 OA
BRANCH  31  33
ATOM     33  C   UNL     1      45.593 131.072  16.148  1.00  0.00     0.116 C 
ATOM     34  C   UNL     1      46.417 131.762  15.056  1.00  0.00     0.040 C 
ATOM     35  C   UNL     1      44.909 130.196  15.082  1.00  0.00     0.040 C 
ATOM     36  C   UNL     1      45.732 130.893  13.996  1.00  0.00     0.019 C 
BRANCH  33  37
ATOM     37  N   UNL     1      46.419 130.291  17.075  1.00  0.00    -0.316 NA
ATOM     38  H   UNL     1      45.880 130.091  17.952  1.00  0.00     0.119 HD
ATOM     39  H   UNL     1      47.244 130.873  17.354  1.00  0.00     0.119 HD
ENDBRANCH  33  37
BRANCH  36  40
ATOM     40  C   UNL     1      46.695 129.955  13.248  1.00  0.00     0.159 C 
BRANCH  40  41
ATOM     41  O   UNL     1      47.037 130.508  12.004  1.00  0.00    -0.396 OA
ATOM     42  H   UNL     1      46.333 130.220  11.367  1.00  0.00     0.210 HD
ENDBRANCH  40  41
ENDBRANCH  36  40
ENDBRANCH  31  33
ENDBRANCH   1  31
TORSDOF 15
ENDMDL
MODEL 4
REMARK VINA RESULT:      -5.4      0.896      1.005
REMARK SMILES C#C[C@@](O)(c1cc(N=[N+]=[N-])cc(OC(=O)[C@]2(N)C[C@@H](CO)C2)c(C(=O)N=[N+]=[N-])cc2cc1CC2)C(C)(C)C
REMARK SMILES IDX 13 1 12 2 5 3 6 4 32 5 7 6 31 7 33 8 11 9 30 10 34 11 29 12
REMARK SMILES IDX 23 13 3 14 2 15 1 16 4 17 35 19 36 20 37 21 38 22 8 23 9 24
REMARK SMILES IDX 10 25 24 26 25 27 26 28 27 29 28 30 14 31 15 32 16 33 22 34
REMARK SMILES IDX 18 35 19 36 17 37 20 40 21 41
REMARK H PARENT 4 18 17 38 17 39 21 42
ROOT
ATOM      1  O   UNL     1      42.579 132.711  16.411  1.00  0.00    -0.424 OA
ENDROOT
BRANCH   1   2
ATOM      2  C   UNL     1      41.955 133.809  17.021  1.00  0.00     0.142 A 
ATOM      3  C   UNL     1      41.130 134.364  21.208  1.00  0.00    -0.000 A 
ATOM      4  C   UNL     1      42.140 133.490  20.691  1.00  0.00     0.018 A 
ATOM      5  C   UNL     1      40.186 135.010  20.357  1.00  0.00    -0.040 A 
ATOM      6  C   UNL     1      42.505 133.225  19.344  1.00  0.00     0.042 A 
ATOM      7  C   UNL     1      39.771 134.513  19.140  1.00  0.00     0.008 A 
ATOM      8  C   UNL     1      39.921 136.493  20.400  1.00  0.00     0.041 C 
ATOM      9  C   UNL     1      42.354 134.181  18.323  1.00  0.00     0.058 A 
ATOM     10  C   UNL     1      39.691 135.552  18.237  1.00  0.00    -0.047 A 
ATOM     11  C   UNL     1      39.614 136.861  18.943  1.00  0.00     0.040 C 
ATOM     12  C   UNL     1      40.065 135.474  16.887  1.00  0.00     0.019 A 
ATOM     13  C   UNL     1      40.940 134.515  16.304  1.00  0.00     0.067 A 
BRANCH   3  14
ATOM     14  C   UNL     1      41.127 134.676  22.737  1.00  0.00     0.155 C 
BRANCH  14  15
ATOM     15  C   UNL     1      39.712 134.750  23.150  1.00  0.00    -0.066 C 
ATOM     16  C   UNL     1      38.556 134.823  23.482  1.00  0.00     0.007 C 
ENDBRANCH  14  15
BRANCH  14  17
ATOM     17  O   UNL     1      41.656 133.573  23.437  1.00  0.00    -0.373 OA
ATOM     18  H   UNL     1      41.063 132.793  23.274  1.00  0.00     0.213 HD
ENDBRANCH  14  17
BRANCH  14  19
ATOM     19  C   UNL     1      41.932 136.000  23.197  1.00  0.00     0.006 C 
ATOM     20  C   UNL     1      42.624 135.744  24.566  1.00  0.00     0.015 C 
ATOM     21  C   UNL     1      41.048 137.269  23.416  1.00  0.00     0.015 C 
ATOM     22  C   UNL     1      43.041 136.360  22.180  1.00  0.00     0.015 C 
ENDBRANCH  14  19
ENDBRANCH   3  14
BRANCH   6  23
ATOM     23  N   UNL     1      43.042 131.936  19.005  1.00  0.00    -0.061 NA
BRANCH  23  24
ATOM     24  N   UNL     1      44.031 131.458  19.564  1.00  0.00     0.005 N 
ATOM     25  N   UNL     1      45.019 130.987  20.126  1.00  0.00    -0.003 NA
ENDBRANCH  23  24
ENDBRANCH   6  23
BRANCH  13  26
ATOM     26  C   UNL     1      40.803 134.295  14.841  1.00  0.00     0.252 C 
ATOM     27  O   UNL     1      41.580 134.875  14.030  1.00  0.00    -0.287 OA
BRANCH  26  28
ATOM     28  N   UNL     1      39.806 133.395  14.343  1.00  0.00    -0.017 NA
BRANCH  28  29
ATOM     29  N   UNL     1      38.775 133.813  13.812  1.00  0.00     0.009 N 
ATOM     30  N   UNL     1      37.755 134.230  13.271  1.00  0.00    -0.003 NA
ENDBRANCH  28  29
ENDBRANCH  26  28
ENDBRANCH  13  26
ENDBRANCH   1   2
BRANCH   1  31
ATOM     31  C   UNL     1      43.786 132.823  15.706  1.00  0.00     0.331 C 
ATOM     32  O   UNL     1      44.412 133.918  15.706  1.00  0.00    -0.250 OA
BRANCH  31  33
ATOM     33  C   UNL     1      44.325 131.669  14.902  1.00  0.00     0.116 C 
ATOM     34  C   UNL     1      44.630 130.442  15.770  1.00  0.00     0.040 C 
ATOM     35  C   UNL     1      45.810 131.760  14.506  1.00  0.00     0.040 C 
ATOM     36  C   UNL     1      46.108 130.539  15.378  1.00  0.00     0.019 C 
BRANCH  33  37
ATOM     37  N   UNL     1      43.455 131.357  13.763  1.00  0.00    -0.316 NA
ATOM     38  H   UNL     1      43.652 130.387  13.418  1.00  0.00     0.119 HD
ATOM     39  H   UNL     1      43.689 132.010  12.980  1.00  0.00     0.119 HD
ENDBRANCH  33  37
BRANCH  36  40
ATOM     40  C   UNL     1      46.619 129.321  14.590  1.00  0.00     0.159 C 
BRANCH  40  41
ATOM     41  O   UNL     1      48.023 129.312  14.575  1.00  0.00    -0.396 OA
ATOM     42  H   UNL     1      48.297 129.774  13.741  1.00  0.00     0.210 HD
ENDBRANCH  40  41
ENDBRANCH  36  40
ENDBRANCH  31  33
ENDBRANCH   1  31
TORSDOF 15
ENDMDL
MODEL 5
REMARK VINA RESULT:      -5.4      2.482      5.562
REMARK SMILES C#C[C@@](O)(c1cc(N=[N+]=[N-])cc(OC(=O)[C@]2(N)C[C@@H](CO)C2)c(C(=O)N=[N+]=[N-])cc2cc1CC2)C(C)(C)C
REMARK SMILES IDX 13 1 12 2 5 3 6 4 32 5 7 6 31 7 33 8 11 9 30 10 34 11 29 12
REMARK SMILES IDX 23 13 3 14 2 15 1 16 4 17 35 19 36 20 37 21 38 22 8 23 9 24
REMARK SMILES IDX 10 25 24 26 25 27 26 28 27 29 28 30 14 31 15 32 16 33 22 34
REMARK SMILES IDX 18 35 19 36 17 37 20 40 21 41
REMARK H PARENT 4 18 17 38 17 39 21 42
ROOT
ATOM      1  O   UNL     1      44.519 132.575  17.926  1.00  0.00    -0.424 OA
ENDROOT
BRANCH   1   2
ATOM      2  C   UNL     1      43.421 132.902  18.735  1.00  0.00     0.142 A 
ATOM      3  C   UNL     1      39.677 134.631  17.504  1.00  0.00    -0.000 A 
ATOM      4  C   UNL     1      40.558 133.908  16.638  1.00  0.00     0.018 A 
ATOM      5  C   UNL     1      40.052 134.986  18.833  1.00  0.00    -0.040 A 
ATOM      6  C   UNL     1      41.808 133.295  16.923  1.00  0.00     0.042 A 
ATOM      7  C   UNL     1      41.353 135.186  19.245  1.00  0.00     0.008 A 
ATOM      8  C   UNL     1      39.194 134.691  20.037  1.00  0.00     0.041 C 
ATOM      9  C   UNL     1      42.121 132.786  18.197  1.00  0.00     0.058 A 
ATOM     10  C   UNL     1      41.520 134.618  20.491  1.00  0.00    -0.047 A 
ATOM     11  C   UNL     1      40.203 134.410  21.156  1.00  0.00     0.040 C 
ATOM     12  C   UNL     1      42.666 133.927  20.912  1.00  0.00     0.019 A 
ATOM     13  C   UNL     1      43.653 133.336  20.077  1.00  0.00     0.067 A 
BRANCH   3  14
ATOM     14  C   UNL     1      38.238 134.959  16.998  1.00  0.00     0.155 C 
BRANCH  14  15
ATOM     15  C   UNL     1      38.158 134.469  15.609  1.00  0.00    -0.066 C 
ATOM     16  C   UNL     1      38.080 134.061  14.477  1.00  0.00     0.007 C 
ENDBRANCH  14  15
BRANCH  14  17
ATOM     17  O   UNL     1      37.306 134.181  17.715  1.00  0.00    -0.373 OA
ATOM     18  H   UNL     1      37.793 133.715  18.445  1.00  0.00     0.213 HD
ENDBRANCH  14  17
BRANCH  14  19
ATOM     19  C   UNL     1      37.782 136.507  17.092  1.00  0.00     0.006 C 
ATOM     20  C   UNL     1      36.786 136.831  15.943  1.00  0.00     0.015 C 
ATOM     21  C   UNL     1      38.938 137.546  16.938  1.00  0.00     0.015 C 
ATOM     22  C   UNL     1      37.056 136.794  18.427  1.00  0.00     0.015 C 
ENDBRANCH  14  19
ENDBRANCH   3  14
BRANCH   6  23
ATOM     23  N   UNL     1      42.792 133.194  15.881  1.00  0.00    -0.061 NA
BRANCH  23  24
ATOM     24  N   UNL     1      43.270 134.180  15.317  1.00  0.00     0.005 N 
ATOM     25  N   UNL     1      43.750 135.160  14.750  1.00  0.00    -0.003 NA
ENDBRANCH  23  24
ENDBRANCH   6  23
BRANCH  13  26
ATOM     26  C   UNL     1      44.992 133.118  20.684  1.00  0.00     0.252 C 
ATOM     27  O   UNL     1      45.865 134.032  20.657  1.00  0.00    -0.287 OA
BRANCH  26  28
ATOM     28  N   UNL     1      45.290 131.876  21.332  1.00  0.00    -0.017 NA
BRANCH  28  29
ATOM     29  N   UNL     1      44.409 131.219  21.891  1.00  0.00     0.009 N 
ATOM     30  N   UNL     1      43.537 130.569  22.462  1.00  0.00    -0.003 NA
ENDBRANCH  28  29
ENDBRANCH  26  28
ENDBRANCH  13  26
ENDBRANCH   1   2
BRANCH   1  31
ATOM     31  C   UNL     1      45.029 131.273  17.833  1.00  0.00     0.331 C 
ATOM     32  O   UNL     1      44.960 130.500  18.828  1.00  0.00    -0.250 OA
BRANCH  31  33
ATOM     33  C   UNL     1      45.707 130.793  16.576  1.00  0.00     0.116 C 
ATOM     34  C   UNL     1      45.883 131.910  15.542  1.00  0.00     0.040 C 
ATOM     35  C   UNL     1      44.819 130.015  15.588  1.00  0.00     0.040 C 
ATOM     36  C   UNL     1      44.995 131.137  14.562  1.00  0.00     0.019 C 
BRANCH  33  37
ATOM     37  N   UNL     1      46.961 130.095  16.878  1.00  0.00    -0.316 NA
ATOM     38  H   UNL     1      47.310 130.380  17.824  1.00  0.00     0.119 HD
ATOM     39  H   UNL     1      47.684 130.399  16.185  1.00  0.00     0.119 HD
ENDBRANCH  33  37
BRANCH  36  40
ATOM     40  C   UNL     1      45.724 130.699  13.280  1.00  0.00     0.159 C 
BRANCH  40  41
ATOM     41  O   UNL     1      46.619 129.657  13.568  1.00  0.00    -0.396 OA
ATOM     42  H   UNL     1      47.384 130.069  14.047  1.00  0.00     0.210 HD
ENDBRANCH  40  41
ENDBRANCH  36  40
ENDBRANCH  31  33
ENDBRANCH   1  31
TORSDOF 15
ENDMDL
MODEL 6
REMARK VINA RESULT:      -5.2      3.056      8.387
REMARK SMILES C#C[C@@](O)(c1cc(N=[N+]=[N-])cc(OC(=O)[C@]2(N)C[C@@H](CO)C2)c(C(=O)N=[N+]=[N-])cc2cc1CC2)C(C)(C)C
REMARK SMILES IDX 13 1 12 2 5 3 6 4 32 5 7 6 31 7 33 8 11 9 30 10 34 11 29 12
REMARK SMILES IDX 23 13 3 14 2 15 1 16 4 17 35 19 36 20 37 21 38 22 8 23 9 24
REMARK SMILES IDX 10 25 24 26 25 27 26 28 27 29 28 30 14 31 15 32 16 33 22 34
REMARK SMILES IDX 18 35 19 36 17 37 20 40 21 41
REMARK H PARENT 4 18 17 38 17 39 21 42
ROOT
ATOM      1  O   UNL     1      42.336 135.464  18.136  1.00  0.00    -0.424 OA
ENDROOT
BRANCH   1   2
ATOM      2  C   UNL     1      43.303 134.473  18.358  1.00  0.00     0.142 A 
ATOM      3  C   UNL     1      44.417 131.257  15.724  1.00  0.00    -0.000 A 
ATOM      4  C   UNL     1      43.790 132.472  15.298  1.00  0.00     0.018 A 
ATOM      5  C   UNL     1      44.578 130.937  17.104  1.00  0.00    -0.040 A 
ATOM      6  C   UNL     1      43.380 133.597  16.064  1.00  0.00     0.042 A 
ATOM      7  C   UNL     1      43.750 131.392  18.108  1.00  0.00     0.008 A 
ATOM      8  C   UNL     1      45.897 130.524  17.704  1.00  0.00     0.041 C 
ATOM      9  C   UNL     1      44.027 133.970  17.256  1.00  0.00     0.058 A 
ATOM     10  C   UNL     1      44.519 131.742  19.198  1.00  0.00    -0.047 A 
ATOM     11  C   UNL     1      45.863 131.104  19.122  1.00  0.00     0.040 C 
ATOM     12  C   UNL     1      44.287 132.853  20.022  1.00  0.00     0.019 A 
ATOM     13  C   UNL     1      43.527 134.010  19.691  1.00  0.00     0.067 A 
BRANCH   3  14
ATOM     14  C   UNL     1      45.013 130.307  14.639  1.00  0.00     0.155 C 
BRANCH  14  15
ATOM     15  C   UNL     1      44.923 128.938  15.183  1.00  0.00    -0.066 C 
ATOM     16  C   UNL     1      44.863 127.821  15.634  1.00  0.00     0.007 C 
ENDBRANCH  14  15
BRANCH  14  17
ATOM     17  O   UNL     1      44.171 130.308  13.509  1.00  0.00    -0.373 OA
ATOM     18  H   UNL     1      43.920 131.249  13.314  1.00  0.00     0.213 HD
ENDBRANCH  14  17
BRANCH  14  19
ATOM     19  C   UNL     1      46.517 130.636  14.150  1.00  0.00     0.006 C 
ATOM     20  C   UNL     1      47.524 129.706  14.885  1.00  0.00     0.015 C 
ATOM     21  C   UNL     1      47.007 132.088  14.450  1.00  0.00     0.015 C 
ATOM     22  C   UNL     1      46.677 130.382  12.632  1.00  0.00     0.015 C 
ENDBRANCH  14  19
ENDBRANCH   3  14
BRANCH   6  23
ATOM     23  N   UNL     1      42.262 134.379  15.614  1.00  0.00    -0.061 NA
BRANCH  23  24
ATOM     24  N   UNL     1      41.129 133.911  15.485  1.00  0.00     0.005 N 
ATOM     25  N   UNL     1      40.001 133.437  15.355  1.00  0.00    -0.003 NA
ENDBRANCH  23  24
ENDBRANCH   6  23
BRANCH  13  26
ATOM     26  C   UNL     1      42.990 134.799  20.830  1.00  0.00     0.252 C 
ATOM     27  O   UNL     1      42.748 136.033  20.697  1.00  0.00    -0.287 OA
BRANCH  26  28
ATOM     28  N   UNL     1      42.713 134.156  22.079  1.00  0.00    -0.017 NA
BRANCH  28  29
ATOM     29  N   UNL     1      43.353 134.431  23.097  1.00  0.00     0.009 N 
ATOM     30  N   UNL     1      43.982 134.719  24.111  1.00  0.00    -0.003 NA
ENDBRANCH  28  29
ENDBRANCH  26  28
ENDBRANCH  13  26
ENDBRANCH   1   2
BRANCH   1  31
ATOM     31  C   UNL     1      42.658 136.739  17.651  1.00  0.00     0.331 C 
ATOM     32  O   UNL     1      43.830 136.982  17.255  1.00  0.00    -0.250 OA
BRANCH  31  33
ATOM     33  C   UNL     1      41.635 137.846  17.641  1.00  0.00     0.116 C 
ATOM     34  C   UNL     1      40.335 137.437  16.940  1.00  0.00     0.040 C 
ATOM     35  C   UNL     1      41.854 138.954  16.594  1.00  0.00     0.040 C 
ATOM     36  C   UNL     1      40.557 138.537  15.897  1.00  0.00     0.019 C 
BRANCH  33  37
ATOM     37  N   UNL     1      41.411 138.379  18.989  1.00  0.00    -0.316 NA
ATOM     38  H   UNL     1      40.387 138.544  19.142  1.00  0.00     0.119 HD
ATOM     39  H   UNL     1      41.880 139.313  19.057  1.00  0.00     0.119 HD
ENDBRANCH  33  37
BRANCH  36  40
ATOM     40  C   UNL     1      39.469 139.625  15.904  1.00  0.00     0.159 C 
BRANCH  40  41
ATOM     41  O   UNL     1      38.338 139.178  15.204  1.00  0.00    -0.396 OA
ATOM     42  H   UNL     1      38.034 139.940  14.647  1.00  0.00     0.210 HD
ENDBRANCH  40  41
ENDBRANCH  36  40
ENDBRANCH  31  33
ENDBRANCH   1  31
TORSDOF 15
ENDMDL
MODEL 7
REMARK VINA RESULT:      -5.1      2.386      3.306
REMARK SMILES C#C[C@@](O)(c1cc(N=[N+]=[N-])cc(OC(=O)[C@]2(N)C[C@@H](CO)C2)c(C(=O)N=[N+]=[N-])cc2cc1CC2)C(C)(C)C
REMARK SMILES IDX 13 1 12 2 5 3 6 4 32 5 7 6 31 7 33 8 11 9 30 10 34 11 29 12
REMARK SMILES IDX 23 13 3 14 2 15 1 16 4 17 35 19 36 20 37 21 38 22 8 23 9 24
REMARK SMILES IDX 10 25 24 26 25 27 26 28 27 29 28 30 14 31 15 32 16 33 22 34
REMARK SMILES IDX 18 35 19 36 17 37 20 40 21 41
REMARK H PARENT 4 18 17 38 17 39 21 42
ROOT
ATOM      1  O   UNL     1      42.841 132.614  16.858  1.00  0.00    -0.424 OA
ENDROOT
BRANCH   1   2
ATOM      2  C   UNL     1      43.313 133.914  17.088  1.00  0.00     0.142 A 
ATOM      3  C   UNL     1      44.970 135.500  20.730  1.00  0.00    -0.000 A 
ATOM      4  C   UNL     1      44.932 134.108  20.396  1.00  0.00     0.018 A 
ATOM      5  C   UNL     1      44.301 136.481  19.940  1.00  0.00    -0.040 A 
ATOM      6  C   UNL     1      44.418 133.467  19.237  1.00  0.00     0.042 A 
ATOM      7  C   UNL     1      43.179 136.231  19.178  1.00  0.00     0.008 A 
ATOM      8  C   UNL     1      44.979 137.724  19.425  1.00  0.00     0.041 C 
ATOM      9  C   UNL     1      44.391 134.099  17.980  1.00  0.00     0.058 A 
ATOM     10  C   UNL     1      43.302 136.890  17.973  1.00  0.00    -0.047 A 
ATOM     11  C   UNL     1      44.314 137.979  18.068  1.00  0.00     0.040 C 
ATOM     12  C   UNL     1      42.900 136.377  16.731  1.00  0.00     0.019 A 
ATOM     13  C   UNL     1      42.691 135.007  16.409  1.00  0.00     0.067 A 
BRANCH   3  14
ATOM     14  C   UNL     1      45.841 135.952  21.942  1.00  0.00     0.155 C 
BRANCH  14  15
ATOM     15  C   UNL     1      47.246 135.695  21.571  1.00  0.00    -0.066 C 
ATOM     16  C   UNL     1      48.390 135.482  21.254  1.00  0.00     0.007 C 
ENDBRANCH  14  15
BRANCH  14  17
ATOM     17  O   UNL     1      45.750 137.351  22.083  1.00  0.00    -0.373 OA
ATOM     18  H   UNL     1      45.391 137.722  21.233  1.00  0.00     0.213 HD
ENDBRANCH  14  17
BRANCH  14  19
ATOM     19  C   UNL     1      45.488 135.277  23.367  1.00  0.00     0.006 C 
ATOM     20  C   UNL     1      43.948 135.106  23.500  1.00  0.00     0.015 C 
ATOM     21  C   UNL     1      45.917 136.108  24.618  1.00  0.00     0.015 C 
ATOM     22  C   UNL     1      46.120 133.870  23.490  1.00  0.00     0.015 C 
ENDBRANCH  14  19
ENDBRANCH   3  14
BRANCH   6  23
ATOM     23  N   UNL     1      43.901 132.131  19.346  1.00  0.00    -0.061 NA
BRANCH  23  24
ATOM     24  N   UNL     1      43.633 131.606  20.429  1.00  0.00     0.005 N 
ATOM     25  N   UNL     1      43.371 131.077  21.508  1.00  0.00    -0.003 NA
ENDBRANCH  23  24
ENDBRANCH   6  23
BRANCH  13  26
ATOM     26  C   UNL     1      41.805 134.726  15.248  1.00  0.00     0.252 C 
ATOM     27  O   UNL     1      42.271 134.195  14.200  1.00  0.00    -0.287 OA
BRANCH  26  28
ATOM     28  N   UNL     1      40.407 135.028  15.326  1.00  0.00    -0.017 NA
BRANCH  28  29
ATOM     29  N   UNL     1      39.582 134.166  15.633  1.00  0.00     0.009 N 
ATOM     30  N   UNL     1      38.763 133.308  15.952  1.00  0.00    -0.003 NA
ENDBRANCH  28  29
ENDBRANCH  26  28
ENDBRANCH  13  26
ENDBRANCH   1   2
BRANCH   1  31
ATOM     31  C   UNL     1      43.303 131.817  15.801  1.00  0.00     0.331 C 
ATOM     32  O   UNL     1      42.546 131.577  14.820  1.00  0.00    -0.250 OA
BRANCH  31  33
ATOM     33  C   UNL     1      44.675 131.197  15.839  1.00  0.00     0.116 C 
ATOM     34  C   UNL     1      45.752 132.120  15.257  1.00  0.00     0.040 C 
ATOM     35  C   UNL     1      44.974 130.156  14.745  1.00  0.00     0.040 C 
ATOM     36  C   UNL     1      46.043 131.085  14.166  1.00  0.00     0.019 C 
BRANCH  33  37
ATOM     37  N   UNL     1      45.008 130.714  17.184  1.00  0.00    -0.316 NA
ATOM     38  H   UNL     1      44.310 129.994  17.487  1.00  0.00     0.119 HD
ATOM     39  H   UNL     1      44.925 131.516  17.853  1.00  0.00     0.119 HD
ENDBRANCH  33  37
BRANCH  36  40
ATOM     40  C   UNL     1      47.468 130.507  14.227  1.00  0.00     0.159 C 
BRANCH  40  41
ATOM     41  O   UNL     1      47.419 129.105  14.210  1.00  0.00    -0.396 OA
ATOM     42  H   UNL     1      48.258 128.800  13.776  1.00  0.00     0.210 HD
ENDBRANCH  40  41
ENDBRANCH  36  40
ENDBRANCH  31  33
ENDBRANCH   1  31
TORSDOF 15
ENDMDL
MODEL 8
REMARK VINA RESULT:      -5.1      2.834      8.647
REMARK SMILES C#C[C@@](O)(c1cc(N=[N+]=[N-])cc(OC(=O)[C@]2(N)C[C@@H](CO)C2)c(C(=O)N=[N+]=[N-])cc2cc1CC2)C(C)(C)C
REMARK SMILES IDX 13 1 12 2 5 3 6 4 32 5 7 6 31 7 33 8 11 9 30 10 34 11 29 12
REMARK SMILES IDX 23 13 3 14 2 15 1 16 4 17 35 19 36 20 37 21 38 22 8 23 9 24
REMARK SMILES IDX 10 25 24 26 25 27 26 28 27 29 28 30 14 31 15 32 16 33 22 34
REMARK SMILES IDX 18 35 19 36 17 37 20 40 21 41
REMARK H PARENT 4 18 17 38 17 39 21 42
ROOT
ATOM      1  O   UNL     1      42.181 135.194  18.421  1.00  0.00    -0.424 OA
ENDROOT
BRANCH   1   2
ATOM      2  C   UNL     1      43.218 134.265  18.588  1.00  0.00     0.142 A 
ATOM      3  C   UNL     1      44.379 131.117  15.892  1.00  0.00    -0.000 A 
ATOM      4  C   UNL     1      43.657 132.290  15.503  1.00  0.00     0.018 A 
ATOM      5  C   UNL     1      44.635 130.810  17.261  1.00  0.00    -0.040 A 
ATOM      6  C   UNL     1      43.221 133.389  16.292  1.00  0.00     0.042 A 
ATOM      7  C   UNL     1      43.837 131.216  18.310  1.00  0.00     0.008 A 
ATOM      8  C   UNL     1      46.008 130.479  17.787  1.00  0.00     0.041 C 
ATOM      9  C   UNL     1      43.909 133.804  17.447  1.00  0.00     0.058 A 
ATOM     10  C   UNL     1      44.643 131.615  19.356  1.00  0.00    -0.047 A 
ATOM     11  C   UNL     1      46.016 131.059  19.206  1.00  0.00     0.040 C 
ATOM     12  C   UNL     1      44.388 132.711  20.194  1.00  0.00     0.019 A 
ATOM     13  C   UNL     1      43.542 133.818  19.906  1.00  0.00     0.067 A 
BRANCH   3  14
ATOM     14  C   UNL     1      44.971 130.202  14.775  1.00  0.00     0.155 C 
BRANCH  14  15
ATOM     15  C   UNL     1      44.994 128.831  15.321  1.00  0.00    -0.066 C 
ATOM     16  C   UNL     1      45.000 127.714  15.773  1.00  0.00     0.007 C 
ENDBRANCH  14  15
BRANCH  14  17
ATOM     17  O   UNL     1      44.071 130.150  13.692  1.00  0.00    -0.373 OA
ATOM     18  H   UNL     1      44.172 129.265  13.252  1.00  0.00     0.213 HD
ENDBRANCH  14  17
BRANCH  14  19
ATOM     19  C   UNL     1      46.424 130.621  14.205  1.00  0.00     0.006 C 
ATOM     20  C   UNL     1      47.506 129.651  14.760  1.00  0.00     0.015 C 
ATOM     21  C   UNL     1      46.908 132.049  14.613  1.00  0.00     0.015 C 
ATOM     22  C   UNL     1      46.466 130.525  12.662  1.00  0.00     0.015 C 
ENDBRANCH  14  19
ENDBRANCH   3  14
BRANCH   6  23
ATOM     23  N   UNL     1      42.035 134.101  15.905  1.00  0.00    -0.061 NA
BRANCH  23  24
ATOM     24  N   UNL     1      41.308 133.733  14.980  1.00  0.00     0.005 N 
ATOM     25  N   UNL     1      40.585 133.371  14.052  1.00  0.00    -0.003 NA
ENDBRANCH  23  24
ENDBRANCH   6  23
BRANCH  13  26
ATOM     26  C   UNL     1      43.021 134.576  21.074  1.00  0.00     0.252 C 
ATOM     27  O   UNL     1      42.143 134.067  21.828  1.00  0.00    -0.287 OA
BRANCH  26  28
ATOM     28  N   UNL     1      43.536 135.879  21.368  1.00  0.00    -0.017 NA
BRANCH  28  29
ATOM     29  N   UNL     1      43.201 136.484  22.389  1.00  0.00     0.009 N 
ATOM     30  N   UNL     1      42.860 137.075  23.410  1.00  0.00    -0.003 NA
ENDBRANCH  28  29
ENDBRANCH  26  28
ENDBRANCH  13  26
ENDBRANCH   1   2
BRANCH   1  31
ATOM     31  C   UNL     1      40.851 134.913  18.765  1.00  0.00     0.331 C 
ATOM     32  O   UNL     1      40.423 133.729  18.696  1.00  0.00    -0.250 OA
BRANCH  31  33
ATOM     33  C   UNL     1      39.906 136.014  19.170  1.00  0.00     0.116 C 
ATOM     34  C   UNL     1      40.630 137.336  19.448  1.00  0.00     0.040 C 
ATOM     35  C   UNL     1      39.412 135.975  20.628  1.00  0.00     0.040 C 
ATOM     36  C   UNL     1      40.142 137.293  20.900  1.00  0.00     0.019 C 
BRANCH  33  37
ATOM     37  N   UNL     1      38.809 136.159  18.206  1.00  0.00    -0.316 NA
ATOM     38  H   UNL     1      39.167 136.588  17.319  1.00  0.00     0.119 HD
ATOM     39  H   UNL     1      38.107 136.827  18.603  1.00  0.00     0.119 HD
ENDBRANCH  33  37
BRANCH  36  40
ATOM     40  C   UNL     1      39.208 138.456  21.273  1.00  0.00     0.159 C 
BRANCH  40  41
ATOM     41  O   UNL     1      38.028 137.960  21.850  1.00  0.00    -0.396 OA
ATOM     42  H   UNL     1      38.076 136.972  21.779  1.00  0.00     0.210 HD
ENDBRANCH  40  41
ENDBRANCH  36  40
ENDBRANCH  31  33
ENDBRANCH   1  31
TORSDOF 15
ENDMDL
MODEL 9
REMARK VINA RESULT:      -5.1      2.929      3.875
REMARK SMILES C#C[C@@](O)(c1cc(N=[N+]=[N-])cc(OC(=O)[C@]2(N)C[C@@H](CO)C2)c(C(=O)N=[N+]=[N-])cc2cc1CC2)C(C)(C)C
REMARK SMILES IDX 13 1 12 2 5 3 6 4 32 5 7 6 31 7 33 8 11 9 30 10 34 11 29 12
REMARK SMILES IDX 23 13 3 14 2 15 1 16 4 17 35 19 36 20 37 21 38 22 8 23 9 24
REMARK SMILES IDX 10 25 24 26 25 27 26 28 27 29 28 30 14 31 15 32 16 33 22 34
REMARK SMILES IDX 18 35 19 36 17 37 20 40 21 41
REMARK H PARENT 4 18 17 38 17 39 21 42
ROOT
ATOM      1  O   UNL     1      42.576 132.956  17.419  1.00  0.00    -0.424 OA
ENDROOT
BRANCH   1   2
ATOM      2  C   UNL     1      42.755 134.309  17.095  1.00  0.00     0.142 A 
ATOM      3  C   UNL     1      44.524 137.380  19.537  1.00  0.00    -0.000 A 
ATOM      4  C   UNL     1      44.767 135.978  19.697  1.00  0.00     0.018 A 
ATOM      5  C   UNL     1      43.528 137.873  18.644  1.00  0.00    -0.040 A 
ATOM      6  C   UNL     1      44.250 134.878  18.961  1.00  0.00     0.042 A 
ATOM      7  C   UNL     1      42.395 137.176  18.282  1.00  0.00     0.008 A 
ATOM      8  C   UNL     1      43.804 138.934  17.610  1.00  0.00     0.041 C 
ATOM      9  C   UNL     1      43.881 134.988  17.607  1.00  0.00     0.058 A 
ATOM     10  C   UNL     1      42.172 137.355  16.933  1.00  0.00    -0.047 A 
ATOM     11  C   UNL     1      42.898 138.555  16.433  1.00  0.00     0.040 C 
ATOM     12  C   UNL     1      41.718 136.360  16.055  1.00  0.00     0.019 A 
ATOM     13  C   UNL     1      41.794 134.953  16.256  1.00  0.00     0.067 A 
BRANCH   3  14
ATOM     14  C   UNL     1      45.438 138.387  20.302  1.00  0.00     0.155 C 
BRANCH  14  15
ATOM     15  C   UNL     1      46.599 138.649  19.430  1.00  0.00    -0.066 C 
ATOM     16  C   UNL     1      47.555 138.865  18.729  1.00  0.00     0.007 C 
ENDBRANCH  14  15
BRANCH  14  17
ATOM     17  O   UNL     1      44.774 139.625  20.411  1.00  0.00    -0.373 OA
ATOM     18  H   UNL     1      44.822 140.077  19.528  1.00  0.00     0.213 HD
ENDBRANCH  14  17
BRANCH  14  19
ATOM     19  C   UNL     1      45.916 137.937  21.779  1.00  0.00     0.006 C 
ATOM     20  C   UNL     1      46.998 136.827  21.666  1.00  0.00     0.015 C 
ATOM     21  C   UNL     1      44.795 137.327  22.680  1.00  0.00     0.015 C 
ATOM     22  C   UNL     1      46.550 139.123  22.545  1.00  0.00     0.015 C 
ENDBRANCH  14  19
ENDBRANCH   3  14
BRANCH   6  23
ATOM     23  N   UNL     1      44.088 133.610  19.617  1.00  0.00    -0.061 NA
BRANCH  23  24
ATOM     24  N   UNL     1      44.588 133.359  20.715  1.00  0.00     0.005 N 
ATOM     25  N   UNL     1      45.083 133.114  21.814  1.00  0.00    -0.003 NA
ENDBRANCH  23  24
ENDBRANCH   6  23
BRANCH  13  26
ATOM     26  C   UNL     1      40.834 134.120  15.486  1.00  0.00     0.252 C 
ATOM     27  O   UNL     1      39.933 133.464  16.082  1.00  0.00    -0.287 OA
BRANCH  26  28
ATOM     28  N   UNL     1      40.906 134.082  14.056  1.00  0.00    -0.017 NA
BRANCH  28  29
ATOM     29  N   UNL     1      40.203 134.816  13.360  1.00  0.00     0.009 N 
ATOM     30  N   UNL     1      39.492 135.549  12.677  1.00  0.00    -0.003 NA
ENDBRANCH  28  29
ENDBRANCH  26  28
ENDBRANCH  13  26
ENDBRANCH   1   2
BRANCH   1  31
ATOM     31  C   UNL     1      43.555 131.984  17.172  1.00  0.00     0.331 C 
ATOM     32  O   UNL     1      43.969 131.257  18.117  1.00  0.00    -0.250 OA
BRANCH  31  33
ATOM     33  C   UNL     1      44.163 131.825  15.803  1.00  0.00     0.116 C 
ATOM     34  C   UNL     1      45.046 130.578  15.695  1.00  0.00     0.040 C 
ATOM     35  C   UNL     1      45.381 132.717  15.500  1.00  0.00     0.040 C 
ATOM     36  C   UNL     1      46.258 131.467  15.398  1.00  0.00     0.019 C 
BRANCH  33  37
ATOM     37  N   UNL     1      43.141 131.890  14.753  1.00  0.00    -0.316 NA
ATOM     38  H   UNL     1      42.974 130.934  14.356  1.00  0.00     0.119 HD
ATOM     39  H   UNL     1      43.507 132.482  13.971  1.00  0.00     0.119 HD
ENDBRANCH  33  37
BRANCH  36  40
ATOM     40  C   UNL     1      46.863 131.243  14.002  1.00  0.00     0.159 C 
BRANCH  40  41
ATOM     41  O   UNL     1      47.518 130.003  13.954  1.00  0.00    -0.396 OA
ATOM     42  H   UNL     1      48.392 130.131  14.407  1.00  0.00     0.210 HD
ENDBRANCH  40  41
ENDBRANCH  36  40
ENDBRANCH  31  33
ENDBRANCH   1  31
TORSDOF 15
ENDMDL


