REMARK SMILES C#C/C(O)=N\[C@H](c1c(C)[nH+]nn1-c1c2ccccc2c(C(=O)N=[N+]=[N-])c2ccccc12)C(C)C
REMARK SMILES IDX 7 1 8 2 9 3 10 4 11 6 12 7 6 8 5 9 3 10 2 11 1 12 4 13 32 15
REMARK SMILES IDX 33 16 34 17 13 18 14 19 31 20 15 21 19 22 30 23 26 24 16 25
REMARK SMILES IDX 18 26 20 27 29 28 27 29 17 30 28 31 21 32 22 33 23 34 24 35
REMARK SMILES IDX 25 36
REMARK H PARENT 10 5 4 14
ROOT
ATOM      1  C   UNL     1       1.996  -0.911   0.008  1.00  0.00     0.201 A 
ATOM      2  C   UNL     1       3.100  -1.672   0.378  1.00  0.00     0.167 A 
ATOM      3  C   UNL     1       4.168  -1.346   1.375  1.00  0.00     0.100 C 
ATOM      4  N   UNL     1       3.014  -2.846  -0.277  1.00  0.00    -0.147 N 
ATOM      5  H   UNL     1       3.673  -3.654  -0.212  1.00  0.00     0.342 HD
ATOM      6  N   UNL     1       1.928  -2.822  -1.032  1.00  0.00     0.094 NA
ATOM      7  N   UNL     1       1.305  -1.665  -0.877  1.00  0.00    -0.095 N 
ENDROOT
BRANCH   1   8
ATOM      8  C   UNL     1       1.610   0.493   0.428  1.00  0.00     0.190 C 
BRANCH   8   9
ATOM      9  N   UNL     1       2.148   0.797   1.761  1.00  0.00    -0.231 NA
BRANCH   9  10
ATOM     10  C   UNL     1       1.519   1.379   2.741  1.00  0.00     0.261 C 
BRANCH  10  11
ATOM     11  C   UNL     1       0.141   1.798   2.627  1.00  0.00    -0.012 C 
ATOM     12  C   UNL     1      -1.010   2.144   2.528  1.00  0.00     0.015 C 
ENDBRANCH  10  11
BRANCH  10  13
ATOM     13  O   UNL     1       2.197   1.596   3.936  1.00  0.00    -0.487 OA
ATOM     14  H   UNL     1       1.743   2.044   4.724  1.00  0.00     0.296 HD
ENDBRANCH  10  13
ENDBRANCH   9  10
ENDBRANCH   8   9
BRANCH   8  15
ATOM     15  C   UNL     1       2.062   1.545  -0.621  1.00  0.00     0.016 C 
ATOM     16  C   UNL     1       1.442   2.920  -0.338  1.00  0.00     0.010 C 
ATOM     17  C   UNL     1       3.590   1.663  -0.728  1.00  0.00     0.010 C 
ENDBRANCH   8  15
ENDBRANCH   1   8
BRANCH   7  18
ATOM     18  C   UNL     1       0.092  -1.310  -1.560  1.00  0.00     0.171 A 
ATOM     19  C   UNL     1      -1.142  -1.355  -0.875  1.00  0.00     0.032 A 
ATOM     20  C   UNL     1       0.142  -0.876  -2.901  1.00  0.00     0.032 A 
ATOM     21  C   UNL     1      -1.210  -1.820   0.456  1.00  0.00     0.013 A 
ATOM     22  C   UNL     1      -2.331  -0.928  -1.523  1.00  0.00    -0.002 A 
ATOM     23  C   UNL     1       1.369  -0.831  -3.598  1.00  0.00     0.013 A 
ATOM     24  C   UNL     1      -1.044  -0.451  -3.557  1.00  0.00    -0.002 A 
ATOM     25  C   UNL     1      -2.424  -1.851   1.140  1.00  0.00     0.001 A 
ATOM     26  C   UNL     1      -3.552  -0.981  -0.809  1.00  0.00     0.009 A 
ATOM     27  C   UNL     1      -2.280  -0.467  -2.862  1.00  0.00     0.040 A 
ATOM     28  C   UNL     1       1.426  -0.379  -4.914  1.00  0.00     0.001 A 
ATOM     29  C   UNL     1      -0.957   0.009  -4.892  1.00  0.00     0.009 A 
ATOM     30  C   UNL     1      -3.591  -1.433   0.509  1.00  0.00     0.001 A 
ATOM     31  C   UNL     1       0.267   0.039  -5.559  1.00  0.00     0.001 A 
BRANCH  27  32
ATOM     32  C   UNL     1      -3.513   0.024  -3.527  1.00  0.00     0.250 C 
ATOM     33  O   UNL     1      -4.069  -0.689  -4.404  1.00  0.00    -0.287 OA
BRANCH  32  34
ATOM     34  N   UNL     1      -4.080   1.295  -3.195  1.00  0.00    -0.017 NA
BRANCH  34  35
ATOM     35  N   UNL     1      -3.549   2.041  -2.371  1.00  0.00     0.009 N 
ATOM     36  N   UNL     1      -3.018   2.784  -1.547  1.00  0.00    -0.003 NA
ENDBRANCH  34  35
ENDBRANCH  32  34
ENDBRANCH  27  32
ENDBRANCH   7  18
TORSDOF 10


