MODEL 1
REMARK VINA RESULT:      -6.8      0.000      0.000
REMARK SMILES C[C@@H](C#N)N(C)CCCCc1cn(-c2cc(N)c3c4c(cccc24)C(=O)N3)nn1
REMARK SMILES IDX 8 1 7 2 5 3 6 4 2 5 1 6 3 7 4 8 9 9 10 10 11 11 12 12 29 13
REMARK SMILES IDX 13 14 28 15 14 16 15 17 24 18 16 19 23 20 19 21 18 22 22 23
REMARK SMILES IDX 20 24 27 25 21 26 25 27 26 29 17 30
REMARK H PARENT 27 28 17 31 17 32
ROOT
ATOM      1  C   UNL     1      44.983 130.503  17.561  1.00  0.00     0.016 C 
ENDROOT
BRANCH   1   2
ATOM      2  C   UNL     1      46.313 130.439  16.800  1.00  0.00     0.085 C 
BRANCH   2   3
ATOM      3  N   UNL     1      46.102 129.911  15.430  1.00  0.00    -0.291 NA
ATOM      4  C   UNL     1      45.050 128.878  15.403  1.00  0.00     0.106 C 
BRANCH   3   5
ATOM      5  C   UNL     1      45.861 130.964  14.408  1.00  0.00     0.157 C 
ATOM      6  C   UNL     1      46.103 130.497  12.961  1.00  0.00     0.041 C 
BRANCH   5   7
ATOM      7  C   UNL     1      44.497 131.499  14.547  1.00  0.00     0.081 C 
ATOM      8  N   UNL     1      43.424 131.920  14.657  1.00  0.00    -0.197 NA
ENDBRANCH   5   7
ENDBRANCH   3   5
ENDBRANCH   2   3
ENDBRANCH   1   2
BRANCH   1   9
ATOM      9  C   UNL     1      44.833 131.842  18.300  1.00  0.00     0.008 C 
BRANCH   9  10
ATOM     10  C   UNL     1      43.490 131.953  19.035  1.00  0.00     0.060 C 
BRANCH  10  11
ATOM     11  C   UNL     1      42.438 132.589  18.179  1.00  0.00     0.083 A 
ATOM     12  C   UNL     1      42.512 133.813  17.553  1.00  0.00     0.140 A 
ATOM     13  N   UNL     1      41.277 132.000  17.829  1.00  0.00    -0.135 NA
ATOM     14  N   UNL     1      41.372 133.944  16.854  1.00  0.00    -0.220 N 
ATOM     15  N   UNL     1      40.651 132.846  17.022  1.00  0.00    -0.062 NA
BRANCH  14  16
ATOM     16  C   UNL     1      41.020 135.030  15.980  1.00  0.00     0.076 A 
ATOM     17  C   UNL     1      41.958 136.080  15.753  1.00  0.00     0.056 A 
ATOM     18  C   UNL     1      39.764 135.074  15.314  1.00  0.00     0.011 A 
ATOM     19  C   UNL     1      41.674 137.150  14.870  1.00  0.00     0.058 A 
ATOM     20  C   UNL     1      38.695 134.161  15.476  1.00  0.00     0.011 A 
ATOM     21  C   UNL     1      39.544 136.138  14.452  1.00  0.00     0.022 A 
ATOM     22  C   UNL     1      40.438 137.145  14.218  1.00  0.00     0.073 A 
ATOM     23  C   UNL     1      37.484 134.348  14.758  1.00  0.00     0.002 A 
ATOM     24  C   UNL     1      38.386 136.334  13.758  1.00  0.00     0.050 A 
ATOM     25  N   UNL     1      39.890 138.101  13.305  1.00  0.00    -0.320 N 
ATOM     26  C   UNL     1      37.320 135.447  13.886  1.00  0.00     0.014 A 
ATOM     27  C   UNL     1      38.587 137.578  13.021  1.00  0.00     0.256 C 
ATOM     28  H   UNL     1      40.316 138.984  12.948  1.00  0.00     0.170 HD
ATOM     29  O   UNL     1      37.752 138.128  12.256  1.00  0.00    -0.269 OA
BRANCH  19  30
ATOM     30  N   UNL     1      42.629 138.193  14.655  1.00  0.00    -0.397 N 
ATOM     31  H   UNL     1      42.546 139.101  15.164  1.00  0.00     0.156 HD
ATOM     32  H   UNL     1      43.424 138.071  13.990  1.00  0.00     0.156 HD
ENDBRANCH  19  30
ENDBRANCH  14  16
ENDBRANCH  10  11
ENDBRANCH   9  10
ENDBRANCH   1   9
TORSDOF 9
ENDMDL
MODEL 2
REMARK VINA RESULT:      -6.4      1.907      2.859
REMARK SMILES C[C@@H](C#N)N(C)CCCCc1cn(-c2cc(N)c3c4c(cccc24)C(=O)N3)nn1
REMARK SMILES IDX 8 1 7 2 5 3 6 4 2 5 1 6 3 7 4 8 9 9 10 10 11 11 12 12 29 13
REMARK SMILES IDX 13 14 28 15 14 16 15 17 24 18 16 19 23 20 19 21 18 22 22 23
REMARK SMILES IDX 20 24 27 25 21 26 25 27 26 29 17 30
REMARK H PARENT 27 28 17 31 17 32
ROOT
ATOM      1  C   UNL     1      45.177 130.876  17.238  1.00  0.00     0.016 C 
ENDROOT
BRANCH   1   2
ATOM      2  C   UNL     1      45.753 129.957  16.153  1.00  0.00     0.085 C 
BRANCH   2   3
ATOM      3  N   UNL     1      45.796 130.661  14.848  1.00  0.00    -0.291 NA
ATOM      4  C   UNL     1      46.418 131.992  14.969  1.00  0.00     0.106 C 
BRANCH   3   5
ATOM      5  C   UNL     1      46.415 129.865  13.754  1.00  0.00     0.157 C 
ATOM      6  C   UNL     1      46.358 130.548  12.376  1.00  0.00     0.041 C 
BRANCH   5   7
ATOM      7  C   UNL     1      47.807 129.532  14.099  1.00  0.00     0.081 C 
ATOM      8  N   UNL     1      48.900 129.270  14.370  1.00  0.00    -0.197 NA
ENDBRANCH   5   7
ENDBRANCH   3   5
ENDBRANCH   2   3
ENDBRANCH   1   2
BRANCH   1   9
ATOM      9  C   UNL     1      45.663 130.454  18.634  1.00  0.00     0.008 C 
BRANCH   9  10
ATOM     10  C   UNL     1      45.341 131.506  19.704  1.00  0.00     0.060 C 
BRANCH  10  11
ATOM     11  C   UNL     1      44.012 132.156  19.464  1.00  0.00     0.083 A 
ATOM     12  C   UNL     1      43.759 133.237  18.650  1.00  0.00     0.140 A 
ATOM     13  N   UNL     1      42.841 131.712  19.961  1.00  0.00    -0.135 NA
ATOM     14  N   UNL     1      42.430 133.435  18.696  1.00  0.00    -0.220 N 
ATOM     15  N   UNL     1      41.897 132.506  19.476  1.00  0.00    -0.062 NA
BRANCH  14  16
ATOM     16  C   UNL     1      41.680 134.410  17.951  1.00  0.00     0.076 A 
ATOM     17  C   UNL     1      41.072 135.501  18.639  1.00  0.00     0.056 A 
ATOM     18  C   UNL     1      41.547 134.327  16.538  1.00  0.00     0.011 A 
ATOM     19  C   UNL     1      40.358 136.509  17.945  1.00  0.00     0.058 A 
ATOM     20  C   UNL     1      42.021 133.281  15.709  1.00  0.00     0.011 A 
ATOM     21  C   UNL     1      40.847 135.346  15.909  1.00  0.00     0.022 A 
ATOM     22  C   UNL     1      40.268 136.403  16.555  1.00  0.00     0.073 A 
ATOM     23  C   UNL     1      41.790 133.323  14.309  1.00  0.00     0.002 A 
ATOM     24  C   UNL     1      40.614 135.399  14.566  1.00  0.00     0.050 A 
ATOM     25  N   UNL     1      39.597 137.254  15.621  1.00  0.00    -0.320 N 
ATOM     26  C   UNL     1      41.078 134.393  13.722  1.00  0.00     0.014 A 
ATOM     27  C   UNL     1      39.821 136.607  14.362  1.00  0.00     0.256 C 
ATOM     28  H   UNL     1      39.049 138.123  15.804  1.00  0.00     0.170 HD
ATOM     29  O   UNL     1      39.382 137.028  13.260  1.00  0.00    -0.269 OA
BRANCH  19  30
ATOM     30  N   UNL     1      39.756 137.596  18.653  1.00  0.00    -0.397 N 
ATOM     31  H   UNL     1      40.349 138.300  19.146  1.00  0.00     0.156 HD
ATOM     32  H   UNL     1      38.720 137.710  18.692  1.00  0.00     0.156 HD
ENDBRANCH  19  30
ENDBRANCH  14  16
ENDBRANCH  10  11
ENDBRANCH   9  10
ENDBRANCH   1   9
TORSDOF 9
ENDMDL
MODEL 3
REMARK VINA RESULT:      -6.3      3.077      7.905
REMARK SMILES C[C@@H](C#N)N(C)CCCCc1cn(-c2cc(N)c3c4c(cccc24)C(=O)N3)nn1
REMARK SMILES IDX 8 1 7 2 5 3 6 4 2 5 1 6 3 7 4 8 9 9 10 10 11 11 12 12 29 13
REMARK SMILES IDX 13 14 28 15 14 16 15 17 24 18 16 19 23 20 19 21 18 22 22 23
REMARK SMILES IDX 20 24 27 25 21 26 25 27 26 29 17 30
REMARK H PARENT 27 28 17 31 17 32
ROOT
ATOM      1  C   UNL     1      39.093 134.057  16.075  1.00  0.00     0.016 C 
ENDROOT
BRANCH   1   2
ATOM      2  C   UNL     1      39.357 135.394  15.372  1.00  0.00     0.085 C 
BRANCH   2   3
ATOM      3  N   UNL     1      38.434 135.568  14.225  1.00  0.00    -0.291 NA
ATOM      4  C   UNL     1      37.114 134.967  14.494  1.00  0.00     0.106 C 
BRANCH   3   5
ATOM      5  C   UNL     1      38.309 136.976  13.760  1.00  0.00     0.157 C 
ATOM      6  C   UNL     1      37.627 137.121  12.388  1.00  0.00     0.041 C 
BRANCH   5   7
ATOM      7  C   UNL     1      37.597 137.778  14.768  1.00  0.00     0.081 C 
ATOM      8  N   UNL     1      37.036 138.408  15.560  1.00  0.00    -0.197 NA
ENDBRANCH   5   7
ENDBRANCH   3   5
ENDBRANCH   2   3
ENDBRANCH   1   2
BRANCH   1   9
ATOM      9  C   UNL     1      38.149 134.239  17.275  1.00  0.00     0.008 C 
BRANCH   9  10
ATOM     10  C   UNL     1      38.870 134.046  18.616  1.00  0.00     0.060 C 
BRANCH  10  11
ATOM     11  C   UNL     1      40.352 133.922  18.439  1.00  0.00     0.083 A 
ATOM     12  C   UNL     1      41.058 132.767  18.189  1.00  0.00     0.140 A 
ATOM     13  N   UNL     1      41.211 134.960  18.420  1.00  0.00    -0.135 NA
ATOM     14  N   UNL     1      42.343 133.138  18.047  1.00  0.00    -0.220 N 
ATOM     15  N   UNL     1      42.412 134.454  18.178  1.00  0.00    -0.062 NA
BRANCH  14  16
ATOM     16  C   UNL     1      43.451 132.288  17.705  1.00  0.00     0.076 A 
ATOM     17  C   UNL     1      44.349 131.862  18.728  1.00  0.00     0.056 A 
ATOM     18  C   UNL     1      43.662 131.840  16.373  1.00  0.00     0.011 A 
ATOM     19  C   UNL     1      45.431 130.992  18.449  1.00  0.00     0.058 A 
ATOM     20  C   UNL     1      42.917 132.218  15.231  1.00  0.00     0.011 A 
ATOM     21  C   UNL     1      44.730 130.980  16.159  1.00  0.00     0.022 A 
ATOM     22  C   UNL     1      45.593 130.557  17.131  1.00  0.00     0.073 A 
ATOM     23  C   UNL     1      43.263 131.705  13.953  1.00  0.00     0.002 A 
ATOM     24  C   UNL     1      45.077 130.482  14.938  1.00  0.00     0.050 A 
ATOM     25  N   UNL     1      46.599 129.706  16.573  1.00  0.00    -0.320 N 
ATOM     26  C   UNL     1      44.356 130.824  13.797  1.00  0.00     0.014 A 
ATOM     27  C   UNL     1      46.264 129.667  15.180  1.00  0.00     0.256 C 
ATOM     28  H   UNL     1      47.404 129.245  17.050  1.00  0.00     0.170 HD
ATOM     29  O   UNL     1      46.914 129.028  14.312  1.00  0.00    -0.269 OA
BRANCH  19  30
ATOM     30  N   UNL     1      46.321 130.575  19.488  1.00  0.00    -0.397 N 
ATOM     31  H   UNL     1      46.989 131.254  19.918  1.00  0.00     0.156 HD
ATOM     32  H   UNL     1      46.323 129.592  19.838  1.00  0.00     0.156 HD
ENDBRANCH  19  30
ENDBRANCH  14  16
ENDBRANCH  10  11
ENDBRANCH   9  10
ENDBRANCH   1   9
TORSDOF 9
ENDMDL
MODEL 4
REMARK VINA RESULT:      -6.2      5.242      7.638
REMARK SMILES C[C@@H](C#N)N(C)CCCCc1cn(-c2cc(N)c3c4c(cccc24)C(=O)N3)nn1
REMARK SMILES IDX 8 1 7 2 5 3 6 4 2 5 1 6 3 7 4 8 9 9 10 10 11 11 12 12 29 13
REMARK SMILES IDX 13 14 28 15 14 16 15 17 24 18 16 19 23 20 19 21 18 22 22 23
REMARK SMILES IDX 20 24 27 25 21 26 25 27 26 29 17 30
REMARK H PARENT 27 28 17 31 17 32
ROOT
ATOM      1  C   UNL     1      43.438 132.427  14.665  1.00  0.00     0.016 C 
ENDROOT
BRANCH   1   2
ATOM      2  C   UNL     1      44.032 131.012  14.677  1.00  0.00     0.085 C 
BRANCH   2   3
ATOM      3  N   UNL     1      45.513 131.071  14.613  1.00  0.00    -0.291 NA
ATOM      4  C   UNL     1      46.034 132.309  15.220  1.00  0.00     0.106 C 
BRANCH   3   5
ATOM      5  C   UNL     1      46.188 129.865  15.163  1.00  0.00     0.157 C 
ATOM      6  C   UNL     1      45.235 128.689  15.441  1.00  0.00     0.041 C 
BRANCH   5   7
ATOM      7  C   UNL     1      47.271 129.439  14.262  1.00  0.00     0.081 C 
ATOM      8  N   UNL     1      48.122 129.105  13.553  1.00  0.00    -0.197 NA
ENDBRANCH   5   7
ENDBRANCH   3   5
ENDBRANCH   2   3
ENDBRANCH   1   2
BRANCH   1   9
ATOM      9  C   UNL     1      42.369 132.587  15.757  1.00  0.00     0.008 C 
BRANCH   9  10
ATOM     10  C   UNL     1      42.799 131.957  17.089  1.00  0.00     0.060 C 
BRANCH  10  11
ATOM     11  C   UNL     1      43.066 132.995  18.135  1.00  0.00     0.083 A 
ATOM     12  C   UNL     1      44.229 133.163  18.853  1.00  0.00     0.140 A 
ATOM     13  N   UNL     1      42.212 133.983  18.470  1.00  0.00    -0.135 NA
ATOM     14  N   UNL     1      44.036 134.244  19.628  1.00  0.00    -0.220 N 
ATOM     15  N   UNL     1      42.829 134.727  19.377  1.00  0.00    -0.062 NA
BRANCH  14  16
ATOM     16  C   UNL     1      44.998 134.855  20.505  1.00  0.00     0.076 A 
ATOM     17  C   UNL     1      45.453 134.141  21.653  1.00  0.00     0.056 A 
ATOM     18  C   UNL     1      45.527 136.149  20.245  1.00  0.00     0.011 A 
ATOM     19  C   UNL     1      46.429 134.683  22.524  1.00  0.00     0.058 A 
ATOM     20  C   UNL     1      45.138 137.022  19.201  1.00  0.00     0.011 A 
ATOM     21  C   UNL     1      46.488 136.626  21.125  1.00  0.00     0.022 A 
ATOM     22  C   UNL     1      46.940 135.948  22.223  1.00  0.00     0.073 A 
ATOM     23  C   UNL     1      45.741 138.301  19.081  1.00  0.00     0.002 A 
ATOM     24  C   UNL     1      47.073 137.854  21.026  1.00  0.00     0.050 A 
ATOM     25  N   UNL     1      47.903 136.731  22.934  1.00  0.00    -0.320 N 
ATOM     26  C   UNL     1      46.723 138.730  20.002  1.00  0.00     0.014 A 
ATOM     27  C   UNL     1      47.979 137.940  22.168  1.00  0.00     0.256 C 
ATOM     28  H   UNL     1      48.411 136.501  23.816  1.00  0.00     0.170 HD
ATOM     29  O   UNL     1      48.714 138.919  22.458  1.00  0.00    -0.269 OA
BRANCH  19  30
ATOM     30  N   UNL     1      46.873 133.951  23.669  1.00  0.00    -0.397 N 
ATOM     31  H   UNL     1      46.593 134.249  24.631  1.00  0.00     0.156 HD
ATOM     32  H   UNL     1      47.482 133.109  23.572  1.00  0.00     0.156 HD
ENDBRANCH  19  30
ENDBRANCH  14  16
ENDBRANCH  10  11
ENDBRANCH   9  10
ENDBRANCH   1   9
TORSDOF 9
ENDMDL
MODEL 5
REMARK VINA RESULT:      -6.1      2.078      2.822
REMARK SMILES C[C@@H](C#N)N(C)CCCCc1cn(-c2cc(N)c3c4c(cccc24)C(=O)N3)nn1
REMARK SMILES IDX 8 1 7 2 5 3 6 4 2 5 1 6 3 7 4 8 9 9 10 10 11 11 12 12 29 13
REMARK SMILES IDX 13 14 28 15 14 16 15 17 24 18 16 19 23 20 19 21 18 22 22 23
REMARK SMILES IDX 20 24 27 25 21 26 25 27 26 29 17 30
REMARK H PARENT 27 28 17 31 17 32
ROOT
ATOM      1  C   UNL     1      46.402 130.208  16.591  1.00  0.00     0.016 C 
ENDROOT
BRANCH   1   2
ATOM      2  C   UNL     1      46.326 129.466  15.250  1.00  0.00     0.085 C 
BRANCH   2   3
ATOM      3  N   UNL     1      47.277 130.054  14.276  1.00  0.00    -0.291 NA
ATOM      4  C   UNL     1      48.130 129.021  13.660  1.00  0.00     0.106 C 
BRANCH   3   5
ATOM      5  C   UNL     1      46.633 130.917  13.250  1.00  0.00     0.157 C 
ATOM      6  C   UNL     1      47.097 130.626  11.811  1.00  0.00     0.041 C 
BRANCH   5   7
ATOM      7  C   UNL     1      45.168 130.804  13.344  1.00  0.00     0.081 C 
ATOM      8  N   UNL     1      44.017 130.714  13.418  1.00  0.00    -0.197 NA
ENDBRANCH   5   7
ENDBRANCH   3   5
ENDBRANCH   2   3
ENDBRANCH   1   2
BRANCH   1   9
ATOM      9  C   UNL     1      45.021 130.736  17.011  1.00  0.00     0.008 C 
BRANCH   9  10
ATOM     10  C   UNL     1      44.826 132.213  16.640  1.00  0.00     0.060 C 
BRANCH  10  11
ATOM     11  C   UNL     1      43.393 132.632  16.764  1.00  0.00     0.083 A 
ATOM     12  C   UNL     1      42.746 133.586  16.010  1.00  0.00     0.140 A 
ATOM     13  N   UNL     1      42.497 132.065  17.596  1.00  0.00    -0.135 NA
ATOM     14  N   UNL     1      41.468 133.586  16.428  1.00  0.00    -0.220 N 
ATOM     15  N   UNL     1      41.337 132.662  17.368  1.00  0.00    -0.062 NA
BRANCH  14  16
ATOM     16  C   UNL     1      40.387 134.366  15.888  1.00  0.00     0.076 A 
ATOM     17  C   UNL     1      39.734 133.930  14.698  1.00  0.00     0.056 A 
ATOM     18  C   UNL     1      39.936 135.554  16.526  1.00  0.00     0.011 A 
ATOM     19  C   UNL     1      38.638 134.642  14.151  1.00  0.00     0.058 A 
ATOM     20  C   UNL     1      40.510 136.167  17.665  1.00  0.00     0.011 A 
ATOM     21  C   UNL     1      38.853 136.205  15.953  1.00  0.00     0.022 A 
ATOM     22  C   UNL     1      38.211 135.792  14.818  1.00  0.00     0.073 A 
ATOM     23  C   UNL     1      39.962 137.372  18.177  1.00  0.00     0.002 A 
ATOM     24  C   UNL     1      38.317 137.365  16.430  1.00  0.00     0.050 A 
ATOM     25  N   UNL     1      37.160 136.702  14.478  1.00  0.00    -0.320 N 
ATOM     26  C   UNL     1      38.851 137.985  17.557  1.00  0.00     0.014 A 
ATOM     27  C   UNL     1      37.238 137.697  15.506  1.00  0.00     0.256 C 
ATOM     28  H   UNL     1      36.508 136.673  13.664  1.00  0.00     0.170 HD
ATOM     29  O   UNL     1      36.485 138.704  15.577  1.00  0.00    -0.269 OA
BRANCH  19  30
ATOM     30  N   UNL     1      37.995 134.187  12.957  1.00  0.00    -0.397 N 
ATOM     31  H   UNL     1      38.019 134.767  12.089  1.00  0.00     0.156 HD
ATOM     32  H   UNL     1      37.492 133.274  12.927  1.00  0.00     0.156 HD
ENDBRANCH  19  30
ENDBRANCH  14  16
ENDBRANCH  10  11
ENDBRANCH   9  10
ENDBRANCH   1   9
TORSDOF 9
ENDMDL
MODEL 6
REMARK VINA RESULT:      -6.1      2.382      3.961
REMARK SMILES C[C@@H](C#N)N(C)CCCCc1cn(-c2cc(N)c3c4c(cccc24)C(=O)N3)nn1
REMARK SMILES IDX 8 1 7 2 5 3 6 4 2 5 1 6 3 7 4 8 9 9 10 10 11 11 12 12 29 13
REMARK SMILES IDX 13 14 28 15 14 16 15 17 24 18 16 19 23 20 19 21 18 22 22 23
REMARK SMILES IDX 20 24 27 25 21 26 25 27 26 29 17 30
REMARK H PARENT 27 28 17 31 17 32
ROOT
ATOM      1  C   UNL     1      44.921 130.230  17.009  1.00  0.00     0.016 C 
ENDROOT
BRANCH   1   2
ATOM      2  C   UNL     1      45.691 130.953  18.122  1.00  0.00     0.085 C 
BRANCH   2   3
ATOM      3  N   UNL     1      44.822 131.954  18.787  1.00  0.00    -0.291 NA
ATOM      4  C   UNL     1      43.404 131.767  18.428  1.00  0.00     0.106 C 
BRANCH   3   5
ATOM      5  C   UNL     1      45.008 132.029  20.261  1.00  0.00     0.157 C 
ATOM      6  C   UNL     1      46.235 131.256  20.775  1.00  0.00     0.041 C 
BRANCH   5   7
ATOM      7  C   UNL     1      45.079 133.436  20.689  1.00  0.00     0.081 C 
ATOM      8  N   UNL     1      45.135 134.542  21.024  1.00  0.00    -0.197 NA
ENDBRANCH   5   7
ENDBRANCH   3   5
ENDBRANCH   2   3
ENDBRANCH   1   2
BRANCH   1   9
ATOM      9  C   UNL     1      45.576 130.468  15.639  1.00  0.00     0.008 C 
BRANCH   9  10
ATOM     10  C   UNL     1      45.412 131.918  15.160  1.00  0.00     0.060 C 
BRANCH  10  11
ATOM     11  C   UNL     1      43.977 132.258  14.897  1.00  0.00     0.083 A 
ATOM     12  C   UNL     1      43.296 133.365  15.351  1.00  0.00     0.140 A 
ATOM     13  N   UNL     1      43.156 131.550  14.096  1.00  0.00    -0.135 NA
ATOM     14  N   UNL     1      42.061 133.284  14.825  1.00  0.00    -0.220 N 
ATOM     15  N   UNL     1      42.001 132.199  14.069  1.00  0.00    -0.062 NA
BRANCH  14  16
ATOM     16  C   UNL     1      41.006 134.252  14.956  1.00  0.00     0.076 A 
ATOM     17  C   UNL     1      40.825 135.235  13.938  1.00  0.00     0.056 A 
ATOM     18  C   UNL     1      40.119 134.241  16.068  1.00  0.00     0.011 A 
ATOM     19  C   UNL     1      39.775 136.183  14.002  1.00  0.00     0.058 A 
ATOM     20  C   UNL     1      40.197 133.390  17.196  1.00  0.00     0.011 A 
ATOM     21  C   UNL     1      39.103 135.185  16.073  1.00  0.00     0.022 A 
ATOM     22  C   UNL     1      38.912 136.126  15.100  1.00  0.00     0.073 A 
ATOM     23  C   UNL     1      39.250 133.513  18.246  1.00  0.00     0.002 A 
ATOM     24  C   UNL     1      38.188 135.319  17.076  1.00  0.00     0.050 A 
ATOM     25  N   UNL     1      37.799 136.964  15.424  1.00  0.00    -0.320 N 
ATOM     26  C   UNL     1      38.229 134.488  18.193  1.00  0.00     0.014 A 
ATOM     27  C   UNL     1      37.348 136.445  16.681  1.00  0.00     0.256 C 
ATOM     28  H   UNL     1      37.417 137.779  14.895  1.00  0.00     0.170 HD
ATOM     29  O   UNL     1      36.378 136.911  17.334  1.00  0.00    -0.269 OA
BRANCH  19  30
ATOM     30  N   UNL     1      39.609 137.159  12.970  1.00  0.00    -0.397 N 
ATOM     31  H   UNL     1      39.983 136.986  12.011  1.00  0.00     0.156 HD
ATOM     32  H   UNL     1      39.114 138.060  13.152  1.00  0.00     0.156 HD
ENDBRANCH  19  30
ENDBRANCH  14  16
ENDBRANCH  10  11
ENDBRANCH   9  10
ENDBRANCH   1   9
TORSDOF 9
ENDMDL
MODEL 7
REMARK VINA RESULT:      -6.1      3.076      5.148
REMARK SMILES C[C@@H](C#N)N(C)CCCCc1cn(-c2cc(N)c3c4c(cccc24)C(=O)N3)nn1
REMARK SMILES IDX 8 1 7 2 5 3 6 4 2 5 1 6 3 7 4 8 9 9 10 10 11 11 12 12 29 13
REMARK SMILES IDX 13 14 28 15 14 16 15 17 24 18 16 19 23 20 19 21 18 22 22 23
REMARK SMILES IDX 20 24 27 25 21 26 25 27 26 29 17 30
REMARK H PARENT 27 28 17 31 17 32
ROOT
ATOM      1  C   UNL     1      45.107 131.682  18.549  1.00  0.00     0.016 C 
ENDROOT
BRANCH   1   2
ATOM      2  C   UNL     1      45.504 131.255  19.967  1.00  0.00     0.085 C 
BRANCH   2   3
ATOM      3  N   UNL     1      45.118 132.296  20.950  1.00  0.00    -0.291 NA
ATOM      4  C   UNL     1      44.652 133.526  20.283  1.00  0.00     0.106 C 
BRANCH   3   5
ATOM      5  C   UNL     1      44.147 131.827  21.975  1.00  0.00     0.157 C 
ATOM      6  C   UNL     1      42.856 131.232  21.385  1.00  0.00     0.041 C 
BRANCH   5   7
ATOM      7  C   UNL     1      44.792 130.854  22.872  1.00  0.00     0.081 C 
ATOM      8  N   UNL     1      45.298 130.089  23.576  1.00  0.00    -0.197 NA
ENDBRANCH   5   7
ENDBRANCH   3   5
ENDBRANCH   2   3
ENDBRANCH   1   2
BRANCH   1   9
ATOM      9  C   UNL     1      45.593 130.661  17.507  1.00  0.00     0.008 C 
BRANCH   9  10
ATOM     10  C   UNL     1      45.727 131.278  16.108  1.00  0.00     0.060 C 
BRANCH  10  11
ATOM     11  C   UNL     1      44.683 132.323  15.858  1.00  0.00     0.083 A 
ATOM     12  C   UNL     1      43.323 132.185  16.021  1.00  0.00     0.140 A 
ATOM     13  N   UNL     1      44.944 133.598  15.507  1.00  0.00    -0.135 NA
ATOM     14  N   UNL     1      42.790 133.387  15.738  1.00  0.00    -0.220 N 
ATOM     15  N   UNL     1      43.776 134.221  15.444  1.00  0.00    -0.062 NA
BRANCH  14  16
ATOM     16  C   UNL     1      41.404 133.757  15.836  1.00  0.00     0.076 A 
ATOM     17  C   UNL     1      40.596 133.763  14.661  1.00  0.00     0.056 A 
ATOM     18  C   UNL     1      40.810 134.096  17.082  1.00  0.00     0.011 A 
ATOM     19  C   UNL     1      39.216 134.080  14.712  1.00  0.00     0.058 A 
ATOM     20  C   UNL     1      41.475 134.211  18.327  1.00  0.00     0.011 A 
ATOM     21  C   UNL     1      39.454 134.387  17.076  1.00  0.00     0.022 A 
ATOM     22  C   UNL     1      38.665 134.387  15.959  1.00  0.00     0.073 A 
ATOM     23  C   UNL     1      40.750 134.584  19.488  1.00  0.00     0.002 A 
ATOM     24  C   UNL     1      38.744 134.751  18.182  1.00  0.00     0.050 A 
ATOM     25  N   UNL     1      37.325 134.762  16.291  1.00  0.00    -0.320 N 
ATOM     26  C   UNL     1      39.366 134.860  19.423  1.00  0.00     0.014 A 
ATOM     27  C   UNL     1      37.386 134.993  17.704  1.00  0.00     0.256 C 
ATOM     28  H   UNL     1      36.500 134.872  15.661  1.00  0.00     0.170 HD
ATOM     29  O   UNL     1      36.407 135.359  18.407  1.00  0.00    -0.269 OA
BRANCH  19  30
ATOM     30  N   UNL     1      38.422 134.079  13.523  1.00  0.00    -0.397 N 
ATOM     31  H   UNL     1      37.715 134.830  13.357  1.00  0.00     0.156 HD
ATOM     32  H   UNL     1      38.529 133.335  12.800  1.00  0.00     0.156 HD
ENDBRANCH  19  30
ENDBRANCH  14  16
ENDBRANCH  10  11
ENDBRANCH   9  10
ENDBRANCH   1   9
TORSDOF 9
ENDMDL
MODEL 8
REMARK VINA RESULT:      -6.0      1.291      1.652
REMARK SMILES C[C@@H](C#N)N(C)CCCCc1cn(-c2cc(N)c3c4c(cccc24)C(=O)N3)nn1
REMARK SMILES IDX 8 1 7 2 5 3 6 4 2 5 1 6 3 7 4 8 9 9 10 10 11 11 12 12 29 13
REMARK SMILES IDX 13 14 28 15 14 16 15 17 24 18 16 19 23 20 19 21 18 22 22 23
REMARK SMILES IDX 20 24 27 25 21 26 25 27 26 29 17 30
REMARK H PARENT 27 28 17 31 17 32
ROOT
ATOM      1  C   UNL     1      44.962 132.323  15.965  1.00  0.00     0.016 C 
ENDROOT
BRANCH   1   2
ATOM      2  C   UNL     1      46.252 132.108  15.164  1.00  0.00     0.085 C 
BRANCH   2   3
ATOM      3  N   UNL     1      46.273 130.750  14.568  1.00  0.00    -0.291 NA
ATOM      4  C   UNL     1      45.087 130.510  13.725  1.00  0.00     0.106 C 
BRANCH   3   5
ATOM      5  C   UNL     1      47.532 130.427  13.846  1.00  0.00     0.157 C 
ATOM      6  C   UNL     1      48.091 129.028  14.162  1.00  0.00     0.041 C 
BRANCH   5   7
ATOM      7  C   UNL     1      47.335 130.580  12.395  1.00  0.00     0.081 C 
ATOM      8  N   UNL     1      47.180 130.701  11.255  1.00  0.00    -0.197 NA
ENDBRANCH   5   7
ENDBRANCH   3   5
ENDBRANCH   2   3
ENDBRANCH   1   2
BRANCH   1   9
ATOM      9  C   UNL     1      45.001 131.551  17.294  1.00  0.00     0.008 C 
BRANCH   9  10
ATOM     10  C   UNL     1      43.884 131.986  18.252  1.00  0.00     0.060 C 
BRANCH  10  11
ATOM     11  C   UNL     1      42.754 132.650  17.525  1.00  0.00     0.083 A 
ATOM     12  C   UNL     1      42.743 133.925  17.006  1.00  0.00     0.140 A 
ATOM     13  N   UNL     1      41.593 132.047  17.202  1.00  0.00    -0.135 NA
ATOM     14  N   UNL     1      41.554 134.069  16.397  1.00  0.00    -0.220 N 
ATOM     15  N   UNL     1      40.884 132.932  16.515  1.00  0.00    -0.062 NA
BRANCH  14  16
ATOM     16  C   UNL     1      41.105 135.211  15.646  1.00  0.00     0.076 A 
ATOM     17  C   UNL     1      41.836 136.433  15.727  1.00  0.00     0.056 A 
ATOM     18  C   UNL     1      39.962 135.146  14.804  1.00  0.00     0.011 A 
ATOM     19  C   UNL     1      41.458 137.572  14.975  1.00  0.00     0.058 A 
ATOM     20  C   UNL     1      39.085 134.044  14.660  1.00  0.00     0.011 A 
ATOM     21  C   UNL     1      39.644 136.288  14.082  1.00  0.00     0.022 A 
ATOM     22  C   UNL     1      40.341 137.463  14.143  1.00  0.00     0.073 A 
ATOM     23  C   UNL     1      37.963 134.136  13.795  1.00  0.00     0.002 A 
ATOM     24  C   UNL     1      38.569 136.393  13.251  1.00  0.00     0.050 A 
ATOM     25  N   UNL     1      39.734 138.449  13.304  1.00  0.00    -0.320 N 
ATOM     26  C   UNL     1      37.695 135.322  13.078  1.00  0.00     0.014 A 
ATOM     27  C   UNL     1      38.608 137.761  12.744  1.00  0.00     0.256 C 
ATOM     28  H   UNL     1      40.016 139.443  13.151  1.00  0.00     0.170 HD
ATOM     29  O   UNL     1      37.785 138.280  11.945  1.00  0.00    -0.269 OA
BRANCH  19  30
ATOM     30  N   UNL     1      42.204 138.789  15.069  1.00  0.00    -0.397 N 
ATOM     31  H   UNL     1      43.076 138.834  15.642  1.00  0.00     0.156 HD
ATOM     32  H   UNL     1      41.896 139.653  14.571  1.00  0.00     0.156 HD
ENDBRANCH  19  30
ENDBRANCH  14  16
ENDBRANCH  10  11
ENDBRANCH   9  10
ENDBRANCH   1   9
TORSDOF 9
ENDMDL
MODEL 9
REMARK VINA RESULT:      -6.0      5.057      7.488
REMARK SMILES C[C@@H](C#N)N(C)CCCCc1cn(-c2cc(N)c3c4c(cccc24)C(=O)N3)nn1
REMARK SMILES IDX 8 1 7 2 5 3 6 4 2 5 1 6 3 7 4 8 9 9 10 10 11 11 12 12 29 13
REMARK SMILES IDX 13 14 28 15 14 16 15 17 24 18 16 19 23 20 19 21 18 22 22 23
REMARK SMILES IDX 20 24 27 25 21 26 25 27 26 29 17 30
REMARK H PARENT 27 28 17 31 17 32
ROOT
ATOM      1  C   UNL     1      43.839 131.294  14.145  1.00  0.00     0.016 C 
ENDROOT
BRANCH   1   2
ATOM      2  C   UNL     1      44.666 130.137  14.719  1.00  0.00     0.085 C 
BRANCH   2   3
ATOM      3  N   UNL     1      46.116 130.435  14.616  1.00  0.00    -0.291 NA
ATOM      4  C   UNL     1      46.825 130.115  15.869  1.00  0.00     0.106 C 
BRANCH   3   5
ATOM      5  C   UNL     1      46.778 129.814  13.438  1.00  0.00     0.157 C 
ATOM      6  C   UNL     1      46.674 130.652  12.151  1.00  0.00     0.041 C 
BRANCH   5   7
ATOM      7  C   UNL     1      48.189 129.528  13.746  1.00  0.00     0.081 C 
ATOM      8  N   UNL     1      49.297 129.303  13.989  1.00  0.00    -0.197 NA
ENDBRANCH   5   7
ENDBRANCH   3   5
ENDBRANCH   2   3
ENDBRANCH   1   2
BRANCH   1   9
ATOM      9  C   UNL     1      43.544 132.350  15.222  1.00  0.00     0.008 C 
BRANCH   9  10
ATOM     10  C   UNL     1      43.202 131.717  16.579  1.00  0.00     0.060 C 
BRANCH  10  11
ATOM     11  C   UNL     1      43.273 132.717  17.692  1.00  0.00     0.083 A 
ATOM     12  C   UNL     1      44.330 132.920  18.552  1.00  0.00     0.140 A 
ATOM     13  N   UNL     1      42.321 133.631  17.963  1.00  0.00    -0.135 NA
ATOM     14  N   UNL     1      43.974 133.947  19.343  1.00  0.00    -0.220 N 
ATOM     15  N   UNL     1      42.775 134.366  18.969  1.00  0.00    -0.062 NA
BRANCH  14  16
ATOM     16  C   UNL     1      44.783 134.572  20.355  1.00  0.00     0.076 A 
ATOM     17  C   UNL     1      45.112 133.845  21.537  1.00  0.00     0.056 A 
ATOM     18  C   UNL     1      45.283 135.893  20.198  1.00  0.00     0.011 A 
ATOM     19  C   UNL     1      45.939 134.402  22.543  1.00  0.00     0.058 A 
ATOM     20  C   UNL     1      44.999 136.779  19.130  1.00  0.00     0.011 A 
ATOM     21  C   UNL     1      46.096 136.385  21.209  1.00  0.00     0.022 A 
ATOM     22  C   UNL     1      46.428 135.695  22.341  1.00  0.00     0.073 A 
ATOM     23  C   UNL     1      45.555 138.085  19.122  1.00  0.00     0.002 A 
ATOM     24  C   UNL     1      46.635 137.637  21.217  1.00  0.00     0.050 A 
ATOM     25  N   UNL     1      47.252 136.496  23.193  1.00  0.00    -0.320 N 
ATOM     26  C   UNL     1      46.385 138.527  20.175  1.00  0.00     0.014 A 
ATOM     27  C   UNL     1      47.375 137.728  22.471  1.00  0.00     0.256 C 
ATOM     28  H   UNL     1      47.649 136.262  24.130  1.00  0.00     0.170 HD
ATOM     29  O   UNL     1      48.021 138.728  22.880  1.00  0.00    -0.269 OA
BRANCH  19  30
ATOM     30  N   UNL     1      46.259 133.656  23.721  1.00  0.00    -0.397 N 
ATOM     31  H   UNL     1      46.234 132.612  23.710  1.00  0.00     0.156 HD
ATOM     32  H   UNL     1      46.522 134.134  24.610  1.00  0.00     0.156 HD
ENDBRANCH  19  30
ENDBRANCH  14  16
ENDBRANCH  10  11
ENDBRANCH   9  10
ENDBRANCH   1   9
TORSDOF 9
ENDMDL


