MODEL 1
REMARK VINA RESULT:      -7.9      0.000      0.000
REMARK SMILES C=C(C)C(OC(=O)[C@H]1C[C@@H]2C[C@@H]2C1)=[N+]1C[C@@H]2CC[C@H](Oc3ccc4c5c(ccc(N=[N+]=[N-])c35)CC4)[C@@H]2C1
REMARK SMILES IDX 14 1 37 2 36 3 19 4 18 5 17 6 16 7 15 8 4 9 2 10 1 11 3 12
REMARK SMILES IDX 5 13 6 14 7 15 8 16 9 17 13 18 10 19 12 20 11 21 20 22 21 23
REMARK SMILES IDX 22 24 33 25 23 26 29 27 25 28 24 29 28 30 26 31 35 32 27 33
REMARK SMILES IDX 34 34 30 35 31 36 32 37
REMARK H PARENT
ROOT
ATOM      1  N   UNL     1      44.240 131.519  18.542  1.00  0.00    -0.197 N 
ATOM      2  C   UNL     1      45.402 131.803  19.373  1.00  0.00     0.362 C 
ATOM      3  C   UNL     1      44.846 132.162  20.746  1.00  0.00     0.105 C 
ATOM      4  C   UNL     1      44.580 133.658  21.000  1.00  0.00     0.183 C 
ATOM      5  C   UNL     1      43.446 133.635  22.015  1.00  0.00     0.046 C 
ATOM      6  C   UNL     1      42.588 132.424  21.657  1.00  0.00     0.014 C 
ATOM      7  C   UNL     1      43.476 131.498  20.810  1.00  0.00     0.068 C 
ATOM      8  C   UNL     1      43.031 131.343  19.343  1.00  0.00     0.358 C 
ENDROOT
BRANCH   1   9
ATOM      9  C   UNL     1      44.327 131.421  17.239  1.00  0.00     0.372 C 
BRANCH   9  10
ATOM     10  C   UNL     1      43.941 132.531  16.329  1.00  0.00     0.054 C 
ATOM     11  C   UNL     1      42.899 132.363  15.511  1.00  0.00     0.023 C 
ATOM     12  C   UNL     1      44.710 133.819  16.291  1.00  0.00     0.055 C 
ENDBRANCH   9  10
BRANCH   9  13
ATOM     13  O   UNL     1      44.740 130.202  16.686  1.00  0.00    -0.371 OA
BRANCH  13  14
ATOM     14  C   UNL     1      46.011 129.976  16.146  1.00  0.00     0.318 C 
ATOM     15  O   UNL     1      47.004 129.764  16.894  1.00  0.00    -0.251 OA
BRANCH  14  16
ATOM     16  C   UNL     1      46.191 129.974  14.653  1.00  0.00     0.100 C 
ATOM     17  C   UNL     1      46.548 131.362  14.101  1.00  0.00     0.019 C 
ATOM     18  C   UNL     1      47.317 129.029  14.219  1.00  0.00     0.019 C 
ATOM     19  C   UNL     1      47.646 131.173  13.065  1.00  0.00    -0.007 C 
ATOM     20  C   UNL     1      48.115 129.738  13.134  1.00  0.00    -0.007 C 
ATOM     21  C   UNL     1      47.340 130.221  11.914  1.00  0.00     0.007 C 
ENDBRANCH  14  16
ENDBRANCH  13  14
ENDBRANCH   9  13
ENDBRANCH   1   9
BRANCH   4  22
ATOM     22  O   UNL     1      44.100 134.340  19.834  1.00  0.00    -0.489 OA
BRANCH  22  23
ATOM     23  C   UNL     1      44.340 135.673  19.456  1.00  0.00     0.128 A 
ATOM     24  C   UNL     1      45.460 136.411  19.936  1.00  0.00     0.047 A 
ATOM     25  C   UNL     1      43.447 136.295  18.544  1.00  0.00     0.034 A 
ATOM     26  C   UNL     1      45.722 137.715  19.468  1.00  0.00     0.008 A 
ATOM     27  C   UNL     1      42.250 135.719  18.039  1.00  0.00     0.049 A 
ATOM     28  C   UNL     1      43.772 137.577  18.103  1.00  0.00    -0.008 A 
ATOM     29  C   UNL     1      44.856 138.273  18.530  1.00  0.00    -0.039 A 
ATOM     30  C   UNL     1      41.478 136.449  17.089  1.00  0.00     0.011 A 
ATOM     31  C   UNL     1      43.035 138.281  17.204  1.00  0.00    -0.039 A 
ATOM     32  C   UNL     1      44.898 139.624  17.886  1.00  0.00     0.041 C 
ATOM     33  C   UNL     1      41.876 137.731  16.664  1.00  0.00     0.005 A 
ATOM     34  C   UNL     1      43.650 139.622  16.959  1.00  0.00     0.041 C 
BRANCH  27  35
ATOM     35  N   UNL     1      41.811 134.436  18.511  1.00  0.00    -0.060 NA
BRANCH  35  36
ATOM     36  N   UNL     1      40.622 134.120  18.568  1.00  0.00     0.005 N 
ATOM     37  N   UNL     1      39.434 133.805  18.621  1.00  0.00    -0.003 NA
ENDBRANCH  35  36
ENDBRANCH  27  35
ENDBRANCH  22  23
ENDBRANCH   4  22
TORSDOF 9
ENDMDL
MODEL 2
REMARK VINA RESULT:      -7.8      1.647      2.466
REMARK SMILES C=C(C)C(OC(=O)[C@H]1C[C@@H]2C[C@@H]2C1)=[N+]1C[C@@H]2CC[C@H](Oc3ccc4c5c(ccc(N=[N+]=[N-])c35)CC4)[C@@H]2C1
REMARK SMILES IDX 14 1 37 2 36 3 19 4 18 5 17 6 16 7 15 8 4 9 2 10 1 11 3 12
REMARK SMILES IDX 5 13 6 14 7 15 8 16 9 17 13 18 10 19 12 20 11 21 20 22 21 23
REMARK SMILES IDX 22 24 33 25 23 26 29 27 25 28 24 29 28 30 26 31 35 32 27 33
REMARK SMILES IDX 34 34 30 35 31 36 32 37
REMARK H PARENT
ROOT
ATOM      1  N   UNL     1      43.294 132.638  17.758  1.00  0.00    -0.197 N 
ATOM      2  C   UNL     1      44.331 133.492  18.321  1.00  0.00     0.362 C 
ATOM      3  C   UNL     1      43.813 133.918  19.689  1.00  0.00     0.105 C 
ATOM      4  C   UNL     1      43.019 135.238  19.732  1.00  0.00     0.183 C 
ATOM      5  C   UNL     1      42.083 135.034  20.914  1.00  0.00     0.046 C 
ATOM      6  C   UNL     1      41.725 133.549  20.913  1.00  0.00     0.014 C 
ATOM      7  C   UNL     1      42.815 132.841  20.094  1.00  0.00     0.068 C 
ATOM      8  C   UNL     1      42.327 132.222  18.770  1.00  0.00     0.358 C 
ENDROOT
BRANCH   1   9
ATOM      9  C   UNL     1      43.287 132.296  16.494  1.00  0.00     0.372 C 
BRANCH   9  10
ATOM     10  C   UNL     1      42.922 133.248  15.412  1.00  0.00     0.054 C 
ATOM     11  C   UNL     1      43.555 134.422  15.344  1.00  0.00     0.023 C 
ATOM     12  C   UNL     1      41.846 132.930  14.416  1.00  0.00     0.055 C 
ENDBRANCH   9  10
BRANCH   9  13
ATOM     13  O   UNL     1      43.575 130.967  16.159  1.00  0.00    -0.371 OA
BRANCH  13  14
ATOM     14  C   UNL     1      44.870 130.463  15.989  1.00  0.00     0.318 C 
ATOM     15  O   UNL     1      45.514 129.990  16.965  1.00  0.00    -0.251 OA
BRANCH  14  16
ATOM     16  C   UNL     1      45.495 130.474  14.623  1.00  0.00     0.100 C 
ATOM     17  C   UNL     1      46.393 131.699  14.396  1.00  0.00     0.019 C 
ATOM     18  C   UNL     1      46.373 129.240  14.390  1.00  0.00     0.019 C 
ATOM     19  C   UNL     1      47.653 131.217  13.691  1.00  0.00    -0.007 C 
ATOM     20  C   UNL     1      47.638 129.706  13.684  1.00  0.00    -0.007 C 
ATOM     21  C   UNL     1      47.456 130.469  12.377  1.00  0.00     0.007 C 
ENDBRANCH  14  16
ENDBRANCH  13  14
ENDBRANCH   9  13
ENDBRANCH   1   9
BRANCH   4  22
ATOM     22  O   UNL     1      42.206 135.432  18.568  1.00  0.00    -0.489 OA
BRANCH  22  23
ATOM     23  C   UNL     1      42.198 136.536  17.697  1.00  0.00     0.128 A 
ATOM     24  C   UNL     1      43.165 137.580  17.781  1.00  0.00     0.047 A 
ATOM     25  C   UNL     1      41.206 136.597  16.682  1.00  0.00     0.034 A 
ATOM     26  C   UNL     1      43.184 138.626  16.836  1.00  0.00     0.008 A 
ATOM     27  C   UNL     1      40.136 135.678  16.518  1.00  0.00     0.049 A 
ATOM     28  C   UNL     1      41.292 137.646  15.766  1.00  0.00    -0.008 A 
ATOM     29  C   UNL     1      42.230 138.624  15.820  1.00  0.00    -0.039 A 
ATOM     30  C   UNL     1      39.244 135.844  15.420  1.00  0.00     0.011 A 
ATOM     31  C   UNL     1      40.439 137.813  14.722  1.00  0.00    -0.039 A 
ATOM     32  C   UNL     1      42.025 139.608  14.711  1.00  0.00     0.041 C 
ATOM     33  C   UNL     1      39.400 136.910  14.513  1.00  0.00     0.005 A 
ATOM     34  C   UNL     1      40.799 139.038  13.944  1.00  0.00     0.041 C 
BRANCH  27  35
ATOM     35  N   UNL     1      39.938 134.622  17.471  1.00  0.00    -0.060 NA
BRANCH  35  36
ATOM     36  N   UNL     1      38.837 134.113  17.681  1.00  0.00     0.005 N 
ATOM     37  N   UNL     1      37.738 133.603  17.894  1.00  0.00    -0.003 NA
ENDBRANCH  35  36
ENDBRANCH  27  35
ENDBRANCH  22  23
ENDBRANCH   4  22
TORSDOF 9
ENDMDL
MODEL 3
REMARK VINA RESULT:      -7.4      2.320      4.727
REMARK SMILES C=C(C)C(OC(=O)[C@H]1C[C@@H]2C[C@@H]2C1)=[N+]1C[C@@H]2CC[C@H](Oc3ccc4c5c(ccc(N=[N+]=[N-])c35)CC4)[C@@H]2C1
REMARK SMILES IDX 14 1 37 2 36 3 19 4 18 5 17 6 16 7 15 8 4 9 2 10 1 11 3 12
REMARK SMILES IDX 5 13 6 14 7 15 8 16 9 17 13 18 10 19 12 20 11 21 20 22 21 23
REMARK SMILES IDX 22 24 33 25 23 26 29 27 25 28 24 29 28 30 26 31 35 32 27 33
REMARK SMILES IDX 34 34 30 35 31 36 32 37
REMARK H PARENT
ROOT
ATOM      1  N   UNL     1      43.628 132.577  16.815  1.00  0.00    -0.197 N 
ATOM      2  C   UNL     1      42.254 132.653  16.338  1.00  0.00     0.362 C 
ATOM      3  C   UNL     1      42.084 134.071  15.805  1.00  0.00     0.105 C 
ATOM      4  C   UNL     1      41.554 135.113  16.809  1.00  0.00     0.183 C 
ATOM      5  C   UNL     1      42.154 136.414  16.296  1.00  0.00     0.046 C 
ATOM      6  C   UNL     1      43.524 136.049  15.729  1.00  0.00     0.014 C 
ATOM      7  C   UNL     1      43.490 134.538  15.451  1.00  0.00     0.068 C 
ATOM      8  C   UNL     1      44.431 133.698  16.335  1.00  0.00     0.358 C 
ENDROOT
BRANCH   1   9
ATOM      9  C   UNL     1      44.048 131.589  17.565  1.00  0.00     0.372 C 
BRANCH   9  10
ATOM     10  C   UNL     1      44.046 131.657  19.049  1.00  0.00     0.054 C 
ATOM     11  C   UNL     1      45.212 131.610  19.699  1.00  0.00     0.023 C 
ATOM     12  C   UNL     1      42.768 131.751  19.830  1.00  0.00     0.055 C 
ENDBRANCH   9  10
BRANCH   9  13
ATOM     13  O   UNL     1      44.575 130.451  16.938  1.00  0.00    -0.371 OA
BRANCH  13  14
ATOM     14  C   UNL     1      45.839 130.400  16.339  1.00  0.00     0.318 C 
ATOM     15  O   UNL     1      46.881 130.265  17.036  1.00  0.00    -0.251 OA
BRANCH  14  16
ATOM     16  C   UNL     1      45.952 130.494  14.843  1.00  0.00     0.100 C 
ATOM     17  C   UNL     1      46.845 131.659  14.392  1.00  0.00     0.019 C 
ATOM     18  C   UNL     1      46.557 129.222  14.239  1.00  0.00     0.019 C 
ATOM     19  C   UNL     1      47.725 131.149  13.260  1.00  0.00    -0.007 C 
ATOM     20  C   UNL     1      47.545 129.652  13.163  1.00  0.00    -0.007 C 
ATOM     21  C   UNL     1      47.008 130.550  12.055  1.00  0.00     0.007 C 
ENDBRANCH  14  16
ENDBRANCH  13  14
ENDBRANCH   9  13
ENDBRANCH   1   9
BRANCH   4  22
ATOM     22  O   UNL     1      42.052 134.904  18.136  1.00  0.00    -0.489 OA
BRANCH  22  23
ATOM     23  C   UNL     1      41.346 135.016  19.347  1.00  0.00     0.128 A 
ATOM     24  C   UNL     1      39.967 134.677  19.460  1.00  0.00     0.047 A 
ATOM     25  C   UNL     1      42.042 135.459  20.504  1.00  0.00     0.034 A 
ATOM     26  C   UNL     1      39.312 134.715  20.708  1.00  0.00     0.008 A 
ATOM     27  C   UNL     1      43.391 135.903  20.535  1.00  0.00     0.049 A 
ATOM     28  C   UNL     1      41.345 135.454  21.712  1.00  0.00    -0.008 A 
ATOM     29  C   UNL     1      40.040 135.100  21.832  1.00  0.00    -0.039 A 
ATOM     30  C   UNL     1      43.969 136.273  21.784  1.00  0.00     0.011 A 
ATOM     31  C   UNL     1      41.888 135.813  22.904  1.00  0.00    -0.039 A 
ATOM     32  C   UNL     1      39.591 135.233  23.254  1.00  0.00     0.041 C 
ATOM     33  C   UNL     1      43.217 136.220  22.974  1.00  0.00     0.005 A 
ATOM     34  C   UNL     1      40.871 135.709  23.995  1.00  0.00     0.041 C 
BRANCH  27  35
ATOM     35  N   UNL     1      44.144 136.012  19.318  1.00  0.00    -0.060 NA
BRANCH  35  36
ATOM     36  N   UNL     1      45.022 136.859  19.152  1.00  0.00     0.005 N 
ATOM     37  N   UNL     1      45.899 137.707  18.990  1.00  0.00    -0.003 NA
ENDBRANCH  35  36
ENDBRANCH  27  35
ENDBRANCH  22  23
ENDBRANCH   4  22
TORSDOF 9
ENDMDL
MODEL 4
REMARK VINA RESULT:      -7.4      2.226      3.197
REMARK SMILES C=C(C)C(OC(=O)[C@H]1C[C@@H]2C[C@@H]2C1)=[N+]1C[C@@H]2CC[C@H](Oc3ccc4c5c(ccc(N=[N+]=[N-])c35)CC4)[C@@H]2C1
REMARK SMILES IDX 14 1 37 2 36 3 19 4 18 5 17 6 16 7 15 8 4 9 2 10 1 11 3 12
REMARK SMILES IDX 5 13 6 14 7 15 8 16 9 17 13 18 10 19 12 20 11 21 20 22 21 23
REMARK SMILES IDX 22 24 33 25 23 26 29 27 25 28 24 29 28 30 26 31 35 32 27 33
REMARK SMILES IDX 34 34 30 35 31 36 32 37
REMARK H PARENT
ROOT
ATOM      1  N   UNL     1      43.888 131.739  19.685  1.00  0.00    -0.197 N 
ATOM      2  C   UNL     1      45.107 131.192  20.266  1.00  0.00     0.362 C 
ATOM      3  C   UNL     1      44.789 130.958  21.738  1.00  0.00     0.105 C 
ATOM      4  C   UNL     1      45.122 132.117  22.696  1.00  0.00     0.183 C 
ATOM      5  C   UNL     1      44.110 131.933  23.818  1.00  0.00     0.046 C 
ATOM      6  C   UNL     1      42.842 131.400  23.154  1.00  0.00     0.014 C 
ATOM      7  C   UNL     1      43.274 130.810  21.803  1.00  0.00     0.068 C 
ATOM      8  C   UNL     1      42.740 131.563  20.570  1.00  0.00     0.358 C 
ENDROOT
BRANCH   1   9
ATOM      9  C   UNL     1      43.874 132.293  18.498  1.00  0.00     0.372 C 
BRANCH   9  10
ATOM     10  C   UNL     1      43.404 133.686  18.274  1.00  0.00     0.054 C 
ATOM     11  C   UNL     1      42.132 133.989  18.540  1.00  0.00     0.023 C 
ATOM     12  C   UNL     1      44.319 134.745  17.732  1.00  0.00     0.055 C 
ENDBRANCH   9  10
BRANCH   9  13
ATOM     13  O   UNL     1      44.257 131.520  17.395  1.00  0.00    -0.371 OA
BRANCH  13  14
ATOM     14  C   UNL     1      43.701 131.646  16.117  1.00  0.00     0.318 C 
ATOM     15  O   UNL     1      42.468 131.864  15.966  1.00  0.00    -0.251 OA
BRANCH  14  16
ATOM     16  C   UNL     1      44.588 131.531  14.909  1.00  0.00     0.100 C 
ATOM     17  C   UNL     1      46.006 132.058  15.167  1.00  0.00     0.019 C 
ATOM     18  C   UNL     1      44.740 130.075  14.453  1.00  0.00     0.019 C 
ATOM     19  C   UNL     1      46.981 131.078  14.532  1.00  0.00    -0.007 C 
ATOM     20  C   UNL     1      46.202 129.861  14.089  1.00  0.00    -0.007 C 
ATOM     21  C   UNL     1      46.796 130.799  13.044  1.00  0.00     0.007 C 
ENDBRANCH  14  16
ENDBRANCH  13  14
ENDBRANCH   9  13
ENDBRANCH   1   9
BRANCH   4  22
ATOM     22  O   UNL     1      44.885 133.403  22.111  1.00  0.00    -0.489 OA
BRANCH  22  23
ATOM     23  C   UNL     1      45.833 134.389  21.785  1.00  0.00     0.128 A 
ATOM     24  C   UNL     1      47.234 134.180  21.938  1.00  0.00     0.047 A 
ATOM     25  C   UNL     1      45.377 135.628  21.260  1.00  0.00     0.034 A 
ATOM     26  C   UNL     1      48.162 135.154  21.518  1.00  0.00     0.008 A 
ATOM     27  C   UNL     1      44.017 136.013  21.120  1.00  0.00     0.049 A 
ATOM     28  C   UNL     1      46.345 136.542  20.843  1.00  0.00    -0.008 A 
ATOM     29  C   UNL     1      47.681 136.334  20.956  1.00  0.00    -0.039 A 
ATOM     30  C   UNL     1      43.713 137.274  20.530  1.00  0.00     0.011 A 
ATOM     31  C   UNL     1      46.061 137.749  20.288  1.00  0.00    -0.039 A 
ATOM     32  C   UNL     1      48.439 137.519  20.444  1.00  0.00     0.041 C 
ATOM     33  C   UNL     1      44.737 138.142  20.105  1.00  0.00     0.005 A 
ATOM     34  C   UNL     1      47.320 138.487  19.968  1.00  0.00     0.041 C 
BRANCH  27  35
ATOM     35  N   UNL     1      42.970 135.157  21.602  1.00  0.00    -0.060 NA
BRANCH  35  36
ATOM     36  N   UNL     1      42.283 135.436  22.585  1.00  0.00     0.005 N 
ATOM     37  N   UNL     1      41.597 135.718  23.566  1.00  0.00    -0.003 NA
ENDBRANCH  35  36
ENDBRANCH  27  35
ENDBRANCH  22  23
ENDBRANCH   4  22
TORSDOF 9
ENDMDL
MODEL 5
REMARK VINA RESULT:      -7.2      2.918      4.683
REMARK SMILES C=C(C)C(OC(=O)[C@H]1C[C@@H]2C[C@@H]2C1)=[N+]1C[C@@H]2CC[C@H](Oc3ccc4c5c(ccc(N=[N+]=[N-])c35)CC4)[C@@H]2C1
REMARK SMILES IDX 14 1 37 2 36 3 19 4 18 5 17 6 16 7 15 8 4 9 2 10 1 11 3 12
REMARK SMILES IDX 5 13 6 14 7 15 8 16 9 17 13 18 10 19 12 20 11 21 20 22 21 23
REMARK SMILES IDX 22 24 33 25 23 26 29 27 25 28 24 29 28 30 26 31 35 32 27 33
REMARK SMILES IDX 34 34 30 35 31 36 32 37
REMARK H PARENT
ROOT
ATOM      1  N   UNL     1      43.630 132.940  18.363  1.00  0.00    -0.197 N 
ATOM      2  C   UNL     1      43.861 134.304  18.818  1.00  0.00     0.362 C 
ATOM      3  C   UNL     1      42.495 134.833  19.236  1.00  0.00     0.105 C 
ATOM      4  C   UNL     1      41.693 135.572  18.147  1.00  0.00     0.183 C 
ATOM      5  C   UNL     1      40.249 135.326  18.562  1.00  0.00     0.046 C 
ATOM      6  C   UNL     1      40.221 133.926  19.171  1.00  0.00     0.014 C 
ATOM      7  C   UNL     1      41.669 133.596  19.567  1.00  0.00     0.068 C 
ATOM      8  C   UNL     1      42.313 132.451  18.761  1.00  0.00     0.358 C 
ENDROOT
BRANCH   1   9
ATOM      9  C   UNL     1      44.536 132.268  17.698  1.00  0.00     0.372 C 
BRANCH   9  10
ATOM     10  C   UNL     1      45.287 131.133  18.296  1.00  0.00     0.054 C 
ATOM     11  C   UNL     1      45.658 130.119  17.511  1.00  0.00     0.023 C 
ATOM     12  C   UNL     1      45.612 131.091  19.760  1.00  0.00     0.055 C 
ENDBRANCH   9  10
BRANCH   9  13
ATOM     13  O   UNL     1      44.850 132.677  16.395  1.00  0.00    -0.371 OA
BRANCH  13  14
ATOM     14  C   UNL     1      44.542 131.940  15.245  1.00  0.00     0.318 C 
ATOM     15  O   UNL     1      43.424 132.067  14.675  1.00  0.00    -0.251 OA
BRANCH  14  16
ATOM     16  C   UNL     1      45.564 130.995  14.676  1.00  0.00     0.100 C 
ATOM     17  C   UNL     1      45.217 130.542  13.251  1.00  0.00     0.019 C 
ATOM     18  C   UNL     1      46.953 131.638  14.605  1.00  0.00     0.019 C 
ATOM     19  C   UNL     1      46.502 130.574  12.436  1.00  0.00    -0.007 C 
ATOM     20  C   UNL     1      47.570 131.244  13.270  1.00  0.00    -0.007 C 
ATOM     21  C   UNL     1      47.670 129.753  12.971  1.00  0.00     0.007 C 
ENDBRANCH  14  16
ENDBRANCH  13  14
ENDBRANCH   9  13
ENDBRANCH   1   9
BRANCH   4  22
ATOM     22  O   UNL     1      41.869 135.000  16.846  1.00  0.00    -0.489 OA
BRANCH  22  23
ATOM     23  C   UNL     1      40.946 134.969  15.786  1.00  0.00     0.128 A 
ATOM     24  C   UNL     1      40.229 133.789  15.433  1.00  0.00     0.047 A 
ATOM     25  C   UNL     1      40.701 136.165  15.059  1.00  0.00     0.034 A 
ATOM     26  C   UNL     1      39.245 133.815  14.424  1.00  0.00     0.008 A 
ATOM     27  C   UNL     1      41.388 137.395  15.240  1.00  0.00     0.049 A 
ATOM     28  C   UNL     1      39.702 136.131  14.087  1.00  0.00    -0.008 A 
ATOM     29  C   UNL     1      38.992 135.018  13.770  1.00  0.00    -0.039 A 
ATOM     30  C   UNL     1      40.998 138.526  14.466  1.00  0.00     0.011 A 
ATOM     31  C   UNL     1      39.331 137.203  13.340  1.00  0.00    -0.039 A 
ATOM     32  C   UNL     1      38.020 135.314  12.670  1.00  0.00     0.041 C 
ATOM     33  C   UNL     1      39.960 138.432  13.518  1.00  0.00     0.005 A 
ATOM     34  C   UNL     1      38.244 136.826  12.386  1.00  0.00     0.041 C 
BRANCH  27  35
ATOM     35  N   UNL     1      42.483 137.482  16.165  1.00  0.00    -0.060 NA
BRANCH  35  36
ATOM     36  N   UNL     1      42.996 138.553  16.489  1.00  0.00     0.005 N 
ATOM     37  N   UNL     1      43.513 139.622  16.813  1.00  0.00    -0.003 NA
ENDBRANCH  35  36
ENDBRANCH  27  35
ENDBRANCH  22  23
ENDBRANCH   4  22
TORSDOF 9
ENDMDL
MODEL 6
REMARK VINA RESULT:      -7.2      2.065      3.635
REMARK SMILES C=C(C)C(OC(=O)[C@H]1C[C@@H]2C[C@@H]2C1)=[N+]1C[C@@H]2CC[C@H](Oc3ccc4c5c(ccc(N=[N+]=[N-])c35)CC4)[C@@H]2C1
REMARK SMILES IDX 14 1 37 2 36 3 19 4 18 5 17 6 16 7 15 8 4 9 2 10 1 11 3 12
REMARK SMILES IDX 5 13 6 14 7 15 8 16 9 17 13 18 10 19 12 20 11 21 20 22 21 23
REMARK SMILES IDX 22 24 33 25 23 26 29 27 25 28 24 29 28 30 26 31 35 32 27 33
REMARK SMILES IDX 34 34 30 35 31 36 32 37
REMARK H PARENT
ROOT
ATOM      1  N   UNL     1      41.491 132.941  17.084  1.00  0.00    -0.197 N 
ATOM      2  C   UNL     1      41.262 132.421  18.425  1.00  0.00     0.362 C 
ATOM      3  C   UNL     1      40.302 133.402  19.086  1.00  0.00     0.105 C 
ATOM      4  C   UNL     1      40.950 134.549  19.886  1.00  0.00     0.183 C 
ATOM      5  C   UNL     1      39.917 135.662  19.783  1.00  0.00     0.046 C 
ATOM      6  C   UNL     1      39.287 135.522  18.398  1.00  0.00     0.014 C 
ATOM      7  C   UNL     1      39.570 134.083  17.937  1.00  0.00     0.068 C 
ATOM      8  C   UNL     1      40.517 133.968  16.727  1.00  0.00     0.358 C 
ENDROOT
BRANCH   1   9
ATOM      9  C   UNL     1      42.457 132.491  16.321  1.00  0.00     0.372 C 
BRANCH   9  10
ATOM     10  C   UNL     1      42.682 132.994  14.941  1.00  0.00     0.054 C 
ATOM     11  C   UNL     1      42.589 132.139  13.919  1.00  0.00     0.023 C 
ATOM     12  C   UNL     1      43.037 134.427  14.675  1.00  0.00     0.055 C 
ENDBRANCH   9  10
BRANCH   9  13
ATOM     13  O   UNL     1      43.265 131.455  16.807  1.00  0.00    -0.371 OA
BRANCH  13  14
ATOM     14  C   UNL     1      44.617 131.604  17.138  1.00  0.00     0.318 C 
ATOM     15  O   UNL     1      44.966 132.267  18.153  1.00  0.00    -0.251 OA
BRANCH  14  16
ATOM     16  C   UNL     1      45.665 130.954  16.279  1.00  0.00     0.100 C 
ATOM     17  C   UNL     1      45.132 129.727  15.526  1.00  0.00     0.019 C 
ATOM     18  C   UNL     1      46.204 131.918  15.216  1.00  0.00     0.019 C 
ATOM     19  C   UNL     1      45.672 129.792  14.105  1.00  0.00    -0.007 C 
ATOM     20  C   UNL     1      46.335 131.137  13.916  1.00  0.00    -0.007 C 
ATOM     21  C   UNL     1      47.187 129.874  13.954  1.00  0.00     0.007 C 
ENDBRANCH  14  16
ENDBRANCH  13  14
ENDBRANCH   9  13
ENDBRANCH   1   9
BRANCH   4  22
ATOM     22  O   UNL     1      42.159 135.028  19.284  1.00  0.00    -0.489 OA
BRANCH  22  23
ATOM     23  C   UNL     1      43.396 135.266  19.909  1.00  0.00     0.128 A 
ATOM     24  C   UNL     1      43.938 134.384  20.889  1.00  0.00     0.047 A 
ATOM     25  C   UNL     1      44.143 136.414  19.531  1.00  0.00     0.034 A 
ATOM     26  C   UNL     1      45.221 134.604  21.431  1.00  0.00     0.008 A 
ATOM     27  C   UNL     1      43.705 137.421  18.630  1.00  0.00     0.049 A 
ATOM     28  C   UNL     1      45.413 136.564  20.086  1.00  0.00    -0.008 A 
ATOM     29  C   UNL     1      45.948 135.709  20.994  1.00  0.00    -0.039 A 
ATOM     30  C   UNL     1      44.588 138.493  18.309  1.00  0.00     0.011 A 
ATOM     31  C   UNL     1      46.255 137.588  19.791  1.00  0.00    -0.039 A 
ATOM     32  C   UNL     1      47.310 136.172  21.409  1.00  0.00     0.041 C 
ATOM     33  C   UNL     1      45.870 138.573  18.885  1.00  0.00     0.005 A 
ATOM     34  C   UNL     1      47.527 137.459  20.565  1.00  0.00     0.041 C 
BRANCH  27  35
ATOM     35  N   UNL     1      42.378 137.375  18.083  1.00  0.00    -0.060 NA
BRANCH  35  36
ATOM     36  N   UNL     1      41.952 138.224  17.299  1.00  0.00     0.005 N 
ATOM     37  N   UNL     1      41.527 139.069  16.513  1.00  0.00    -0.003 NA
ENDBRANCH  35  36
ENDBRANCH  27  35
ENDBRANCH  22  23
ENDBRANCH   4  22
TORSDOF 9
ENDMDL
MODEL 7
REMARK VINA RESULT:      -7.1      3.084      5.285
REMARK SMILES C=C(C)C(OC(=O)[C@H]1C[C@@H]2C[C@@H]2C1)=[N+]1C[C@@H]2CC[C@H](Oc3ccc4c5c(ccc(N=[N+]=[N-])c35)CC4)[C@@H]2C1
REMARK SMILES IDX 14 1 37 2 36 3 19 4 18 5 17 6 16 7 15 8 4 9 2 10 1 11 3 12
REMARK SMILES IDX 5 13 6 14 7 15 8 16 9 17 13 18 10 19 12 20 11 21 20 22 21 23
REMARK SMILES IDX 22 24 33 25 23 26 29 27 25 28 24 29 28 30 26 31 35 32 27 33
REMARK SMILES IDX 34 34 30 35 31 36 32 37
REMARK H PARENT
ROOT
ATOM      1  N   UNL     1      43.771 133.598  16.648  1.00  0.00    -0.197 N 
ATOM      2  C   UNL     1      42.821 133.160  15.636  1.00  0.00     0.362 C 
ATOM      3  C   UNL     1      42.396 134.423  14.898  1.00  0.00     0.105 C 
ATOM      4  C   UNL     1      41.143 135.137  15.441  1.00  0.00     0.183 C 
ATOM      5  C   UNL     1      41.386 136.590  15.058  1.00  0.00     0.046 C 
ATOM      6  C   UNL     1      42.894 136.805  15.168  1.00  0.00     0.014 C 
ATOM      7  C   UNL     1      43.537 135.411  15.104  1.00  0.00     0.068 C 
ATOM      8  C   UNL     1      44.233 134.962  16.403  1.00  0.00     0.358 C 
ENDROOT
BRANCH   1   9
ATOM      9  C   UNL     1      44.150 132.817  17.629  1.00  0.00     0.372 C 
BRANCH   9  10
ATOM     10  C   UNL     1      43.498 132.839  18.964  1.00  0.00     0.054 C 
ATOM     11  C   UNL     1      43.253 131.681  19.582  1.00  0.00     0.023 C 
ATOM     12  C   UNL     1      43.088 134.126  19.617  1.00  0.00     0.055 C 
ENDBRANCH   9  10
BRANCH   9  13
ATOM     13  O   UNL     1      45.252 131.975  17.425  1.00  0.00    -0.371 OA
BRANCH  13  14
ATOM     14  C   UNL     1      45.306 130.976  16.447  1.00  0.00     0.318 C 
ATOM     15  O   UNL     1      44.584 129.945  16.534  1.00  0.00    -0.251 OA
BRANCH  14  16
ATOM     16  C   UNL     1      46.227 131.141  15.270  1.00  0.00     0.100 C 
ATOM     17  C   UNL     1      47.245 129.997  15.154  1.00  0.00     0.019 C 
ATOM     18  C   UNL     1      45.455 131.174  13.947  1.00  0.00     0.019 C 
ATOM     19  C   UNL     1      47.333 129.611  13.685  1.00  0.00    -0.007 C 
ATOM     20  C   UNL     1      46.236 130.338  12.942  1.00  0.00    -0.007 C 
ATOM     21  C   UNL     1      47.691 130.724  12.707  1.00  0.00     0.007 C 
ENDBRANCH  14  16
ENDBRANCH  13  14
ENDBRANCH   9  13
ENDBRANCH   1   9
BRANCH   4  22
ATOM     22  O   UNL     1      41.050 135.079  16.870  1.00  0.00    -0.489 OA
BRANCH  22  23
ATOM     23  C   UNL     1      39.922 134.763  17.647  1.00  0.00     0.128 A 
ATOM     24  C   UNL     1      39.051 133.683  17.322  1.00  0.00     0.047 A 
ATOM     25  C   UNL     1      39.658 135.532  18.812  1.00  0.00     0.034 A 
ATOM     26  C   UNL     1      37.980 133.336  18.171  1.00  0.00     0.008 A 
ATOM     27  C   UNL     1      40.386 136.680  19.224  1.00  0.00     0.049 A 
ATOM     28  C   UNL     1      38.597 135.125  19.621  1.00  0.00    -0.008 A 
ATOM     29  C   UNL     1      37.785 134.077  19.334  1.00  0.00    -0.039 A 
ATOM     30  C   UNL     1      40.032 137.321  20.446  1.00  0.00     0.011 A 
ATOM     31  C   UNL     1      38.250 135.738  20.783  1.00  0.00    -0.039 A 
ATOM     32  C   UNL     1      36.732 133.927  20.389  1.00  0.00     0.041 C 
ATOM     33  C   UNL     1      38.965 136.844  21.233  1.00  0.00     0.005 A 
ATOM     34  C   UNL     1      37.065 135.064  21.396  1.00  0.00     0.041 C 
BRANCH  27  35
ATOM     35  N   UNL     1      41.438 137.203  18.399  1.00  0.00    -0.060 NA
BRANCH  35  36
ATOM     36  N   UNL     1      41.965 138.297  18.608  1.00  0.00     0.005 N 
ATOM     37  N   UNL     1      42.493 139.387  18.819  1.00  0.00    -0.003 NA
ENDBRANCH  35  36
ENDBRANCH  27  35
ENDBRANCH  22  23
ENDBRANCH   4  22
TORSDOF 9
ENDMDL
MODEL 8
REMARK VINA RESULT:      -6.9      2.194      3.374
REMARK SMILES C=C(C)C(OC(=O)[C@H]1C[C@@H]2C[C@@H]2C1)=[N+]1C[C@@H]2CC[C@H](Oc3ccc4c5c(ccc(N=[N+]=[N-])c35)CC4)[C@@H]2C1
REMARK SMILES IDX 14 1 37 2 36 3 19 4 18 5 17 6 16 7 15 8 4 9 2 10 1 11 3 12
REMARK SMILES IDX 5 13 6 14 7 15 8 16 9 17 13 18 10 19 12 20 11 21 20 22 21 23
REMARK SMILES IDX 22 24 33 25 23 26 29 27 25 28 24 29 28 30 26 31 35 32 27 33
REMARK SMILES IDX 34 34 30 35 31 36 32 37
REMARK H PARENT
ROOT
ATOM      1  N   UNL     1      42.200 133.893  17.597  1.00  0.00    -0.197 N 
ATOM      2  C   UNL     1      42.433 133.210  18.861  1.00  0.00     0.362 C 
ATOM      3  C   UNL     1      41.325 133.685  19.794  1.00  0.00     0.105 C 
ATOM      4  C   UNL     1      41.650 134.917  20.659  1.00  0.00     0.183 C 
ATOM      5  C   UNL     1      40.284 135.551  20.875  1.00  0.00     0.046 C 
ATOM      6  C   UNL     1      39.499 135.302  19.588  1.00  0.00     0.014 C 
ATOM      7  C   UNL     1      40.193 134.129  18.878  1.00  0.00     0.068 C 
ATOM      8  C   UNL     1      40.870 134.494  17.543  1.00  0.00     0.358 C 
ENDROOT
BRANCH   1   9
ATOM      9  C   UNL     1      43.100 133.919  16.646  1.00  0.00     0.372 C 
BRANCH   9  10
ATOM     10  C   UNL     1      42.834 134.517  15.311  1.00  0.00     0.054 C 
ATOM     11  C   UNL     1      43.463 135.645  14.973  1.00  0.00     0.023 C 
ATOM     12  C   UNL     1      41.860 133.898  14.353  1.00  0.00     0.055 C 
ENDBRANCH   9  10
BRANCH   9  13
ATOM     13  O   UNL     1      44.337 133.303  16.879  1.00  0.00    -0.371 OA
BRANCH  13  14
ATOM     14  C   UNL     1      44.656 132.003  16.470  1.00  0.00     0.318 C 
ATOM     15  O   UNL     1      44.565 131.032  17.269  1.00  0.00    -0.251 OA
BRANCH  14  16
ATOM     16  C   UNL     1      45.102 131.762  15.055  1.00  0.00     0.100 C 
ATOM     17  C   UNL     1      46.615 131.956  14.872  1.00  0.00     0.019 C 
ATOM     18  C   UNL     1      44.788 130.333  14.597  1.00  0.00     0.019 C 
ATOM     19  C   UNL     1      47.118 130.822  13.992  1.00  0.00    -0.007 C 
ATOM     20  C   UNL     1      45.994 129.827  13.819  1.00  0.00    -0.007 C 
ATOM     21  C   UNL     1      46.449 130.667  12.630  1.00  0.00     0.007 C 
ENDBRANCH  14  16
ENDBRANCH  13  14
ENDBRANCH   9  13
ENDBRANCH   1   9
BRANCH   4  22
ATOM     22  O   UNL     1      42.465 135.875  19.973  1.00  0.00    -0.489 OA
BRANCH  22  23
ATOM     23  C   UNL     1      43.814 136.191  20.218  1.00  0.00     0.128 A 
ATOM     24  C   UNL     1      44.647 135.385  21.046  1.00  0.00     0.047 A 
ATOM     25  C   UNL     1      44.369 137.341  19.595  1.00  0.00     0.034 A 
ATOM     26  C   UNL     1      46.018 135.679  21.199  1.00  0.00     0.008 A 
ATOM     27  C   UNL     1      43.651 138.280  18.807  1.00  0.00     0.049 A 
ATOM     28  C   UNL     1      45.734 137.566  19.768  1.00  0.00    -0.008 A 
ATOM     29  C   UNL     1      46.541 136.783  20.528  1.00  0.00    -0.039 A 
ATOM     30  C   UNL     1      44.357 139.362  18.206  1.00  0.00     0.011 A 
ATOM     31  C   UNL     1      46.412 138.600  19.204  1.00  0.00    -0.039 A 
ATOM     32  C   UNL     1      47.940 137.315  20.526  1.00  0.00     0.041 C 
ATOM     33  C   UNL     1      45.743 139.518  18.398  1.00  0.00     0.005 A 
ATOM     34  C   UNL     1      47.853 138.559  19.599  1.00  0.00     0.041 C 
BRANCH  27  35
ATOM     35  N   UNL     1      42.229 138.157  18.654  1.00  0.00    -0.060 NA
BRANCH  35  36
ATOM     36  N   UNL     1      41.630 138.557  17.655  1.00  0.00     0.005 N 
ATOM     37  N   UNL     1      41.029 138.956  16.659  1.00  0.00    -0.003 NA
ENDBRANCH  35  36
ENDBRANCH  27  35
ENDBRANCH  22  23
ENDBRANCH   4  22
TORSDOF 9
ENDMDL
MODEL 9
REMARK VINA RESULT:      -6.8      2.291      3.783
REMARK SMILES C=C(C)C(OC(=O)[C@H]1C[C@@H]2C[C@@H]2C1)=[N+]1C[C@@H]2CC[C@H](Oc3ccc4c5c(ccc(N=[N+]=[N-])c35)CC4)[C@@H]2C1
REMARK SMILES IDX 14 1 37 2 36 3 19 4 18 5 17 6 16 7 15 8 4 9 2 10 1 11 3 12
REMARK SMILES IDX 5 13 6 14 7 15 8 16 9 17 13 18 10 19 12 20 11 21 20 22 21 23
REMARK SMILES IDX 22 24 33 25 23 26 29 27 25 28 24 29 28 30 26 31 35 32 27 33
REMARK SMILES IDX 34 34 30 35 31 36 32 37
REMARK H PARENT
ROOT
ATOM      1  N   UNL     1      43.599 132.900  16.591  1.00  0.00    -0.197 N 
ATOM      2  C   UNL     1      42.220 132.831  16.131  1.00  0.00     0.362 C 
ATOM      3  C   UNL     1      41.941 134.175  15.467  1.00  0.00     0.105 C 
ATOM      4  C   UNL     1      41.346 135.268  16.375  1.00  0.00     0.183 C 
ATOM      5  C   UNL     1      41.844 136.553  15.731  1.00  0.00     0.046 C 
ATOM      6  C   UNL     1      43.232 136.235  15.180  1.00  0.00     0.014 C 
ATOM      7  C   UNL     1      43.306 134.705  15.048  1.00  0.00     0.068 C 
ATOM      8  C   UNL     1      44.314 134.025  15.994  1.00  0.00     0.358 C 
ENDROOT
BRANCH   1   9
ATOM      9  C   UNL     1      44.097 132.022  17.425  1.00  0.00     0.372 C 
BRANCH   9  10
ATOM     10  C   UNL     1      44.345 132.333  18.858  1.00  0.00     0.054 C 
ATOM     11  C   UNL     1      44.128 133.575  19.296  1.00  0.00     0.023 C 
ATOM     12  C   UNL     1      44.856 131.292  19.810  1.00  0.00     0.055 C 
ENDBRANCH   9  10
BRANCH   9  13
ATOM     13  O   UNL     1      44.466 130.764  16.930  1.00  0.00    -0.371 OA
BRANCH  13  14
ATOM     14  C   UNL     1      45.710 130.480  16.356  1.00  0.00     0.318 C 
ATOM     15  O   UNL     1      46.699 130.170  17.075  1.00  0.00    -0.251 OA
BRANCH  14  16
ATOM     16  C   UNL     1      45.865 130.533  14.862  1.00  0.00     0.100 C 
ATOM     17  C   UNL     1      46.690 131.742  14.397  1.00  0.00     0.019 C 
ATOM     18  C   UNL     1      46.574 129.286  14.321  1.00  0.00     0.019 C 
ATOM     19  C   UNL     1      47.638 131.257  13.311  1.00  0.00    -0.007 C 
ATOM     20  C   UNL     1      47.564 129.749  13.261  1.00  0.00    -0.007 C 
ATOM     21  C   UNL     1      47.003 130.571  12.107  1.00  0.00     0.007 C 
ENDBRANCH  14  16
ENDBRANCH  13  14
ENDBRANCH   9  13
ENDBRANCH   1   9
BRANCH   4  22
ATOM     22  O   UNL     1      41.869 135.225  17.709  1.00  0.00    -0.489 OA
BRANCH  22  23
ATOM     23  C   UNL     1      42.042 136.297  18.601  1.00  0.00     0.128 A 
ATOM     24  C   UNL     1      43.181 137.152  18.554  1.00  0.00     0.047 A 
ATOM     25  C   UNL     1      41.031 136.552  19.566  1.00  0.00     0.034 A 
ATOM     26  C   UNL     1      43.282 138.272  19.404  1.00  0.00     0.008 A 
ATOM     27  C   UNL     1      39.880 135.750  19.786  1.00  0.00     0.049 A 
ATOM     28  C   UNL     1      41.178 137.687  20.363  1.00  0.00    -0.008 A 
ATOM     29  C   UNL     1      42.245 138.524  20.300  1.00  0.00    -0.039 A 
ATOM     30  C   UNL     1      38.926 136.160  20.762  1.00  0.00     0.011 A 
ATOM     31  C   UNL     1      40.276 138.080  21.301  1.00  0.00    -0.039 A 
ATOM     32  C   UNL     1      42.107 139.624  21.306  1.00  0.00     0.041 C 
ATOM     33  C   UNL     1      39.121 137.334  21.516  1.00  0.00     0.005 A 
ATOM     34  C   UNL     1      40.740 139.325  21.984  1.00  0.00     0.041 C 
BRANCH  27  35
ATOM     35  N   UNL     1      39.704 134.524  19.060  1.00  0.00    -0.060 NA
BRANCH  35  36
ATOM     36  N   UNL     1      38.647 134.226  18.503  1.00  0.00     0.005 N 
ATOM     37  N   UNL     1      37.590 133.926  17.949  1.00  0.00    -0.003 NA
ENDBRANCH  35  36
ENDBRANCH  27  35
ENDBRANCH  22  23
ENDBRANCH   4  22
TORSDOF 9
ENDMDL


