MODEL 1
REMARK VINA RESULT:      -5.7      0.000      0.000
REMARK SMILES C#C/C(O)=N\[C@H](c1c(C)[nH+]nn1-c1c2ccccc2c(C(=O)N=[N+]=[N-])c2ccccc12)C(C)C
REMARK SMILES IDX 7 1 8 2 9 3 10 4 11 6 12 7 6 8 5 9 3 10 2 11 1 12 4 13 32 15
REMARK SMILES IDX 33 16 34 17 13 18 14 19 31 20 15 21 19 22 30 23 26 24 16 25
REMARK SMILES IDX 18 26 20 27 29 28 27 29 17 30 28 31 21 32 22 33 23 34 24 35
REMARK SMILES IDX 25 36
REMARK H PARENT 10 5 4 14
ROOT
ATOM      1  C   UNL     1      43.885 133.065  17.434  1.00  0.00     0.201 A 
ATOM      2  C   UNL     1      44.867 132.109  17.180  1.00  0.00     0.167 A 
ATOM      3  C   UNL     1      45.265 130.928  18.009  1.00  0.00     0.100 C 
ATOM      4  N   UNL     1      45.459 132.441  16.016  1.00  0.00    -0.147 N 
ATOM      5  H   UNL     1      46.238 131.936  15.539  1.00  0.00     0.342 HD
ATOM      6  N   UNL     1      44.905 133.555  15.571  1.00  0.00     0.094 NA
ATOM      7  N   UNL     1      43.956 133.948  16.409  1.00  0.00    -0.095 N 
ENDROOT
BRANCH   1   8
ATOM      8  C   UNL     1      42.963 133.202  18.640  1.00  0.00     0.190 C 
BRANCH   8   9
ATOM      9  N   UNL     1      41.656 132.578  18.398  1.00  0.00    -0.231 NA
BRANCH   9  10
ATOM     10  C   UNL     1      40.546 133.191  18.098  1.00  0.00     0.261 C 
BRANCH  10  11
ATOM     11  C   UNL     1      40.324 134.582  18.410  1.00  0.00    -0.012 C 
ATOM     12  C   UNL     1      40.161 135.753  18.660  1.00  0.00     0.015 C 
ENDBRANCH  10  11
BRANCH  10  13
ATOM     13  O   UNL     1      39.532 132.485  17.458  1.00  0.00    -0.487 OA
ATOM     14  H   UNL     1      38.980 132.910  16.724  1.00  0.00     0.296 HD
ENDBRANCH  10  13
ENDBRANCH   9  10
ENDBRANCH   8   9
BRANCH   8  15
ATOM     15  C   UNL     1      43.600 132.605  19.923  1.00  0.00     0.016 C 
ATOM     16  C   UNL     1      44.115 133.718  20.846  1.00  0.00     0.010 C 
ATOM     17  C   UNL     1      42.642 131.680  20.690  1.00  0.00     0.010 C 
ENDBRANCH   8  15
ENDBRANCH   1   8
BRANCH   7  18
ATOM     18  C   UNL     1      43.232 135.181  16.260  1.00  0.00     0.171 A 
ATOM     19  C   UNL     1      43.623 136.323  16.992  1.00  0.00     0.032 A 
ATOM     20  C   UNL     1      42.123 135.244  15.389  1.00  0.00     0.032 A 
ATOM     21  C   UNL     1      44.672 136.250  17.933  1.00  0.00     0.013 A 
ATOM     22  C   UNL     1      42.953 137.561  16.795  1.00  0.00    -0.002 A 
ATOM     23  C   UNL     1      41.687 134.096  14.690  1.00  0.00     0.013 A 
ATOM     24  C   UNL     1      41.442 136.476  15.191  1.00  0.00    -0.002 A 
ATOM     25  C   UNL     1      45.068 137.379  18.651  1.00  0.00     0.001 A 
ATOM     26  C   UNL     1      43.389 138.696  17.520  1.00  0.00     0.009 A 
ATOM     27  C   UNL     1      41.872 137.640  15.880  1.00  0.00     0.040 A 
ATOM     28  C   UNL     1      40.600 134.159  13.818  1.00  0.00     0.001 A 
ATOM     29  C   UNL     1      40.337 136.510  14.308  1.00  0.00     0.009 A 
ATOM     30  C   UNL     1      44.435 138.600  18.438  1.00  0.00     0.001 A 
ATOM     31  C   UNL     1      39.926 135.362  13.630  1.00  0.00     0.001 A 
BRANCH  27  32
ATOM     32  C   UNL     1      41.196 138.940  15.638  1.00  0.00     0.250 C 
ATOM     33  O   UNL     1      41.512 139.624  14.629  1.00  0.00    -0.287 OA
BRANCH  32  34
ATOM     34  N   UNL     1      40.185 139.432  16.529  1.00  0.00    -0.017 NA
BRANCH  34  35
ATOM     35  N   UNL     1      39.105 138.852  16.660  1.00  0.00     0.009 N 
ATOM     36  N   UNL     1      38.027 138.273  16.792  1.00  0.00    -0.003 NA
ENDBRANCH  34  35
ENDBRANCH  32  34
ENDBRANCH  27  32
ENDBRANCH   7  18
TORSDOF 10
ENDMDL
MODEL 2
REMARK VINA RESULT:      -5.5      2.215      6.857
REMARK SMILES C#C/C(O)=N\[C@H](c1c(C)[nH+]nn1-c1c2ccccc2c(C(=O)N=[N+]=[N-])c2ccccc12)C(C)C
REMARK SMILES IDX 7 1 8 2 9 3 10 4 11 6 12 7 6 8 5 9 3 10 2 11 1 12 4 13 32 15
REMARK SMILES IDX 33 16 34 17 13 18 14 19 31 20 15 21 19 22 30 23 26 24 16 25
REMARK SMILES IDX 18 26 20 27 29 28 27 29 17 30 28 31 21 32 22 33 23 34 24 35
REMARK SMILES IDX 25 36
REMARK H PARENT 10 5 4 14
ROOT
ATOM      1  C   UNL     1      40.743 135.723  19.112  1.00  0.00     0.201 A 
ATOM      2  C   UNL     1      39.657 135.955  19.954  1.00  0.00     0.167 A 
ATOM      3  C   UNL     1      39.200 137.241  20.568  1.00  0.00     0.100 C 
ATOM      4  N   UNL     1      39.054 134.768  20.165  1.00  0.00    -0.147 N 
ATOM      5  H   UNL     1      38.210 134.587  20.753  1.00  0.00     0.342 HD
ATOM      6  N   UNL     1      39.732 133.836  19.520  1.00  0.00     0.094 NA
ATOM      7  N   UNL     1      40.752 134.389  18.880  1.00  0.00    -0.095 N 
ENDROOT
BRANCH   1   8
ATOM      8  C   UNL     1      41.795 136.703  18.607  1.00  0.00     0.190 C 
BRANCH   8   9
ATOM      9  N   UNL     1      41.219 137.694  17.690  1.00  0.00    -0.231 NA
BRANCH   9  10
ATOM     10  C   UNL     1      41.480 137.824  16.420  1.00  0.00     0.261 C 
BRANCH  10  11
ATOM     11  C   UNL     1      42.504 137.050  15.761  1.00  0.00    -0.012 C 
ATOM     12  C   UNL     1      43.359 136.415  15.188  1.00  0.00     0.015 C 
ENDBRANCH  10  11
BRANCH  10  13
ATOM     13  O   UNL     1      40.755 138.742  15.666  1.00  0.00    -0.487 OA
ATOM     14  H   UNL     1      41.191 139.576  15.295  1.00  0.00     0.296 HD
ENDBRANCH  10  13
ENDBRANCH   9  10
ENDBRANCH   8   9
BRANCH   8  15
ATOM     15  C   UNL     1      42.518 137.426  19.774  1.00  0.00     0.016 C 
ATOM     16  C   UNL     1      43.343 136.434  20.605  1.00  0.00     0.010 C 
ATOM     17  C   UNL     1      43.406 138.587  19.299  1.00  0.00     0.010 C 
ENDBRANCH   8  15
ENDBRANCH   1   8
BRANCH   7  18
ATOM     18  C   UNL     1      41.741 133.628  18.165  1.00  0.00     0.171 A 
ATOM     19  C   UNL     1      41.661 133.510  16.760  1.00  0.00     0.032 A 
ATOM     20  C   UNL     1      42.785 132.991  18.871  1.00  0.00     0.032 A 
ATOM     21  C   UNL     1      40.574 134.065  16.052  1.00  0.00     0.013 A 
ATOM     22  C   UNL     1      42.675 132.818  16.044  1.00  0.00    -0.002 A 
ATOM     23  C   UNL     1      42.847 133.056  20.281  1.00  0.00     0.013 A 
ATOM     24  C   UNL     1      43.799 132.291  18.163  1.00  0.00    -0.002 A 
ATOM     25  C   UNL     1      40.498 133.960  14.663  1.00  0.00     0.001 A 
ATOM     26  C   UNL     1      42.585 132.745  14.633  1.00  0.00     0.009 A 
ATOM     27  C   UNL     1      43.754 132.223  16.746  1.00  0.00     0.040 A 
ATOM     28  C   UNL     1      43.885 132.439  20.979  1.00  0.00     0.001 A 
ATOM     29  C   UNL     1      44.835 131.667  18.897  1.00  0.00     0.009 A 
ATOM     30  C   UNL     1      41.505 133.310  13.955  1.00  0.00     0.001 A 
ATOM     31  C   UNL     1      44.874 131.745  20.290  1.00  0.00     0.001 A 
BRANCH  27  32
ATOM     32  C   UNL     1      44.839 131.535  16.000  1.00  0.00     0.250 C 
ATOM     33  O   UNL     1      45.845 132.193  15.625  1.00  0.00    -0.287 OA
BRANCH  32  34
ATOM     34  N   UNL     1      44.766 130.135  15.701  1.00  0.00    -0.017 NA
BRANCH  34  35
ATOM     35  N   UNL     1      45.591 129.590  14.963  1.00  0.00     0.009 N 
ATOM     36  N   UNL     1      46.414 129.047  14.227  1.00  0.00    -0.003 NA
ENDBRANCH  34  35
ENDBRANCH  32  34
ENDBRANCH  27  32
ENDBRANCH   7  18
TORSDOF 10
ENDMDL
MODEL 3
REMARK VINA RESULT:      -5.3      2.756      6.899
REMARK SMILES C#C/C(O)=N\[C@H](c1c(C)[nH+]nn1-c1c2ccccc2c(C(=O)N=[N+]=[N-])c2ccccc12)C(C)C
REMARK SMILES IDX 7 1 8 2 9 3 10 4 11 6 12 7 6 8 5 9 3 10 2 11 1 12 4 13 32 15
REMARK SMILES IDX 33 16 34 17 13 18 14 19 31 20 15 21 19 22 30 23 26 24 16 25
REMARK SMILES IDX 18 26 20 27 29 28 27 29 17 30 28 31 21 32 22 33 23 34 24 35
REMARK SMILES IDX 25 36
REMARK H PARENT 10 5 4 14
ROOT
ATOM      1  C   UNL     1      41.201 135.596  19.486  1.00  0.00     0.201 A 
ATOM      2  C   UNL     1      40.163 135.817  20.388  1.00  0.00     0.167 A 
ATOM      3  C   UNL     1      39.832 137.059  21.156  1.00  0.00     0.100 C 
ATOM      4  N   UNL     1      39.472 134.665  20.492  1.00  0.00    -0.147 N 
ATOM      5  H   UNL     1      38.633 134.486  21.089  1.00  0.00     0.342 HD
ATOM      6  N   UNL     1      40.051 133.761  19.723  1.00  0.00     0.094 NA
ATOM      7  N   UNL     1      41.094 134.299  19.109  1.00  0.00    -0.095 N 
ENDROOT
BRANCH   1   8
ATOM      8  C   UNL     1      42.315 136.541  19.049  1.00  0.00     0.190 C 
BRANCH   8   9
ATOM      9  N   UNL     1      43.641 135.936  19.225  1.00  0.00    -0.231 NA
BRANCH   9  10
ATOM     10  C   UNL     1      44.513 136.228  20.149  1.00  0.00     0.261 C 
BRANCH  10  11
ATOM     11  C   UNL     1      44.297 135.916  21.540  1.00  0.00    -0.012 C 
ATOM     12  C   UNL     1      44.094 135.669  22.707  1.00  0.00     0.015 C 
ENDBRANCH  10  11
BRANCH  10  13
ATOM     13  O   UNL     1      45.696 136.868  19.789  1.00  0.00    -0.487 OA
ATOM     14  H   UNL     1      45.914 137.059  18.819  1.00  0.00     0.296 HD
ENDBRANCH  10  13
ENDBRANCH   9  10
ENDBRANCH   8   9
BRANCH   8  15
ATOM     15  C   UNL     1      42.139 136.999  17.577  1.00  0.00     0.016 C 
ATOM     16  C   UNL     1      40.796 137.717  17.385  1.00  0.00     0.010 C 
ATOM     17  C   UNL     1      43.291 137.891  17.088  1.00  0.00     0.010 C 
ENDBRANCH   8  15
ENDBRANCH   1   8
BRANCH   7  18
ATOM     18  C   UNL     1      41.996 133.548  18.278  1.00  0.00     0.171 A 
ATOM     19  C   UNL     1      41.834 133.554  16.875  1.00  0.00     0.032 A 
ATOM     20  C   UNL     1      43.036 132.797  18.867  1.00  0.00     0.032 A 
ATOM     21  C   UNL     1      40.746 134.226  16.280  1.00  0.00     0.013 A 
ATOM     22  C   UNL     1      42.765 132.869  16.048  1.00  0.00    -0.002 A 
ATOM     23  C   UNL     1      43.177 132.739  20.273  1.00  0.00     0.013 A 
ATOM     24  C   UNL     1      43.966 132.103  18.047  1.00  0.00    -0.002 A 
ATOM     25  C   UNL     1      40.589 134.243  14.893  1.00  0.00     0.001 A 
ATOM     26  C   UNL     1      42.595 132.921  14.643  1.00  0.00     0.009 A 
ATOM     27  C   UNL     1      43.842 132.158  16.635  1.00  0.00     0.040 A 
ATOM     28  C   UNL     1      44.212 132.009  20.857  1.00  0.00     0.001 A 
ATOM     29  C   UNL     1      45.001 131.364  18.667  1.00  0.00     0.009 A 
ATOM     30  C   UNL     1      41.516 133.600  14.077  1.00  0.00     0.001 A 
ATOM     31  C   UNL     1      45.119 131.322  20.057  1.00  0.00     0.001 A 
BRANCH  27  32
ATOM     32  C   UNL     1      44.842 131.477  15.773  1.00  0.00     0.250 C 
ATOM     33  O   UNL     1      44.657 130.275  15.443  1.00  0.00    -0.287 OA
BRANCH  32  34
ATOM     34  N   UNL     1      46.012 132.161  15.305  1.00  0.00    -0.017 NA
BRANCH  34  35
ATOM     35  N   UNL     1      46.733 131.678  14.429  1.00  0.00     0.009 N 
ATOM     36  N   UNL     1      47.454 131.197  13.556  1.00  0.00    -0.003 NA
ENDBRANCH  34  35
ENDBRANCH  32  34
ENDBRANCH  27  32
ENDBRANCH   7  18
TORSDOF 10
ENDMDL
MODEL 4
REMARK VINA RESULT:      -5.2      2.601      6.381
REMARK SMILES C#C/C(O)=N\[C@H](c1c(C)[nH+]nn1-c1c2ccccc2c(C(=O)N=[N+]=[N-])c2ccccc12)C(C)C
REMARK SMILES IDX 7 1 8 2 9 3 10 4 11 6 12 7 6 8 5 9 3 10 2 11 1 12 4 13 32 15
REMARK SMILES IDX 33 16 34 17 13 18 14 19 31 20 15 21 19 22 30 23 26 24 16 25
REMARK SMILES IDX 18 26 20 27 29 28 27 29 17 30 28 31 21 32 22 33 23 34 24 35
REMARK SMILES IDX 25 36
REMARK H PARENT 10 5 4 14
ROOT
ATOM      1  C   UNL     1      42.435 135.110  19.677  1.00  0.00     0.201 A 
ATOM      2  C   UNL     1      41.449 135.398  20.619  1.00  0.00     0.167 A 
ATOM      3  C   UNL     1      41.331 136.584  21.524  1.00  0.00     0.100 C 
ATOM      4  N   UNL     1      40.576 134.372  20.610  1.00  0.00    -0.147 N 
ATOM      5  H   UNL     1      39.720 134.269  21.200  1.00  0.00     0.342 HD
ATOM      6  N   UNL     1      40.995 133.475  19.736  1.00  0.00     0.094 NA
ATOM      7  N   UNL     1      42.112 133.899  19.163  1.00  0.00    -0.095 N 
ENDROOT
BRANCH   1   8
ATOM      8  C   UNL     1      43.689 135.900  19.324  1.00  0.00     0.190 C 
BRANCH   8   9
ATOM      9  N   UNL     1      43.429 136.895  18.276  1.00  0.00    -0.231 NA
BRANCH   9  10
ATOM     10  C   UNL     1      42.297 137.494  18.036  1.00  0.00     0.261 C 
BRANCH  10  11
ATOM     11  C   UNL     1      41.866 138.653  18.778  1.00  0.00    -0.012 C 
ATOM     12  C   UNL     1      41.525 139.623  19.415  1.00  0.00     0.015 C 
ENDBRANCH  10  11
BRANCH  10  13
ATOM     13  O   UNL     1      41.467 137.002  17.033  1.00  0.00    -0.487 OA
ATOM     14  H   UNL     1      41.798 136.312  16.371  1.00  0.00     0.296 HD
ENDBRANCH  10  13
ENDBRANCH   9  10
ENDBRANCH   8   9
BRANCH   8  15
ATOM     15  C   UNL     1      44.301 136.597  20.569  1.00  0.00     0.016 C 
ATOM     16  C   UNL     1      45.094 135.597  21.421  1.00  0.00     0.010 C 
ATOM     17  C   UNL     1      45.183 137.801  20.205  1.00  0.00     0.010 C 
ENDBRANCH   8  15
ENDBRANCH   1   8
BRANCH   7  18
ATOM     18  C   UNL     1      42.875 133.106  18.237  1.00  0.00     0.171 A 
ATOM     19  C   UNL     1      43.954 132.322  18.700  1.00  0.00     0.032 A 
ATOM     20  C   UNL     1      42.550 133.122  16.863  1.00  0.00     0.032 A 
ATOM     21  C   UNL     1      44.346 132.366  20.054  1.00  0.00     0.013 A 
ATOM     22  C   UNL     1      44.665 131.484  17.798  1.00  0.00    -0.002 A 
ATOM     23  C   UNL     1      41.507 133.944  16.378  1.00  0.00     0.013 A 
ATOM     24  C   UNL     1      43.261 132.294  15.953  1.00  0.00    -0.002 A 
ATOM     25  C   UNL     1      45.405 131.584  20.517  1.00  0.00     0.001 A 
ATOM     26  C   UNL     1      45.721 130.684  18.298  1.00  0.00     0.009 A 
ATOM     27  C   UNL     1      44.305 131.458  16.427  1.00  0.00     0.040 A 
ATOM     28  C   UNL     1      41.175 133.951  15.023  1.00  0.00     0.001 A 
ATOM     29  C   UNL     1      42.908 132.327  14.583  1.00  0.00     0.009 A 
ATOM     30  C   UNL     1      46.084 130.739  19.644  1.00  0.00     0.001 A 
ATOM     31  C   UNL     1      41.875 133.148  14.129  1.00  0.00     0.001 A 
BRANCH  27  32
ATOM     32  C   UNL     1      45.017 130.553  15.488  1.00  0.00     0.250 C 
ATOM     33  O   UNL     1      44.618 129.365  15.352  1.00  0.00    -0.287 OA
BRANCH  32  34
ATOM     34  N   UNL     1      46.146 131.004  14.729  1.00  0.00    -0.017 NA
BRANCH  34  35
ATOM     35  N   UNL     1      47.086 130.251  14.463  1.00  0.00     0.009 N 
ATOM     36  N   UNL     1      48.023 129.499  14.196  1.00  0.00    -0.003 NA
ENDBRANCH  34  35
ENDBRANCH  32  34
ENDBRANCH  27  32
ENDBRANCH   7  18
TORSDOF 10
ENDMDL
MODEL 5
REMARK VINA RESULT:      -5.2      2.871      6.997
REMARK SMILES C#C/C(O)=N\[C@H](c1c(C)[nH+]nn1-c1c2ccccc2c(C(=O)N=[N+]=[N-])c2ccccc12)C(C)C
REMARK SMILES IDX 7 1 8 2 9 3 10 4 11 6 12 7 6 8 5 9 3 10 2 11 1 12 4 13 32 15
REMARK SMILES IDX 33 16 34 17 13 18 14 19 31 20 15 21 19 22 30 23 26 24 16 25
REMARK SMILES IDX 18 26 20 27 29 28 27 29 17 30 28 31 21 32 22 33 23 34 24 35
REMARK SMILES IDX 25 36
REMARK H PARENT 10 5 4 14
ROOT
ATOM      1  C   UNL     1      40.800 134.874  17.389  1.00  0.00     0.201 A 
ATOM      2  C   UNL     1      39.553 134.919  16.770  1.00  0.00     0.167 A 
ATOM      3  C   UNL     1      38.912 136.048  16.025  1.00  0.00     0.100 C 
ATOM      4  N   UNL     1      38.961 133.726  16.976  1.00  0.00    -0.147 N 
ATOM      5  H   UNL     1      38.015 133.427  16.648  1.00  0.00     0.342 HD
ATOM      6  N   UNL     1      39.771 132.979  17.704  1.00  0.00     0.094 NA
ATOM      7  N   UNL     1      40.883 133.651  17.965  1.00  0.00    -0.095 N 
ENDROOT
BRANCH   1   8
ATOM      8  C   UNL     1      41.852 135.970  17.516  1.00  0.00     0.190 C 
BRANCH   8   9
ATOM      9  N   UNL     1      42.457 136.296  16.218  1.00  0.00    -0.231 NA
BRANCH   9  10
ATOM     10  C   UNL     1      42.994 135.457  15.378  1.00  0.00     0.261 C 
BRANCH  10  11
ATOM     11  C   UNL     1      42.208 134.704  14.431  1.00  0.00    -0.012 C 
ATOM     12  C   UNL     1      41.542 134.057  13.657  1.00  0.00     0.015 C 
ENDBRANCH  10  11
BRANCH  10  13
ATOM     13  O   UNL     1      44.374 135.272  15.391  1.00  0.00    -0.487 OA
ATOM     14  H   UNL     1      44.885 135.086  14.538  1.00  0.00     0.296 HD
ENDBRANCH  10  13
ENDBRANCH   9  10
ENDBRANCH   8   9
BRANCH   8  15
ATOM     15  C   UNL     1      41.270 137.256  18.161  1.00  0.00     0.016 C 
ATOM     16  C   UNL     1      41.776 137.423  19.600  1.00  0.00     0.010 C 
ATOM     17  C   UNL     1      41.569 138.522  17.343  1.00  0.00     0.010 C 
ENDBRANCH   8  15
ENDBRANCH   1   8
BRANCH   7  18
ATOM     18  C   UNL     1      41.925 133.151  18.820  1.00  0.00     0.171 A 
ATOM     19  C   UNL     1      42.990 132.402  18.274  1.00  0.00     0.032 A 
ATOM     20  C   UNL     1      41.877 133.403  20.209  1.00  0.00     0.032 A 
ATOM     21  C   UNL     1      43.004 132.067  16.903  1.00  0.00     0.013 A 
ATOM     22  C   UNL     1      44.057 131.967  19.106  1.00  0.00    -0.002 A 
ATOM     23  C   UNL     1      40.790 134.105  20.778  1.00  0.00     0.013 A 
ATOM     24  C   UNL     1      42.935 132.965  21.049  1.00  0.00    -0.002 A 
ATOM     25  C   UNL     1      44.060 131.335  16.357  1.00  0.00     0.001 A 
ATOM     26  C   UNL     1      45.126 131.245  18.522  1.00  0.00     0.009 A 
ATOM     27  C   UNL     1      44.037 132.264  20.492  1.00  0.00     0.040 A 
ATOM     28  C   UNL     1      40.747 134.367  22.146  1.00  0.00     0.001 A 
ATOM     29  C   UNL     1      42.862 133.236  22.436  1.00  0.00     0.009 A 
ATOM     30  C   UNL     1      45.122 130.934  17.163  1.00  0.00     0.001 A 
ATOM     31  C   UNL     1      41.777 133.931  22.973  1.00  0.00     0.001 A 
BRANCH  27  32
ATOM     32  C   UNL     1      45.170 131.849  21.359  1.00  0.00     0.250 C 
ATOM     33  O   UNL     1      45.108 130.752  21.974  1.00  0.00    -0.287 OA
BRANCH  32  34
ATOM     34  N   UNL     1      46.336 132.671  21.506  1.00  0.00    -0.017 NA
BRANCH  34  35
ATOM     35  N   UNL     1      46.274 133.899  21.411  1.00  0.00     0.009 N 
ATOM     36  N   UNL     1      46.211 135.125  21.318  1.00  0.00    -0.003 NA
ENDBRANCH  34  35
ENDBRANCH  32  34
ENDBRANCH  27  32
ENDBRANCH   7  18
TORSDOF 10
ENDMDL
MODEL 6
REMARK VINA RESULT:      -5.1      2.278      6.800
REMARK SMILES C#C/C(O)=N\[C@H](c1c(C)[nH+]nn1-c1c2ccccc2c(C(=O)N=[N+]=[N-])c2ccccc12)C(C)C
REMARK SMILES IDX 7 1 8 2 9 3 10 4 11 6 12 7 6 8 5 9 3 10 2 11 1 12 4 13 32 15
REMARK SMILES IDX 33 16 34 17 13 18 14 19 31 20 15 21 19 22 30 23 26 24 16 25
REMARK SMILES IDX 18 26 20 27 29 28 27 29 17 30 28 31 21 32 22 33 23 34 24 35
REMARK SMILES IDX 25 36
REMARK H PARENT 10 5 4 14
ROOT
ATOM      1  C   UNL     1      41.379 135.640  19.364  1.00  0.00     0.201 A 
ATOM      2  C   UNL     1      40.409 135.849  20.342  1.00  0.00     0.167 A 
ATOM      3  C   UNL     1      40.079 137.105  21.087  1.00  0.00     0.100 C 
ATOM      4  N   UNL     1      39.788 134.671  20.548  1.00  0.00    -0.147 N 
ATOM      5  H   UNL     1      39.011 134.478  21.220  1.00  0.00     0.342 HD
ATOM      6  N   UNL     1      40.348 133.764  19.768  1.00  0.00     0.094 NA
ATOM      7  N   UNL     1      41.307 134.325  19.048  1.00  0.00    -0.095 N 
ENDROOT
BRANCH   1   8
ATOM      8  C   UNL     1      42.403 136.618  18.800  1.00  0.00     0.190 C 
BRANCH   8   9
ATOM      9  N   UNL     1      41.765 137.833  18.279  1.00  0.00    -0.231 NA
BRANCH   9  10
ATOM     10  C   UNL     1      42.101 138.488  17.203  1.00  0.00     0.261 C 
BRANCH  10  11
ATOM     11  C   UNL     1      41.494 138.226  15.921  1.00  0.00    -0.012 C 
ATOM     12  C   UNL     1      41.003 137.990  14.841  1.00  0.00     0.015 C 
ENDBRANCH  10  11
BRANCH  10  13
ATOM     13  O   UNL     1      43.081 139.472  17.285  1.00  0.00    -0.487 OA
ATOM     14  H   UNL     1      42.931 140.319  17.818  1.00  0.00     0.296 HD
ENDBRANCH  10  13
ENDBRANCH   9  10
ENDBRANCH   8   9
BRANCH   8  15
ATOM     15  C   UNL     1      43.477 136.999  19.853  1.00  0.00     0.016 C 
ATOM     16  C   UNL     1      43.495 135.988  21.007  1.00  0.00     0.010 C 
ATOM     17  C   UNL     1      44.883 137.137  19.248  1.00  0.00     0.010 C 
ENDBRANCH   8  15
ENDBRANCH   1   8
BRANCH   7  18
ATOM     18  C   UNL     1      42.175 133.583  18.173  1.00  0.00     0.171 A 
ATOM     19  C   UNL     1      41.958 133.606  16.778  1.00  0.00     0.032 A 
ATOM     20  C   UNL     1      43.235 132.823  18.713  1.00  0.00     0.032 A 
ATOM     21  C   UNL     1      40.849 134.287  16.234  1.00  0.00     0.013 A 
ATOM     22  C   UNL     1      42.855 132.931  15.906  1.00  0.00    -0.002 A 
ATOM     23  C   UNL     1      43.431 132.747  20.111  1.00  0.00     0.013 A 
ATOM     24  C   UNL     1      44.132 132.139  17.848  1.00  0.00    -0.002 A 
ATOM     25  C   UNL     1      40.639 134.322  14.855  1.00  0.00     0.001 A 
ATOM     26  C   UNL     1      42.631 133.001  14.510  1.00  0.00     0.009 A 
ATOM     27  C   UNL     1      43.953 132.211  16.442  1.00  0.00     0.040 A 
ATOM     28  C   UNL     1      44.487 132.008  20.644  1.00  0.00     0.001 A 
ATOM     29  C   UNL     1      45.189 131.390  18.417  1.00  0.00     0.009 A 
ATOM     30  C   UNL     1      41.532 133.688  13.995  1.00  0.00     0.001 A 
ATOM     31  C   UNL     1      45.361 131.330  19.801  1.00  0.00     0.001 A 
BRANCH  27  32
ATOM     32  C   UNL     1      44.917 131.540  15.534  1.00  0.00     0.250 C 
ATOM     33  O   UNL     1      45.841 132.213  15.005  1.00  0.00    -0.287 OA
BRANCH  32  34
ATOM     34  N   UNL     1      44.821 130.137  15.250  1.00  0.00    -0.017 NA
BRANCH  34  35
ATOM     35  N   UNL     1      45.748 129.523  14.718  1.00  0.00     0.009 N 
ATOM     36  N   UNL     1      46.673 128.909  14.186  1.00  0.00    -0.003 NA
ENDBRANCH  34  35
ENDBRANCH  32  34
ENDBRANCH  27  32
ENDBRANCH   7  18
TORSDOF 10
ENDMDL
MODEL 7
REMARK VINA RESULT:      -5.0      3.496      6.808
REMARK SMILES C#C/C(O)=N\[C@H](c1c(C)[nH+]nn1-c1c2ccccc2c(C(=O)N=[N+]=[N-])c2ccccc12)C(C)C
REMARK SMILES IDX 7 1 8 2 9 3 10 4 11 6 12 7 6 8 5 9 3 10 2 11 1 12 4 13 32 15
REMARK SMILES IDX 33 16 34 17 13 18 14 19 31 20 15 21 19 22 30 23 26 24 16 25
REMARK SMILES IDX 18 26 20 27 29 28 27 29 17 30 28 31 21 32 22 33 23 34 24 35
REMARK SMILES IDX 25 36
REMARK H PARENT 10 5 4 14
ROOT
ATOM      1  C   UNL     1      43.158 133.008  16.716  1.00  0.00     0.201 A 
ATOM      2  C   UNL     1      42.168 133.075  15.737  1.00  0.00     0.167 A 
ATOM      3  C   UNL     1      42.173 132.502  14.354  1.00  0.00     0.100 C 
ATOM      4  N   UNL     1      41.152 133.800  16.244  1.00  0.00    -0.147 N 
ATOM      5  H   UNL     1      40.254 134.044  15.770  1.00  0.00     0.342 HD
ATOM      6  N   UNL     1      41.487 134.192  17.461  1.00  0.00     0.094 NA
ATOM      7  N   UNL     1      42.690 133.727  17.764  1.00  0.00    -0.095 N 
ENDROOT
BRANCH   1   8
ATOM      8  C   UNL     1      44.538 132.365  16.647  1.00  0.00     0.190 C 
BRANCH   8   9
ATOM      9  N   UNL     1      44.633 131.186  17.516  1.00  0.00    -0.231 NA
BRANCH   9  10
ATOM     10  C   UNL     1      45.715 130.708  18.063  1.00  0.00     0.261 C 
BRANCH  10  11
ATOM     11  C   UNL     1      46.003 130.865  19.467  1.00  0.00    -0.012 C 
ATOM     12  C   UNL     1      46.223 130.983  20.651  1.00  0.00     0.015 C 
ENDBRANCH  10  11
BRANCH  10  13
ATOM     13  O   UNL     1      46.631 130.023  17.270  1.00  0.00    -0.487 OA
ATOM     14  H   UNL     1      46.559 129.024  17.128  1.00  0.00     0.296 HD
ENDBRANCH  10  13
ENDBRANCH   9  10
ENDBRANCH   8   9
BRANCH   8  15
ATOM     15  C   UNL     1      44.922 131.978  15.194  1.00  0.00     0.016 C 
ATOM     16  C   UNL     1      46.419 132.204  14.944  1.00  0.00     0.010 C 
ATOM     17  C   UNL     1      44.538 130.532  14.840  1.00  0.00     0.010 C 
ENDBRANCH   8  15
ENDBRANCH   1   8
BRANCH   7  18
ATOM     18  C   UNL     1      43.382 134.060  18.980  1.00  0.00     0.171 A 
ATOM     19  C   UNL     1      43.290 133.208  20.102  1.00  0.00     0.032 A 
ATOM     20  C   UNL     1      44.145 135.246  19.052  1.00  0.00     0.032 A 
ATOM     21  C   UNL     1      42.459 132.068  20.072  1.00  0.00     0.013 A 
ATOM     22  C   UNL     1      44.029 133.499  21.280  1.00  0.00    -0.002 A 
ATOM     23  C   UNL     1      44.203 136.136  17.955  1.00  0.00     0.013 A 
ATOM     24  C   UNL     1      44.880 135.549  20.230  1.00  0.00    -0.002 A 
ATOM     25  C   UNL     1      42.374 131.218  21.176  1.00  0.00     0.001 A 
ATOM     26  C   UNL     1      43.941 132.608  22.377  1.00  0.00     0.009 A 
ATOM     27  C   UNL     1      44.838 134.662  21.337  1.00  0.00     0.040 A 
ATOM     28  C   UNL     1      44.967 137.300  18.020  1.00  0.00     0.001 A 
ATOM     29  C   UNL     1      45.640 136.741  20.272  1.00  0.00     0.009 A 
ATOM     30  C   UNL     1      43.120 131.482  22.321  1.00  0.00     0.001 A 
ATOM     31  C   UNL     1      45.681 137.604  19.175  1.00  0.00     0.001 A 
BRANCH  27  32
ATOM     32  C   UNL     1      45.645 134.948  22.551  1.00  0.00     0.250 C 
ATOM     33  O   UNL     1      45.143 135.634  23.480  1.00  0.00    -0.287 OA
BRANCH  32  34
ATOM     34  N   UNL     1      46.985 134.455  22.689  1.00  0.00    -0.017 NA
BRANCH  34  35
ATOM     35  N   UNL     1      47.902 135.182  23.075  1.00  0.00     0.009 N 
ATOM     36  N   UNL     1      48.817 135.909  23.462  1.00  0.00    -0.003 NA
ENDBRANCH  34  35
ENDBRANCH  32  34
ENDBRANCH  27  32
ENDBRANCH   7  18
TORSDOF 10
ENDMDL
MODEL 8
REMARK VINA RESULT:      -5.0      3.196      5.574
REMARK SMILES C#C/C(O)=N\[C@H](c1c(C)[nH+]nn1-c1c2ccccc2c(C(=O)N=[N+]=[N-])c2ccccc12)C(C)C
REMARK SMILES IDX 7 1 8 2 9 3 10 4 11 6 12 7 6 8 5 9 3 10 2 11 1 12 4 13 32 15
REMARK SMILES IDX 33 16 34 17 13 18 14 19 31 20 15 21 19 22 30 23 26 24 16 25
REMARK SMILES IDX 18 26 20 27 29 28 27 29 17 30 28 31 21 32 22 33 23 34 24 35
REMARK SMILES IDX 25 36
REMARK H PARENT 10 5 4 14
ROOT
ATOM      1  C   UNL     1      42.823 133.491  21.205  1.00  0.00     0.201 A 
ATOM      2  C   UNL     1      42.967 132.847  22.432  1.00  0.00     0.167 A 
ATOM      3  C   UNL     1      43.427 133.409  23.741  1.00  0.00     0.100 C 
ATOM      4  N   UNL     1      42.633 131.555  22.249  1.00  0.00    -0.147 N 
ATOM      5  H   UNL     1      42.634 130.795  22.966  1.00  0.00     0.342 HD
ATOM      6  N   UNL     1      42.322 131.382  20.976  1.00  0.00     0.094 NA
ATOM      7  N   UNL     1      42.430 132.534  20.330  1.00  0.00    -0.095 N 
ENDROOT
BRANCH   1   8
ATOM      8  C   UNL     1      43.125 134.938  20.836  1.00  0.00     0.190 C 
BRANCH   8   9
ATOM      9  N   UNL     1      43.119 135.813  22.015  1.00  0.00    -0.231 NA
BRANCH   9  10
ATOM     10  C   UNL     1      42.327 136.825  22.228  1.00  0.00     0.261 C 
BRANCH  10  11
ATOM     11  C   UNL     1      42.628 138.153  21.750  1.00  0.00    -0.012 C 
ATOM     12  C   UNL     1      42.897 139.269  21.369  1.00  0.00     0.015 C 
ENDBRANCH  10  11
BRANCH  10  13
ATOM     13  O   UNL     1      41.149 136.629  22.943  1.00  0.00    -0.487 OA
ATOM     14  H   UNL     1      40.248 136.851  22.540  1.00  0.00     0.296 HD
ENDBRANCH  10  13
ENDBRANCH   9  10
ENDBRANCH   8   9
BRANCH   8  15
ATOM     15  C   UNL     1      44.480 135.072  20.091  1.00  0.00     0.016 C 
ATOM     16  C   UNL     1      44.297 135.794  18.748  1.00  0.00     0.010 C 
ATOM     17  C   UNL     1      45.556 135.779  20.930  1.00  0.00     0.010 C 
ENDBRANCH   8  15
ENDBRANCH   1   8
BRANCH   7  18
ATOM     18  C   UNL     1      42.256 132.661  18.909  1.00  0.00     0.171 A 
ATOM     19  C   UNL     1      41.072 133.230  18.390  1.00  0.00     0.032 A 
ATOM     20  C   UNL     1      43.266 132.208  18.033  1.00  0.00     0.032 A 
ATOM     21  C   UNL     1      40.017 133.603  19.250  1.00  0.00     0.013 A 
ATOM     22  C   UNL     1      40.927 133.421  16.989  1.00  0.00    -0.002 A 
ATOM     23  C   UNL     1      44.433 131.588  18.535  1.00  0.00     0.013 A 
ATOM     24  C   UNL     1      43.125 132.388  16.630  1.00  0.00    -0.002 A 
ATOM     25  C   UNL     1      38.850 134.175  18.742  1.00  0.00     0.001 A 
ATOM     26  C   UNL     1      39.741 134.023  16.502  1.00  0.00     0.009 A 
ATOM     27  C   UNL     1      41.963 133.015  16.111  1.00  0.00     0.040 A 
ATOM     28  C   UNL     1      45.438 131.152  17.673  1.00  0.00     0.001 A 
ATOM     29  C   UNL     1      44.157 131.928  15.777  1.00  0.00     0.009 A 
ATOM     30  C   UNL     1      38.717 134.393  17.373  1.00  0.00     0.001 A 
ATOM     31  C   UNL     1      45.299 131.319  16.299  1.00  0.00     0.001 A 
BRANCH  27  32
ATOM     32  C   UNL     1      41.835 133.251  14.650  1.00  0.00     0.250 C 
ATOM     33  O   UNL     1      41.432 132.318  13.905  1.00  0.00    -0.287 OA
BRANCH  32  34
ATOM     34  N   UNL     1      42.156 134.522  14.069  1.00  0.00    -0.017 NA
BRANCH  34  35
ATOM     35  N   UNL     1      43.024 135.251  14.555  1.00  0.00     0.009 N 
ATOM     36  N   UNL     1      43.891 135.979  15.038  1.00  0.00    -0.003 NA
ENDBRANCH  34  35
ENDBRANCH  32  34
ENDBRANCH  27  32
ENDBRANCH   7  18
TORSDOF 10
ENDMDL
MODEL 9
REMARK VINA RESULT:      -4.9      3.255      6.927
REMARK SMILES C#C/C(O)=N\[C@H](c1c(C)[nH+]nn1-c1c2ccccc2c(C(=O)N=[N+]=[N-])c2ccccc12)C(C)C
REMARK SMILES IDX 7 1 8 2 9 3 10 4 11 6 12 7 6 8 5 9 3 10 2 11 1 12 4 13 32 15
REMARK SMILES IDX 33 16 34 17 13 18 14 19 31 20 15 21 19 22 30 23 26 24 16 25
REMARK SMILES IDX 18 26 20 27 29 28 27 29 17 30 28 31 21 32 22 33 23 34 24 35
REMARK SMILES IDX 25 36
REMARK H PARENT 10 5 4 14
ROOT
ATOM      1  C   UNL     1      41.595 135.322  19.042  1.00  0.00     0.201 A 
ATOM      2  C   UNL     1      41.436 136.698  19.193  1.00  0.00     0.167 A 
ATOM      3  C   UNL     1      40.263 137.455  19.736  1.00  0.00     0.100 C 
ATOM      4  N   UNL     1      42.554 137.285  18.725  1.00  0.00    -0.147 N 
ATOM      5  H   UNL     1      42.761 138.308  18.688  1.00  0.00     0.342 HD
ATOM      6  N   UNL     1      43.364 136.341  18.280  1.00  0.00     0.094 NA
ATOM      7  N   UNL     1      42.807 135.153  18.460  1.00  0.00    -0.095 N 
ENDROOT
BRANCH   1   8
ATOM      8  C   UNL     1      40.613 134.199  19.352  1.00  0.00     0.190 C 
BRANCH   8   9
ATOM      9  N   UNL     1      40.173 134.232  20.752  1.00  0.00    -0.231 NA
BRANCH   9  10
ATOM     10  C   UNL     1      40.932 134.154  21.808  1.00  0.00     0.261 C 
BRANCH  10  11
ATOM     11  C   UNL     1      41.182 135.288  22.664  1.00  0.00    -0.012 C 
ATOM     12  C   UNL     1      41.371 136.251  23.372  1.00  0.00     0.015 C 
ENDBRANCH  10  11
BRANCH  10  13
ATOM     13  O   UNL     1      41.531 132.939  22.127  1.00  0.00    -0.487 OA
ATOM     14  H   UNL     1      42.535 132.823  22.089  1.00  0.00     0.296 HD
ENDBRANCH  10  13
ENDBRANCH   9  10
ENDBRANCH   8   9
BRANCH   8  15
ATOM     15  C   UNL     1      39.378 134.238  18.413  1.00  0.00     0.016 C 
ATOM     16  C   UNL     1      39.569 135.278  17.300  1.00  0.00     0.010 C 
ATOM     17  C   UNL     1      39.047 132.866  17.806  1.00  0.00     0.010 C 
ENDBRANCH   8  15
ENDBRANCH   1   8
BRANCH   7  18
ATOM     18  C   UNL     1      43.392 133.927  17.990  1.00  0.00     0.171 A 
ATOM     19  C   UNL     1      43.155 133.492  16.668  1.00  0.00     0.032 A 
ATOM     20  C   UNL     1      44.194 133.153  18.856  1.00  0.00     0.032 A 
ATOM     21  C   UNL     1      42.283 134.208  15.821  1.00  0.00     0.013 A 
ATOM     22  C   UNL     1      43.788 132.317  16.179  1.00  0.00    -0.002 A 
ATOM     23  C   UNL     1      44.397 133.547  20.199  1.00  0.00     0.013 A 
ATOM     24  C   UNL     1      44.825 131.972  18.378  1.00  0.00    -0.002 A 
ATOM     25  C   UNL     1      42.055 133.788  14.510  1.00  0.00     0.001 A 
ATOM     26  C   UNL     1      43.556 131.925  14.838  1.00  0.00     0.009 A 
ATOM     27  C   UNL     1      44.638 131.567  17.031  1.00  0.00     0.040 A 
ATOM     28  C   UNL     1      45.200 132.792  21.052  1.00  0.00     0.001 A 
ATOM     29  C   UNL     1      45.628 131.220  19.268  1.00  0.00     0.009 A 
ATOM     30  C   UNL     1      42.697 132.655  14.018  1.00  0.00     0.001 A 
ATOM     31  C   UNL     1      45.811 131.631  20.589  1.00  0.00     0.001 A 
BRANCH  27  32
ATOM     32  C   UNL     1      45.335 130.362  16.513  1.00  0.00     0.250 C 
ATOM     33  O   UNL     1      44.687 129.294  16.349  1.00  0.00    -0.287 OA
BRANCH  32  34
ATOM     34  N   UNL     1      46.732 130.390  16.191  1.00  0.00    -0.017 NA
BRANCH  34  35
ATOM     35  N   UNL     1      47.158 129.923  15.132  1.00  0.00     0.009 N 
ATOM     36  N   UNL     1      47.585 129.457  14.076  1.00  0.00    -0.003 NA
ENDBRANCH  34  35
ENDBRANCH  32  34
ENDBRANCH  27  32
ENDBRANCH   7  18
TORSDOF 10
ENDMDL


