MODEL 1
REMARK VINA RESULT:      -7.5      0.000      0.000
REMARK SMILES C#CC[N+](C)(C)Cc1c(C)cc(N2C[C@@H](C)[C@@H](C)[C@@H]2C)c2ccccc12
REMARK SMILES IDX 4 1 5 2 6 3 3 4 2 5 1 6 7 7 8 8 9 9 26 10 11 11 25 12 21 13
REMARK SMILES IDX 12 14 24 15 22 16 23 17 10 18 13 19 14 20 19 21 15 22 17 23
REMARK SMILES IDX 20 24 16 25 18 26
REMARK H PARENT
ROOT
ATOM      1  N   UNL     1      45.602 130.780  15.207  1.00  0.00    -0.315 N 
ATOM      2  C   UNL     1      46.145 132.160  15.207  1.00  0.00     0.335 C 
ATOM      3  C   UNL     1      46.677 129.871  15.681  1.00  0.00     0.335 C 
ENDROOT
BRANCH   1   4
ATOM      4  C   UNL     1      45.257 130.445  13.789  1.00  0.00     0.355 C 
BRANCH   4   5
ATOM      5  C   UNL     1      46.411 130.501  12.869  1.00  0.00    -0.047 C 
ATOM      6  C   UNL     1      47.353 130.548  12.119  1.00  0.00     0.010 C 
ENDBRANCH   4   5
ENDBRANCH   1   4
BRANCH   1   7
ATOM      7  C   UNL     1      44.363 130.707  16.059  1.00  0.00     0.302 C 
BRANCH   7   8
ATOM      8  C   UNL     1      43.973 132.017  16.776  1.00  0.00     0.017 A 
ATOM      9  C   UNL     1      43.193 133.000  16.096  1.00  0.00    -0.040 A 
ATOM     10  C   UNL     1      44.381 132.290  18.122  1.00  0.00    -0.007 A 
ATOM     11  C   UNL     1      43.041 134.275  16.652  1.00  0.00     0.030 A 
ATOM     12  C   UNL     1      44.939 131.297  18.964  1.00  0.00     0.009 A 
ATOM     13  C   UNL     1      44.204 133.599  18.663  1.00  0.00     0.006 A 
ATOM     14  C   UNL     1      43.565 134.591  17.900  1.00  0.00     0.045 A 
ATOM     15  C   UNL     1      45.365 131.601  20.256  1.00  0.00     0.001 A 
ATOM     16  C   UNL     1      44.645 133.882  19.972  1.00  0.00     0.011 A 
ATOM     17  C   UNL     1      45.228 132.890  20.756  1.00  0.00     0.001 A 
ATOM     18  C   UNL     1      42.478 132.722  14.794  1.00  0.00     0.045 C 
BRANCH  14  19
ATOM     19  N   UNL     1      43.403 135.926  18.402  1.00  0.00    -0.368 N 
ATOM     20  C   UNL     1      44.449 136.927  18.280  1.00  0.00     0.120 C 
ATOM     21  C   UNL     1      42.104 136.495  18.746  1.00  0.00     0.082 C 
ATOM     22  C   UNL     1      43.835 138.205  18.842  1.00  0.00     0.010 C 
ATOM     23  C   UNL     1      42.306 138.025  18.682  1.00  0.00     0.013 C 
ATOM     24  C   UNL     1      41.690 136.034  20.146  1.00  0.00     0.031 C 
ATOM     25  C   UNL     1      44.435 139.477  18.226  1.00  0.00     0.010 C 
ATOM     26  C   UNL     1      41.754 138.577  17.354  1.00  0.00     0.010 C 
ENDBRANCH  14  19
ENDBRANCH   7   8
ENDBRANCH   1   7
TORSDOF 5
ENDMDL
MODEL 2
REMARK VINA RESULT:      -7.3      1.213      2.152
REMARK SMILES C#CC[N+](C)(C)Cc1c(C)cc(N2C[C@@H](C)[C@@H](C)[C@@H]2C)c2ccccc12
REMARK SMILES IDX 4 1 5 2 6 3 3 4 2 5 1 6 7 7 8 8 9 9 26 10 11 11 25 12 21 13
REMARK SMILES IDX 12 14 24 15 22 16 23 17 10 18 13 19 14 20 19 21 15 22 17 23
REMARK SMILES IDX 20 24 16 25 18 26
REMARK H PARENT
ROOT
ATOM      1  N   UNL     1      45.666 130.867  15.255  1.00  0.00    -0.315 N 
ATOM      2  C   UNL     1      46.026 132.306  15.282  1.00  0.00     0.335 C 
ATOM      3  C   UNL     1      46.882 130.090  15.606  1.00  0.00     0.335 C 
ENDROOT
BRANCH   1   4
ATOM      4  C   UNL     1      45.258 130.543  13.851  1.00  0.00     0.355 C 
BRANCH   4   5
ATOM      5  C   UNL     1      46.379 130.561  12.890  1.00  0.00    -0.047 C 
ATOM      6  C   UNL     1      47.294 130.576  12.104  1.00  0.00     0.010 C 
ENDBRANCH   4   5
ENDBRANCH   1   4
BRANCH   1   7
ATOM      7  C   UNL     1      44.516 130.600  16.190  1.00  0.00     0.302 C 
BRANCH   7   8
ATOM      8  C   UNL     1      44.147 131.761  17.137  1.00  0.00     0.017 A 
ATOM      9  C   UNL     1      43.240 132.775  16.706  1.00  0.00    -0.040 A 
ATOM     10  C   UNL     1      44.702 131.865  18.454  1.00  0.00    -0.007 A 
ATOM     11  C   UNL     1      43.088 133.941  17.463  1.00  0.00     0.030 A 
ATOM     12  C   UNL     1      45.411 130.802  19.066  1.00  0.00     0.009 A 
ATOM     13  C   UNL     1      44.522 133.065  19.204  1.00  0.00     0.006 A 
ATOM     14  C   UNL     1      43.744 134.110  18.678  1.00  0.00     0.045 A 
ATOM     15  C   UNL     1      45.974 130.945  20.334  1.00  0.00     0.001 A 
ATOM     16  C   UNL     1      45.105 133.186  20.483  1.00  0.00     0.011 A 
ATOM     17  C   UNL     1      45.831 132.136  21.036  1.00  0.00     0.001 A 
ATOM     18  C   UNL     1      42.386 132.638  15.466  1.00  0.00     0.045 C 
BRANCH  14  19
ATOM     19  N   UNL     1      43.573 135.344  19.392  1.00  0.00    -0.368 N 
ATOM     20  C   UNL     1      42.426 135.583  20.251  1.00  0.00     0.120 C 
ATOM     21  C   UNL     1      44.658 136.296  19.606  1.00  0.00     0.082 C 
ATOM     22  C   UNL     1      42.688 136.948  20.881  1.00  0.00     0.010 C 
ATOM     23  C   UNL     1      44.225 137.129  20.832  1.00  0.00     0.013 C 
ATOM     24  C   UNL     1      44.836 137.168  18.360  1.00  0.00     0.031 C 
ATOM     25  C   UNL     1      42.031 137.105  22.259  1.00  0.00     0.010 C 
ATOM     26  C   UNL     1      44.946 136.626  22.097  1.00  0.00     0.010 C 
ENDBRANCH  14  19
ENDBRANCH   7   8
ENDBRANCH   1   7
TORSDOF 5
ENDMDL
MODEL 3
REMARK VINA RESULT:      -7.1      1.450      6.836
REMARK SMILES C#CC[N+](C)(C)Cc1c(C)cc(N2C[C@@H](C)[C@@H](C)[C@@H]2C)c2ccccc12
REMARK SMILES IDX 4 1 5 2 6 3 3 4 2 5 1 6 7 7 8 8 9 9 26 10 11 11 25 12 21 13
REMARK SMILES IDX 12 14 24 15 22 16 23 17 10 18 13 19 14 20 19 21 15 22 17 23
REMARK SMILES IDX 20 24 16 25 18 26
REMARK H PARENT
ROOT
ATOM      1  N   UNL     1      43.581 136.953  19.684  1.00  0.00    -0.315 N 
ATOM      2  C   UNL     1      43.139 138.322  19.325  1.00  0.00     0.335 C 
ATOM      3  C   UNL     1      43.539 136.838  21.165  1.00  0.00     0.335 C 
ENDROOT
BRANCH   1   4
ATOM      4  C   UNL     1      44.997 136.812  19.216  1.00  0.00     0.355 C 
BRANCH   4   5
ATOM      5  C   UNL     1      45.920 137.796  19.816  1.00  0.00    -0.047 C 
ATOM      6  C   UNL     1      46.673 138.600  20.306  1.00  0.00     0.010 C 
ENDBRANCH   4   5
ENDBRANCH   1   4
BRANCH   1   7
ATOM      7  C   UNL     1      42.718 135.929  18.998  1.00  0.00     0.302 C 
BRANCH   7   8
ATOM      8  C   UNL     1      43.460 134.962  18.051  1.00  0.00     0.017 A 
ATOM      9  C   UNL     1      43.593 135.279  16.666  1.00  0.00    -0.040 A 
ATOM     10  C   UNL     1      44.024 133.731  18.520  1.00  0.00    -0.007 A 
ATOM     11  C   UNL     1      44.051 134.307  15.770  1.00  0.00     0.030 A 
ATOM     12  C   UNL     1      44.165 133.436  19.899  1.00  0.00     0.009 A 
ATOM     13  C   UNL     1      44.490 132.764  17.581  1.00  0.00     0.006 A 
ATOM     14  C   UNL     1      44.462 133.052  16.206  1.00  0.00     0.045 A 
ATOM     15  C   UNL     1      44.679 132.213  20.327  1.00  0.00     0.001 A 
ATOM     16  C   UNL     1      45.005 131.533  18.039  1.00  0.00     0.011 A 
ATOM     17  C   UNL     1      45.089 131.260  19.401  1.00  0.00     0.001 A 
ATOM     18  C   UNL     1      43.292 136.650  16.106  1.00  0.00     0.045 C 
BRANCH  14  19
ATOM     19  N   UNL     1      44.891 132.087  15.234  1.00  0.00    -0.368 N 
ATOM     20  C   UNL     1      46.287 131.942  14.859  1.00  0.00     0.120 C 
ATOM     21  C   UNL     1      44.064 130.963  14.809  1.00  0.00     0.082 C 
ATOM     22  C   UNL     1      46.311 130.759  13.894  1.00  0.00     0.010 C 
ATOM     23  C   UNL     1      45.057 129.923  14.247  1.00  0.00     0.013 C 
ATOM     24  C   UNL     1      43.063 131.427  13.747  1.00  0.00     0.031 C 
ATOM     25  C   UNL     1      47.650 130.009  13.903  1.00  0.00     0.010 C 
ATOM     26  C   UNL     1      45.322 128.822  15.292  1.00  0.00     0.010 C 
ENDBRANCH  14  19
ENDBRANCH   7   8
ENDBRANCH   1   7
TORSDOF 5
ENDMDL
MODEL 4
REMARK VINA RESULT:      -7.1      1.414      3.804
REMARK SMILES C#CC[N+](C)(C)Cc1c(C)cc(N2C[C@@H](C)[C@@H](C)[C@@H]2C)c2ccccc12
REMARK SMILES IDX 4 1 5 2 6 3 3 4 2 5 1 6 7 7 8 8 9 9 26 10 11 11 25 12 21 13
REMARK SMILES IDX 12 14 24 15 22 16 23 17 10 18 13 19 14 20 19 21 15 22 17 23
REMARK SMILES IDX 20 24 16 25 18 26
REMARK H PARENT
ROOT
ATOM      1  N   UNL     1      45.625 130.701  15.151  1.00  0.00    -0.315 N 
ATOM      2  C   UNL     1      46.007 132.129  15.285  1.00  0.00     0.335 C 
ATOM      3  C   UNL     1      46.798 129.881  15.545  1.00  0.00     0.335 C 
ENDROOT
BRANCH   1   4
ATOM      4  C   UNL     1      45.317 130.464  13.705  1.00  0.00     0.355 C 
BRANCH   4   5
ATOM      5  C   UNL     1      46.501 130.544  12.826  1.00  0.00    -0.047 C 
ATOM      6  C   UNL     1      47.467 130.609  12.108  1.00  0.00     0.010 C 
ENDBRANCH   4   5
ENDBRANCH   1   4
BRANCH   1   7
ATOM      7  C   UNL     1      44.405 130.407  15.982  1.00  0.00     0.302 C 
BRANCH   7   8
ATOM      8  C   UNL     1      43.841 131.603  16.778  1.00  0.00     0.017 A 
ATOM      9  C   UNL     1      44.248 131.820  18.129  1.00  0.00    -0.040 A 
ATOM     10  C   UNL     1      42.898 132.516  16.201  1.00  0.00    -0.007 A 
ATOM     11  C   UNL     1      43.567 132.751  18.921  1.00  0.00     0.030 A 
ATOM     12  C   UNL     1      42.616 132.540  14.813  1.00  0.00     0.009 A 
ATOM     13  C   UNL     1      42.227 133.460  17.034  1.00  0.00     0.006 A 
ATOM     14  C   UNL     1      42.546 133.539  18.401  1.00  0.00     0.045 A 
ATOM     15  C   UNL     1      41.664 133.412  14.285  1.00  0.00     0.001 A 
ATOM     16  C   UNL     1      41.266 134.329  16.476  1.00  0.00     0.011 A 
ATOM     17  C   UNL     1      40.984 134.296  15.114  1.00  0.00     0.001 A 
ATOM     18  C   UNL     1      45.424 131.107  18.755  1.00  0.00     0.045 C 
BRANCH  14  19
ATOM     19  N   UNL     1      41.864 134.454  19.272  1.00  0.00    -0.368 N 
ATOM     20  C   UNL     1      40.598 134.119  19.900  1.00  0.00     0.120 C 
ATOM     21  C   UNL     1      42.514 135.613  19.875  1.00  0.00     0.082 C 
ATOM     22  C   UNL     1      40.284 135.308  20.804  1.00  0.00     0.010 C 
ATOM     23  C   UNL     1      41.655 135.956  21.112  1.00  0.00     0.013 C 
ATOM     24  C   UNL     1      42.552 136.768  18.870  1.00  0.00     0.031 C 
ATOM     25  C   UNL     1      39.429 134.924  22.019  1.00  0.00     0.010 C 
ATOM     26  C   UNL     1      42.323 135.413  22.389  1.00  0.00     0.010 C 
ENDBRANCH  14  19
ENDBRANCH   7   8
ENDBRANCH   1   7
TORSDOF 5
ENDMDL
MODEL 5
REMARK VINA RESULT:      -7.0      1.446      1.740
REMARK SMILES C#CC[N+](C)(C)Cc1c(C)cc(N2C[C@@H](C)[C@@H](C)[C@@H]2C)c2ccccc12
REMARK SMILES IDX 4 1 5 2 6 3 3 4 2 5 1 6 7 7 8 8 9 9 26 10 11 11 25 12 21 13
REMARK SMILES IDX 12 14 24 15 22 16 23 17 10 18 13 19 14 20 19 21 15 22 17 23
REMARK SMILES IDX 20 24 16 25 18 26
REMARK H PARENT
ROOT
ATOM      1  N   UNL     1      46.078 130.312  15.273  1.00  0.00    -0.315 N 
ATOM      2  C   UNL     1      46.412 131.702  14.874  1.00  0.00     0.335 C 
ATOM      3  C   UNL     1      46.939 129.955  16.429  1.00  0.00     0.335 C 
ENDROOT
BRANCH   1   4
ATOM      4  C   UNL     1      46.417 129.430  14.111  1.00  0.00     0.355 C 
BRANCH   4   5
ATOM      5  C   UNL     1      46.904 130.168  12.928  1.00  0.00    -0.047 C 
ATOM      6  C   UNL     1      47.303 130.771  11.963  1.00  0.00     0.010 C 
ENDBRANCH   4   5
ENDBRANCH   1   4
BRANCH   1   7
ATOM      7  C   UNL     1      44.610 130.197  15.584  1.00  0.00     0.302 C 
BRANCH   7   8
ATOM      8  C   UNL     1      43.902 131.521  15.942  1.00  0.00     0.017 A 
ATOM      9  C   UNL     1      43.107 132.194  14.967  1.00  0.00    -0.040 A 
ATOM     10  C   UNL     1      44.025 132.114  17.241  1.00  0.00    -0.007 A 
ATOM     11  C   UNL     1      42.663 133.498  15.209  1.00  0.00     0.030 A 
ATOM     12  C   UNL     1      44.579 131.420  18.345  1.00  0.00     0.009 A 
ATOM     13  C   UNL     1      43.555 133.443  17.458  1.00  0.00     0.006 A 
ATOM     14  C   UNL     1      42.909 134.137  16.420  1.00  0.00     0.045 A 
ATOM     15  C   UNL     1      44.724 132.036  19.587  1.00  0.00     0.001 A 
ATOM     16  C   UNL     1      43.715 134.046  18.724  1.00  0.00     0.011 A 
ATOM     17  C   UNL     1      44.302 133.347  19.774  1.00  0.00     0.001 A 
ATOM     18  C   UNL     1      42.678 131.547  13.670  1.00  0.00     0.045 C 
BRANCH  14  19
ATOM     19  N   UNL     1      42.456 135.487  16.596  1.00  0.00    -0.368 N 
ATOM     20  C   UNL     1      43.338 136.626  16.406  1.00  0.00     0.120 C 
ATOM     21  C   UNL     1      41.044 135.855  16.630  1.00  0.00     0.082 C 
ATOM     22  C   UNL     1      42.443 137.848  16.591  1.00  0.00     0.010 C 
ATOM     23  C   UNL     1      41.012 137.356  16.266  1.00  0.00     0.013 C 
ATOM     24  C   UNL     1      40.473 135.595  18.027  1.00  0.00     0.031 C 
ATOM     25  C   UNL     1      42.933 139.071  15.803  1.00  0.00     0.010 C 
ATOM     26  C   UNL     1      40.617 137.535  14.788  1.00  0.00     0.010 C 
ENDBRANCH  14  19
ENDBRANCH   7   8
ENDBRANCH   1   7
TORSDOF 5
ENDMDL
MODEL 6
REMARK VINA RESULT:      -7.0      0.658      1.026
REMARK SMILES C#CC[N+](C)(C)Cc1c(C)cc(N2C[C@@H](C)[C@@H](C)[C@@H]2C)c2ccccc12
REMARK SMILES IDX 4 1 5 2 6 3 3 4 2 5 1 6 7 7 8 8 9 9 26 10 11 11 25 12 21 13
REMARK SMILES IDX 12 14 24 15 22 16 23 17 10 18 13 19 14 20 19 21 15 22 17 23
REMARK SMILES IDX 20 24 16 25 18 26
REMARK H PARENT
ROOT
ATOM      1  N   UNL     1      45.653 130.665  14.897  1.00  0.00    -0.315 N 
ATOM      2  C   UNL     1      45.240 130.529  13.479  1.00  0.00     0.335 C 
ATOM      3  C   UNL     1      46.306 131.990  15.053  1.00  0.00     0.335 C 
ENDROOT
BRANCH   1   4
ATOM      4  C   UNL     1      46.654 129.584  15.168  1.00  0.00     0.355 C 
BRANCH   4   5
ATOM      5  C   UNL     1      47.650 129.416  14.091  1.00  0.00    -0.047 C 
ATOM      6  C   UNL     1      48.464 129.278  13.212  1.00  0.00     0.010 C 
ENDBRANCH   4   5
ENDBRANCH   1   4
BRANCH   1   7
ATOM      7  C   UNL     1      44.465 130.493  15.806  1.00  0.00     0.302 C 
BRANCH   7   8
ATOM      8  C   UNL     1      44.038 131.755  16.585  1.00  0.00     0.017 A 
ATOM      9  C   UNL     1      43.208 132.734  15.962  1.00  0.00    -0.040 A 
ATOM     10  C   UNL     1      44.462 131.987  17.935  1.00  0.00    -0.007 A 
ATOM     11  C   UNL     1      43.016 133.977  16.575  1.00  0.00     0.030 A 
ATOM     12  C   UNL     1      45.075 130.982  18.722  1.00  0.00     0.009 A 
ATOM     13  C   UNL     1      44.244 133.263  18.534  1.00  0.00     0.006 A 
ATOM     14  C   UNL     1      43.552 134.261  17.826  1.00  0.00     0.045 A 
ATOM     15  C   UNL     1      45.514 131.248  20.019  1.00  0.00     0.001 A 
ATOM     16  C   UNL     1      44.700 133.508  19.846  1.00  0.00     0.011 A 
ATOM     17  C   UNL     1      45.336 132.509  20.576  1.00  0.00     0.001 A 
ATOM     18  C   UNL     1      42.478 132.483  14.663  1.00  0.00     0.045 C 
BRANCH  14  19
ATOM     19  N   UNL     1      43.348 135.566  18.388  1.00  0.00    -0.368 N 
ATOM     20  C   UNL     1      44.380 136.587  18.358  1.00  0.00     0.120 C 
ATOM     21  C   UNL     1      42.027 136.096  18.709  1.00  0.00     0.082 C 
ATOM     22  C   UNL     1      43.723 137.826  18.960  1.00  0.00     0.010 C 
ATOM     23  C   UNL     1      42.204 137.630  18.730  1.00  0.00     0.013 C 
ATOM     24  C   UNL     1      41.567 135.558  20.066  1.00  0.00     0.031 C 
ATOM     25  C   UNL     1      44.324 139.136  18.432  1.00  0.00     0.010 C 
ATOM     26  C   UNL     1      41.695 138.242  17.411  1.00  0.00     0.010 C 
ENDBRANCH  14  19
ENDBRANCH   7   8
ENDBRANCH   1   7
TORSDOF 5
ENDMDL
MODEL 7
REMARK VINA RESULT:      -6.9      1.755      6.751
REMARK SMILES C#CC[N+](C)(C)Cc1c(C)cc(N2C[C@@H](C)[C@@H](C)[C@@H]2C)c2ccccc12
REMARK SMILES IDX 4 1 5 2 6 3 3 4 2 5 1 6 7 7 8 8 9 9 26 10 11 11 25 12 21 13
REMARK SMILES IDX 12 14 24 15 22 16 23 17 10 18 13 19 14 20 19 21 15 22 17 23
REMARK SMILES IDX 20 24 16 25 18 26
REMARK H PARENT
ROOT
ATOM      1  N   UNL     1      41.254 136.237  18.373  1.00  0.00    -0.315 N 
ATOM      2  C   UNL     1      40.652 136.283  19.728  1.00  0.00     0.335 C 
ATOM      3  C   UNL     1      40.703 137.376  17.594  1.00  0.00     0.335 C 
ENDROOT
BRANCH   1   4
ATOM      4  C   UNL     1      40.818 134.949  17.744  1.00  0.00     0.355 C 
BRANCH   4   5
ATOM      5  C   UNL     1      39.671 135.095  16.827  1.00  0.00    -0.047 C 
ATOM      6  C   UNL     1      38.734 135.214  16.077  1.00  0.00     0.010 C 
ENDBRANCH   4   5
ENDBRANCH   1   4
BRANCH   1   7
ATOM      7  C   UNL     1      42.756 136.271  18.467  1.00  0.00     0.302 C 
BRANCH   7   8
ATOM      8  C   UNL     1      43.497 135.196  17.644  1.00  0.00     0.017 A 
ATOM      9  C   UNL     1      43.732 135.398  16.251  1.00  0.00    -0.040 A 
ATOM     10  C   UNL     1      43.957 133.976  18.238  1.00  0.00    -0.007 A 
ATOM     11  C   UNL     1      44.186 134.336  15.460  1.00  0.00     0.030 A 
ATOM     12  C   UNL     1      43.996 133.781  19.641  1.00  0.00     0.009 A 
ATOM     13  C   UNL     1      44.422 132.916  17.404  1.00  0.00     0.006 A 
ATOM     14  C   UNL     1      44.495 133.098  16.013  1.00  0.00     0.045 A 
ATOM     15  C   UNL     1      44.410 132.567  20.190  1.00  0.00     0.001 A 
ATOM     16  C   UNL     1      44.834 131.697  17.984  1.00  0.00     0.011 A 
ATOM     17  C   UNL     1      44.819 131.526  19.365  1.00  0.00     0.001 A 
ATOM     18  C   UNL     1      43.547 136.736  15.573  1.00  0.00     0.045 C 
BRANCH  14  19
ATOM     19  N   UNL     1      44.925 132.039  15.145  1.00  0.00    -0.368 N 
ATOM     20  C   UNL     1      46.328 131.817  14.840  1.00  0.00     0.120 C 
ATOM     21  C   UNL     1      44.074 130.911  14.784  1.00  0.00     0.082 C 
ATOM     22  C   UNL     1      46.346 130.556  13.980  1.00  0.00     0.010 C 
ATOM     23  C   UNL     1      45.050 129.794  14.352  1.00  0.00     0.013 C 
ATOM     24  C   UNL     1      43.131 131.314  13.647  1.00  0.00     0.031 C 
ATOM     25  C   UNL     1      47.655 129.765  14.108  1.00  0.00     0.010 C 
ATOM     26  C   UNL     1      45.236 128.780  15.496  1.00  0.00     0.010 C 
ENDBRANCH  14  19
ENDBRANCH   7   8
ENDBRANCH   1   7
TORSDOF 5
ENDMDL
MODEL 8
REMARK VINA RESULT:      -6.9      1.738      6.933
REMARK SMILES C#CC[N+](C)(C)Cc1c(C)cc(N2C[C@@H](C)[C@@H](C)[C@@H]2C)c2ccccc12
REMARK SMILES IDX 4 1 5 2 6 3 3 4 2 5 1 6 7 7 8 8 9 9 26 10 11 11 25 12 21 13
REMARK SMILES IDX 12 14 24 15 22 16 23 17 10 18 13 19 14 20 19 21 15 22 17 23
REMARK SMILES IDX 20 24 16 25 18 26
REMARK H PARENT
ROOT
ATOM      1  N   UNL     1      41.137 134.870  19.520  1.00  0.00    -0.315 N 
ATOM      2  C   UNL     1      40.699 134.012  18.391  1.00  0.00     0.335 C 
ATOM      3  C   UNL     1      40.968 134.089  20.773  1.00  0.00     0.335 C 
ENDROOT
BRANCH   1   4
ATOM      4  C   UNL     1      40.224 136.056  19.548  1.00  0.00     0.355 C 
BRANCH   4   5
ATOM      5  C   UNL     1      38.848 135.756  19.104  1.00  0.00    -0.047 C 
ATOM      6  C   UNL     1      37.724 135.512  18.742  1.00  0.00     0.010 C 
ENDBRANCH   4   5
ENDBRANCH   1   4
BRANCH   1   7
ATOM      7  C   UNL     1      42.555 135.328  19.309  1.00  0.00     0.302 C 
BRANCH   7   8
ATOM      8  C   UNL     1      43.370 134.511  18.284  1.00  0.00     0.017 A 
ATOM      9  C   UNL     1      43.480 134.961  16.934  1.00  0.00    -0.040 A 
ATOM     10  C   UNL     1      44.026 133.289  18.645  1.00  0.00    -0.007 A 
ATOM     11  C   UNL     1      44.012 134.112  15.958  1.00  0.00     0.030 A 
ATOM     12  C   UNL     1      44.187 132.881  19.992  1.00  0.00     0.009 A 
ATOM     13  C   UNL     1      44.566 132.449  17.625  1.00  0.00     0.006 A 
ATOM     14  C   UNL     1      44.517 132.858  16.282  1.00  0.00     0.045 A 
ATOM     15  C   UNL     1      44.793 131.667  20.312  1.00  0.00     0.001 A 
ATOM     16  C   UNL     1      45.172 131.224  17.975  1.00  0.00     0.011 A 
ATOM     17  C   UNL     1      45.275 130.836  19.307  1.00  0.00     0.001 A 
ATOM     18  C   UNL     1      43.075 136.350  16.498  1.00  0.00     0.045 C 
BRANCH  14  19
ATOM     19  N   UNL     1      45.020 132.020  15.230  1.00  0.00    -0.368 N 
ATOM     20  C   UNL     1      46.420 132.027  14.844  1.00  0.00     0.120 C 
ATOM     21  C   UNL     1      44.288 130.870  14.710  1.00  0.00     0.082 C 
ATOM     22  C   UNL     1      46.538 130.939  13.781  1.00  0.00     0.010 C 
ATOM     23  C   UNL     1      45.362 129.971  14.060  1.00  0.00     0.013 C 
ATOM     24  C   UNL     1      43.243 131.337  13.692  1.00  0.00     0.031 C 
ATOM     25  C   UNL     1      47.936 130.308  13.725  1.00  0.00     0.010 C 
ATOM     26  C   UNL     1      45.727 128.811  15.006  1.00  0.00     0.010 C 
ENDBRANCH  14  19
ENDBRANCH   7   8
ENDBRANCH   1   7
TORSDOF 5
ENDMDL
MODEL 9
REMARK VINA RESULT:      -6.9      1.008      1.787
REMARK SMILES C#CC[N+](C)(C)Cc1c(C)cc(N2C[C@@H](C)[C@@H](C)[C@@H]2C)c2ccccc12
REMARK SMILES IDX 4 1 5 2 6 3 3 4 2 5 1 6 7 7 8 8 9 9 26 10 11 11 25 12 21 13
REMARK SMILES IDX 12 14 24 15 22 16 23 17 10 18 13 19 14 20 19 21 15 22 17 23
REMARK SMILES IDX 20 24 16 25 18 26
REMARK H PARENT
ROOT
ATOM      1  N   UNL     1      45.670 130.795  15.331  1.00  0.00    -0.315 N 
ATOM      2  C   UNL     1      46.095 132.208  15.178  1.00  0.00     0.335 C 
ATOM      3  C   UNL     1      46.740 130.079  16.072  1.00  0.00     0.335 C 
ENDROOT
BRANCH   1   4
ATOM      4  C   UNL     1      45.552 130.222  13.953  1.00  0.00     0.355 C 
BRANCH   4   5
ATOM      5  C   UNL     1      46.675 130.580  13.063  1.00  0.00    -0.047 C 
ATOM      6  C   UNL     1      47.592 130.871  12.337  1.00  0.00     0.010 C 
ENDBRANCH   4   5
ENDBRANCH   1   4
BRANCH   1   7
ATOM      7  C   UNL     1      44.336 130.724  16.025  1.00  0.00     0.302 C 
BRANCH   7   8
ATOM      8  C   UNL     1      43.725 132.082  16.429  1.00  0.00     0.017 A 
ATOM      9  C   UNL     1      42.891 132.792  15.515  1.00  0.00    -0.040 A 
ATOM     10  C   UNL     1      43.978 132.671  17.711  1.00  0.00    -0.007 A 
ATOM     11  C   UNL     1      42.533 134.118  15.783  1.00  0.00     0.030 A 
ATOM     12  C   UNL     1      44.581 131.952  18.772  1.00  0.00     0.009 A 
ATOM     13  C   UNL     1      43.593 134.023  17.956  1.00  0.00     0.006 A 
ATOM     14  C   UNL     1      42.904 134.745  16.967  1.00  0.00     0.045 A 
ATOM     15  C   UNL     1      44.852 132.563  19.996  1.00  0.00     0.001 A 
ATOM     16  C   UNL     1      43.881 134.618  19.202  1.00  0.00     0.011 A 
ATOM     17  C   UNL     1      44.513 133.893  20.208  1.00  0.00     0.001 A 
ATOM     18  C   UNL     1      42.331 132.164  14.259  1.00  0.00     0.045 C 
BRANCH  14  19
ATOM     19  N   UNL     1      42.534 136.117  17.170  1.00  0.00    -0.368 N 
ATOM     20  C   UNL     1      41.626 136.520  18.230  1.00  0.00     0.120 C 
ATOM     21  C   UNL     1      43.273 137.235  16.593  1.00  0.00     0.082 C 
ATOM     22  C   UNL     1      41.587 138.044  18.153  1.00  0.00     0.010 C 
ATOM     23  C   UNL     1      42.921 138.450  17.479  1.00  0.00     0.013 C 
ATOM     24  C   UNL     1      42.844 137.447  15.139  1.00  0.00     0.031 C 
ATOM     25  C   UNL     1      41.284 138.703  19.506  1.00  0.00     0.010 C 
ATOM     26  C   UNL     1      44.059 138.726  18.479  1.00  0.00     0.010 C 
ENDBRANCH  14  19
ENDBRANCH   7   8
ENDBRANCH   1   7
TORSDOF 5
ENDMDL


