REMARK SMILES C=C(C)/C(O)=[N+]1/C[C@@H]2CC[C@H](Oc3ccc4c5c(ccc(N=[N+]=[N-])c35)CC4)[C@@H]2C1
REMARK SMILES IDX 12 1 11 2 6 3 29 4 7 5 28 6 8 7 9 8 10 9 4 10 5 11 2 13 1 14
REMARK SMILES IDX 3 15 13 16 14 17 25 18 15 19 21 20 17 21 16 22 20 23 18 24
REMARK SMILES IDX 27 25 19 26 26 27 22 28 23 29 24 30
REMARK H PARENT 5 12
ROOT
ATOM      1  O   UNL     1       0.641  -0.391  -0.749  1.00  0.00    -0.489 OA
ENDROOT
BRANCH   1   2
ATOM      2  C   UNL     1       0.403  -0.224  -2.153  1.00  0.00     0.183 C 
ATOM      3  N   UNL     1      -2.640   0.216  -0.654  1.00  0.00    -0.198 N 
ATOM      4  C   UNL     1      -1.690   1.081  -1.346  1.00  0.00     0.362 C 
ATOM      5  C   UNL     1      -2.695  -1.125  -1.224  1.00  0.00     0.358 C 
ATOM      6  C   UNL     1      -1.043   0.212  -2.428  1.00  0.00     0.105 C 
ATOM      7  C   UNL     1      -1.856  -1.075  -2.508  1.00  0.00     0.068 C 
ATOM      8  C   UNL     1      -0.852  -2.227  -2.670  1.00  0.00     0.014 C 
ATOM      9  C   UNL     1       0.512  -1.573  -2.851  1.00  0.00     0.046 C 
BRANCH   3  10
ATOM     10  C   UNL     1      -3.443   0.605   0.305  1.00  0.00     0.362 C 
BRANCH  10  11
ATOM     11  O   UNL     1      -4.383  -0.289   0.821  1.00  0.00    -0.460 OA
ATOM     12  H   UNL     1      -5.013  -0.021   1.568  1.00  0.00     0.300 HD
ENDBRANCH  10  11
BRANCH  10  13
ATOM     13  C   UNL     1      -3.409   1.983   0.851  1.00  0.00     0.053 C 
ATOM     14  C   UNL     1      -4.501   2.747   0.774  1.00  0.00     0.023 C 
ATOM     15  C   UNL     1      -2.181   2.510   1.536  1.00  0.00     0.055 C 
ENDBRANCH  10  13
ENDBRANCH   3  10
ENDBRANCH   1   2
BRANCH   1  16
ATOM     16  C   UNL     1       1.903  -0.551  -0.149  1.00  0.00     0.128 A 
ATOM     17  C   UNL     1       3.108  -0.450  -0.907  1.00  0.00     0.047 A 
ATOM     18  C   UNL     1       1.992  -0.808   1.246  1.00  0.00     0.034 A 
ATOM     19  C   UNL     1       4.368  -0.572  -0.290  1.00  0.00     0.008 A 
ATOM     20  C   UNL     1       0.891  -0.984   2.129  1.00  0.00     0.049 A 
ATOM     21  C   UNL     1       3.271  -0.908   1.798  1.00  0.00    -0.008 A 
ATOM     22  C   UNL     1       4.419  -0.796   1.082  1.00  0.00    -0.039 A 
ATOM     23  C   UNL     1       1.144  -1.230   3.510  1.00  0.00     0.011 A 
ATOM     24  C   UNL     1       3.516  -1.147   3.113  1.00  0.00    -0.039 A 
ATOM     25  C   UNL     1       5.612  -0.966   1.969  1.00  0.00     0.041 C 
ATOM     26  C   UNL     1       2.459  -1.310   4.005  1.00  0.00     0.005 A 
ATOM     27  C   UNL     1       4.989  -1.205   3.372  1.00  0.00     0.041 C 
BRANCH  20  28
ATOM     28  N   UNL     1      -0.453  -0.942   1.629  1.00  0.00    -0.060 NA
BRANCH  28  29
ATOM     29  N   UNL     1      -1.431  -1.137   2.353  1.00  0.00     0.005 N 
ATOM     30  N   UNL     1      -2.407  -1.331   3.075  1.00  0.00    -0.003 NA
ENDBRANCH  28  29
ENDBRANCH  20  28
ENDBRANCH   1  16
TORSDOF 7


