REMARK SMILES Cc1nnn(Cc2nc3cc4ccccc4cc3[n-]2)c1-c1nnc([C@@H]2C[C@@H]2C)o1
REMARK SMILES IDX 1 1 2 2 3 3 4 4 5 5 20 6 21 7 22 8 29 9 23 10 24 11 25 12
REMARK SMILES IDX 26 13 27 14 28 15 6 16 7 17 8 18 19 19 9 20 18 21 10 22
REMARK SMILES IDX 17 23 11 24 16 25 12 26 15 27 13 28 14 29
REMARK H PARENT
ROOT
ATOM      1  C   UNL     1       2.025  -1.249   5.323  1.00  0.00     0.071 C 
ATOM      2  C   UNL     1       0.641  -1.327   4.764  1.00  0.00     0.093 A 
ATOM      3  N   UNL     1      -0.461  -0.901   5.412  1.00  0.00    -0.135 NA
ATOM      4  N   UNL     1      -1.492  -1.128   4.610  1.00  0.00    -0.066 NA
ATOM      5  N   UNL     1      -1.089  -1.684   3.478  1.00  0.00    -0.236 N 
ATOM      6  C   UNL     1       0.252  -1.823   3.533  1.00  0.00     0.149 A 
ENDROOT
BRANCH   6   7
ATOM      7  C   UNL     1       1.118  -2.374   2.472  1.00  0.00     0.267 A 
ATOM      8  N   UNL     1       2.406  -2.731   2.647  1.00  0.00    -0.106 NA
ATOM      9  O   UNL     1       0.739  -2.571   1.232  1.00  0.00    -0.419 OA
ATOM     10  N   UNL     1       2.839  -3.165   1.472  1.00  0.00    -0.112 NA
ATOM     11  C   UNL     1       1.798  -3.047   0.623  1.00  0.00     0.220 A 
BRANCH  11  12
ATOM     12  C   UNL     1       1.829  -3.423  -0.829  1.00  0.00     0.081 C 
ATOM     13  C   UNL     1       3.132  -3.131  -1.565  1.00  0.00     0.017 C 
ATOM     14  C   UNL     1       1.904  -2.270  -1.832  1.00  0.00    -0.001 C 
ATOM     15  C   UNL     1       2.017  -0.831  -1.308  1.00  0.00     0.008 C 
ENDBRANCH  11  12
ENDBRANCH   6   7
BRANCH   5  16
ATOM     16  C   UNL     1      -2.000  -2.069   2.399  1.00  0.00     0.173 C 
BRANCH  16  17
ATOM     17  C   UNL     1      -1.929  -1.084   1.275  1.00  0.00    -0.060 A 
ATOM     18  N   UNL     1      -1.982   0.262   1.467  1.00  0.00    -0.438 NA
ATOM     19  N   UNL     1      -1.828  -1.467  -0.025  1.00  0.00    -0.438 NA
ATOM     20  C   UNL     1      -1.895   0.735   0.215  1.00  0.00    -0.038 A 
ATOM     21  C   UNL     1      -1.807  -0.293  -0.671  1.00  0.00    -0.038 A 
ATOM     22  C   UNL     1      -1.860   2.067  -0.187  1.00  0.00     0.012 A 
ATOM     23  C   UNL     1      -1.677  -0.082  -2.042  1.00  0.00     0.012 A 
ATOM     24  C   UNL     1      -1.719   2.335  -1.565  1.00  0.00    -0.018 A 
ATOM     25  C   UNL     1      -1.629   1.254  -2.499  1.00  0.00    -0.018 A 
ATOM     26  C   UNL     1      -1.654   3.654  -2.033  1.00  0.00     0.009 A 
ATOM     27  C   UNL     1      -1.482   1.532  -3.866  1.00  0.00     0.009 A 
ATOM     28  C   UNL     1      -1.501   3.910  -3.398  1.00  0.00     0.001 A 
ATOM     29  C   UNL     1      -1.418   2.855  -4.310  1.00  0.00     0.001 A 
ENDBRANCH  16  17
ENDBRANCH   5  16
TORSDOF 4


