MODEL 1
REMARK VINA RESULT:      -6.2      0.000      0.000
REMARK SMILES CC[C@H]1C[C@@]1([NH3+])C(=O)Oc1c(C(=O)N=[N+]=[N-])cccc(O)c(NC2(CF)COC2)c(N=[N+]=[N-])c(Cl)c1Cl
REMARK SMILES IDX 20 1 19 2 18 3 17 4 11 5 10 6 36 7 37 8 34 9 35 10 30 11
REMARK SMILES IDX 22 12 21 13 23 15 24 17 27 18 29 19 28 20 25 21 26 22 31 23
REMARK SMILES IDX 32 24 33 25 12 26 13 27 14 28 15 29 16 30 9 31 7 32 8 33
REMARK SMILES IDX 5 34 4 35 3 36 6 37 2 41 1 42
REMARK H PARENT 21 14 23 16 6 38 6 39 6 40
ROOT
ATOM      1  C   UNL     1      41.770 134.568  19.985  1.00  0.00     0.139 A 
ATOM      2  C   UNL     1      43.074 134.837  20.451  1.00  0.00     0.048 A 
ATOM      3  C   UNL     1      44.238 134.906  19.663  1.00  0.00     0.005 A 
ATOM      4  C   UNL     1      44.388 134.306  18.405  1.00  0.00     0.016 A 
ATOM      5  C   UNL     1      43.691 133.151  18.009  1.00  0.00     0.069 A 
ATOM      6  C   UNL     1      43.135 133.052  16.711  1.00  0.00     0.162 A 
ATOM      7  C   UNL     1      42.690 134.165  15.960  1.00  0.00     0.103 A 
ATOM      8  Cl  UNL     1      42.580 133.925  14.217  1.00  0.00    -0.079 Cl
ATOM      9  C   UNL     1      42.353 135.447  16.475  1.00  0.00     0.075 A 
ATOM     10  Cl  UNL     1      42.459 136.827  15.382  1.00  0.00    -0.082 Cl
ATOM     11  C   UNL     1      41.959 135.721  17.801  1.00  0.00     0.085 A 
ATOM     12  C   UNL     1      41.363 134.743  18.638  1.00  0.00     0.088 A 
ENDROOT
BRANCH   1  13
ATOM     13  O   UNL     1      40.847 134.108  20.923  1.00  0.00    -0.506 OA
ATOM     14  H   UNL     1      41.053 134.067  21.913  1.00  0.00     0.293 HD
ENDBRANCH   1  13
BRANCH  12  15
ATOM     15  N   UNL     1      40.295 133.918  18.132  1.00  0.00    -0.369 N 
ATOM     16  H   UNL     1      40.407 132.881  18.214  1.00  0.00     0.161 HD
BRANCH  15  17
ATOM     17  C   UNL     1      38.979 134.417  17.700  1.00  0.00     0.113 C 
ATOM     18  C   UNL     1      38.364 135.492  18.586  1.00  0.00     0.193 C 
ATOM     19  C   UNL     1      37.840 133.574  18.246  1.00  0.00     0.193 C 
ATOM     20  O   UNL     1      37.332 134.638  19.022  1.00  0.00    -0.376 OA
BRANCH  17  21
ATOM     21  C   UNL     1      38.879 134.682  16.189  1.00  0.00     0.247 C 
ATOM     22  F   UNL     1      38.228 133.632  15.559  1.00  0.00    -0.248 F 
ENDBRANCH  17  21
ENDBRANCH  15  17
ENDBRANCH  12  15
BRANCH  11  23
ATOM     23  N   UNL     1      42.196 137.054  18.300  1.00  0.00    -0.057 NA
BRANCH  23  24
ATOM     24  N   UNL     1      41.294 137.880  18.447  1.00  0.00     0.005 N 
ATOM     25  N   UNL     1      40.393 138.702  18.599  1.00  0.00    -0.003 NA
ENDBRANCH  23  24
ENDBRANCH  11  23
BRANCH   5  26
ATOM     26  C   UNL     1      43.514 132.020  18.963  1.00  0.00     0.252 C 
ATOM     27  O   UNL     1      42.351 131.638  19.251  1.00  0.00    -0.287 OA
BRANCH  26  28
ATOM     28  N   UNL     1      44.622 131.337  19.559  1.00  0.00    -0.017 NA
BRANCH  28  29
ATOM     29  N   UNL     1      45.090 131.676  20.646  1.00  0.00     0.009 N 
ATOM     30  N   UNL     1      45.556 132.012  21.733  1.00  0.00    -0.003 NA
ENDBRANCH  28  29
ENDBRANCH  26  28
ENDBRANCH   5  26
BRANCH   6  31
ATOM     31  O   UNL     1      42.975 131.784  16.123  1.00  0.00    -0.419 OA
BRANCH  31  32
ATOM     32  C   UNL     1      43.854 131.238  15.181  1.00  0.00     0.373 C 
ATOM     33  O   UNL     1      43.504 131.096  13.975  1.00  0.00    -0.244 OA
BRANCH  32  34
ATOM     34  C   UNL     1      45.245 130.857  15.598  1.00  0.00     0.196 C 
ATOM     35  C   UNL     1      46.342 131.872  15.272  1.00  0.00     0.092 C 
ATOM     36  C   UNL     1      46.322 130.514  14.562  1.00  0.00     0.069 C 
BRANCH  34  37
ATOM     37  N   UNL     1      45.379 130.207  16.906  1.00  0.00    -0.343 N 
ATOM     38  H   UNL     1      46.143 130.679  17.441  1.00  0.00     0.345 HD
ATOM     39  H   UNL     1      44.497 130.260  17.466  1.00  0.00     0.345 HD
ATOM     40  H   UNL     1      45.629 129.200  16.766  1.00  0.00     0.345 HD
ENDBRANCH  34  37
BRANCH  36  41
ATOM     41  C   UNL     1      45.973 130.601  13.066  1.00  0.00     0.007 C 
ATOM     42  C   UNL     1      47.245 130.618  12.226  1.00  0.00     0.004 C 
ENDBRANCH  36  41
ENDBRANCH  32  34
ENDBRANCH  31  32
ENDBRANCH   6  31
TORSDOF 14
ENDMDL
MODEL 2
REMARK VINA RESULT:      -6.1      1.094      1.240
REMARK SMILES CC[C@H]1C[C@@]1([NH3+])C(=O)Oc1c(C(=O)N=[N+]=[N-])cccc(O)c(NC2(CF)COC2)c(N=[N+]=[N-])c(Cl)c1Cl
REMARK SMILES IDX 20 1 19 2 18 3 17 4 11 5 10 6 36 7 37 8 34 9 35 10 30 11
REMARK SMILES IDX 22 12 21 13 23 15 24 17 27 18 29 19 28 20 25 21 26 22 31 23
REMARK SMILES IDX 32 24 33 25 12 26 13 27 14 28 15 29 16 30 9 31 7 32 8 33
REMARK SMILES IDX 5 34 4 35 3 36 6 37 2 41 1 42
REMARK H PARENT 21 14 23 16 6 38 6 39 6 40
ROOT
ATOM      1  C   UNL     1      41.450 134.548  20.333  1.00  0.00     0.139 A 
ATOM      2  C   UNL     1      42.668 134.853  20.974  1.00  0.00     0.048 A 
ATOM      3  C   UNL     1      43.902 135.090  20.339  1.00  0.00     0.005 A 
ATOM      4  C   UNL     1      44.237 134.646  19.053  1.00  0.00     0.016 A 
ATOM      5  C   UNL     1      43.684 133.496  18.461  1.00  0.00     0.069 A 
ATOM      6  C   UNL     1      43.283 133.505  17.103  1.00  0.00     0.162 A 
ATOM      7  C   UNL     1      42.833 134.661  16.424  1.00  0.00     0.103 A 
ATOM      8  Cl  UNL     1      42.934 134.609  14.664  1.00  0.00    -0.079 Cl
ATOM      9  C   UNL     1      42.338 135.850  17.024  1.00  0.00     0.075 A 
ATOM     10  Cl  UNL     1      42.449 137.348  16.099  1.00  0.00    -0.082 Cl
ATOM     11  C   UNL     1      41.781 135.948  18.317  1.00  0.00     0.085 A 
ATOM     12  C   UNL     1      41.179 134.843  18.973  1.00  0.00     0.088 A 
ENDROOT
BRANCH   1  13
ATOM     13  O   UNL     1      40.471 133.923  21.104  1.00  0.00    -0.506 OA
ATOM     14  H   UNL     1      40.302 134.168  22.071  1.00  0.00     0.293 HD
ENDBRANCH   1  13
BRANCH  12  15
ATOM     15  N   UNL     1      40.243 134.007  18.263  1.00  0.00    -0.369 N 
ATOM     16  H   UNL     1      40.469 132.988  18.187  1.00  0.00     0.161 HD
BRANCH  15  17
ATOM     17  C   UNL     1      38.905 134.431  17.818  1.00  0.00     0.113 C 
ATOM     18  C   UNL     1      38.203 135.435  18.724  1.00  0.00     0.193 C 
ATOM     19  C   UNL     1      37.816 133.498  18.314  1.00  0.00     0.193 C 
ATOM     20  O   UNL     1      37.223 134.501  19.111  1.00  0.00    -0.376 OA
BRANCH  17  21
ATOM     21  C   UNL     1      38.817 134.738  16.315  1.00  0.00     0.247 C 
ATOM     22  F   UNL     1      38.391 133.616  15.620  1.00  0.00    -0.248 F 
ENDBRANCH  17  21
ENDBRANCH  15  17
ENDBRANCH  12  15
BRANCH  11  23
ATOM     23  N   UNL     1      41.852 137.229  18.974  1.00  0.00    -0.057 NA
BRANCH  23  24
ATOM     24  N   UNL     1      40.929 137.682  19.652  1.00  0.00     0.005 N 
ATOM     25  N   UNL     1      40.009 138.139  20.327  1.00  0.00    -0.003 NA
ENDBRANCH  23  24
ENDBRANCH  11  23
BRANCH   5  26
ATOM     26  C   UNL     1      43.497 132.257  19.266  1.00  0.00     0.252 C 
ATOM     27  O   UNL     1      42.360 131.720  19.310  1.00  0.00    -0.287 OA
BRANCH  26  28
ATOM     28  N   UNL     1      44.569 131.639  19.986  1.00  0.00    -0.017 NA
BRANCH  28  29
ATOM     29  N   UNL     1      44.641 131.682  21.214  1.00  0.00     0.009 N 
ATOM     30  N   UNL     1      44.709 131.724  22.441  1.00  0.00    -0.003 NA
ENDBRANCH  28  29
ENDBRANCH  26  28
ENDBRANCH   5  26
BRANCH   6  31
ATOM     31  O   UNL     1      43.292 132.302  16.373  1.00  0.00    -0.419 OA
BRANCH  31  32
ATOM     32  C   UNL     1      44.441 131.732  15.812  1.00  0.00     0.373 C 
ATOM     33  O   UNL     1      45.548 131.777  16.420  1.00  0.00    -0.244 OA
BRANCH  32  34
ATOM     34  C   UNL     1      44.347 131.018  14.494  1.00  0.00     0.196 C 
ATOM     35  C   UNL     1      45.008 129.640  14.433  1.00  0.00     0.092 C 
ATOM     36  C   UNL     1      45.585 130.803  13.616  1.00  0.00     0.069 C 
BRANCH  34  37
ATOM     37  N   UNL     1      43.065 131.116  13.789  1.00  0.00    -0.343 N 
ATOM     38  H   UNL     1      43.193 130.782  12.807  1.00  0.00     0.345 HD
ATOM     39  H   UNL     1      42.319 130.540  14.243  1.00  0.00     0.345 HD
ATOM     40  H   UNL     1      42.755 132.116  13.775  1.00  0.00     0.345 HD
ENDBRANCH  34  37
BRANCH  36  41
ATOM     41  C   UNL     1      46.952 131.296  14.118  1.00  0.00     0.007 C 
ATOM     42  C   UNL     1      48.021 131.071  13.055  1.00  0.00     0.004 C 
ENDBRANCH  36  41
ENDBRANCH  32  34
ENDBRANCH  31  32
ENDBRANCH   6  31
TORSDOF 14
ENDMDL
MODEL 3
REMARK VINA RESULT:      -6.1      1.341      1.363
REMARK SMILES CC[C@H]1C[C@@]1([NH3+])C(=O)Oc1c(C(=O)N=[N+]=[N-])cccc(O)c(NC2(CF)COC2)c(N=[N+]=[N-])c(Cl)c1Cl
REMARK SMILES IDX 20 1 19 2 18 3 17 4 11 5 10 6 36 7 37 8 34 9 35 10 30 11
REMARK SMILES IDX 22 12 21 13 23 15 24 17 27 18 29 19 28 20 25 21 26 22 31 23
REMARK SMILES IDX 32 24 33 25 12 26 13 27 14 28 15 29 16 30 9 31 7 32 8 33
REMARK SMILES IDX 5 34 4 35 3 36 6 37 2 41 1 42
REMARK H PARENT 21 14 23 16 6 38 6 39 6 40
ROOT
ATOM      1  C   UNL     1      41.785 135.578  19.460  1.00  0.00     0.139 A 
ATOM      2  C   UNL     1      43.096 136.090  19.537  1.00  0.00     0.048 A 
ATOM      3  C   UNL     1      44.032 136.134  18.487  1.00  0.00     0.005 A 
ATOM      4  C   UNL     1      43.999 135.311  17.353  1.00  0.00     0.016 A 
ATOM      5  C   UNL     1      43.431 134.024  17.345  1.00  0.00     0.069 A 
ATOM      6  C   UNL     1      42.628 133.595  16.261  1.00  0.00     0.162 A 
ATOM      7  C   UNL     1      41.853 134.470  15.463  1.00  0.00     0.103 A 
ATOM      8  Cl  UNL     1      41.405 133.865  13.868  1.00  0.00    -0.079 Cl
ATOM      9  C   UNL     1      41.431 135.780  15.818  1.00  0.00     0.075 A 
ATOM     10  Cl  UNL     1      41.067 136.909  14.512  1.00  0.00    -0.082 Cl
ATOM     11  C   UNL     1      41.299 136.273  17.133  1.00  0.00     0.085 A 
ATOM     12  C   UNL     1      41.068 135.423  18.246  1.00  0.00     0.088 A 
ENDROOT
BRANCH   1  13
ATOM     13  O   UNL     1      41.178 135.214  20.661  1.00  0.00    -0.506 OA
ATOM     14  H   UNL     1      40.277 135.576  20.947  1.00  0.00     0.293 HD
ENDBRANCH   1  13
BRANCH  12  15
ATOM     15  N   UNL     1      40.066 134.391  18.168  1.00  0.00    -0.369 N 
ATOM     16  H   UNL     1      40.376 133.405  18.331  1.00  0.00     0.161 HD
BRANCH  15  17
ATOM     17  C   UNL     1      38.616 134.631  18.083  1.00  0.00     0.113 C 
ATOM     18  C   UNL     1      38.124 135.906  18.756  1.00  0.00     0.193 C 
ATOM     19  C   UNL     1      37.857 133.959  19.213  1.00  0.00     0.193 C 
ATOM     20  O   UNL     1      37.434 135.192  19.755  1.00  0.00    -0.376 OA
BRANCH  17  21
ATOM     21  C   UNL     1      38.020 134.358  16.692  1.00  0.00     0.247 C 
ATOM     22  F   UNL     1      36.688 134.743  16.656  1.00  0.00    -0.248 F 
ENDBRANCH  17  21
ENDBRANCH  15  17
ENDBRANCH  12  15
BRANCH  11  23
ATOM     23  N   UNL     1      41.417 137.698  17.322  1.00  0.00    -0.057 NA
BRANCH  23  24
ATOM     24  N   UNL     1      40.579 138.360  17.935  1.00  0.00     0.005 N 
ATOM     25  N   UNL     1      39.742 139.023  18.544  1.00  0.00    -0.003 NA
ENDBRANCH  23  24
ENDBRANCH  11  23
BRANCH   5  26
ATOM     26  C   UNL     1      43.655 133.100  18.492  1.00  0.00     0.252 C 
ATOM     27  O   UNL     1      44.811 132.995  18.978  1.00  0.00    -0.287 OA
BRANCH  26  28
ATOM     28  N   UNL     1      42.598 132.333  19.078  1.00  0.00    -0.017 NA
BRANCH  28  29
ATOM     29  N   UNL     1      42.420 132.291  20.296  1.00  0.00     0.009 N 
ATOM     30  N   UNL     1      42.243 132.252  21.512  1.00  0.00    -0.003 NA
ENDBRANCH  28  29
ENDBRANCH  26  28
ENDBRANCH   5  26
BRANCH   6  31
ATOM     31  O   UNL     1      42.553 132.224  15.957  1.00  0.00    -0.419 OA
BRANCH  31  32
ATOM     32  C   UNL     1      43.468 131.548  15.140  1.00  0.00     0.373 C 
ATOM     33  O   UNL     1      43.208 131.326  13.924  1.00  0.00    -0.244 OA
BRANCH  32  34
ATOM     34  C   UNL     1      44.792 131.122  15.705  1.00  0.00     0.196 C 
ATOM     35  C   UNL     1      45.982 132.022  15.368  1.00  0.00     0.092 C 
ATOM     36  C   UNL     1      45.913 130.600  14.799  1.00  0.00     0.069 C 
BRANCH  34  37
ATOM     37  N   UNL     1      44.781 130.608  17.079  1.00  0.00    -0.343 N 
ATOM     38  H   UNL     1      44.078 129.837  17.145  1.00  0.00     0.345 HD
ATOM     39  H   UNL     1      45.714 130.236  17.369  1.00  0.00     0.345 HD
ATOM     40  H   UNL     1      44.507 131.379  17.732  1.00  0.00     0.345 HD
ENDBRANCH  34  37
BRANCH  36  41
ATOM     41  C   UNL     1      45.683 130.550  13.279  1.00  0.00     0.007 C 
ATOM     42  C   UNL     1      47.016 130.570  12.540  1.00  0.00     0.004 C 
ENDBRANCH  36  41
ENDBRANCH  32  34
ENDBRANCH  31  32
ENDBRANCH   6  31
TORSDOF 14
ENDMDL
MODEL 4
REMARK VINA RESULT:      -6.0      3.536      5.034
REMARK SMILES CC[C@H]1C[C@@]1([NH3+])C(=O)Oc1c(C(=O)N=[N+]=[N-])cccc(O)c(NC2(CF)COC2)c(N=[N+]=[N-])c(Cl)c1Cl
REMARK SMILES IDX 20 1 19 2 18 3 17 4 11 5 10 6 36 7 37 8 34 9 35 10 30 11
REMARK SMILES IDX 22 12 21 13 23 15 24 17 27 18 29 19 28 20 25 21 26 22 31 23
REMARK SMILES IDX 32 24 33 25 12 26 13 27 14 28 15 29 16 30 9 31 7 32 8 33
REMARK SMILES IDX 5 34 4 35 3 36 6 37 2 41 1 42
REMARK H PARENT 21 14 23 16 6 38 6 39 6 40
ROOT
ATOM      1  C   UNL     1      41.770 134.950  18.274  1.00  0.00     0.139 A 
ATOM      2  C   UNL     1      40.674 134.118  17.967  1.00  0.00     0.048 A 
ATOM      3  C   UNL     1      40.643 132.714  18.076  1.00  0.00     0.005 A 
ATOM      4  C   UNL     1      41.775 131.888  18.075  1.00  0.00     0.016 A 
ATOM      5  C   UNL     1      42.980 132.224  17.433  1.00  0.00     0.069 A 
ATOM      6  C   UNL     1      44.225 131.982  18.061  1.00  0.00     0.162 A 
ATOM      7  C   UNL     1      44.410 131.979  19.463  1.00  0.00     0.103 A 
ATOM      8  Cl  UNL     1      45.832 131.117  20.051  1.00  0.00    -0.079 Cl
ATOM      9  C   UNL     1      43.554 132.579  20.426  1.00  0.00     0.075 A 
ATOM     10  Cl  UNL     1      43.584 131.936  22.068  1.00  0.00    -0.082 Cl
ATOM     11  C   UNL     1      42.655 133.638  20.179  1.00  0.00     0.085 A 
ATOM     12  C   UNL     1      42.841 134.565  19.122  1.00  0.00     0.088 A 
ENDROOT
BRANCH   1  13
ATOM     13  O   UNL     1      41.777 136.221  17.701  1.00  0.00    -0.506 OA
ATOM     14  H   UNL     1      41.173 136.966  18.023  1.00  0.00     0.293 HD
ENDBRANCH   1  13
BRANCH  12  15
ATOM     15  N   UNL     1      44.135 135.162  18.906  1.00  0.00    -0.369 N 
ATOM     16  H   UNL     1      44.626 134.939  18.009  1.00  0.00     0.161 HD
BRANCH  15  17
ATOM     17  C   UNL     1      44.725 136.216  19.747  1.00  0.00     0.113 C 
ATOM     18  C   UNL     1      43.744 137.250  20.284  1.00  0.00     0.193 C 
ATOM     19  C   UNL     1      45.229 137.389  18.925  1.00  0.00     0.193 C 
ATOM     20  O   UNL     1      44.292 138.280  19.494  1.00  0.00    -0.376 OA
BRANCH  17  21
ATOM     21  C   UNL     1      45.748 135.697  20.770  1.00  0.00     0.247 C 
ATOM     22  F   UNL     1      45.944 136.636  21.772  1.00  0.00    -0.248 F 
ENDBRANCH  17  21
ENDBRANCH  15  17
ENDBRANCH  12  15
BRANCH  11  23
ATOM     23  N   UNL     1      41.509 133.750  21.047  1.00  0.00    -0.057 NA
BRANCH  23  24
ATOM     24  N   UNL     1      41.366 134.675  21.847  1.00  0.00     0.005 N 
ATOM     25  N   UNL     1      41.225 135.601  22.642  1.00  0.00    -0.003 NA
ENDBRANCH  23  24
ENDBRANCH  11  23
BRANCH   5  26
ATOM     26  C   UNL     1      42.957 132.858  16.084  1.00  0.00     0.252 C 
ATOM     27  O   UNL     1      42.049 132.542  15.274  1.00  0.00    -0.287 OA
BRANCH  26  28
ATOM     28  N   UNL     1      43.926 133.831  15.677  1.00  0.00    -0.017 NA
BRANCH  28  29
ATOM     29  N   UNL     1      43.605 134.970  15.342  1.00  0.00     0.009 N 
ATOM     30  N   UNL     1      43.282 136.109  15.009  1.00  0.00    -0.003 NA
ENDBRANCH  28  29
ENDBRANCH  26  28
ENDBRANCH   5  26
BRANCH   6  31
ATOM     31  O   UNL     1      45.367 131.760  17.269  1.00  0.00    -0.419 OA
BRANCH  31  32
ATOM     32  C   UNL     1      45.814 130.495  16.872  1.00  0.00     0.373 C 
ATOM     33  O   UNL     1      45.585 129.475  17.582  1.00  0.00    -0.244 OA
BRANCH  32  34
ATOM     34  C   UNL     1      46.535 130.340  15.564  1.00  0.00     0.196 C 
ATOM     35  C   UNL     1      46.428 131.521  14.598  1.00  0.00     0.092 C 
ATOM     36  C   UNL     1      45.769 130.182  14.245  1.00  0.00     0.069 C 
BRANCH  34  37
ATOM     37  N   UNL     1      47.859 129.711  15.619  1.00  0.00    -0.343 N 
ATOM     38  H   UNL     1      48.476 130.276  16.245  1.00  0.00     0.345 HD
ATOM     39  H   UNL     1      47.817 128.732  15.986  1.00  0.00     0.345 HD
ATOM     40  H   UNL     1      48.272 129.692  14.657  1.00  0.00     0.345 HD
ENDBRANCH  34  37
BRANCH  36  41
ATOM     41  C   UNL     1      44.231 130.223  14.266  1.00  0.00     0.007 C 
ATOM     42  C   UNL     1      43.703 130.925  13.021  1.00  0.00     0.004 C 
ENDBRANCH  36  41
ENDBRANCH  32  34
ENDBRANCH  31  32
ENDBRANCH   6  31
TORSDOF 14
ENDMDL
MODEL 5
REMARK VINA RESULT:      -5.9      2.783      5.498
REMARK SMILES CC[C@H]1C[C@@]1([NH3+])C(=O)Oc1c(C(=O)N=[N+]=[N-])cccc(O)c(NC2(CF)COC2)c(N=[N+]=[N-])c(Cl)c1Cl
REMARK SMILES IDX 20 1 19 2 18 3 17 4 11 5 10 6 36 7 37 8 34 9 35 10 30 11
REMARK SMILES IDX 22 12 21 13 23 15 24 17 27 18 29 19 28 20 25 21 26 22 31 23
REMARK SMILES IDX 32 24 33 25 12 26 13 27 14 28 15 29 16 30 9 31 7 32 8 33
REMARK SMILES IDX 5 34 4 35 3 36 6 37 2 41 1 42
REMARK H PARENT 21 14 23 16 6 38 6 39 6 40
ROOT
ATOM      1  C   UNL     1      42.675 132.766  18.534  1.00  0.00     0.139 A 
ATOM      2  C   UNL     1      43.784 132.089  17.987  1.00  0.00     0.048 A 
ATOM      3  C   UNL     1      44.713 132.622  17.073  1.00  0.00     0.005 A 
ATOM      4  C   UNL     1      44.468 133.715  16.232  1.00  0.00     0.016 A 
ATOM      5  C   UNL     1      43.187 134.065  15.767  1.00  0.00     0.069 A 
ATOM      6  C   UNL     1      42.774 135.418  15.735  1.00  0.00     0.162 A 
ATOM      7  C   UNL     1      43.250 136.406  16.629  1.00  0.00     0.103 A 
ATOM      8  Cl  UNL     1      43.084 138.077  16.091  1.00  0.00    -0.079 Cl
ATOM      9  C   UNL     1      43.860 136.174  17.892  1.00  0.00     0.075 A 
ATOM     10  Cl  UNL     1      44.934 137.421  18.528  1.00  0.00    -0.082 Cl
ATOM     11  C   UNL     1      43.703 135.015  18.680  1.00  0.00     0.085 A 
ATOM     12  C   UNL     1      42.560 134.179  18.586  1.00  0.00     0.088 A 
ENDROOT
BRANCH   1  13
ATOM     13  O   UNL     1      41.646 131.978  19.049  1.00  0.00    -0.506 OA
ATOM     14  H   UNL     1      40.722 131.955  18.638  1.00  0.00     0.293 HD
ENDBRANCH   1  13
BRANCH  12  15
ATOM     15  N   UNL     1      41.242 134.760  18.572  1.00  0.00    -0.369 N 
ATOM     16  H   UNL     1      40.635 134.560  17.744  1.00  0.00     0.161 HD
BRANCH  15  17
ATOM     17  C   UNL     1      40.610 135.439  19.716  1.00  0.00     0.113 C 
ATOM     18  C   UNL     1      40.924 134.847  21.084  1.00  0.00     0.193 C 
ATOM     19  C   UNL     1      39.220 134.900  20.005  1.00  0.00     0.193 C 
ATOM     20  O   UNL     1      39.602 134.399  21.269  1.00  0.00    -0.376 OA
BRANCH  17  21
ATOM     21  C   UNL     1      40.673 136.973  19.642  1.00  0.00     0.247 C 
ATOM     22  F   UNL     1      39.418 137.517  19.877  1.00  0.00    -0.248 F 
ENDBRANCH  17  21
ENDBRANCH  15  17
ENDBRANCH  12  15
BRANCH  11  23
ATOM     23  N   UNL     1      44.766 134.689  19.598  1.00  0.00    -0.057 NA
BRANCH  23  24
ATOM     24  N   UNL     1      44.616 134.696  20.821  1.00  0.00     0.005 N 
ATOM     25  N   UNL     1      44.469 134.700  22.041  1.00  0.00    -0.003 NA
ENDBRANCH  23  24
ENDBRANCH  11  23
BRANCH   5  26
ATOM     26  C   UNL     1      42.239 133.005  15.320  1.00  0.00     0.252 C 
ATOM     27  O   UNL     1      41.183 132.812  15.976  1.00  0.00    -0.287 OA
BRANCH  26  28
ATOM     28  N   UNL     1      42.476 132.204  14.158  1.00  0.00    -0.017 NA
BRANCH  28  29
ATOM     29  N   UNL     1      43.425 131.423  14.087  1.00  0.00     0.009 N 
ATOM     30  N   UNL     1      44.372 130.642  14.015  1.00  0.00    -0.003 NA
ENDBRANCH  28  29
ENDBRANCH  26  28
ENDBRANCH   5  26
BRANCH   6  31
ATOM     31  O   UNL     1      41.815 135.826  14.790  1.00  0.00    -0.419 OA
BRANCH  31  32
ATOM     32  C   UNL     1      40.511 136.219  15.114  1.00  0.00     0.373 C 
ATOM     33  O   UNL     1      39.999 135.910  16.227  1.00  0.00    -0.244 OA
BRANCH  32  34
ATOM     34  C   UNL     1      39.727 137.057  14.145  1.00  0.00     0.196 C 
ATOM     35  C   UNL     1      38.230 137.182  14.430  1.00  0.00     0.092 C 
ATOM     36  C   UNL     1      38.711 136.425  13.186  1.00  0.00     0.069 C 
BRANCH  34  37
ATOM     37  N   UNL     1      40.369 138.292  13.682  1.00  0.00    -0.343 N 
ATOM     38  H   UNL     1      40.065 138.483  12.700  1.00  0.00     0.345 HD
ATOM     39  H   UNL     1      40.118 139.115  14.276  1.00  0.00     0.345 HD
ATOM     40  H   UNL     1      41.408 138.167  13.701  1.00  0.00     0.345 HD
ENDBRANCH  34  37
BRANCH  36  41
ATOM     41  C   UNL     1      38.467 134.908  13.251  1.00  0.00     0.007 C 
ATOM     42  C   UNL     1      37.213 134.606  14.063  1.00  0.00     0.004 C 
ENDBRANCH  36  41
ENDBRANCH  32  34
ENDBRANCH  31  32
ENDBRANCH   6  31
TORSDOF 14
ENDMDL
MODEL 6
REMARK VINA RESULT:      -5.8      3.064      6.103
REMARK SMILES CC[C@H]1C[C@@]1([NH3+])C(=O)Oc1c(C(=O)N=[N+]=[N-])cccc(O)c(NC2(CF)COC2)c(N=[N+]=[N-])c(Cl)c1Cl
REMARK SMILES IDX 20 1 19 2 18 3 17 4 11 5 10 6 36 7 37 8 34 9 35 10 30 11
REMARK SMILES IDX 22 12 21 13 23 15 24 17 27 18 29 19 28 20 25 21 26 22 31 23
REMARK SMILES IDX 32 24 33 25 12 26 13 27 14 28 15 29 16 30 9 31 7 32 8 33
REMARK SMILES IDX 5 34 4 35 3 36 6 37 2 41 1 42
REMARK H PARENT 21 14 23 16 6 38 6 39 6 40
ROOT
ATOM      1  C   UNL     1      41.026 132.718  17.810  1.00  0.00     0.139 A 
ATOM      2  C   UNL     1      39.769 133.336  17.975  1.00  0.00     0.048 A 
ATOM      3  C   UNL     1      39.545 134.703  18.228  1.00  0.00     0.005 A 
ATOM      4  C   UNL     1      40.488 135.578  18.784  1.00  0.00     0.016 A 
ATOM      5  C   UNL     1      41.515 135.162  19.650  1.00  0.00     0.069 A 
ATOM      6  C   UNL     1      42.828 135.674  19.512  1.00  0.00     0.162 A 
ATOM      7  C   UNL     1      43.378 136.102  18.281  1.00  0.00     0.103 A 
ATOM      8  Cl  UNL     1      44.749 137.206  18.392  1.00  0.00    -0.079 Cl
ATOM      9  C   UNL     1      42.918 135.747  16.984  1.00  0.00     0.075 A 
ATOM     10  Cl  UNL     1      43.283 136.843  15.652  1.00  0.00    -0.082 Cl
ATOM     11  C   UNL     1      42.167 134.595  16.666  1.00  0.00     0.085 A 
ATOM     12  C   UNL     1      42.208 133.416  17.454  1.00  0.00     0.088 A 
ENDROOT
BRANCH   1  13
ATOM     13  O   UNL     1      41.082 131.339  18.010  1.00  0.00    -0.506 OA
ATOM     14  H   UNL     1      41.049 130.677  17.245  1.00  0.00     0.293 HD
ENDBRANCH   1  13
BRANCH  12  15
ATOM     15  N   UNL     1      43.475 132.884  17.888  1.00  0.00    -0.369 N 
ATOM     16  H   UNL     1      43.678 132.898  18.914  1.00  0.00     0.161 HD
BRANCH  15  17
ATOM     17  C   UNL     1      44.413 132.141  17.030  1.00  0.00     0.113 C 
ATOM     18  C   UNL     1      45.163 132.978  16.002  1.00  0.00     0.193 C 
ATOM     19  C   UNL     1      43.732 131.570  15.799  1.00  0.00     0.193 C 
ATOM     20  O   UNL     1      44.489 132.376  14.921  1.00  0.00    -0.376 OA
BRANCH  17  21
ATOM     21  C   UNL     1      45.274 131.118  17.789  1.00  0.00     0.247 C 
ATOM     22  F   UNL     1      46.204 130.545  16.934  1.00  0.00    -0.248 F 
ENDBRANCH  17  21
ENDBRANCH  15  17
ENDBRANCH  12  15
BRANCH  11  23
ATOM     23  N   UNL     1      41.327 134.655  15.495  1.00  0.00    -0.057 NA
BRANCH  23  24
ATOM     24  N   UNL     1      41.250 133.733  14.683  1.00  0.00     0.005 N 
ATOM     25  N   UNL     1      41.174 132.815  13.868  1.00  0.00    -0.003 NA
ENDBRANCH  23  24
ENDBRANCH  11  23
BRANCH   5  26
ATOM     26  C   UNL     1      41.234 134.161  20.717  1.00  0.00     0.252 C 
ATOM     27  O   UNL     1      41.830 133.053  20.690  1.00  0.00    -0.287 OA
BRANCH  26  28
ATOM     28  N   UNL     1      40.318 134.415  21.787  1.00  0.00    -0.017 NA
BRANCH  28  29
ATOM     29  N   UNL     1      40.583 134.130  22.955  1.00  0.00     0.009 N 
ATOM     30  N   UNL     1      40.847 133.848  24.122  1.00  0.00    -0.003 NA
ENDBRANCH  28  29
ENDBRANCH  26  28
ENDBRANCH   5  26
BRANCH   6  31
ATOM     31  O   UNL     1      43.666 135.741  20.640  1.00  0.00    -0.419 OA
BRANCH  31  32
ATOM     32  C   UNL     1      44.681 134.819  20.921  1.00  0.00     0.373 C 
ATOM     33  O   UNL     1      44.951 133.887  20.112  1.00  0.00    -0.244 OA
BRANCH  32  34
ATOM     34  C   UNL     1      45.488 134.966  22.179  1.00  0.00     0.196 C 
ATOM     35  C   UNL     1      45.428 136.337  22.854  1.00  0.00     0.092 C 
ATOM     36  C   UNL     1      46.739 135.852  22.224  1.00  0.00     0.069 C 
BRANCH  34  37
ATOM     37  N   UNL     1      45.472 133.826  23.101  1.00  0.00    -0.343 N 
ATOM     38  H   UNL     1      44.531 133.769  23.552  1.00  0.00     0.345 HD
ATOM     39  H   UNL     1      45.665 132.921  22.614  1.00  0.00     0.345 HD
ATOM     40  H   UNL     1      46.199 133.972  23.841  1.00  0.00     0.345 HD
ENDBRANCH  34  37
BRANCH  36  41
ATOM     41  C   UNL     1      47.146 136.633  20.962  1.00  0.00     0.007 C 
ATOM     42  C   UNL     1      47.830 137.940  21.345  1.00  0.00     0.004 C 
ENDBRANCH  36  41
ENDBRANCH  32  34
ENDBRANCH  31  32
ENDBRANCH   6  31
TORSDOF 14
ENDMDL
MODEL 7
REMARK VINA RESULT:      -5.7      3.204      5.376
REMARK SMILES CC[C@H]1C[C@@]1([NH3+])C(=O)Oc1c(C(=O)N=[N+]=[N-])cccc(O)c(NC2(CF)COC2)c(N=[N+]=[N-])c(Cl)c1Cl
REMARK SMILES IDX 20 1 19 2 18 3 17 4 11 5 10 6 36 7 37 8 34 9 35 10 30 11
REMARK SMILES IDX 22 12 21 13 23 15 24 17 27 18 29 19 28 20 25 21 26 22 31 23
REMARK SMILES IDX 32 24 33 25 12 26 13 27 14 28 15 29 16 30 9 31 7 32 8 33
REMARK SMILES IDX 5 34 4 35 3 36 6 37 2 41 1 42
REMARK H PARENT 21 14 23 16 6 38 6 39 6 40
ROOT
ATOM      1  C   UNL     1      41.816 135.265  14.736  1.00  0.00     0.139 A 
ATOM      2  C   UNL     1      42.009 134.128  13.923  1.00  0.00     0.048 A 
ATOM      3  C   UNL     1      42.085 132.795  14.367  1.00  0.00     0.005 A 
ATOM      4  C   UNL     1      42.421 132.405  15.671  1.00  0.00     0.016 A 
ATOM      5  C   UNL     1      43.238 133.170  16.522  1.00  0.00     0.069 A 
ATOM      6  C   UNL     1      42.907 133.330  17.890  1.00  0.00     0.162 A 
ATOM      7  C   UNL     1      41.582 133.305  18.385  1.00  0.00     0.103 A 
ATOM      8  Cl  UNL     1      41.408 132.946  20.102  1.00  0.00    -0.079 Cl
ATOM      9  C   UNL     1      40.397 133.518  17.629  1.00  0.00     0.075 A 
ATOM     10  Cl  UNL     1      38.895 132.825  18.241  1.00  0.00    -0.082 Cl
ATOM     11  C   UNL     1      40.317 134.220  16.408  1.00  0.00     0.085 A 
ATOM     12  C   UNL     1      41.256 135.217  16.038  1.00  0.00     0.088 A 
ENDROOT
BRANCH   1  13
ATOM     13  O   UNL     1      42.203 136.494  14.204  1.00  0.00    -0.506 OA
ATOM     14  H   UNL     1      41.754 137.363  14.462  1.00  0.00     0.293 HD
ENDBRANCH   1  13
BRANCH  12  15
ATOM     15  N   UNL     1      41.641 136.231  16.987  1.00  0.00    -0.369 N 
ATOM     16  H   UNL     1      42.576 136.132  17.447  1.00  0.00     0.161 HD
BRANCH  15  17
ATOM     17  C   UNL     1      40.918 137.495  17.206  1.00  0.00     0.113 C 
ATOM     18  C   UNL     1      40.011 137.527  18.429  1.00  0.00     0.193 C 
ATOM     19  C   UNL     1      39.600 137.537  16.454  1.00  0.00     0.193 C 
ATOM     20  O   UNL     1      38.842 137.582  17.645  1.00  0.00    -0.376 OA
BRANCH  17  21
ATOM     21  C   UNL     1      41.783 138.750  17.005  1.00  0.00     0.247 C 
ATOM     22  F   UNL     1      43.087 138.504  17.409  1.00  0.00    -0.248 F 
ENDBRANCH  17  21
ENDBRANCH  15  17
ENDBRANCH  12  15
BRANCH  11  23
ATOM     23  N   UNL     1      39.233 133.881  15.519  1.00  0.00    -0.057 NA
BRANCH  23  24
ATOM     24  N   UNL     1      38.136 134.440  15.563  1.00  0.00     0.005 N 
ATOM     25  N   UNL     1      37.041 134.997  15.601  1.00  0.00    -0.003 NA
ENDBRANCH  23  24
ENDBRANCH  11  23
BRANCH   5  26
ATOM     26  C   UNL     1      44.457 133.839  15.987  1.00  0.00     0.252 C 
ATOM     27  O   UNL     1      44.553 135.091  16.064  1.00  0.00    -0.287 OA
BRANCH  26  28
ATOM     28  N   UNL     1      45.539 133.108  15.398  1.00  0.00    -0.017 NA
BRANCH  28  29
ATOM     29  N   UNL     1      45.794 131.948  15.721  1.00  0.00     0.009 N 
ATOM     30  N   UNL     1      46.047 130.790  16.046  1.00  0.00    -0.003 NA
ENDBRANCH  28  29
ENDBRANCH  26  28
ENDBRANCH   5  26
BRANCH   6  31
ATOM     31  O   UNL     1      43.932 133.559  18.826  1.00  0.00    -0.419 OA
BRANCH  31  32
ATOM     32  C   UNL     1      44.674 132.544  19.442  1.00  0.00     0.373 C 
ATOM     33  O   UNL     1      44.863 131.438  18.862  1.00  0.00    -0.244 OA
BRANCH  32  34
ATOM     34  C   UNL     1      45.292 132.791  20.789  1.00  0.00     0.196 C 
ATOM     35  C   UNL     1      46.223 131.693  21.306  1.00  0.00     0.092 C 
ATOM     36  C   UNL     1      44.889 131.961  22.013  1.00  0.00     0.069 C 
BRANCH  34  37
ATOM     37  N   UNL     1      45.746 134.159  21.058  1.00  0.00    -0.343 N 
ATOM     38  H   UNL     1      45.355 134.470  21.976  1.00  0.00     0.345 HD
ATOM     39  H   UNL     1      46.789 134.229  21.098  1.00  0.00     0.345 HD
ATOM     40  H   UNL     1      45.395 134.793  20.302  1.00  0.00     0.345 HD
ENDBRANCH  34  37
BRANCH  36  41
ATOM     41  C   UNL     1      43.860 130.830  21.843  1.00  0.00     0.007 C 
ATOM     42  C   UNL     1      42.739 130.976  22.865  1.00  0.00     0.004 C 
ENDBRANCH  36  41
ENDBRANCH  32  34
ENDBRANCH  31  32
ENDBRANCH   6  31
TORSDOF 14
ENDMDL
MODEL 8
REMARK VINA RESULT:      -5.6      3.135      5.131
REMARK SMILES CC[C@H]1C[C@@]1([NH3+])C(=O)Oc1c(C(=O)N=[N+]=[N-])cccc(O)c(NC2(CF)COC2)c(N=[N+]=[N-])c(Cl)c1Cl
REMARK SMILES IDX 20 1 19 2 18 3 17 4 11 5 10 6 36 7 37 8 34 9 35 10 30 11
REMARK SMILES IDX 22 12 21 13 23 15 24 17 27 18 29 19 28 20 25 21 26 22 31 23
REMARK SMILES IDX 32 24 33 25 12 26 13 27 14 28 15 29 16 30 9 31 7 32 8 33
REMARK SMILES IDX 5 34 4 35 3 36 6 37 2 41 1 42
REMARK H PARENT 21 14 23 16 6 38 6 39 6 40
ROOT
ATOM      1  C   UNL     1      41.813 134.658  19.227  1.00  0.00     0.139 A 
ATOM      2  C   UNL     1      40.632 133.908  19.054  1.00  0.00     0.048 A 
ATOM      3  C   UNL     1      40.557 132.526  18.797  1.00  0.00     0.005 A 
ATOM      4  C   UNL     1      41.592 131.760  18.244  1.00  0.00     0.016 A 
ATOM      5  C   UNL     1      42.572 132.286  17.383  1.00  0.00     0.069 A 
ATOM      6  C   UNL     1      43.932 131.919  17.527  1.00  0.00     0.162 A 
ATOM      7  C   UNL     1      44.520 131.549  18.759  1.00  0.00     0.103 A 
ATOM      8  Cl  UNL     1      46.002 130.600  18.652  1.00  0.00    -0.079 Cl
ATOM      9  C   UNL     1      44.018 131.849  20.055  1.00  0.00     0.075 A 
ATOM     10  Cl  UNL     1      44.493 130.794  21.387  1.00  0.00    -0.082 Cl
ATOM     11  C   UNL     1      43.145 132.911  20.372  1.00  0.00     0.085 A 
ATOM     12  C   UNL     1      43.063 134.090  19.587  1.00  0.00     0.088 A 
ENDROOT
BRANCH   1  13
ATOM     13  O   UNL     1      41.721 136.035  19.031  1.00  0.00    -0.506 OA
ATOM     14  H   UNL     1      40.874 136.482  18.703  1.00  0.00     0.293 HD
ENDBRANCH   1  13
BRANCH  12  15
ATOM     15  N   UNL     1      44.267 134.757  19.160  1.00  0.00    -0.369 N 
ATOM     16  H   UNL     1      44.628 134.535  18.204  1.00  0.00     0.161 HD
BRANCH  15  17
ATOM     17  C   UNL     1      44.910 135.871  19.877  1.00  0.00     0.113 C 
ATOM     18  C   UNL     1      46.129 135.497  20.709  1.00  0.00     0.193 C 
ATOM     19  C   UNL     1      44.282 136.113  21.238  1.00  0.00     0.193 C 
ATOM     20  O   UNL     1      45.467 135.765  21.923  1.00  0.00    -0.376 OA
BRANCH  17  21
ATOM     21  C   UNL     1      45.064 137.147  19.034  1.00  0.00     0.247 C 
ATOM     22  F   UNL     1      45.031 136.836  17.682  1.00  0.00    -0.248 F 
ENDBRANCH  17  21
ENDBRANCH  15  17
ENDBRANCH  12  15
BRANCH  11  23
ATOM     23  N   UNL     1      42.311 132.758  21.539  1.00  0.00    -0.057 NA
BRANCH  23  24
ATOM     24  N   UNL     1      42.250 131.709  22.181  1.00  0.00     0.005 N 
ATOM     25  N   UNL     1      42.193 130.662  22.823  1.00  0.00    -0.003 NA
ENDBRANCH  23  24
ENDBRANCH  11  23
BRANCH   5  26
ATOM     26  C   UNL     1      42.190 133.255  16.318  1.00  0.00     0.252 C 
ATOM     27  O   UNL     1      41.270 132.951  15.515  1.00  0.00    -0.287 OA
BRANCH  26  28
ATOM     28  N   UNL     1      42.821 134.532  16.179  1.00  0.00    -0.017 NA
BRANCH  28  29
ATOM     29  N   UNL     1      42.289 135.459  15.568  1.00  0.00     0.009 N 
ATOM     30  N   UNL     1      41.761 136.386  14.956  1.00  0.00    -0.003 NA
ENDBRANCH  28  29
ENDBRANCH  26  28
ENDBRANCH   5  26
BRANCH   6  31
ATOM     31  O   UNL     1      44.777 131.946  16.403  1.00  0.00    -0.419 OA
BRANCH  31  32
ATOM     32  C   UNL     1      44.655 131.082  15.308  1.00  0.00     0.373 C 
ATOM     33  O   UNL     1      43.818 131.314  14.390  1.00  0.00    -0.244 OA
BRANCH  32  34
ATOM     34  C   UNL     1      45.561 129.889  15.200  1.00  0.00     0.196 C 
ATOM     35  C   UNL     1      47.059 130.176  15.320  1.00  0.00     0.092 C 
ATOM     36  C   UNL     1      46.477 129.692  13.986  1.00  0.00     0.069 C 
BRANCH  34  37
ATOM     37  N   UNL     1      45.114 128.667  15.876  1.00  0.00    -0.343 N 
ATOM     38  H   UNL     1      44.120 128.480  15.612  1.00  0.00     0.345 HD
ATOM     39  H   UNL     1      45.692 127.836  15.613  1.00  0.00     0.345 HD
ATOM     40  H   UNL     1      45.175 128.805  16.912  1.00  0.00     0.345 HD
ENDBRANCH  34  37
BRANCH  36  41
ATOM     41  C   UNL     1      46.491 130.760  12.879  1.00  0.00     0.007 C 
ATOM     42  C   UNL     1      47.589 130.460  11.866  1.00  0.00     0.004 C 
ENDBRANCH  36  41
ENDBRANCH  32  34
ENDBRANCH  31  32
ENDBRANCH   6  31
TORSDOF 14
ENDMDL
MODEL 9
REMARK VINA RESULT:      -5.6      1.277      1.537
REMARK SMILES CC[C@H]1C[C@@]1([NH3+])C(=O)Oc1c(C(=O)N=[N+]=[N-])cccc(O)c(NC2(CF)COC2)c(N=[N+]=[N-])c(Cl)c1Cl
REMARK SMILES IDX 20 1 19 2 18 3 17 4 11 5 10 6 36 7 37 8 34 9 35 10 30 11
REMARK SMILES IDX 22 12 21 13 23 15 24 17 27 18 29 19 28 20 25 21 26 22 31 23
REMARK SMILES IDX 32 24 33 25 12 26 13 27 14 28 15 29 16 30 9 31 7 32 8 33
REMARK SMILES IDX 5 34 4 35 3 36 6 37 2 41 1 42
REMARK H PARENT 21 14 23 16 6 38 6 39 6 40
ROOT
ATOM      1  C   UNL     1      41.240 135.136  19.499  1.00  0.00     0.139 A 
ATOM      2  C   UNL     1      42.521 135.632  19.820  1.00  0.00     0.048 A 
ATOM      3  C   UNL     1      43.606 135.761  18.933  1.00  0.00     0.005 A 
ATOM      4  C   UNL     1      43.753 135.039  17.741  1.00  0.00     0.016 A 
ATOM      5  C   UNL     1      43.203 133.761  17.535  1.00  0.00     0.069 A 
ATOM      6  C   UNL     1      42.579 133.432  16.308  1.00  0.00     0.162 A 
ATOM      7  C   UNL     1      41.929 134.376  15.480  1.00  0.00     0.103 A 
ATOM      8  Cl  UNL     1      41.735 133.914  13.789  1.00  0.00    -0.079 Cl
ATOM      9  C   UNL     1      41.447 135.653  15.876  1.00  0.00     0.075 A 
ATOM     10  Cl  UNL     1      41.278 136.893  14.633  1.00  0.00    -0.082 Cl
ATOM     11  C   UNL     1      41.111 136.031  17.193  1.00  0.00     0.085 A 
ATOM     12  C   UNL     1      40.720 135.090  18.180  1.00  0.00     0.088 A 
ENDROOT
BRANCH   1  13
ATOM     13  O   UNL     1      40.459 134.673  20.557  1.00  0.00    -0.506 OA
ATOM     14  H   UNL     1      40.184 133.703  20.645  1.00  0.00     0.293 HD
ENDBRANCH   1  13
BRANCH  12  15
ATOM     15  N   UNL     1      39.749 134.074  17.862  1.00  0.00    -0.369 N 
ATOM     16  H   UNL     1      40.080 133.081  17.838  1.00  0.00     0.161 HD
BRANCH  15  17
ATOM     17  C   UNL     1      38.297 134.297  17.770  1.00  0.00     0.113 C 
ATOM     18  C   UNL     1      37.766 134.586  16.372  1.00  0.00     0.193 C 
ATOM     19  C   UNL     1      37.925 135.749  18.013  1.00  0.00     0.193 C 
ATOM     20  O   UNL     1      37.439 135.917  16.698  1.00  0.00    -0.376 OA
BRANCH  17  21
ATOM     21  C   UNL     1      37.461 133.302  18.591  1.00  0.00     0.247 C 
ATOM     22  F   UNL     1      37.212 133.814  19.857  1.00  0.00    -0.248 F 
ENDBRANCH  17  21
ENDBRANCH  15  17
ENDBRANCH  12  15
BRANCH  11  23
ATOM     23  N   UNL     1      41.187 137.434  17.520  1.00  0.00    -0.057 NA
BRANCH  23  24
ATOM     24  N   UNL     1      42.153 138.136  17.219  1.00  0.00     0.005 N 
ATOM     25  N   UNL     1      43.114 138.840  16.916  1.00  0.00    -0.003 NA
ENDBRANCH  23  24
ENDBRANCH  11  23
BRANCH   5  26
ATOM     26  C   UNL     1      43.257 132.741  18.620  1.00  0.00     0.252 C 
ATOM     27  O   UNL     1      42.368 131.852  18.668  1.00  0.00    -0.287 OA
BRANCH  26  28
ATOM     28  N   UNL     1      44.293 132.723  19.608  1.00  0.00    -0.017 NA
BRANCH  28  29
ATOM     29  N   UNL     1      45.070 131.775  19.721  1.00  0.00     0.009 N 
ATOM     30  N   UNL     1      45.844 130.827  19.834  1.00  0.00    -0.003 NA
ENDBRANCH  28  29
ENDBRANCH  26  28
ENDBRANCH   5  26
BRANCH   6  31
ATOM     31  O   UNL     1      42.562 132.092  15.879  1.00  0.00    -0.419 OA
BRANCH  31  32
ATOM     32  C   UNL     1      43.522 131.526  15.031  1.00  0.00     0.373 C 
ATOM     33  O   UNL     1      43.277 131.350  13.804  1.00  0.00    -0.244 OA
BRANCH  32  34
ATOM     34  C   UNL     1      44.873 131.165  15.577  1.00  0.00     0.196 C 
ATOM     35  C   UNL     1      46.020 132.103  15.194  1.00  0.00     0.092 C 
ATOM     36  C   UNL     1      45.995 130.666  14.659  1.00  0.00     0.069 C 
BRANCH  34  37
ATOM     37  N   UNL     1      44.911 130.683  16.962  1.00  0.00    -0.343 N 
ATOM     38  H   UNL     1      45.619 129.919  17.034  1.00  0.00     0.345 HD
ATOM     39  H   UNL     1      45.166 131.440  17.637  1.00  0.00     0.345 HD
ATOM     40  H   UNL     1      43.969 130.305  17.220  1.00  0.00     0.345 HD
ENDBRANCH  34  37
BRANCH  36  41
ATOM     41  C   UNL     1      45.736 130.572  13.145  1.00  0.00     0.007 C 
ATOM     42  C   UNL     1      47.054 130.566  12.381  1.00  0.00     0.004 C 
ENDBRANCH  36  41
ENDBRANCH  32  34
ENDBRANCH  31  32
ENDBRANCH   6  31
TORSDOF 14
ENDMDL


