MODEL 1
REMARK VINA RESULT:      -7.2      0.000      0.000
REMARK SMILES C#CC[N+](C)(C)Cc1c(C)cc(N2C[C@@H](C)[C@@H](C)[C@@H]2C)c2ccccc12
REMARK SMILES IDX 4 1 5 2 6 3 3 4 2 5 1 6 7 7 8 8 9 9 26 10 11 11 25 12 21 13
REMARK SMILES IDX 12 14 24 15 22 16 23 17 10 18 13 19 14 20 19 21 15 22 17 23
REMARK SMILES IDX 20 24 16 25 18 26
REMARK H PARENT
ROOT
ATOM      1  N   UNL     1      45.524 130.766  15.409  1.00  0.00    -0.315 N 
ATOM      2  C   UNL     1      46.105 132.121  15.232  1.00  0.00     0.335 C 
ATOM      3  C   UNL     1      46.513 129.910  16.111  1.00  0.00     0.335 C 
ENDROOT
BRANCH   1   4
ATOM      4  C   UNL     1      45.216 130.179  14.066  1.00  0.00     0.355 C 
BRANCH   4   5
ATOM      5  C   UNL     1      46.276 130.387  13.058  1.00  0.00    -0.047 C 
ATOM      6  C   UNL     1      47.140 130.556  12.234  1.00  0.00     0.010 C 
ENDBRANCH   4   5
ENDBRANCH   1   4
BRANCH   1   7
ATOM      7  C   UNL     1      44.232 130.815  16.180  1.00  0.00     0.302 C 
BRANCH   7   8
ATOM      8  C   UNL     1      43.842 132.193  16.760  1.00  0.00     0.017 A 
ATOM      9  C   UNL     1      44.266 132.562  18.071  1.00  0.00    -0.040 A 
ATOM     10  C   UNL     1      43.051 133.129  16.016  1.00  0.00    -0.007 A 
ATOM     11  C   UNL     1      44.080 133.874  18.521  1.00  0.00     0.030 A 
ATOM     12  C   UNL     1      42.394 132.779  14.810  1.00  0.00     0.009 A 
ATOM     13  C   UNL     1      42.893 134.461  16.497  1.00  0.00     0.006 A 
ATOM     14  C   UNL     1      43.424 134.823  17.748  1.00  0.00     0.045 A 
ATOM     15  C   UNL     1      41.690 133.729  14.069  1.00  0.00     0.001 A 
ATOM     16  C   UNL     1      42.204 135.411  15.715  1.00  0.00     0.011 A 
ATOM     17  C   UNL     1      41.611 135.044  14.509  1.00  0.00     0.001 A 
ATOM     18  C   UNL     1      44.856 131.572  19.050  1.00  0.00     0.045 C 
BRANCH  14  19
ATOM     19  N   UNL     1      43.237 136.139  18.290  1.00  0.00    -0.368 N 
ATOM     20  C   UNL     1      44.309 137.115  18.361  1.00  0.00     0.120 C 
ATOM     21  C   UNL     1      41.983 136.609  18.866  1.00  0.00     0.082 C 
ATOM     22  C   UNL     1      43.751 138.249  19.220  1.00  0.00     0.010 C 
ATOM     23  C   UNL     1      42.210 138.113  19.130  1.00  0.00     0.013 C 
ATOM     24  C   UNL     1      41.676 135.849  20.162  1.00  0.00     0.031 C 
ATOM     25  C   UNL     1      44.332 139.620  18.847  1.00  0.00     0.010 C 
ATOM     26  C   UNL     1      41.579 138.954  18.006  1.00  0.00     0.010 C 
ENDBRANCH  14  19
ENDBRANCH   7   8
ENDBRANCH   1   7
TORSDOF 5
ENDMDL
MODEL 2
REMARK VINA RESULT:      -7.2      1.622      3.868
REMARK SMILES C#CC[N+](C)(C)Cc1c(C)cc(N2C[C@@H](C)[C@@H](C)[C@@H]2C)c2ccccc12
REMARK SMILES IDX 4 1 5 2 6 3 3 4 2 5 1 6 7 7 8 8 9 9 26 10 11 11 25 12 21 13
REMARK SMILES IDX 12 14 24 15 22 16 23 17 10 18 13 19 14 20 19 21 15 22 17 23
REMARK SMILES IDX 20 24 16 25 18 26
REMARK H PARENT
ROOT
ATOM      1  N   UNL     1      45.762 130.702  15.037  1.00  0.00    -0.315 N 
ATOM      2  C   UNL     1      46.139 132.127  15.219  1.00  0.00     0.335 C 
ATOM      3  C   UNL     1      46.909 129.849  15.436  1.00  0.00     0.335 C 
ENDROOT
BRANCH   1   4
ATOM      4  C   UNL     1      45.430 130.456  13.597  1.00  0.00     0.355 C 
BRANCH   4   5
ATOM      5  C   UNL     1      46.593 130.528  12.688  1.00  0.00    -0.047 C 
ATOM      6  C   UNL     1      47.543 130.589  11.948  1.00  0.00     0.010 C 
ENDBRANCH   4   5
ENDBRANCH   1   4
BRANCH   1   7
ATOM      7  C   UNL     1      44.539 130.347  15.841  1.00  0.00     0.302 C 
BRANCH   7   8
ATOM      8  C   UNL     1      43.988 131.459  16.760  1.00  0.00     0.017 A 
ATOM      9  C   UNL     1      43.018 132.381  16.264  1.00  0.00    -0.040 A 
ATOM     10  C   UNL     1      44.427 131.605  18.118  1.00  0.00    -0.007 A 
ATOM     11  C   UNL     1      42.379 133.262  17.143  1.00  0.00     0.030 A 
ATOM     12  C   UNL     1      45.539 130.896  18.636  1.00  0.00     0.009 A 
ATOM     13  C   UNL     1      43.744 132.502  18.990  1.00  0.00     0.006 A 
ATOM     14  C   UNL     1      42.713 133.317  18.490  1.00  0.00     0.045 A 
ATOM     15  C   UNL     1      45.900 131.003  19.980  1.00  0.00     0.001 A 
ATOM     16  C   UNL     1      44.108 132.569  20.350  1.00  0.00     0.011 A 
ATOM     17  C   UNL     1      45.177 131.821  20.838  1.00  0.00     0.001 A 
ATOM     18  C   UNL     1      42.686 132.507  14.794  1.00  0.00     0.045 C 
BRANCH  14  19
ATOM     19  N   UNL     1      42.040 134.272  19.324  1.00  0.00    -0.368 N 
ATOM     20  C   UNL     1      40.649 134.130  19.711  1.00  0.00     0.120 C 
ATOM     21  C   UNL     1      42.660 135.495  19.820  1.00  0.00     0.082 C 
ATOM     22  C   UNL     1      40.285 135.463  20.363  1.00  0.00     0.010 C 
ATOM     23  C   UNL     1      41.632 136.085  20.809  1.00  0.00     0.013 C 
ATOM     24  C   UNL     1      42.943 136.457  18.660  1.00  0.00     0.031 C 
ATOM     25  C   UNL     1      39.212 135.321  21.452  1.00  0.00     0.010 C 
ATOM     26  C   UNL     1      42.024 135.740  22.258  1.00  0.00     0.010 C 
ENDBRANCH  14  19
ENDBRANCH   7   8
ENDBRANCH   1   7
TORSDOF 5
ENDMDL
MODEL 3
REMARK VINA RESULT:      -7.1      1.180      1.976
REMARK SMILES C#CC[N+](C)(C)Cc1c(C)cc(N2C[C@@H](C)[C@@H](C)[C@@H]2C)c2ccccc12
REMARK SMILES IDX 4 1 5 2 6 3 3 4 2 5 1 6 7 7 8 8 9 9 26 10 11 11 25 12 21 13
REMARK SMILES IDX 12 14 24 15 22 16 23 17 10 18 13 19 14 20 19 21 15 22 17 23
REMARK SMILES IDX 20 24 16 25 18 26
REMARK H PARENT
ROOT
ATOM      1  N   UNL     1      45.812 130.728  15.158  1.00  0.00    -0.315 N 
ATOM      2  C   UNL     1      46.238 132.150  15.219  1.00  0.00     0.335 C 
ATOM      3  C   UNL     1      46.951 129.869  15.567  1.00  0.00     0.335 C 
ENDROOT
BRANCH   1   4
ATOM      4  C   UNL     1      45.408 130.391  13.755  1.00  0.00     0.355 C 
BRANCH   4   5
ATOM      5  C   UNL     1      46.494 130.530  12.763  1.00  0.00    -0.047 C 
ATOM      6  C   UNL     1      47.379 130.643  11.952  1.00  0.00     0.010 C 
ENDBRANCH   4   5
ENDBRANCH   1   4
BRANCH   1   7
ATOM      7  C   UNL     1      44.619 130.471  16.038  1.00  0.00     0.302 C 
BRANCH   7   8
ATOM      8  C   UNL     1      44.139 131.664  16.894  1.00  0.00     0.017 A 
ATOM      9  C   UNL     1      44.597 131.810  18.238  1.00  0.00    -0.040 A 
ATOM     10  C   UNL     1      43.231 132.647  16.379  1.00  0.00    -0.007 A 
ATOM     11  C   UNL     1      44.320 132.984  18.946  1.00  0.00     0.030 A 
ATOM     12  C   UNL     1      42.545 132.477  15.150  1.00  0.00     0.009 A 
ATOM     13  C   UNL     1      42.982 133.838  17.121  1.00  0.00     0.006 A 
ATOM     14  C   UNL     1      43.543 133.998  18.400  1.00  0.00     0.045 A 
ATOM     15  C   UNL     1      41.722 133.481  14.638  1.00  0.00     0.001 A 
ATOM     16  C   UNL     1      42.171 134.850  16.568  1.00  0.00     0.011 A 
ATOM     17  C   UNL     1      41.551 134.670  15.334  1.00  0.00     0.001 A 
ATOM     18  C   UNL     1      45.323 130.710  18.979  1.00  0.00     0.045 C 
BRANCH  14  19
ATOM     19  N   UNL     1      43.270 135.158  19.200  1.00  0.00    -0.368 N 
ATOM     20  C   UNL     1      41.957 135.437  19.751  1.00  0.00     0.120 C 
ATOM     21  C   UNL     1      44.256 136.191  19.495  1.00  0.00     0.082 C 
ATOM     22  C   UNL     1      42.055 136.861  20.297  1.00  0.00     0.010 C 
ATOM     23  C   UNL     1      43.567 137.111  20.525  1.00  0.00     0.013 C 
ATOM     24  C   UNL     1      44.627 136.953  18.217  1.00  0.00     0.031 C 
ATOM     25  C   UNL     1      41.140 137.099  21.507  1.00  0.00     0.010 C 
ATOM     26  C   UNL     1      44.043 136.772  21.949  1.00  0.00     0.010 C 
ENDBRANCH  14  19
ENDBRANCH   7   8
ENDBRANCH   1   7
TORSDOF 5
ENDMDL
MODEL 4
REMARK VINA RESULT:      -6.8      1.321      3.269
REMARK SMILES C#CC[N+](C)(C)Cc1c(C)cc(N2C[C@@H](C)[C@@H](C)[C@@H]2C)c2ccccc12
REMARK SMILES IDX 4 1 5 2 6 3 3 4 2 5 1 6 7 7 8 8 9 9 26 10 11 11 25 12 21 13
REMARK SMILES IDX 12 14 24 15 22 16 23 17 10 18 13 19 14 20 19 21 15 22 17 23
REMARK SMILES IDX 20 24 16 25 18 26
REMARK H PARENT
ROOT
ATOM      1  N   UNL     1      45.417 130.833  15.291  1.00  0.00    -0.315 N 
ATOM      2  C   UNL     1      46.243 132.067  15.320  1.00  0.00     0.335 C 
ATOM      3  C   UNL     1      46.211 129.712  15.851  1.00  0.00     0.335 C 
ENDROOT
BRANCH   1   4
ATOM      4  C   UNL     1      45.038 130.523  13.875  1.00  0.00     0.355 C 
BRANCH   4   5
ATOM      5  C   UNL     1      46.176 130.518  12.933  1.00  0.00    -0.047 C 
ATOM      6  C   UNL     1      47.107 130.512  12.166  1.00  0.00     0.010 C 
ENDBRANCH   4   5
ENDBRANCH   1   4
BRANCH   1   7
ATOM      7  C   UNL     1      44.137 131.007  16.065  1.00  0.00     0.302 C 
BRANCH   7   8
ATOM      8  C   UNL     1      44.087 132.215  17.027  1.00  0.00     0.017 A 
ATOM      9  C   UNL     1      43.517 133.449  16.596  1.00  0.00    -0.040 A 
ATOM     10  C   UNL     1      44.607 132.140  18.361  1.00  0.00    -0.007 A 
ATOM     11  C   UNL     1      43.297 134.477  17.520  1.00  0.00     0.030 A 
ATOM     12  C   UNL     1      45.391 131.048  18.811  1.00  0.00     0.009 A 
ATOM     13  C   UNL     1      44.353 133.199  19.281  1.00  0.00     0.006 A 
ATOM     14  C   UNL     1      43.686 134.358  18.848  1.00  0.00     0.045 A 
ATOM     15  C   UNL     1      45.824 130.966  20.135  1.00  0.00     0.001 A 
ATOM     16  C   UNL     1      44.775 133.078  20.621  1.00  0.00     0.011 A 
ATOM     17  C   UNL     1      45.501 131.967  21.041  1.00  0.00     0.001 A 
ATOM     18  C   UNL     1      43.193 133.740  15.147  1.00  0.00     0.045 C 
BRANCH  14  19
ATOM     19  N   UNL     1      43.461 135.468  19.730  1.00  0.00    -0.368 N 
ATOM     20  C   UNL     1      44.538 136.306  20.223  1.00  0.00     0.120 C 
ATOM     21  C   UNL     1      42.152 135.834  20.257  1.00  0.00     0.082 C 
ATOM     22  C   UNL     1      43.896 137.175  21.303  1.00  0.00     0.010 C 
ATOM     23  C   UNL     1      42.380 137.176  20.983  1.00  0.00     0.013 C 
ATOM     24  C   UNL     1      41.645 134.751  21.218  1.00  0.00     0.031 C 
ATOM     25  C   UNL     1      44.561 138.553  21.432  1.00  0.00     0.010 C 
ATOM     26  C   UNL     1      41.936 138.350  20.090  1.00  0.00     0.010 C 
ENDBRANCH  14  19
ENDBRANCH   7   8
ENDBRANCH   1   7
TORSDOF 5
ENDMDL
MODEL 5
REMARK VINA RESULT:      -6.8      1.640      7.625
REMARK SMILES C#CC[N+](C)(C)Cc1c(C)cc(N2C[C@@H](C)[C@@H](C)[C@@H]2C)c2ccccc12
REMARK SMILES IDX 4 1 5 2 6 3 3 4 2 5 1 6 7 7 8 8 9 9 26 10 11 11 25 12 21 13
REMARK SMILES IDX 12 14 24 15 22 16 23 17 10 18 13 19 14 20 19 21 15 22 17 23
REMARK SMILES IDX 20 24 16 25 18 26
REMARK H PARENT
ROOT
ATOM      1  N   UNL     1      42.461 135.462  18.664  1.00  0.00    -0.315 N 
ATOM      2  C   UNL     1      42.417 135.902  20.082  1.00  0.00     0.335 C 
ATOM      3  C   UNL     1      43.864 135.528  18.185  1.00  0.00     0.335 C 
ENDROOT
BRANCH   1   4
ATOM      4  C   UNL     1      41.604 136.371  17.836  1.00  0.00     0.355 C 
BRANCH   4   5
ATOM      5  C   UNL     1      40.239 136.562  18.366  1.00  0.00    -0.047 C 
ATOM      6  C   UNL     1      39.124 136.720  18.799  1.00  0.00     0.010 C 
ENDBRANCH   4   5
ENDBRANCH   1   4
BRANCH   1   7
ATOM      7  C   UNL     1      41.916 134.068  18.500  1.00  0.00     0.302 C 
BRANCH   7   8
ATOM      8  C   UNL     1      42.757 133.112  17.625  1.00  0.00     0.017 A 
ATOM      9  C   UNL     1      42.532 133.048  16.217  1.00  0.00    -0.040 A 
ATOM     10  C   UNL     1      43.769 132.267  18.187  1.00  0.00    -0.007 A 
ATOM     11  C   UNL     1      43.415 132.332  15.402  1.00  0.00     0.030 A 
ATOM     12  C   UNL     1      43.917 132.085  19.585  1.00  0.00     0.009 A 
ATOM     13  C   UNL     1      44.660 131.562  17.327  1.00  0.00     0.006 A 
ATOM     14  C   UNL     1      44.478 131.613  15.934  1.00  0.00     0.045 A 
ATOM     15  C   UNL     1      44.957 131.315  20.107  1.00  0.00     0.001 A 
ATOM     16  C   UNL     1      45.721 130.814  17.879  1.00  0.00     0.011 A 
ATOM     17  C   UNL     1      45.866 130.697  19.259  1.00  0.00     0.001 A 
ATOM     18  C   UNL     1      41.325 133.670  15.552  1.00  0.00     0.045 C 
BRANCH  14  19
ATOM     19  N   UNL     1      45.320 130.871  15.039  1.00  0.00    -0.368 N 
ATOM     20  C   UNL     1      45.623 131.325  13.694  1.00  0.00     0.120 C 
ATOM     21  C   UNL     1      45.909 129.578  15.363  1.00  0.00     0.082 C 
ATOM     22  C   UNL     1      46.319 130.139  13.028  1.00  0.00     0.010 C 
ATOM     23  C   UNL     1      46.868 129.277  14.192  1.00  0.00     0.013 C 
ATOM     24  C   UNL     1      44.815 128.511  15.484  1.00  0.00     0.031 C 
ATOM     25  C   UNL     1      47.340 130.568  11.964  1.00  0.00     0.010 C 
ATOM     26  C   UNL     1      48.317 129.619  14.585  1.00  0.00     0.010 C 
ENDBRANCH  14  19
ENDBRANCH   7   8
ENDBRANCH   1   7
TORSDOF 5
ENDMDL
MODEL 6
REMARK VINA RESULT:      -6.7      1.888      3.674
REMARK SMILES C#CC[N+](C)(C)Cc1c(C)cc(N2C[C@@H](C)[C@@H](C)[C@@H]2C)c2ccccc12
REMARK SMILES IDX 4 1 5 2 6 3 3 4 2 5 1 6 7 7 8 8 9 9 26 10 11 11 25 12 21 13
REMARK SMILES IDX 12 14 24 15 22 16 23 17 10 18 13 19 14 20 19 21 15 22 17 23
REMARK SMILES IDX 20 24 16 25 18 26
REMARK H PARENT
ROOT
ATOM      1  N   UNL     1      45.539 130.646  15.677  1.00  0.00    -0.315 N 
ATOM      2  C   UNL     1      46.083 131.961  15.251  1.00  0.00     0.335 C 
ATOM      3  C   UNL     1      46.391 130.104  16.764  1.00  0.00     0.335 C 
ENDROOT
BRANCH   1   4
ATOM      4  C   UNL     1      45.551 129.704  14.512  1.00  0.00     0.355 C 
BRANCH   4   5
ATOM      5  C   UNL     1      46.361 130.170  13.368  1.00  0.00    -0.047 C 
ATOM      6  C   UNL     1      47.024 130.548  12.434  1.00  0.00     0.010 C 
ENDBRANCH   4   5
ENDBRANCH   1   4
BRANCH   1   7
ATOM      7  C   UNL     1      44.110 130.763  16.138  1.00  0.00     0.302 C 
BRANCH   7   8
ATOM      8  C   UNL     1      43.423 132.121  15.875  1.00  0.00     0.017 A 
ATOM      9  C   UNL     1      42.758 132.357  14.635  1.00  0.00    -0.040 A 
ATOM     10  C   UNL     1      43.433 133.174  16.848  1.00  0.00    -0.007 A 
ATOM     11  C   UNL     1      41.976 133.505  14.469  1.00  0.00     0.030 A 
ATOM     12  C   UNL     1      44.248 133.131  18.006  1.00  0.00     0.009 A 
ATOM     13  C   UNL     1      42.614 134.324  16.654  1.00  0.00     0.006 A 
ATOM     14  C   UNL     1      41.881 134.471  15.463  1.00  0.00     0.045 A 
ATOM     15  C   UNL     1      44.184 134.135  18.972  1.00  0.00     0.001 A 
ATOM     16  C   UNL     1      42.544 135.311  17.659  1.00  0.00     0.011 A 
ATOM     17  C   UNL     1      43.323 135.212  18.809  1.00  0.00     0.001 A 
ATOM     18  C   UNL     1      42.913 131.446  13.437  1.00  0.00     0.045 C 
BRANCH  14  19
ATOM     19  N   UNL     1      41.089 135.641  15.208  1.00  0.00    -0.368 N 
ATOM     20  C   UNL     1      41.674 136.952  15.002  1.00  0.00     0.120 C 
ATOM     21  C   UNL     1      39.631 135.644  15.182  1.00  0.00     0.082 C 
ATOM     22  C   UNL     1      40.491 137.918  15.024  1.00  0.00     0.010 C 
ATOM     23  C   UNL     1      39.248 137.055  14.688  1.00  0.00     0.013 C 
ATOM     24  C   UNL     1      39.074 135.367  16.584  1.00  0.00     0.031 C 
ATOM     25  C   UNL     1      40.714 139.154  14.141  1.00  0.00     0.010 C 
ATOM     26  C   UNL     1      38.906 137.021  13.187  1.00  0.00     0.010 C 
ENDBRANCH  14  19
ENDBRANCH   7   8
ENDBRANCH   1   7
TORSDOF 5
ENDMDL
MODEL 7
REMARK VINA RESULT:      -6.7      1.494      7.423
REMARK SMILES C#CC[N+](C)(C)Cc1c(C)cc(N2C[C@@H](C)[C@@H](C)[C@@H]2C)c2ccccc12
REMARK SMILES IDX 4 1 5 2 6 3 3 4 2 5 1 6 7 7 8 8 9 9 26 10 11 11 25 12 21 13
REMARK SMILES IDX 12 14 24 15 22 16 23 17 10 18 13 19 14 20 19 21 15 22 17 23
REMARK SMILES IDX 20 24 16 25 18 26
REMARK H PARENT
ROOT
ATOM      1  N   UNL     1      44.010 137.815  18.993  1.00  0.00    -0.315 N 
ATOM      2  C   UNL     1      45.355 137.201  18.847  1.00  0.00     0.335 C 
ATOM      3  C   UNL     1      43.876 138.915  18.007  1.00  0.00     0.335 C 
ENDROOT
BRANCH   1   4
ATOM      4  C   UNL     1      43.864 138.363  20.380  1.00  0.00     0.355 C 
BRANCH   4   5
ATOM      5  C   UNL     1      44.134 137.380  21.450  1.00  0.00    -0.047 C 
ATOM      6  C   UNL     1      44.352 136.577  22.323  1.00  0.00     0.010 C 
ENDBRANCH   4   5
ENDBRANCH   1   4
BRANCH   1   7
ATOM      7  C   UNL     1      42.915 136.799  18.799  1.00  0.00     0.302 C 
BRANCH   7   8
ATOM      8  C   UNL     1      43.289 135.554  17.965  1.00  0.00     0.017 A 
ATOM      9  C   UNL     1      43.313 135.629  16.540  1.00  0.00    -0.040 A 
ATOM     10  C   UNL     1      43.613 134.301  18.581  1.00  0.00    -0.007 A 
ATOM     11  C   UNL     1      43.833 134.566  15.794  1.00  0.00     0.030 A 
ATOM     12  C   UNL     1      43.401 134.055  19.961  1.00  0.00     0.009 A 
ATOM     13  C   UNL     1      44.154 133.243  17.794  1.00  0.00     0.006 A 
ATOM     14  C   UNL     1      44.269 133.395  16.401  1.00  0.00     0.045 A 
ATOM     15  C   UNL     1      43.792 132.852  20.549  1.00  0.00     0.001 A 
ATOM     16  C   UNL     1      44.570 132.048  18.416  1.00  0.00     0.011 A 
ATOM     17  C   UNL     1      44.391 131.860  19.784  1.00  0.00     0.001 A 
ATOM     18  C   UNL     1      42.729 136.794  15.772  1.00  0.00     0.045 C 
BRANCH  14  19
ATOM     19  N   UNL     1      44.757 132.332  15.567  1.00  0.00    -0.368 N 
ATOM     20  C   UNL     1      46.140 132.246  15.139  1.00  0.00     0.120 C 
ATOM     21  C   UNL     1      43.914 131.271  15.029  1.00  0.00     0.082 C 
ATOM     22  C   UNL     1      46.157 131.138  14.087  1.00  0.00     0.010 C 
ATOM     23  C   UNL     1      44.899 130.281  14.372  1.00  0.00     0.013 C 
ATOM     24  C   UNL     1      42.926 131.845  14.006  1.00  0.00     0.031 C 
ATOM     25  C   UNL     1      47.494 130.384  14.039  1.00  0.00     0.010 C 
ATOM     26  C   UNL     1      45.162 129.088  15.310  1.00  0.00     0.010 C 
ENDBRANCH  14  19
ENDBRANCH   7   8
ENDBRANCH   1   7
TORSDOF 5
ENDMDL
MODEL 8
REMARK VINA RESULT:      -6.7      0.729      1.001
REMARK SMILES C#CC[N+](C)(C)Cc1c(C)cc(N2C[C@@H](C)[C@@H](C)[C@@H]2C)c2ccccc12
REMARK SMILES IDX 4 1 5 2 6 3 3 4 2 5 1 6 7 7 8 8 9 9 26 10 11 11 25 12 21 13
REMARK SMILES IDX 12 14 24 15 22 16 23 17 10 18 13 19 14 20 19 21 15 22 17 23
REMARK SMILES IDX 20 24 16 25 18 26
REMARK H PARENT
ROOT
ATOM      1  N   UNL     1      45.408 130.699  14.796  1.00  0.00    -0.315 N 
ATOM      2  C   UNL     1      44.883 130.698  13.407  1.00  0.00     0.335 C 
ATOM      3  C   UNL     1      46.233 131.917  14.994  1.00  0.00     0.335 C 
ENDROOT
BRANCH   1   4
ATOM      4  C   UNL     1      46.254 129.480  15.007  1.00  0.00     0.355 C 
BRANCH   4   5
ATOM      5  C   UNL     1      47.414 129.385  14.097  1.00  0.00    -0.047 C 
ATOM      6  C   UNL     1      48.361 129.305  13.354  1.00  0.00     0.010 C 
ENDBRANCH   4   5
ENDBRANCH   1   4
BRANCH   1   7
ATOM      7  C   UNL     1      44.295 130.648  15.808  1.00  0.00     0.302 C 
BRANCH   7   8
ATOM      8  C   UNL     1      43.952 131.984  16.503  1.00  0.00     0.017 A 
ATOM      9  C   UNL     1      44.463 132.265  17.806  1.00  0.00    -0.040 A 
ATOM     10  C   UNL     1      43.119 132.970  15.877  1.00  0.00    -0.007 A 
ATOM     11  C   UNL     1      44.314 133.543  18.354  1.00  0.00     0.030 A 
ATOM     12  C   UNL     1      42.382 132.702  14.697  1.00  0.00     0.009 A 
ATOM     13  C   UNL     1      43.000 134.267  16.456  1.00  0.00     0.006 A 
ATOM     14  C   UNL     1      43.614 134.543  17.690  1.00  0.00     0.045 A 
ATOM     15  C   UNL     1      41.637 133.701  14.069  1.00  0.00     0.001 A 
ATOM     16  C   UNL     1      42.266 135.267  15.786  1.00  0.00     0.011 A 
ATOM     17  C   UNL     1      41.594 134.983  14.601  1.00  0.00     0.001 A 
ATOM     18  C   UNL     1      45.111 131.210  18.675  1.00  0.00     0.045 C 
BRANCH  14  19
ATOM     19  N   UNL     1      43.471 135.820  18.331  1.00  0.00    -0.368 N 
ATOM     20  C   UNL     1      44.540 136.799  18.370  1.00  0.00     0.120 C 
ATOM     21  C   UNL     1      42.271 136.240  19.045  1.00  0.00     0.082 C 
ATOM     22  C   UNL     1      44.056 137.871  19.346  1.00  0.00     0.010 C 
ATOM     23  C   UNL     1      42.514 137.726  19.384  1.00  0.00     0.013 C 
ATOM     24  C   UNL     1      42.083 135.396  20.311  1.00  0.00     0.031 C 
ATOM     25  C   UNL     1      44.596 139.269  19.013  1.00  0.00     0.010 C 
ATOM     26  C   UNL     1      41.782 138.631  18.376  1.00  0.00     0.010 C 
ENDBRANCH  14  19
ENDBRANCH   7   8
ENDBRANCH   1   7
TORSDOF 5
ENDMDL
MODEL 9
REMARK VINA RESULT:      -6.7      1.317      3.114
REMARK SMILES C#CC[N+](C)(C)Cc1c(C)cc(N2C[C@@H](C)[C@@H](C)[C@@H]2C)c2ccccc12
REMARK SMILES IDX 4 1 5 2 6 3 3 4 2 5 1 6 7 7 8 8 9 9 26 10 11 11 25 12 21 13
REMARK SMILES IDX 12 14 24 15 22 16 23 17 10 18 13 19 14 20 19 21 15 22 17 23
REMARK SMILES IDX 20 24 16 25 18 26
REMARK H PARENT
ROOT
ATOM      1  N   UNL     1      45.451 130.797  15.329  1.00  0.00    -0.315 N 
ATOM      2  C   UNL     1      45.920 132.206  15.297  1.00  0.00     0.335 C 
ATOM      3  C   UNL     1      46.499 129.957  15.961  1.00  0.00     0.335 C 
ENDROOT
BRANCH   1   4
ATOM      4  C   UNL     1      45.206 130.324  13.928  1.00  0.00     0.355 C 
BRANCH   4   5
ATOM      5  C   UNL     1      46.360 130.496  13.023  1.00  0.00    -0.047 C 
ATOM      6  C   UNL     1      47.302 130.635  12.282  1.00  0.00     0.010 C 
ENDBRANCH   4   5
ENDBRANCH   1   4
BRANCH   1   7
ATOM      7  C   UNL     1      44.150 130.664  16.076  1.00  0.00     0.302 C 
BRANCH   7   8
ATOM      8  C   UNL     1      43.575 131.969  16.670  1.00  0.00     0.017 A 
ATOM      9  C   UNL     1      42.694 132.780  15.894  1.00  0.00    -0.040 A 
ATOM     10  C   UNL     1      43.904 132.406  17.995  1.00  0.00    -0.007 A 
ATOM     11  C   UNL     1      42.025 133.853  16.491  1.00  0.00     0.030 A 
ATOM     12  C   UNL     1      44.935 131.804  18.759  1.00  0.00     0.009 A 
ATOM     13  C   UNL     1      43.193 133.494  18.579  1.00  0.00     0.006 A 
ATOM     14  C   UNL     1      42.246 134.202  17.817  1.00  0.00     0.045 A 
ATOM     15  C   UNL     1      45.186 132.202  20.073  1.00  0.00     0.001 A 
ATOM     16  C   UNL     1      43.444 133.857  19.918  1.00  0.00     0.011 A 
ATOM     17  C   UNL     1      44.431 133.210  20.657  1.00  0.00     0.001 A 
ATOM     18  C   UNL     1      42.493 132.580  14.408  1.00  0.00     0.045 C 
BRANCH  14  19
ATOM     19  N   UNL     1      41.550 135.338  18.353  1.00  0.00    -0.368 N 
ATOM     20  C   UNL     1      42.211 136.599  18.635  1.00  0.00     0.120 C 
ATOM     21  C   UNL     1      40.138 135.329  18.713  1.00  0.00     0.082 C 
ATOM     22  C   UNL     1      41.181 137.417  19.411  1.00  0.00     0.010 C 
ATOM     23  C   UNL     1      39.807 136.798  19.050  1.00  0.00     0.013 C 
ATOM     24  C   UNL     1      39.902 134.407  19.915  1.00  0.00     0.031 C 
ATOM     25  C   UNL     1      41.324 138.928  19.181  1.00  0.00     0.010 C 
ATOM     26  C   UNL     1      39.116 137.480  17.855  1.00  0.00     0.010 C 
ENDBRANCH  14  19
ENDBRANCH   7   8
ENDBRANCH   1   7
TORSDOF 5
ENDMDL


