MODEL 1
REMARK VINA RESULT:      -7.5      0.000      0.000
REMARK SMILES Cc1ccc2ccccc2c1C[N+](C)(C)CCc1cn(/C(=N\O)c2ccccc2N=[N+]=[N-])nn1
REMARK SMILES IDX 20 1 33 2 34 3 18 4 19 5 21 6 22 7 23 8 24 10 25 11 29 12
REMARK SMILES IDX 26 13 28 14 27 15 30 16 31 17 32 18 17 19 16 20 13 21 14 22
REMARK SMILES IDX 15 23 12 24 11 25 2 26 10 27 3 28 9 29 5 30 4 31 8 32 6 33
REMARK SMILES IDX 7 34 1 35
REMARK H PARENT 23 9
ROOT
ATOM      1  N   UNL     1      43.839 132.096  15.476  1.00  0.00    -0.198 N 
ATOM      2  N   UNL     1      42.968 131.833  16.439  1.00  0.00    -0.060 NA
ATOM      3  N   UNL     1      42.987 132.792  17.353  1.00  0.00    -0.135 NA
ATOM      4  C   UNL     1      43.911 133.690  16.954  1.00  0.00     0.089 A 
ATOM      5  C   UNL     1      44.446 133.263  15.756  1.00  0.00     0.143 A 
ENDROOT
BRANCH   1   6
ATOM      6  C   UNL     1      44.127 131.223  14.373  1.00  0.00     0.201 C 
BRANCH   6   7
ATOM      7  N   UNL     1      43.182 130.839  13.571  1.00  0.00    -0.068 NA
BRANCH   7   8
ATOM      8  O   UNL     1      42.012 131.549  13.427  1.00  0.00    -0.409 OA
ATOM      9  H   UNL     1      41.442 131.754  14.237  1.00  0.00     0.330 HD
ENDBRANCH   7   8
ENDBRANCH   6   7
BRANCH   6  10
ATOM     10  C   UNL     1      45.501 130.695  14.188  1.00  0.00     0.032 A 
ATOM     11  C   UNL     1      46.187 130.993  12.998  1.00  0.00     0.012 A 
ATOM     12  C   UNL     1      46.145 129.927  15.186  1.00  0.00     0.049 A 
ATOM     13  C   UNL     1      47.489 130.537  12.794  1.00  0.00     0.001 A 
ATOM     14  C   UNL     1      47.459 129.471  14.963  1.00  0.00     0.011 A 
ATOM     15  C   UNL     1      48.123 129.775  13.774  1.00  0.00     0.001 A 
BRANCH  12  16
ATOM     16  N   UNL     1      45.446 129.601  16.399  1.00  0.00    -0.060 NA
BRANCH  16  17
ATOM     17  N   UNL     1      45.653 130.189  17.461  1.00  0.00     0.005 N 
ATOM     18  N   UNL     1      45.858 130.776  18.523  1.00  0.00    -0.003 NA
ENDBRANCH  16  17
ENDBRANCH  12  16
ENDBRANCH   6  10
ENDBRANCH   1   6
BRANCH   4  19
ATOM     19  C   UNL     1      44.239 134.947  17.701  1.00  0.00     0.121 C 
BRANCH  19  20
ATOM     20  C   UNL     1      44.470 134.766  19.226  1.00  0.00     0.270 C 
BRANCH  20  21
ATOM     21  N   UNL     1      43.495 135.426  20.166  1.00  0.00    -0.324 N 
ATOM     22  C   UNL     1      42.329 135.841  19.343  1.00  0.00     0.334 C 
ATOM     23  C   UNL     1      43.005 134.456  21.175  1.00  0.00     0.334 C 
BRANCH  21  24
ATOM     24  C   UNL     1      44.126 136.629  20.812  1.00  0.00     0.301 C 
BRANCH  24  25
ATOM     25  C   UNL     1      45.567 136.959  20.369  1.00  0.00     0.017 A 
ATOM     26  C   UNL     1      45.801 137.904  19.321  1.00  0.00    -0.042 A 
ATOM     27  C   UNL     1      46.705 136.341  20.988  1.00  0.00    -0.009 A 
ATOM     28  C   UNL     1      47.102 138.365  19.075  1.00  0.00     0.004 A 
ATOM     29  C   UNL     1      46.602 135.227  21.858  1.00  0.00     0.009 A 
ATOM     30  C   UNL     1      48.010 136.834  20.703  1.00  0.00    -0.018 A 
ATOM     31  C   UNL     1      48.186 137.860  19.777  1.00  0.00     0.009 A 
ATOM     32  C   UNL     1      47.733 134.683  22.470  1.00  0.00     0.001 A 
ATOM     33  C   UNL     1      49.136 136.280  21.335  1.00  0.00     0.009 A 
ATOM     34  C   UNL     1      48.994 135.215  22.219  1.00  0.00     0.001 A 
ATOM     35  C   UNL     1      44.706 138.459  18.438  1.00  0.00     0.045 C 
ENDBRANCH  24  25
ENDBRANCH  21  24
ENDBRANCH  20  21
ENDBRANCH  19  20
ENDBRANCH   4  19
TORSDOF 11
ENDMDL
MODEL 2
REMARK VINA RESULT:      -6.7      3.534      6.472
REMARK SMILES Cc1ccc2ccccc2c1C[N+](C)(C)CCc1cn(/C(=N\O)c2ccccc2N=[N+]=[N-])nn1
REMARK SMILES IDX 20 1 33 2 34 3 18 4 19 5 21 6 22 7 23 8 24 10 25 11 29 12
REMARK SMILES IDX 26 13 28 14 27 15 30 16 31 17 32 18 17 19 16 20 13 21 14 22
REMARK SMILES IDX 15 23 12 24 11 25 2 26 10 27 3 28 9 29 5 30 4 31 8 32 6 33
REMARK SMILES IDX 7 34 1 35
REMARK H PARENT 23 9
ROOT
ATOM      1  N   UNL     1      45.102 130.771  17.170  1.00  0.00    -0.198 N 
ATOM      2  N   UNL     1      45.447 130.757  18.448  1.00  0.00    -0.060 NA
ATOM      3  N   UNL     1      45.059 131.876  19.042  1.00  0.00    -0.135 NA
ATOM      4  C   UNL     1      44.454 132.627  18.099  1.00  0.00     0.089 A 
ATOM      5  C   UNL     1      44.464 131.926  16.911  1.00  0.00     0.143 A 
ENDROOT
BRANCH   1   6
ATOM      6  C   UNL     1      45.440 129.747  16.221  1.00  0.00     0.201 C 
BRANCH   6   7
ATOM      7  N   UNL     1      45.290 128.493  16.521  1.00  0.00    -0.068 NA
BRANCH   7   8
ATOM      8  O   UNL     1      44.935 127.553  15.580  1.00  0.00    -0.409 OA
ATOM      9  H   UNL     1      45.647 127.118  15.008  1.00  0.00     0.330 HD
ENDBRANCH   7   8
ENDBRANCH   6   7
BRANCH   6  10
ATOM     10  C   UNL     1      46.033 130.118  14.913  1.00  0.00     0.032 A 
ATOM     11  C   UNL     1      47.431 130.233  14.810  1.00  0.00     0.012 A 
ATOM     12  C   UNL     1      45.233 130.330  13.766  1.00  0.00     0.049 A 
ATOM     13  C   UNL     1      48.030 130.555  13.593  1.00  0.00     0.001 A 
ATOM     14  C   UNL     1      45.854 130.658  12.544  1.00  0.00     0.011 A 
ATOM     15  C   UNL     1      47.243 130.770  12.462  1.00  0.00     0.001 A 
BRANCH  12  16
ATOM     16  N   UNL     1      43.803 130.232  13.864  1.00  0.00    -0.060 NA
BRANCH  16  17
ATOM     17  N   UNL     1      43.069 131.221  13.842  1.00  0.00     0.005 N 
ATOM     18  N   UNL     1      42.334 132.208  13.818  1.00  0.00    -0.003 NA
ENDBRANCH  16  17
ENDBRANCH  12  16
ENDBRANCH   6  10
ENDBRANCH   1   6
BRANCH   4  19
ATOM     19  C   UNL     1      43.851 133.974  18.355  1.00  0.00     0.121 C 
BRANCH  19  20
ATOM     20  C   UNL     1      42.377 134.134  17.894  1.00  0.00     0.270 C 
BRANCH  20  21
ATOM     21  N   UNL     1      41.873 135.529  17.623  1.00  0.00    -0.324 N 
ATOM     22  C   UNL     1      42.497 136.409  18.646  1.00  0.00     0.334 C 
ATOM     23  C   UNL     1      42.327 135.999  16.293  1.00  0.00     0.334 C 
BRANCH  21  24
ATOM     24  C   UNL     1      40.374 135.574  17.748  1.00  0.00     0.301 C 
BRANCH  24  25
ATOM     25  C   UNL     1      39.626 136.363  16.653  1.00  0.00     0.017 A 
ATOM     26  C   UNL     1      39.430 137.774  16.788  1.00  0.00    -0.042 A 
ATOM     27  C   UNL     1      39.113 135.720  15.478  1.00  0.00    -0.009 A 
ATOM     28  C   UNL     1      38.953 138.519  15.700  1.00  0.00     0.004 A 
ATOM     29  C   UNL     1      39.032 134.311  15.341  1.00  0.00     0.009 A 
ATOM     30  C   UNL     1      38.629 136.514  14.400  1.00  0.00    -0.018 A 
ATOM     31  C   UNL     1      38.587 137.901  14.514  1.00  0.00     0.009 A 
ATOM     32  C   UNL     1      38.562 133.727  14.163  1.00  0.00     0.001 A 
ATOM     33  C   UNL     1      38.169 135.909  13.218  1.00  0.00     0.009 A 
ATOM     34  C   UNL     1      38.144 134.522  13.100  1.00  0.00     0.001 A 
ATOM     35  C   UNL     1      39.715 138.539  18.062  1.00  0.00     0.045 C 
ENDBRANCH  24  25
ENDBRANCH  21  24
ENDBRANCH  20  21
ENDBRANCH  19  20
ENDBRANCH   4  19
TORSDOF 11
ENDMDL
MODEL 3
REMARK VINA RESULT:      -6.7      3.425      5.974
REMARK SMILES Cc1ccc2ccccc2c1C[N+](C)(C)CCc1cn(/C(=N\O)c2ccccc2N=[N+]=[N-])nn1
REMARK SMILES IDX 20 1 33 2 34 3 18 4 19 5 21 6 22 7 23 8 24 10 25 11 29 12
REMARK SMILES IDX 26 13 28 14 27 15 30 16 31 17 32 18 17 19 16 20 13 21 14 22
REMARK SMILES IDX 15 23 12 24 11 25 2 26 10 27 3 28 9 29 5 30 4 31 8 32 6 33
REMARK SMILES IDX 7 34 1 35
REMARK H PARENT 23 9
ROOT
ATOM      1  N   UNL     1      45.166 130.242  16.872  1.00  0.00    -0.198 N 
ATOM      2  N   UNL     1      45.794 130.021  18.018  1.00  0.00    -0.060 NA
ATOM      3  N   UNL     1      45.593 131.027  18.856  1.00  0.00    -0.135 NA
ATOM      4  C   UNL     1      44.816 131.920  18.210  1.00  0.00     0.089 A 
ATOM      5  C   UNL     1      44.528 131.422  16.956  1.00  0.00     0.143 A 
ENDROOT
BRANCH   1   6
ATOM      6  C   UNL     1      45.241 129.388  15.721  1.00  0.00     0.201 C 
BRANCH   6   7
ATOM      7  N   UNL     1      44.547 128.292  15.665  1.00  0.00    -0.068 NA
BRANCH   7   8
ATOM      8  O   UNL     1      45.114 127.056  15.875  1.00  0.00    -0.409 OA
ATOM      9  H   UNL     1      45.407 126.493  15.087  1.00  0.00     0.330 HD
ENDBRANCH   7   8
ENDBRANCH   6   7
BRANCH   6  10
ATOM     10  C   UNL     1      46.172 129.718  14.614  1.00  0.00     0.032 A 
ATOM     11  C   UNL     1      47.348 128.963  14.468  1.00  0.00     0.012 A 
ATOM     12  C   UNL     1      45.892 130.752  13.689  1.00  0.00     0.049 A 
ATOM     13  C   UNL     1      48.237 129.225  13.426  1.00  0.00     0.001 A 
ATOM     14  C   UNL     1      46.802 131.007  12.645  1.00  0.00     0.011 A 
ATOM     15  C   UNL     1      47.966 130.247  12.518  1.00  0.00     0.001 A 
BRANCH  12  16
ATOM     16  N   UNL     1      44.701 131.542  13.840  1.00  0.00    -0.060 NA
BRANCH  16  17
ATOM     17  N   UNL     1      43.596 131.154  13.462  1.00  0.00     0.005 N 
ATOM     18  N   UNL     1      42.491 130.765  13.082  1.00  0.00    -0.003 NA
ENDBRANCH  16  17
ENDBRANCH  12  16
ENDBRANCH   6  10
ENDBRANCH   1   6
BRANCH   4  19
ATOM     19  C   UNL     1      44.336 133.207  18.810  1.00  0.00     0.121 C 
BRANCH  19  20
ATOM     20  C   UNL     1      43.046 133.093  19.667  1.00  0.00     0.270 C 
BRANCH  20  21
ATOM     21  N   UNL     1      41.751 133.556  19.051  1.00  0.00    -0.324 N 
ATOM     22  C   UNL     1      41.281 132.450  18.175  1.00  0.00     0.334 C 
ATOM     23  C   UNL     1      40.721 133.765  20.096  1.00  0.00     0.334 C 
BRANCH  21  24
ATOM     24  C   UNL     1      41.977 134.800  18.236  1.00  0.00     0.301 C 
BRANCH  24  25
ATOM     25  C   UNL     1      41.596 134.712  16.743  1.00  0.00     0.017 A 
ATOM     26  C   UNL     1      42.615 134.686  15.739  1.00  0.00    -0.042 A 
ATOM     27  C   UNL     1      40.227 134.650  16.318  1.00  0.00    -0.009 A 
ATOM     28  C   UNL     1      42.279 134.383  14.412  1.00  0.00     0.004 A 
ATOM     29  C   UNL     1      39.136 134.907  17.185  1.00  0.00     0.009 A 
ATOM     30  C   UNL     1      39.930 134.350  14.958  1.00  0.00    -0.018 A 
ATOM     31  C   UNL     1      40.959 134.188  14.034  1.00  0.00     0.009 A 
ATOM     32  C   UNL     1      37.817 134.796  16.737  1.00  0.00     0.001 A 
ATOM     33  C   UNL     1      38.597 134.233  14.528  1.00  0.00     0.009 A 
ATOM     34  C   UNL     1      37.548 134.448  15.418  1.00  0.00     0.001 A 
ATOM     35  C   UNL     1      44.074 134.967  16.023  1.00  0.00     0.045 C 
ENDBRANCH  24  25
ENDBRANCH  21  24
ENDBRANCH  20  21
ENDBRANCH  19  20
ENDBRANCH   4  19
TORSDOF 11
ENDMDL
MODEL 4
REMARK VINA RESULT:      -6.6      2.018      3.461
REMARK SMILES Cc1ccc2ccccc2c1C[N+](C)(C)CCc1cn(/C(=N\O)c2ccccc2N=[N+]=[N-])nn1
REMARK SMILES IDX 20 1 33 2 34 3 18 4 19 5 21 6 22 7 23 8 24 10 25 11 29 12
REMARK SMILES IDX 26 13 28 14 27 15 30 16 31 17 32 18 17 19 16 20 13 21 14 22
REMARK SMILES IDX 15 23 12 24 11 25 2 26 10 27 3 28 9 29 5 30 4 31 8 32 6 33
REMARK SMILES IDX 7 34 1 35
REMARK H PARENT 23 9
ROOT
ATOM      1  N   UNL     1      43.678 133.697  15.394  1.00  0.00    -0.198 N 
ATOM      2  N   UNL     1      44.841 134.272  15.657  1.00  0.00    -0.060 NA
ATOM      3  N   UNL     1      44.682 135.576  15.831  1.00  0.00    -0.135 NA
ATOM      4  C   UNL     1      43.369 135.832  15.663  1.00  0.00     0.089 A 
ATOM      5  C   UNL     1      42.722 134.642  15.400  1.00  0.00     0.143 A 
ENDROOT
BRANCH   1   6
ATOM      6  C   UNL     1      43.507 132.307  15.076  1.00  0.00     0.201 C 
BRANCH   6   7
ATOM      7  N   UNL     1      42.322 131.818  14.871  1.00  0.00    -0.068 NA
BRANCH   7   8
ATOM      8  O   UNL     1      41.588 132.126  13.748  1.00  0.00    -0.409 OA
ATOM      9  H   UNL     1      40.969 131.435  13.343  1.00  0.00     0.330 HD
ENDBRANCH   7   8
ENDBRANCH   6   7
BRANCH   6  10
ATOM     10  C   UNL     1      44.683 131.404  15.050  1.00  0.00     0.032 A 
ATOM     11  C   UNL     1      45.232 131.040  13.807  1.00  0.00     0.012 A 
ATOM     12  C   UNL     1      45.281 130.925  16.239  1.00  0.00     0.049 A 
ATOM     13  C   UNL     1      46.353 130.213  13.739  1.00  0.00     0.001 A 
ATOM     14  C   UNL     1      46.411 130.088  16.153  1.00  0.00     0.011 A 
ATOM     15  C   UNL     1      46.940 129.736  14.910  1.00  0.00     0.001 A 
BRANCH  12  16
ATOM     16  N   UNL     1      44.718 131.276  17.514  1.00  0.00    -0.060 NA
BRANCH  16  17
ATOM     17  N   UNL     1      45.281 131.022  18.579  1.00  0.00     0.005 N 
ATOM     18  N   UNL     1      45.843 130.770  19.644  1.00  0.00    -0.003 NA
ENDBRANCH  16  17
ENDBRANCH  12  16
ENDBRANCH   6  10
ENDBRANCH   1   6
BRANCH   4  19
ATOM     19  C   UNL     1      42.753 137.193  15.791  1.00  0.00     0.121 C 
BRANCH  19  20
ATOM     20  C   UNL     1      42.590 137.708  17.247  1.00  0.00     0.270 C 
BRANCH  20  21
ATOM     21  N   UNL     1      41.190 137.878  17.778  1.00  0.00    -0.324 N 
ATOM     22  C   UNL     1      41.022 139.325  18.072  1.00  0.00     0.334 C 
ATOM     23  C   UNL     1      40.192 137.513  16.745  1.00  0.00     0.334 C 
BRANCH  21  24
ATOM     24  C   UNL     1      41.009 137.071  19.036  1.00  0.00     0.301 C 
BRANCH  24  25
ATOM     25  C   UNL     1      42.138 136.074  19.370  1.00  0.00     0.017 A 
ATOM     26  C   UNL     1      42.020 134.698  18.996  1.00  0.00    -0.042 A 
ATOM     27  C   UNL     1      43.330 136.487  20.054  1.00  0.00    -0.009 A 
ATOM     28  C   UNL     1      43.130 133.849  19.100  1.00  0.00     0.004 A 
ATOM     29  C   UNL     1      43.461 137.752  20.682  1.00  0.00     0.009 A 
ATOM     30  C   UNL     1      44.431 135.590  20.146  1.00  0.00    -0.018 A 
ATOM     31  C   UNL     1      44.327 134.297  19.639  1.00  0.00     0.009 A 
ATOM     32  C   UNL     1      44.655 138.128  21.302  1.00  0.00     0.001 A 
ATOM     33  C   UNL     1      45.627 135.989  20.766  1.00  0.00     0.009 A 
ATOM     34  C   UNL     1      45.738 137.255  21.333  1.00  0.00     0.001 A 
ATOM     35  C   UNL     1      40.740 134.081  18.477  1.00  0.00     0.045 C 
ENDBRANCH  24  25
ENDBRANCH  21  24
ENDBRANCH  20  21
ENDBRANCH  19  20
ENDBRANCH   4  19
TORSDOF 11
ENDMDL
MODEL 5
REMARK VINA RESULT:      -6.5      1.443      1.747
REMARK SMILES Cc1ccc2ccccc2c1C[N+](C)(C)CCc1cn(/C(=N\O)c2ccccc2N=[N+]=[N-])nn1
REMARK SMILES IDX 20 1 33 2 34 3 18 4 19 5 21 6 22 7 23 8 24 10 25 11 29 12
REMARK SMILES IDX 26 13 28 14 27 15 30 16 31 17 32 18 17 19 16 20 13 21 14 22
REMARK SMILES IDX 15 23 12 24 11 25 2 26 10 27 3 28 9 29 5 30 4 31 8 32 6 33
REMARK SMILES IDX 7 34 1 35
REMARK H PARENT 23 9
ROOT
ATOM      1  N   UNL     1      43.588 133.797  15.480  1.00  0.00    -0.198 N 
ATOM      2  N   UNL     1      42.891 134.762  14.900  1.00  0.00    -0.060 NA
ATOM      3  N   UNL     1      43.132 135.923  15.491  1.00  0.00    -0.135 NA
ATOM      4  C   UNL     1      44.007 135.678  16.487  1.00  0.00     0.089 A 
ATOM      5  C   UNL     1      44.314 134.332  16.477  1.00  0.00     0.143 A 
ENDROOT
BRANCH   1   6
ATOM      6  C   UNL     1      43.499 132.405  15.136  1.00  0.00     0.201 C 
BRANCH   6   7
ATOM      7  N   UNL     1      42.362 131.882  14.790  1.00  0.00    -0.068 NA
BRANCH   7   8
ATOM      8  O   UNL     1      41.966 131.799  13.475  1.00  0.00    -0.409 OA
ATOM      9  H   UNL     1      42.436 132.352  12.769  1.00  0.00     0.330 HD
ENDBRANCH   7   8
ENDBRANCH   6   7
BRANCH   6  10
ATOM     10  C   UNL     1      44.698 131.539  15.243  1.00  0.00     0.032 A 
ATOM     11  C   UNL     1      45.451 131.275  14.086  1.00  0.00     0.012 A 
ATOM     12  C   UNL     1      45.117 130.997  16.481  1.00  0.00     0.049 A 
ATOM     13  C   UNL     1      46.599 130.486  14.148  1.00  0.00     0.001 A 
ATOM     14  C   UNL     1      46.277 130.199  16.527  1.00  0.00     0.011 A 
ATOM     15  C   UNL     1      47.010 129.946  15.366  1.00  0.00     0.001 A 
BRANCH  12  16
ATOM     16  N   UNL     1      44.345 131.245  17.668  1.00  0.00    -0.060 NA
BRANCH  16  17
ATOM     17  N   UNL     1      44.850 131.288  18.790  1.00  0.00     0.005 N 
ATOM     18  N   UNL     1      45.355 131.332  19.912  1.00  0.00    -0.003 NA
ENDBRANCH  16  17
ENDBRANCH  12  16
ENDBRANCH   6  10
ENDBRANCH   1   6
BRANCH   4  19
ATOM     19  C   UNL     1      44.559 136.729  17.401  1.00  0.00     0.121 C 
BRANCH  19  20
ATOM     20  C   UNL     1      44.606 136.336  18.903  1.00  0.00     0.270 C 
BRANCH  20  21
ATOM     21  N   UNL     1      43.855 137.205  19.879  1.00  0.00    -0.324 N 
ATOM     22  C   UNL     1      43.166 138.247  19.074  1.00  0.00     0.334 C 
ATOM     23  C   UNL     1      42.811 136.420  20.581  1.00  0.00     0.334 C 
BRANCH  21  24
ATOM     24  C   UNL     1      44.812 137.848  20.847  1.00  0.00     0.301 C 
BRANCH  24  25
ATOM     25  C   UNL     1      46.312 137.621  20.570  1.00  0.00     0.017 A 
ATOM     26  C   UNL     1      47.008 138.455  19.638  1.00  0.00    -0.042 A 
ATOM     27  C   UNL     1      47.052 136.584  21.230  1.00  0.00    -0.009 A 
ATOM     28  C   UNL     1      48.406 138.393  19.555  1.00  0.00     0.004 A 
ATOM     29  C   UNL     1      46.434 135.554  21.982  1.00  0.00     0.009 A 
ATOM     30  C   UNL     1      48.470 136.552  21.112  1.00  0.00    -0.018 A 
ATOM     31  C   UNL     1      49.128 137.476  20.304  1.00  0.00     0.009 A 
ATOM     32  C   UNL     1      47.196 134.587  22.642  1.00  0.00     0.001 A 
ATOM     33  C   UNL     1      49.221 135.578  21.791  1.00  0.00     0.009 A 
ATOM     34  C   UNL     1      48.585 134.606  22.557  1.00  0.00     0.001 A 
ATOM     35  C   UNL     1      46.316 139.431  18.713  1.00  0.00     0.045 C 
ENDBRANCH  24  25
ENDBRANCH  21  24
ENDBRANCH  20  21
ENDBRANCH  19  20
ENDBRANCH   4  19
TORSDOF 11
ENDMDL
MODEL 6
REMARK VINA RESULT:      -6.2      3.052      5.049
REMARK SMILES Cc1ccc2ccccc2c1C[N+](C)(C)CCc1cn(/C(=N\O)c2ccccc2N=[N+]=[N-])nn1
REMARK SMILES IDX 20 1 33 2 34 3 18 4 19 5 21 6 22 7 23 8 24 10 25 11 29 12
REMARK SMILES IDX 26 13 28 14 27 15 30 16 31 17 32 18 17 19 16 20 13 21 14 22
REMARK SMILES IDX 15 23 12 24 11 25 2 26 10 27 3 28 9 29 5 30 4 31 8 32 6 33
REMARK SMILES IDX 7 34 1 35
REMARK H PARENT 23 9
ROOT
ATOM      1  N   UNL     1      43.328 132.778  14.898  1.00  0.00    -0.198 N 
ATOM      2  N   UNL     1      42.327 132.104  14.351  1.00  0.00    -0.060 NA
ATOM      3  N   UNL     1      41.304 132.911  14.112  1.00  0.00    -0.135 NA
ATOM      4  C   UNL     1      41.671 134.138  14.533  1.00  0.00     0.089 A 
ATOM      5  C   UNL     1      42.960 134.066  15.019  1.00  0.00     0.143 A 
ENDROOT
BRANCH   1   6
ATOM      6  C   UNL     1      44.556 132.191  15.354  1.00  0.00     0.201 C 
BRANCH   6   7
ATOM      7  N   UNL     1      45.465 131.818  14.505  1.00  0.00    -0.068 NA
BRANCH   7   8
ATOM      8  O   UNL     1      46.787 132.171  14.647  1.00  0.00    -0.409 OA
ATOM      9  H   UNL     1      47.115 132.561  15.521  1.00  0.00     0.330 HD
ENDBRANCH   7   8
ENDBRANCH   6   7
BRANCH   6  10
ATOM     10  C   UNL     1      44.764 131.942  16.802  1.00  0.00     0.032 A 
ATOM     11  C   UNL     1      44.225 132.849  17.731  1.00  0.00     0.012 A 
ATOM     12  C   UNL     1      45.464 130.805  17.269  1.00  0.00     0.049 A 
ATOM     13  C   UNL     1      44.376 132.638  19.101  1.00  0.00     0.001 A 
ATOM     14  C   UNL     1      45.611 130.608  18.656  1.00  0.00     0.011 A 
ATOM     15  C   UNL     1      45.070 131.521  19.563  1.00  0.00     0.001 A 
BRANCH  12  16
ATOM     16  N   UNL     1      46.035 129.881  16.328  1.00  0.00    -0.060 NA
BRANCH  16  17
ATOM     17  N   UNL     1      45.441 128.873  15.944  1.00  0.00     0.005 N 
ATOM     18  N   UNL     1      44.846 127.866  15.561  1.00  0.00    -0.003 NA
ENDBRANCH  16  17
ENDBRANCH  12  16
ENDBRANCH   6  10
ENDBRANCH   1   6
BRANCH   4  19
ATOM     19  C   UNL     1      40.804 135.356  14.431  1.00  0.00     0.121 C 
BRANCH  19  20
ATOM     20  C   UNL     1      40.916 136.345  15.623  1.00  0.00     0.270 C 
BRANCH  20  21
ATOM     21  N   UNL     1      40.217 137.675  15.500  1.00  0.00    -0.324 N 
ATOM     22  C   UNL     1      40.984 138.465  14.501  1.00  0.00     0.334 C 
ATOM     23  C   UNL     1      38.844 137.496  14.969  1.00  0.00     0.334 C 
BRANCH  21  24
ATOM     24  C   UNL     1      40.212 138.385  16.827  1.00  0.00     0.301 C 
BRANCH  24  25
ATOM     25  C   UNL     1      41.005 137.707  17.963  1.00  0.00     0.017 A 
ATOM     26  C   UNL     1      40.380 136.724  18.793  1.00  0.00    -0.042 A 
ATOM     27  C   UNL     1      42.380 138.031  18.219  1.00  0.00    -0.009 A 
ATOM     28  C   UNL     1      41.157 135.955  19.670  1.00  0.00     0.004 A 
ATOM     29  C   UNL     1      43.033 139.144  17.633  1.00  0.00     0.009 A 
ATOM     30  C   UNL     1      43.130 137.230  19.125  1.00  0.00    -0.018 A 
ATOM     31  C   UNL     1      42.517 136.184  19.811  1.00  0.00     0.009 A 
ATOM     32  C   UNL     1      44.384 139.399  17.879  1.00  0.00     0.001 A 
ATOM     33  C   UNL     1      44.491 137.496  19.353  1.00  0.00     0.009 A 
ATOM     34  C   UNL     1      45.114 138.571  18.726  1.00  0.00     0.001 A 
ATOM     35  C   UNL     1      38.893 136.448  18.784  1.00  0.00     0.045 C 
ENDBRANCH  24  25
ENDBRANCH  21  24
ENDBRANCH  20  21
ENDBRANCH  19  20
ENDBRANCH   4  19
TORSDOF 11
ENDMDL
MODEL 7
REMARK VINA RESULT:      -6.0      2.398      4.355
REMARK SMILES Cc1ccc2ccccc2c1C[N+](C)(C)CCc1cn(/C(=N\O)c2ccccc2N=[N+]=[N-])nn1
REMARK SMILES IDX 20 1 33 2 34 3 18 4 19 5 21 6 22 7 23 8 24 10 25 11 29 12
REMARK SMILES IDX 26 13 28 14 27 15 30 16 31 17 32 18 17 19 16 20 13 21 14 22
REMARK SMILES IDX 15 23 12 24 11 25 2 26 10 27 3 28 9 29 5 30 4 31 8 32 6 33
REMARK SMILES IDX 7 34 1 35
REMARK H PARENT 23 9
ROOT
ATOM      1  N   UNL     1      44.664 131.739  18.172  1.00  0.00    -0.198 N 
ATOM      2  N   UNL     1      45.525 130.769  18.440  1.00  0.00    -0.060 NA
ATOM      3  N   UNL     1      45.840 130.774  19.727  1.00  0.00    -0.135 NA
ATOM      4  C   UNL     1      45.157 131.791  20.290  1.00  0.00     0.089 A 
ATOM      5  C   UNL     1      44.396 132.400  19.312  1.00  0.00     0.143 A 
ENDROOT
BRANCH   1   6
ATOM      6  C   UNL     1      44.179 132.063  16.860  1.00  0.00     0.201 C 
BRANCH   6   7
ATOM      7  N   UNL     1      44.313 131.221  15.881  1.00  0.00    -0.068 NA
BRANCH   7   8
ATOM      8  O   UNL     1      43.809 131.474  14.625  1.00  0.00    -0.409 OA
ATOM      9  H   UNL     1      43.409 130.721  14.080  1.00  0.00     0.330 HD
ENDBRANCH   7   8
ENDBRANCH   6   7
BRANCH   6  10
ATOM     10  C   UNL     1      43.583 133.396  16.599  1.00  0.00     0.032 A 
ATOM     11  C   UNL     1      44.423 134.446  16.189  1.00  0.00     0.012 A 
ATOM     12  C   UNL     1      42.194 133.628  16.726  1.00  0.00     0.049 A 
ATOM     13  C   UNL     1      43.900 135.707  15.909  1.00  0.00     0.001 A 
ATOM     14  C   UNL     1      41.681 134.910  16.444  1.00  0.00     0.011 A 
ATOM     15  C   UNL     1      42.531 135.940  16.039  1.00  0.00     0.001 A 
BRANCH  12  16
ATOM     16  N   UNL     1      41.328 132.568  17.163  1.00  0.00    -0.060 NA
BRANCH  16  17
ATOM     17  N   UNL     1      40.146 132.754  17.456  1.00  0.00     0.005 N 
ATOM     18  N   UNL     1      38.965 132.942  17.747  1.00  0.00    -0.003 NA
ENDBRANCH  16  17
ENDBRANCH  12  16
ENDBRANCH   6  10
ENDBRANCH   1   6
BRANCH   4  19
ATOM     19  C   UNL     1      45.214 132.140  21.746  1.00  0.00     0.121 C 
BRANCH  19  20
ATOM     20  C   UNL     1      44.852 133.612  22.085  1.00  0.00     0.270 C 
BRANCH  20  21
ATOM     21  N   UNL     1      45.971 134.532  22.501  1.00  0.00    -0.324 N 
ATOM     22  C   UNL     1      46.263 134.225  23.926  1.00  0.00     0.334 C 
ATOM     23  C   UNL     1      47.200 134.246  21.722  1.00  0.00     0.334 C 
BRANCH  21  24
ATOM     24  C   UNL     1      45.545 135.968  22.359  1.00  0.00     0.301 C 
BRANCH  24  25
ATOM     25  C   UNL     1      45.985 136.681  21.064  1.00  0.00     0.017 A 
ATOM     26  C   UNL     1      45.145 136.654  19.905  1.00  0.00    -0.042 A 
ATOM     27  C   UNL     1      47.230 137.390  20.979  1.00  0.00    -0.009 A 
ATOM     28  C   UNL     1      45.439 137.482  18.812  1.00  0.00     0.004 A 
ATOM     29  C   UNL     1      48.244 137.289  21.964  1.00  0.00     0.009 A 
ATOM     30  C   UNL     1      47.492 138.211  19.847  1.00  0.00    -0.018 A 
ATOM     31  C   UNL     1      46.579 138.271  18.796  1.00  0.00     0.009 A 
ATOM     32  C   UNL     1      49.425 138.028  21.861  1.00  0.00     0.001 A 
ATOM     33  C   UNL     1      48.681 138.955  19.764  1.00  0.00     0.009 A 
ATOM     34  C   UNL     1      49.638 138.867  20.772  1.00  0.00     0.001 A 
ATOM     35  C   UNL     1      43.925 135.770  19.779  1.00  0.00     0.045 C 
ENDBRANCH  24  25
ENDBRANCH  21  24
ENDBRANCH  20  21
ENDBRANCH  19  20
ENDBRANCH   4  19
TORSDOF 11
ENDMDL
MODEL 8
REMARK VINA RESULT:      -6.0      2.183      3.249
REMARK SMILES Cc1ccc2ccccc2c1C[N+](C)(C)CCc1cn(/C(=N\O)c2ccccc2N=[N+]=[N-])nn1
REMARK SMILES IDX 20 1 33 2 34 3 18 4 19 5 21 6 22 7 23 8 24 10 25 11 29 12
REMARK SMILES IDX 26 13 28 14 27 15 30 16 31 17 32 18 17 19 16 20 13 21 14 22
REMARK SMILES IDX 15 23 12 24 11 25 2 26 10 27 3 28 9 29 5 30 4 31 8 32 6 33
REMARK SMILES IDX 7 34 1 35
REMARK H PARENT 23 9
ROOT
ATOM      1  N   UNL     1      43.325 132.047  17.829  1.00  0.00    -0.198 N 
ATOM      2  N   UNL     1      42.233 131.636  17.202  1.00  0.00    -0.060 NA
ATOM      3  N   UNL     1      41.205 132.413  17.511  1.00  0.00    -0.135 NA
ATOM      4  C   UNL     1      41.665 133.342  18.372  1.00  0.00     0.089 A 
ATOM      5  C   UNL     1      43.014 133.126  18.568  1.00  0.00     0.143 A 
ENDROOT
BRANCH   1   6
ATOM      6  C   UNL     1      44.597 131.381  17.778  1.00  0.00     0.201 C 
BRANCH   6   7
ATOM      7  N   UNL     1      45.305 131.227  18.855  1.00  0.00    -0.068 NA
BRANCH   7   8
ATOM      8  O   UNL     1      44.731 130.947  20.074  1.00  0.00    -0.409 OA
ATOM      9  H   UNL     1      44.575 129.987  20.350  1.00  0.00     0.330 HD
ENDBRANCH   7   8
ENDBRANCH   6   7
BRANCH   6  10
ATOM     10  C   UNL     1      45.141 130.927  16.475  1.00  0.00     0.032 A 
ATOM     11  C   UNL     1      45.289 129.547  16.246  1.00  0.00     0.012 A 
ATOM     12  C   UNL     1      45.487 131.841  15.453  1.00  0.00     0.049 A 
ATOM     13  C   UNL     1      45.774 129.078  15.026  1.00  0.00     0.001 A 
ATOM     14  C   UNL     1      45.980 131.350  14.227  1.00  0.00     0.011 A 
ATOM     15  C   UNL     1      46.122 129.977  14.019  1.00  0.00     0.001 A 
BRANCH  12  16
ATOM     16  N   UNL     1      45.358 133.254  15.683  1.00  0.00    -0.060 NA
BRANCH  16  17
ATOM     17  N   UNL     1      44.357 133.890  15.351  1.00  0.00     0.005 N 
ATOM     18  N   UNL     1      43.357 134.525  15.018  1.00  0.00    -0.003 NA
ENDBRANCH  16  17
ENDBRANCH  12  16
ENDBRANCH   6  10
ENDBRANCH   1   6
BRANCH   4  19
ATOM     19  C   UNL     1      40.824 134.433  18.962  1.00  0.00     0.121 C 
BRANCH  19  20
ATOM     20  C   UNL     1      41.549 135.794  19.151  1.00  0.00     0.270 C 
BRANCH  20  21
ATOM     21  N   UNL     1      40.883 136.829  20.021  1.00  0.00    -0.324 N 
ATOM     22  C   UNL     1      39.925 137.559  19.151  1.00  0.00     0.334 C 
ATOM     23  C   UNL     1      40.101 136.179  21.100  1.00  0.00     0.334 C 
BRANCH  21  24
ATOM     24  C   UNL     1      41.908 137.781  20.575  1.00  0.00     0.301 C 
BRANCH  24  25
ATOM     25  C   UNL     1      43.371 137.521  20.158  1.00  0.00     0.017 A 
ATOM     26  C   UNL     1      43.921 138.174  19.009  1.00  0.00    -0.042 A 
ATOM     27  C   UNL     1      44.219 136.633  20.900  1.00  0.00    -0.009 A 
ATOM     28  C   UNL     1      45.300 138.111  18.765  1.00  0.00     0.004 A 
ATOM     29  C   UNL     1      43.731 135.754  21.900  1.00  0.00     0.009 A 
ATOM     30  C   UNL     1      45.612 136.593  20.613  1.00  0.00    -0.018 A 
ATOM     31  C   UNL     1      46.137 137.357  19.573  1.00  0.00     0.009 A 
ATOM     32  C   UNL     1      44.599 134.935  22.626  1.00  0.00     0.001 A 
ATOM     33  C   UNL     1      46.472 135.769  21.360  1.00  0.00     0.009 A 
ATOM     34  C   UNL     1      45.965 134.951  22.366  1.00  0.00     0.001 A 
ATOM     35  C   UNL     1      43.089 138.953  18.015  1.00  0.00     0.045 C 
ENDBRANCH  24  25
ENDBRANCH  21  24
ENDBRANCH  20  21
ENDBRANCH  19  20
ENDBRANCH   4  19
TORSDOF 11
ENDMDL
MODEL 9
REMARK VINA RESULT:      -5.9      3.121      5.742
REMARK SMILES Cc1ccc2ccccc2c1C[N+](C)(C)CCc1cn(/C(=N\O)c2ccccc2N=[N+]=[N-])nn1
REMARK SMILES IDX 20 1 33 2 34 3 18 4 19 5 21 6 22 7 23 8 24 10 25 11 29 12
REMARK SMILES IDX 26 13 28 14 27 15 30 16 31 17 32 18 17 19 16 20 13 21 14 22
REMARK SMILES IDX 15 23 12 24 11 25 2 26 10 27 3 28 9 29 5 30 4 31 8 32 6 33
REMARK SMILES IDX 7 34 1 35
REMARK H PARENT 23 9
ROOT
ATOM      1  N   UNL     1      44.558 133.083  21.309  1.00  0.00    -0.198 N 
ATOM      2  N   UNL     1      44.741 133.229  22.613  1.00  0.00    -0.060 NA
ATOM      3  N   UNL     1      45.378 134.363  22.865  1.00  0.00    -0.135 NA
ATOM      4  C   UNL     1      45.613 134.949  21.674  1.00  0.00     0.089 A 
ATOM      5  C   UNL     1      45.082 134.150  20.681  1.00  0.00     0.143 A 
ENDROOT
BRANCH   1   6
ATOM      6  C   UNL     1      43.972 131.928  20.690  1.00  0.00     0.201 C 
BRANCH   6   7
ATOM      7  N   UNL     1      43.206 131.131  21.371  1.00  0.00    -0.068 NA
BRANCH   7   8
ATOM      8  O   UNL     1      42.277 131.603  22.271  1.00  0.00    -0.409 OA
ATOM      9  H   UNL     1      41.859 132.514  22.135  1.00  0.00     0.330 HD
ENDBRANCH   7   8
ENDBRANCH   6   7
BRANCH   6  10
ATOM     10  C   UNL     1      44.298 131.597  19.281  1.00  0.00     0.032 A 
ATOM     11  C   UNL     1      45.464 130.861  19.009  1.00  0.00     0.012 A 
ATOM     12  C   UNL     1      43.453 131.979  18.212  1.00  0.00     0.049 A 
ATOM     13  C   UNL     1      45.794 130.509  17.701  1.00  0.00     0.001 A 
ATOM     14  C   UNL     1      43.803 131.618  16.896  1.00  0.00     0.011 A 
ATOM     15  C   UNL     1      44.966 130.889  16.646  1.00  0.00     0.001 A 
BRANCH  12  16
ATOM     16  N   UNL     1      42.268 132.747  18.477  1.00  0.00    -0.060 NA
BRANCH  16  17
ATOM     17  N   UNL     1      41.418 132.973  17.614  1.00  0.00     0.005 N 
ATOM     18  N   UNL     1      40.570 133.200  16.752  1.00  0.00    -0.003 NA
ENDBRANCH  16  17
ENDBRANCH  12  16
ENDBRANCH   6  10
ENDBRANCH   1   6
BRANCH   4  19
ATOM     19  C   UNL     1      46.303 136.269  21.507  1.00  0.00     0.121 C 
BRANCH  19  20
ATOM     20  C   UNL     1      45.938 137.044  20.211  1.00  0.00     0.270 C 
BRANCH  20  21
ATOM     21  N   UNL     1      44.882 138.115  20.308  1.00  0.00    -0.324 N 
ATOM     22  C   UNL     1      45.000 138.703  21.668  1.00  0.00     0.334 C 
ATOM     23  C   UNL     1      45.144 139.197  19.330  1.00  0.00     0.334 C 
BRANCH  21  24
ATOM     24  C   UNL     1      43.514 137.516  20.121  1.00  0.00     0.301 C 
BRANCH  24  25
ATOM     25  C   UNL     1      42.809 137.838  18.787  1.00  0.00     0.017 A 
ATOM     26  C   UNL     1      41.859 138.906  18.713  1.00  0.00    -0.042 A 
ATOM     27  C   UNL     1      43.080 137.092  17.592  1.00  0.00    -0.009 A 
ATOM     28  C   UNL     1      41.392 139.338  17.464  1.00  0.00     0.004 A 
ATOM     29  C   UNL     1      43.808 135.876  17.589  1.00  0.00     0.009 A 
ATOM     30  C   UNL     1      42.578 137.561  16.345  1.00  0.00    -0.018 A 
ATOM     31  C   UNL     1      41.769 138.694  16.295  1.00  0.00     0.009 A 
ATOM     32  C   UNL     1      44.084 135.203  16.396  1.00  0.00     0.001 A 
ATOM     33  C   UNL     1      42.873 136.876  15.154  1.00  0.00     0.009 A 
ATOM     34  C   UNL     1      43.629 135.708  15.182  1.00  0.00     0.001 A 
ATOM     35  C   UNL     1      41.314 139.624  19.927  1.00  0.00     0.045 C 
ENDBRANCH  24  25
ENDBRANCH  21  24
ENDBRANCH  20  21
ENDBRANCH  19  20
ENDBRANCH   4  19
TORSDOF 11
ENDMDL


