MODEL 1
REMARK VINA RESULT:      -6.4      0.000      0.000
REMARK SMILES CC[C@H]1C[C@]1(N)C(=O)Oc1ccccc(O)c(NC2(CF)COC2)c(N=[N+]=[N-])c(Cl)c1Cl
REMARK SMILES IDX 15 1 14 2 13 3 12 4 11 5 10 6 31 7 32 8 29 9 30 10 25 11
REMARK SMILES IDX 17 12 16 13 18 15 19 17 22 18 24 19 23 20 20 21 21 22 26 23
REMARK SMILES IDX 27 24 28 25 9 26 7 27 8 28 5 29 4 30 3 31 6 32 2 35 1 36
REMARK H PARENT 16 14 18 16 6 33 6 34
ROOT
ATOM      1  C   UNL     1      42.250 136.123  19.931  1.00  0.00     0.139 A 
ATOM      2  C   UNL     1      43.494 135.505  20.177  1.00  0.00     0.048 A 
ATOM      3  C   UNL     1      43.812 134.177  19.875  1.00  0.00     0.004 A 
ATOM      4  C   UNL     1      42.858 133.161  19.833  1.00  0.00     0.004 A 
ATOM      5  C   UNL     1      42.810 132.210  18.810  1.00  0.00     0.049 A 
ATOM      6  C   UNL     1      43.301 132.402  17.495  1.00  0.00     0.151 A 
ATOM      7  C   UNL     1      43.461 133.673  16.889  1.00  0.00     0.102 A 
ATOM      8  Cl  UNL     1      44.595 133.779  15.541  1.00  0.00    -0.079 Cl
ATOM      9  C   UNL     1      42.775 134.848  17.281  1.00  0.00     0.075 A 
ATOM     10  Cl  UNL     1      43.479 136.422  16.904  1.00  0.00    -0.082 Cl
ATOM     11  C   UNL     1      41.516 134.825  17.921  1.00  0.00     0.085 A 
ATOM     12  C   UNL     1      41.242 135.601  19.077  1.00  0.00     0.088 A 
ENDROOT
BRANCH   1  13
ATOM     13  O   UNL     1      42.041 137.361  20.540  1.00  0.00    -0.506 OA
ATOM     14  H   UNL     1      42.464 137.602  21.427  1.00  0.00     0.293 HD
ENDBRANCH   1  13
BRANCH  12  15
ATOM     15  N   UNL     1      39.866 135.903  19.366  1.00  0.00    -0.369 N 
ATOM     16  H   UNL     1      39.350 136.479  18.661  1.00  0.00     0.161 HD
BRANCH  15  17
ATOM     17  C   UNL     1      39.100 135.220  20.424  1.00  0.00     0.113 C 
ATOM     18  C   UNL     1      39.986 134.550  21.463  1.00  0.00     0.193 C 
ATOM     19  C   UNL     1      38.723 136.114  21.592  1.00  0.00     0.193 C 
ATOM     20  O   UNL     1      39.566 135.424  22.484  1.00  0.00    -0.376 OA
BRANCH  17  21
ATOM     21  C   UNL     1      37.963 134.325  19.909  1.00  0.00     0.247 C 
ATOM     22  F   UNL     1      37.177 133.902  20.966  1.00  0.00    -0.248 F 
ENDBRANCH  17  21
ENDBRANCH  15  17
ENDBRANCH  12  15
BRANCH  11  23
ATOM     23  N   UNL     1      40.445 134.029  17.382  1.00  0.00    -0.057 NA
BRANCH  23  24
ATOM     24  N   UNL     1      40.270 133.880  16.171  1.00  0.00     0.005 N 
ATOM     25  N   UNL     1      40.095 133.728  14.963  1.00  0.00    -0.003 NA
ENDBRANCH  23  24
ENDBRANCH  11  23
BRANCH   6  26
ATOM     26  O   UNL     1      43.599 131.285  16.695  1.00  0.00    -0.424 OA
BRANCH  26  27
ATOM     27  C   UNL     1      44.857 130.681  16.566  1.00  0.00     0.331 C 
ATOM     28  O   UNL     1      45.738 130.805  17.458  1.00  0.00    -0.250 OA
BRANCH  27  29
ATOM     29  C   UNL     1      45.186 129.948  15.303  1.00  0.00     0.118 C 
ATOM     30  C   UNL     1      44.524 130.449  14.025  1.00  0.00     0.040 C 
ATOM     31  C   UNL     1      46.018 130.690  14.259  1.00  0.00     0.022 C 
BRANCH  29  32
ATOM     32  N   UNL     1      45.359 128.500  15.374  1.00  0.00    -0.316 NA
ATOM     33  H   UNL     1      46.249 128.309  15.890  1.00  0.00     0.119 HD
ATOM     34  H   UNL     1      45.487 128.148  14.397  1.00  0.00     0.119 HD
ENDBRANCH  29  32
BRANCH  31  35
ATOM     35  C   UNL     1      46.962 129.847  13.385  1.00  0.00     0.003 C 
ATOM     36  C   UNL     1      47.425 130.653  12.176  1.00  0.00     0.004 C 
ENDBRANCH  31  35
ENDBRANCH  27  29
ENDBRANCH  26  27
ENDBRANCH   6  26
TORSDOF 11
ENDMDL
MODEL 2
REMARK VINA RESULT:      -6.4      1.803      2.200
REMARK SMILES CC[C@H]1C[C@]1(N)C(=O)Oc1ccccc(O)c(NC2(CF)COC2)c(N=[N+]=[N-])c(Cl)c1Cl
REMARK SMILES IDX 15 1 14 2 13 3 12 4 11 5 10 6 31 7 32 8 29 9 30 10 25 11
REMARK SMILES IDX 17 12 16 13 18 15 19 17 22 18 24 19 23 20 20 21 21 22 26 23
REMARK SMILES IDX 27 24 28 25 9 26 7 27 8 28 5 29 4 30 3 31 6 32 2 35 1 36
REMARK H PARENT 16 14 18 16 6 33 6 34
ROOT
ATOM      1  C   UNL     1      42.349 137.190  17.830  1.00  0.00     0.139 A 
ATOM      2  C   UNL     1      43.588 136.920  17.214  1.00  0.00     0.048 A 
ATOM      3  C   UNL     1      44.233 135.680  17.198  1.00  0.00     0.004 A 
ATOM      4  C   UNL     1      44.069 134.729  18.205  1.00  0.00     0.004 A 
ATOM      5  C   UNL     1      43.865 133.373  17.939  1.00  0.00     0.049 A 
ATOM      6  C   UNL     1      43.297 132.851  16.751  1.00  0.00     0.151 A 
ATOM      7  C   UNL     1      42.439 133.587  15.897  1.00  0.00     0.102 A 
ATOM      8  Cl  UNL     1      42.304 133.033  14.227  1.00  0.00    -0.079 Cl
ATOM      9  C   UNL     1      41.683 134.718  16.289  1.00  0.00     0.075 A 
ATOM     10  Cl  UNL     1      41.171 135.881  15.063  1.00  0.00    -0.082 Cl
ATOM     11  C   UNL     1      41.269 134.941  17.622  1.00  0.00     0.085 A 
ATOM     12  C   UNL     1      41.427 136.198  18.262  1.00  0.00     0.088 A 
ENDROOT
BRANCH   1  13
ATOM     13  O   UNL     1      42.002 138.534  17.966  1.00  0.00    -0.506 OA
ATOM     14  H   UNL     1      42.681 139.278  17.861  1.00  0.00     0.293 HD
ENDBRANCH   1  13
BRANCH  12  15
ATOM     15  N   UNL     1      40.574 136.487  19.383  1.00  0.00    -0.369 N 
ATOM     16  H   UNL     1      39.549 136.560  19.190  1.00  0.00     0.161 HD
BRANCH  15  17
ATOM     17  C   UNL     1      41.030 136.400  20.781  1.00  0.00     0.113 C 
ATOM     18  C   UNL     1      42.536 136.230  20.908  1.00  0.00     0.193 C 
ATOM     19  C   UNL     1      41.314 137.745  21.427  1.00  0.00     0.193 C 
ATOM     20  O   UNL     1      42.696 137.492  21.510  1.00  0.00    -0.376 OA
BRANCH  17  21
ATOM     21  C   UNL     1      40.221 135.429  21.654  1.00  0.00     0.247 C 
ATOM     22  F   UNL     1      40.760 135.374  22.926  1.00  0.00    -0.248 F 
ENDBRANCH  17  21
ENDBRANCH  15  17
ENDBRANCH  12  15
BRANCH  11  23
ATOM     23  N   UNL     1      40.626 133.891  18.365  1.00  0.00    -0.057 NA
BRANCH  23  24
ATOM     24  N   UNL     1      39.625 133.301  17.954  1.00  0.00     0.005 N 
ATOM     25  N   UNL     1      38.625 132.711  17.547  1.00  0.00    -0.003 NA
ENDBRANCH  23  24
ENDBRANCH  11  23
BRANCH   6  26
ATOM     26  O   UNL     1      43.529 131.510  16.400  1.00  0.00    -0.424 OA
BRANCH  26  27
ATOM     27  C   UNL     1      44.781 130.885  16.328  1.00  0.00     0.331 C 
ATOM     28  O   UNL     1      45.633 131.017  17.247  1.00  0.00    -0.250 OA
BRANCH  27  29
ATOM     29  C   UNL     1      45.142 130.120  15.093  1.00  0.00     0.118 C 
ATOM     30  C   UNL     1      44.428 130.514  13.806  1.00  0.00     0.040 C 
ATOM     31  C   UNL     1      45.904 130.870  14.002  1.00  0.00     0.022 C 
BRANCH  29  32
ATOM     32  N   UNL     1      45.419 128.693  15.225  1.00  0.00    -0.316 NA
ATOM     33  H   UNL     1      45.725 128.516  16.210  1.00  0.00     0.119 HD
ATOM     34  H   UNL     1      46.230 128.469  14.604  1.00  0.00     0.119 HD
ENDBRANCH  29  32
BRANCH  31  35
ATOM     35  C   UNL     1      46.892 130.056  13.149  1.00  0.00     0.003 C 
ATOM     36  C   UNL     1      48.166 129.777  13.937  1.00  0.00     0.004 C 
ENDBRANCH  31  35
ENDBRANCH  27  29
ENDBRANCH  26  27
ENDBRANCH   6  26
TORSDOF 11
ENDMDL
MODEL 3
REMARK VINA RESULT:      -6.4      1.764      2.092
REMARK SMILES CC[C@H]1C[C@]1(N)C(=O)Oc1ccccc(O)c(NC2(CF)COC2)c(N=[N+]=[N-])c(Cl)c1Cl
REMARK SMILES IDX 15 1 14 2 13 3 12 4 11 5 10 6 31 7 32 8 29 9 30 10 25 11
REMARK SMILES IDX 17 12 16 13 18 15 19 17 22 18 24 19 23 20 20 21 21 22 26 23
REMARK SMILES IDX 27 24 28 25 9 26 7 27 8 28 5 29 4 30 3 31 6 32 2 35 1 36
REMARK H PARENT 16 14 18 16 6 33 6 34
ROOT
ATOM      1  C   UNL     1      40.906 134.507  20.027  1.00  0.00     0.139 A 
ATOM      2  C   UNL     1      42.241 134.412  20.471  1.00  0.00     0.048 A 
ATOM      3  C   UNL     1      43.216 133.566  19.932  1.00  0.00     0.004 A 
ATOM      4  C   UNL     1      42.909 132.353  19.317  1.00  0.00     0.004 A 
ATOM      5  C   UNL     1      43.487 131.948  18.111  1.00  0.00     0.049 A 
ATOM      6  C   UNL     1      44.005 132.820  17.122  1.00  0.00     0.151 A 
ATOM      7  C   UNL     1      43.600 134.170  16.969  1.00  0.00     0.102 A 
ATOM      8  Cl  UNL     1      44.715 135.249  16.128  1.00  0.00    -0.079 Cl
ATOM      9  C   UNL     1      42.373 134.705  17.432  1.00  0.00     0.075 A 
ATOM     10  Cl  UNL     1      42.251 136.438  17.742  1.00  0.00    -0.082 Cl
ATOM     11  C   UNL     1      41.213 133.918  17.614  1.00  0.00     0.085 A 
ATOM     12  C   UNL     1      40.425 133.996  18.791  1.00  0.00     0.088 A 
ENDROOT
BRANCH   1  13
ATOM     13  O   UNL     1      40.025 135.204  20.854  1.00  0.00    -0.506 OA
ATOM     14  H   UNL     1      39.035 135.269  20.652  1.00  0.00     0.293 HD
ENDBRANCH   1  13
BRANCH  12  15
ATOM     15  N   UNL     1      39.055 133.566  18.706  1.00  0.00    -0.369 N 
ATOM     16  H   UNL     1      38.800 132.696  19.227  1.00  0.00     0.161 HD
BRANCH  15  17
ATOM     17  C   UNL     1      37.978 134.421  18.178  1.00  0.00     0.113 C 
ATOM     18  C   UNL     1      36.659 134.239  18.912  1.00  0.00     0.193 C 
ATOM     19  C   UNL     1      37.921 135.805  18.802  1.00  0.00     0.193 C 
ATOM     20  O   UNL     1      36.691 135.546  19.435  1.00  0.00    -0.376 OA
BRANCH  17  21
ATOM     21  C   UNL     1      37.844 134.404  16.648  1.00  0.00     0.247 C 
ATOM     22  F   UNL     1      38.653 135.376  16.090  1.00  0.00    -0.248 F 
ENDBRANCH  17  21
ENDBRANCH  15  17
ENDBRANCH  12  15
BRANCH  11  23
ATOM     23  N   UNL     1      40.769 133.033  16.570  1.00  0.00    -0.057 NA
BRANCH  23  24
ATOM     24  N   UNL     1      40.859 133.316  15.374  1.00  0.00     0.005 N 
ATOM     25  N   UNL     1      40.948 133.601  14.180  1.00  0.00    -0.003 NA
ENDBRANCH  23  24
ENDBRANCH  11  23
BRANCH   6  26
ATOM     26  O   UNL     1      44.930 132.335  16.182  1.00  0.00    -0.424 OA
BRANCH  26  27
ATOM     27  C   UNL     1      45.552 131.080  16.216  1.00  0.00     0.331 C 
ATOM     28  O   UNL     1      46.077 130.637  17.273  1.00  0.00    -0.250 OA
BRANCH  27  29
ATOM     29  C   UNL     1      45.671 130.292  14.948  1.00  0.00     0.118 C 
ATOM     30  C   UNL     1      44.915 130.821  13.736  1.00  0.00     0.040 C 
ATOM     31  C   UNL     1      46.441 130.932  13.795  1.00  0.00     0.022 C 
BRANCH  29  32
ATOM     32  N   UNL     1      45.726 128.837  15.047  1.00  0.00    -0.316 NA
ATOM     33  H   UNL     1      45.848 128.588  16.055  1.00  0.00     0.119 HD
ATOM     34  H   UNL     1      46.586 128.517  14.544  1.00  0.00     0.119 HD
ENDBRANCH  29  32
BRANCH  31  35
ATOM     35  C   UNL     1      47.203 129.989  12.850  1.00  0.00     0.003 C 
ATOM     36  C   UNL     1      48.449 129.444  13.537  1.00  0.00     0.004 C 
ENDBRANCH  31  35
ENDBRANCH  27  29
ENDBRANCH  26  27
ENDBRANCH   6  26
TORSDOF 11
ENDMDL
MODEL 4
REMARK VINA RESULT:      -6.3      1.792      2.119
REMARK SMILES CC[C@H]1C[C@]1(N)C(=O)Oc1ccccc(O)c(NC2(CF)COC2)c(N=[N+]=[N-])c(Cl)c1Cl
REMARK SMILES IDX 15 1 14 2 13 3 12 4 11 5 10 6 31 7 32 8 29 9 30 10 25 11
REMARK SMILES IDX 17 12 16 13 18 15 19 17 22 18 24 19 23 20 20 21 21 22 26 23
REMARK SMILES IDX 27 24 28 25 9 26 7 27 8 28 5 29 4 30 3 31 6 32 2 35 1 36
REMARK H PARENT 16 14 18 16 6 33 6 34
ROOT
ATOM      1  C   UNL     1      42.009 133.899  20.854  1.00  0.00     0.139 A 
ATOM      2  C   UNL     1      43.147 133.154  20.482  1.00  0.00     0.048 A 
ATOM      3  C   UNL     1      43.323 132.499  19.259  1.00  0.00     0.004 A 
ATOM      4  C   UNL     1      42.257 132.013  18.501  1.00  0.00     0.004 A 
ATOM      5  C   UNL     1      42.168 132.195  17.118  1.00  0.00     0.049 A 
ATOM      6  C   UNL     1      42.772 133.251  16.394  1.00  0.00     0.151 A 
ATOM      7  C   UNL     1      43.129 134.498  16.966  1.00  0.00     0.102 A 
ATOM      8  Cl  UNL     1      44.361 135.441  16.126  1.00  0.00    -0.079 Cl
ATOM      9  C   UNL     1      42.564 135.038  18.147  1.00  0.00     0.075 A 
ATOM     10  Cl  UNL     1      43.480 136.229  19.074  1.00  0.00    -0.082 Cl
ATOM     11  C   UNL     1      41.268 134.703  18.601  1.00  0.00     0.085 A 
ATOM     12  C   UNL     1      41.008 134.353  19.952  1.00  0.00     0.088 A 
ENDROOT
BRANCH   1  13
ATOM     13  O   UNL     1      41.908 134.249  22.200  1.00  0.00    -0.506 OA
ATOM     14  H   UNL     1      42.649 134.057  22.862  1.00  0.00     0.293 HD
ENDBRANCH   1  13
BRANCH  12  15
ATOM     15  N   UNL     1      39.662 134.507  20.433  1.00  0.00    -0.369 N 
ATOM     16  H   UNL     1      39.135 133.631  20.650  1.00  0.00     0.161 HD
BRANCH  15  17
ATOM     17  C   UNL     1      39.116 135.797  20.889  1.00  0.00     0.113 C 
ATOM     18  C   UNL     1      39.171 135.967  22.400  1.00  0.00     0.193 C 
ATOM     19  C   UNL     1      40.130 136.928  20.911  1.00  0.00     0.193 C 
ATOM     20  O   UNL     1      40.106 137.016  22.316  1.00  0.00    -0.376 OA
BRANCH  17  21
ATOM     21  C   UNL     1      37.759 136.168  20.273  1.00  0.00     0.247 C 
ATOM     22  F   UNL     1      37.463 135.311  19.229  1.00  0.00    -0.248 F 
ENDBRANCH  17  21
ENDBRANCH  15  17
ENDBRANCH  12  15
BRANCH  11  23
ATOM     23  N   UNL     1      40.150 134.751  17.697  1.00  0.00    -0.057 NA
BRANCH  23  24
ATOM     24  N   UNL     1      40.036 135.615  16.825  1.00  0.00     0.005 N 
ATOM     25  N   UNL     1      39.923 136.478  15.957  1.00  0.00    -0.003 NA
ENDBRANCH  23  24
ENDBRANCH  11  23
BRANCH   6  26
ATOM     26  O   UNL     1      42.989 133.112  15.013  1.00  0.00    -0.424 OA
BRANCH  26  27
ATOM     27  C   UNL     1      43.409 131.945  14.362  1.00  0.00     0.331 C 
ATOM     28  O   UNL     1      42.646 131.321  13.577  1.00  0.00    -0.250 OA
BRANCH  27  29
ATOM     29  C   UNL     1      44.761 131.383  14.675  1.00  0.00     0.118 C 
ATOM     30  C   UNL     1      44.803 129.976  15.257  1.00  0.00     0.040 C 
ATOM     31  C   UNL     1      45.255 130.222  13.814  1.00  0.00     0.022 C 
BRANCH  29  32
ATOM     32  N   UNL     1      45.778 132.291  15.199  1.00  0.00    -0.316 NA
ATOM     33  H   UNL     1      46.590 132.276  14.541  1.00  0.00     0.119 HD
ATOM     34  H   UNL     1      46.111 131.901  16.110  1.00  0.00     0.119 HD
ENDBRANCH  29  32
BRANCH  31  35
ATOM     35  C   UNL     1      46.770 130.119  13.576  1.00  0.00     0.003 C 
ATOM     36  C   UNL     1      47.122 130.611  12.177  1.00  0.00     0.004 C 
ENDBRANCH  31  35
ENDBRANCH  27  29
ENDBRANCH  26  27
ENDBRANCH   6  26
TORSDOF 11
ENDMDL
MODEL 5
REMARK VINA RESULT:      -6.1      3.566      4.313
REMARK SMILES CC[C@H]1C[C@]1(N)C(=O)Oc1ccccc(O)c(NC2(CF)COC2)c(N=[N+]=[N-])c(Cl)c1Cl
REMARK SMILES IDX 15 1 14 2 13 3 12 4 11 5 10 6 31 7 32 8 29 9 30 10 25 11
REMARK SMILES IDX 17 12 16 13 18 15 19 17 22 18 24 19 23 20 20 21 21 22 26 23
REMARK SMILES IDX 27 24 28 25 9 26 7 27 8 28 5 29 4 30 3 31 6 32 2 35 1 36
REMARK H PARENT 16 14 18 16 6 33 6 34
ROOT
ATOM      1  C   UNL     1      39.577 136.702  17.370  1.00  0.00     0.139 A 
ATOM      2  C   UNL     1      40.161 136.148  18.528  1.00  0.00     0.048 A 
ATOM      3  C   UNL     1      40.719 134.870  18.622  1.00  0.00     0.004 A 
ATOM      4  C   UNL     1      40.297 133.800  17.834  1.00  0.00     0.004 A 
ATOM      5  C   UNL     1      41.188 132.926  17.205  1.00  0.00     0.049 A 
ATOM      6  C   UNL     1      42.517 133.244  16.833  1.00  0.00     0.151 A 
ATOM      7  C   UNL     1      42.976 134.564  16.597  1.00  0.00     0.102 A 
ATOM      8  Cl  UNL     1      44.714 134.842  16.727  1.00  0.00    -0.079 Cl
ATOM      9  C   UNL     1      42.147 135.661  16.258  1.00  0.00     0.075 A 
ATOM     10  Cl  UNL     1      42.707 137.301  16.595  1.00  0.00    -0.082 Cl
ATOM     11  C   UNL     1      40.900 135.510  15.611  1.00  0.00     0.085 A 
ATOM     12  C   UNL     1      39.731 136.180  16.057  1.00  0.00     0.088 A 
ENDROOT
BRANCH   1  13
ATOM     13  O   UNL     1      38.843 137.876  17.545  1.00  0.00    -0.506 OA
ATOM     14  H   UNL     1      38.048 138.105  16.962  1.00  0.00     0.293 HD
ENDBRANCH   1  13
BRANCH  12  15
ATOM     15  N   UNL     1      38.669 136.370  15.107  1.00  0.00    -0.369 N 
ATOM     16  H   UNL     1      37.897 135.664  15.114  1.00  0.00     0.161 HD
BRANCH  15  17
ATOM     17  C   UNL     1      38.480 137.623  14.355  1.00  0.00     0.113 C 
ATOM     18  C   UNL     1      37.924 137.401  12.957  1.00  0.00     0.193 C 
ATOM     19  C   UNL     1      37.133 138.287  14.584  1.00  0.00     0.193 C 
ATOM     20  O   UNL     1      36.710 138.044  13.263  1.00  0.00    -0.376 OA
BRANCH  17  21
ATOM     21  C   UNL     1      39.680 138.580  14.401  1.00  0.00     0.247 C 
ATOM     22  F   UNL     1      40.736 138.050  13.681  1.00  0.00    -0.248 F 
ENDBRANCH  17  21
ENDBRANCH  15  17
ENDBRANCH  12  15
BRANCH  11  23
ATOM     23  N   UNL     1      40.790 134.689  14.435  1.00  0.00    -0.057 NA
BRANCH  23  24
ATOM     24  N   UNL     1      39.801 133.993  14.198  1.00  0.00     0.005 N 
ATOM     25  N   UNL     1      38.814 133.299  13.958  1.00  0.00    -0.003 NA
ENDBRANCH  23  24
ENDBRANCH  11  23
BRANCH   6  26
ATOM     26  O   UNL     1      43.445 132.211  16.618  1.00  0.00    -0.424 OA
BRANCH  26  27
ATOM     27  C   UNL     1      43.861 131.729  15.370  1.00  0.00     0.331 C 
ATOM     28  O   UNL     1      43.143 131.863  14.343  1.00  0.00    -0.250 OA
BRANCH  27  29
ATOM     29  C   UNL     1      45.143 130.962  15.276  1.00  0.00     0.118 C 
ATOM     30  C   UNL     1      45.052 129.449  15.430  1.00  0.00     0.040 C 
ATOM     31  C   UNL     1      45.335 130.063  14.056  1.00  0.00     0.022 C 
BRANCH  29  32
ATOM     32  N   UNL     1      46.346 131.562  15.845  1.00  0.00    -0.316 NA
ATOM     33  H   UNL     1      46.140 131.812  16.839  1.00  0.00     0.119 HD
ATOM     34  H   UNL     1      46.526 132.456  15.333  1.00  0.00     0.119 HD
ENDBRANCH  29  32
BRANCH  31  35
ATOM     35  C   UNL     1      46.771 129.877  13.539  1.00  0.00     0.003 C 
ATOM     36  C   UNL     1      46.991 130.704  12.278  1.00  0.00     0.004 C 
ENDBRANCH  31  35
ENDBRANCH  27  29
ENDBRANCH  26  27
ENDBRANCH   6  26
TORSDOF 11
ENDMDL
MODEL 6
REMARK VINA RESULT:      -5.9      2.870      3.416
REMARK SMILES CC[C@H]1C[C@]1(N)C(=O)Oc1ccccc(O)c(NC2(CF)COC2)c(N=[N+]=[N-])c(Cl)c1Cl
REMARK SMILES IDX 15 1 14 2 13 3 12 4 11 5 10 6 31 7 32 8 29 9 30 10 25 11
REMARK SMILES IDX 17 12 16 13 18 15 19 17 22 18 24 19 23 20 20 21 21 22 26 23
REMARK SMILES IDX 27 24 28 25 9 26 7 27 8 28 5 29 4 30 3 31 6 32 2 35 1 36
REMARK H PARENT 16 14 18 16 6 33 6 34
ROOT
ATOM      1  C   UNL     1      41.816 135.455  20.820  1.00  0.00     0.139 A 
ATOM      2  C   UNL     1      41.354 134.124  20.894  1.00  0.00     0.048 A 
ATOM      3  C   UNL     1      41.548 133.143  19.916  1.00  0.00     0.004 A 
ATOM      4  C   UNL     1      41.695 133.444  18.562  1.00  0.00     0.004 A 
ATOM      5  C   UNL     1      42.673 132.852  17.758  1.00  0.00     0.049 A 
ATOM      6  C   UNL     1      43.902 132.324  18.224  1.00  0.00     0.151 A 
ATOM      7  C   UNL     1      44.528 132.727  19.430  1.00  0.00     0.102 A 
ATOM      8  Cl  UNL     1      45.686 131.603  20.145  1.00  0.00    -0.079 Cl
ATOM      9  C   UNL     1      44.297 133.959  20.089  1.00  0.00     0.075 A 
ATOM     10  Cl  UNL     1      44.624 134.085  21.820  1.00  0.00    -0.082 Cl
ATOM     11  C   UNL     1      43.860 135.120  19.414  1.00  0.00     0.085 A 
ATOM     12  C   UNL     1      42.795 135.921  19.901  1.00  0.00     0.088 A 
ENDROOT
BRANCH   1  13
ATOM     13  O   UNL     1      41.299 136.345  21.762  1.00  0.00    -0.506 OA
ATOM     14  H   UNL     1      40.304 136.456  21.907  1.00  0.00     0.293 HD
ENDBRANCH   1  13
BRANCH  12  15
ATOM     15  N   UNL     1      42.736 137.290  19.464  1.00  0.00    -0.369 N 
ATOM     16  H   UNL     1      43.602 137.863  19.589  1.00  0.00     0.161 HD
BRANCH  15  17
ATOM     17  C   UNL     1      41.651 137.816  18.617  1.00  0.00     0.113 C 
ATOM     18  C   UNL     1      40.599 136.771  18.279  1.00  0.00     0.193 C 
ATOM     19  C   UNL     1      40.508 138.447  19.393  1.00  0.00     0.193 C 
ATOM     20  O   UNL     1      39.602 137.437  19.018  1.00  0.00    -0.376 OA
BRANCH  17  21
ATOM     21  C   UNL     1      42.128 138.630  17.405  1.00  0.00     0.247 C 
ATOM     22  F   UNL     1      43.378 139.164  17.655  1.00  0.00    -0.248 F 
ENDBRANCH  17  21
ENDBRANCH  15  17
ENDBRANCH  12  15
BRANCH  11  23
ATOM     23  N   UNL     1      44.525 135.553  18.215  1.00  0.00    -0.057 NA
BRANCH  23  24
ATOM     24  N   UNL     1      43.963 135.596  17.119  1.00  0.00     0.005 N 
ATOM     25  N   UNL     1      43.403 135.641  16.024  1.00  0.00    -0.003 NA
ENDBRANCH  23  24
ENDBRANCH  11  23
BRANCH   6  26
ATOM     26  O   UNL     1      44.598 131.388  17.440  1.00  0.00    -0.424 OA
BRANCH  26  27
ATOM     27  C   UNL     1      45.359 131.678  16.300  1.00  0.00     0.331 C 
ATOM     28  O   UNL     1      45.458 132.854  15.860  1.00  0.00    -0.250 OA
BRANCH  27  29
ATOM     29  C   UNL     1      45.993 130.553  15.543  1.00  0.00     0.118 C 
ATOM     30  C   UNL     1      45.063 129.662  14.729  1.00  0.00     0.040 C 
ATOM     31  C   UNL     1      45.996 130.647  14.018  1.00  0.00     0.022 C 
BRANCH  29  32
ATOM     32  N   UNL     1      47.119 129.858  16.160  1.00  0.00    -0.316 NA
ATOM     33  H   UNL     1      47.798 130.581  16.492  1.00  0.00     0.119 HD
ATOM     34  H   UNL     1      47.598 129.305  15.412  1.00  0.00     0.119 HD
ENDBRANCH  29  32
BRANCH  31  35
ATOM     35  C   UNL     1      47.181 130.009  13.277  1.00  0.00     0.003 C 
ATOM     36  C   UNL     1      47.294 130.579  11.868  1.00  0.00     0.004 C 
ENDBRANCH  31  35
ENDBRANCH  27  29
ENDBRANCH  26  27
ENDBRANCH   6  26
TORSDOF 11
ENDMDL
MODEL 7
REMARK VINA RESULT:      -5.9      3.324      7.741
REMARK SMILES CC[C@H]1C[C@]1(N)C(=O)Oc1ccccc(O)c(NC2(CF)COC2)c(N=[N+]=[N-])c(Cl)c1Cl
REMARK SMILES IDX 15 1 14 2 13 3 12 4 11 5 10 6 31 7 32 8 29 9 30 10 25 11
REMARK SMILES IDX 17 12 16 13 18 15 19 17 22 18 24 19 23 20 20 21 21 22 26 23
REMARK SMILES IDX 27 24 28 25 9 26 7 27 8 28 5 29 4 30 3 31 6 32 2 35 1 36
REMARK H PARENT 16 14 18 16 6 33 6 34
ROOT
ATOM      1  C   UNL     1      45.092 131.903  18.141  1.00  0.00     0.139 A 
ATOM      2  C   UNL     1      44.632 132.578  19.290  1.00  0.00     0.048 A 
ATOM      3  C   UNL     1      44.061 133.854  19.306  1.00  0.00     0.004 A 
ATOM      4  C   UNL     1      44.368 134.832  18.360  1.00  0.00     0.004 A 
ATOM      5  C   UNL     1      43.393 135.623  17.746  1.00  0.00     0.049 A 
ATOM      6  C   UNL     1      42.037 135.253  17.567  1.00  0.00     0.151 A 
ATOM      7  C   UNL     1      41.582 133.911  17.533  1.00  0.00     0.102 A 
ATOM      8  Cl  UNL     1      39.877 133.635  17.893  1.00  0.00    -0.079 Cl
ATOM      9  C   UNL     1      42.391 132.790  17.224  1.00  0.00     0.075 A 
ATOM     10  Cl  UNL     1      41.907 131.194  17.803  1.00  0.00    -0.082 Cl
ATOM     11  C   UNL     1      43.553 132.879  16.425  1.00  0.00     0.085 A 
ATOM     12  C   UNL     1      44.778 132.272  16.805  1.00  0.00     0.088 A 
ENDROOT
BRANCH   1  13
ATOM     13  O   UNL     1      45.866 130.762  18.359  1.00  0.00    -0.506 OA
ATOM     14  H   UNL     1      45.546 129.999  18.941  1.00  0.00     0.293 HD
ENDBRANCH   1  13
BRANCH  12  15
ATOM     15  N   UNL     1      45.730 131.985  15.766  1.00  0.00    -0.369 N 
ATOM     16  H   UNL     1      46.544 132.635  15.679  1.00  0.00     0.161 HD
BRANCH  15  17
ATOM     17  C   UNL     1      45.760 130.705  15.037  1.00  0.00     0.113 C 
ATOM     18  C   UNL     1      46.097 130.866  13.563  1.00  0.00     0.193 C 
ATOM     19  C   UNL     1      47.105 130.000  15.077  1.00  0.00     0.193 C 
ATOM     20  O   UNL     1      47.324 130.189  13.699  1.00  0.00    -0.376 OA
BRANCH  17  21
ATOM     21  C   UNL     1      44.552 129.794  15.301  1.00  0.00     0.247 C 
ATOM     22  F   UNL     1      44.949 128.470  15.303  1.00  0.00    -0.248 F 
ENDBRANCH  17  21
ENDBRANCH  15  17
ENDBRANCH  12  15
BRANCH  11  23
ATOM     23  N   UNL     1      43.510 133.563  15.161  1.00  0.00    -0.057 NA
BRANCH  23  24
ATOM     24  N   UNL     1      42.532 133.519  14.412  1.00  0.00     0.005 N 
ATOM     25  N   UNL     1      41.557 133.473  13.663  1.00  0.00    -0.003 NA
ENDBRANCH  23  24
ENDBRANCH  11  23
BRANCH   6  26
ATOM     26  O   UNL     1      41.069 136.248  17.347  1.00  0.00    -0.424 OA
BRANCH  26  27
ATOM     27  C   UNL     1      40.815 137.345  18.181  1.00  0.00     0.331 C 
ATOM     28  O   UNL     1      39.905 137.309  19.052  1.00  0.00    -0.250 OA
BRANCH  27  29
ATOM     29  C   UNL     1      41.583 138.612  17.970  1.00  0.00     0.118 C 
ATOM     30  C   UNL     1      41.567 139.624  19.109  1.00  0.00     0.040 C 
ATOM     31  C   UNL     1      42.838 138.821  18.817  1.00  0.00     0.022 C 
BRANCH  29  32
ATOM     32  N   UNL     1      41.588 139.198  16.633  1.00  0.00    -0.316 NA
ATOM     33  H   UNL     1      41.699 138.420  15.943  1.00  0.00     0.119 HD
ATOM     34  H   UNL     1      42.438 139.803  16.556  1.00  0.00     0.119 HD
ENDBRANCH  29  32
BRANCH  31  35
ATOM     35  C   UNL     1      43.987 139.622  18.184  1.00  0.00     0.003 C 
ATOM     36  C   UNL     1      45.332 139.096  18.673  1.00  0.00     0.004 C 
ENDBRANCH  31  35
ENDBRANCH  27  29
ENDBRANCH  26  27
ENDBRANCH   6  26
TORSDOF 11
ENDMDL
MODEL 8
REMARK VINA RESULT:      -5.9      3.035      3.611
REMARK SMILES CC[C@H]1C[C@]1(N)C(=O)Oc1ccccc(O)c(NC2(CF)COC2)c(N=[N+]=[N-])c(Cl)c1Cl
REMARK SMILES IDX 15 1 14 2 13 3 12 4 11 5 10 6 31 7 32 8 29 9 30 10 25 11
REMARK SMILES IDX 17 12 16 13 18 15 19 17 22 18 24 19 23 20 20 21 21 22 26 23
REMARK SMILES IDX 27 24 28 25 9 26 7 27 8 28 5 29 4 30 3 31 6 32 2 35 1 36
REMARK H PARENT 16 14 18 16 6 33 6 34
ROOT
ATOM      1  C   UNL     1      39.650 135.317  18.552  1.00  0.00     0.139 A 
ATOM      2  C   UNL     1      39.954 134.064  19.124  1.00  0.00     0.048 A 
ATOM      3  C   UNL     1      40.831 133.118  18.584  1.00  0.00     0.004 A 
ATOM      4  C   UNL     1      41.072 133.005  17.214  1.00  0.00     0.004 A 
ATOM      5  C   UNL     1      42.356 132.854  16.683  1.00  0.00     0.049 A 
ATOM      6  C   UNL     1      43.552 133.291  17.302  1.00  0.00     0.151 A 
ATOM      7  C   UNL     1      43.609 134.331  18.264  1.00  0.00     0.102 A 
ATOM      8  Cl  UNL     1      45.009 134.353  19.337  1.00  0.00    -0.079 Cl
ATOM      9  C   UNL     1      42.634 135.348  18.414  1.00  0.00     0.075 A 
ATOM     10  Cl  UNL     1      42.482 136.172  19.968  1.00  0.00    -0.082 Cl
ATOM     11  C   UNL     1      41.801 135.775  17.356  1.00  0.00     0.085 A 
ATOM     12  C   UNL     1      40.400 135.937  17.517  1.00  0.00     0.088 A 
ENDROOT
BRANCH   1  13
ATOM     13  O   UNL     1      38.562 136.000  19.095  1.00  0.00    -0.506 OA
ATOM     14  H   UNL     1      37.828 136.390  18.517  1.00  0.00     0.293 HD
ENDBRANCH   1  13
BRANCH  12  15
ATOM     15  N   UNL     1      39.721 136.811  16.598  1.00  0.00    -0.369 N 
ATOM     16  H   UNL     1      40.073 137.794  16.534  1.00  0.00     0.161 HD
BRANCH  15  17
ATOM     17  C   UNL     1      38.780 136.324  15.575  1.00  0.00     0.113 C 
ATOM     18  C   UNL     1      37.325 136.593  15.927  1.00  0.00     0.193 C 
ATOM     19  C   UNL     1      38.501 137.320  14.463  1.00  0.00     0.193 C 
ATOM     20  O   UNL     1      37.162 137.496  14.860  1.00  0.00    -0.376 OA
BRANCH  17  21
ATOM     21  C   UNL     1      39.047 134.889  15.096  1.00  0.00     0.247 C 
ATOM     22  F   UNL     1      37.987 134.070  15.439  1.00  0.00    -0.248 F 
ENDBRANCH  17  21
ENDBRANCH  15  17
ENDBRANCH  12  15
BRANCH  11  23
ATOM     23  N   UNL     1      42.368 136.105  16.076  1.00  0.00    -0.057 NA
BRANCH  23  24
ATOM     24  N   UNL     1      42.431 137.261  15.653  1.00  0.00     0.005 N 
ATOM     25  N   UNL     1      42.497 138.415  15.232  1.00  0.00    -0.003 NA
ENDBRANCH  23  24
ENDBRANCH  11  23
BRANCH   6  26
ATOM     26  O   UNL     1      44.780 132.725  16.921  1.00  0.00    -0.424 OA
BRANCH  26  27
ATOM     27  C   UNL     1      45.103 131.363  16.961  1.00  0.00     0.331 C 
ATOM     28  O   UNL     1      45.400 130.792  18.045  1.00  0.00    -0.250 OA
BRANCH  27  29
ATOM     29  C   UNL     1      45.183 130.595  15.679  1.00  0.00     0.118 C 
ATOM     30  C   UNL     1      44.234 131.016  14.565  1.00  0.00     0.040 C 
ATOM     31  C   UNL     1      45.729 131.328  14.455  1.00  0.00     0.022 C 
BRANCH  29  32
ATOM     32  N   UNL     1      45.440 129.159  15.752  1.00  0.00    -0.316 NA
ATOM     33  H   UNL     1      44.778 128.682  15.099  1.00  0.00     0.119 HD
ATOM     34  H   UNL     1      45.200 128.844  16.720  1.00  0.00     0.119 HD
ENDBRANCH  29  32
BRANCH  31  35
ATOM     35  C   UNL     1      46.498 130.492  13.420  1.00  0.00     0.003 C 
ATOM     36  C   UNL     1      47.838 131.146  13.101  1.00  0.00     0.004 C 
ENDBRANCH  31  35
ENDBRANCH  27  29
ENDBRANCH  26  27
ENDBRANCH   6  26
TORSDOF 11
ENDMDL
MODEL 9
REMARK VINA RESULT:      -5.8      3.022      7.796
REMARK SMILES CC[C@H]1C[C@]1(N)C(=O)Oc1ccccc(O)c(NC2(CF)COC2)c(N=[N+]=[N-])c(Cl)c1Cl
REMARK SMILES IDX 15 1 14 2 13 3 12 4 11 5 10 6 31 7 32 8 29 9 30 10 25 11
REMARK SMILES IDX 17 12 16 13 18 15 19 17 22 18 24 19 23 20 20 21 21 22 26 23
REMARK SMILES IDX 27 24 28 25 9 26 7 27 8 28 5 29 4 30 3 31 6 32 2 35 1 36
REMARK H PARENT 16 14 18 16 6 33 6 34
ROOT
ATOM      1  C   UNL     1      44.921 131.992  18.062  1.00  0.00     0.139 A 
ATOM      2  C   UNL     1      44.409 132.627  19.212  1.00  0.00     0.048 A 
ATOM      3  C   UNL     1      43.825 133.897  19.245  1.00  0.00     0.004 A 
ATOM      4  C   UNL     1      44.159 134.907  18.342  1.00  0.00     0.004 A 
ATOM      5  C   UNL     1      43.201 135.707  17.714  1.00  0.00     0.049 A 
ATOM      6  C   UNL     1      41.857 135.332  17.471  1.00  0.00     0.151 A 
ATOM      7  C   UNL     1      41.417 133.987  17.378  1.00  0.00     0.102 A 
ATOM      8  Cl  UNL     1      39.703 133.685  17.661  1.00  0.00    -0.079 Cl
ATOM      9  C   UNL     1      42.249 132.884  17.067  1.00  0.00     0.075 A 
ATOM     10  Cl  UNL     1      41.760 131.266  17.577  1.00  0.00    -0.082 Cl
ATOM     11  C   UNL     1      43.440 133.007  16.317  1.00  0.00     0.085 A 
ATOM     12  C   UNL     1      44.656 132.401  16.726  1.00  0.00     0.088 A 
ENDROOT
BRANCH   1  13
ATOM     13  O   UNL     1      45.697 130.853  18.275  1.00  0.00    -0.506 OA
ATOM     14  H   UNL     1      46.348 130.508  17.581  1.00  0.00     0.293 HD
ENDBRANCH   1  13
BRANCH  12  15
ATOM     15  N   UNL     1      45.651 132.155  15.717  1.00  0.00    -0.369 N 
ATOM     16  H   UNL     1      46.431 132.847  15.645  1.00  0.00     0.161 HD
BRANCH  15  17
ATOM     17  C   UNL     1      45.771 130.871  15.005  1.00  0.00     0.113 C 
ATOM     18  C   UNL     1      46.414 131.007  13.634  1.00  0.00     0.193 C 
ATOM     19  C   UNL     1      47.042 130.102  15.320  1.00  0.00     0.193 C 
ATOM     20  O   UNL     1      47.552 130.273  14.019  1.00  0.00    -0.376 OA
BRANCH  17  21
ATOM     21  C   UNL     1      44.492 130.020  15.008  1.00  0.00     0.247 C 
ATOM     22  F   UNL     1      44.731 128.807  15.625  1.00  0.00    -0.248 F 
ENDBRANCH  17  21
ENDBRANCH  15  17
ENDBRANCH  12  15
BRANCH  11  23
ATOM     23  N   UNL     1      43.441 133.730  15.074  1.00  0.00    -0.057 NA
BRANCH  23  24
ATOM     24  N   UNL     1      42.478 133.734  14.305  1.00  0.00     0.005 N 
ATOM     25  N   UNL     1      41.514 133.739  13.540  1.00  0.00    -0.003 NA
ENDBRANCH  23  24
ENDBRANCH  11  23
BRANCH   6  26
ATOM     26  O   UNL     1      40.888 136.324  17.244  1.00  0.00    -0.424 OA
BRANCH  26  27
ATOM     27  C   UNL     1      40.722 137.496  17.993  1.00  0.00     0.331 C 
ATOM     28  O   UNL     1      40.757 138.632  17.449  1.00  0.00    -0.250 OA
BRANCH  27  29
ATOM     29  C   UNL     1      40.589 137.395  19.481  1.00  0.00     0.118 C 
ATOM     30  C   UNL     1      39.241 137.779  20.079  1.00  0.00     0.040 C 
ATOM     31  C   UNL     1      39.667 136.309  20.031  1.00  0.00     0.022 C 
BRANCH  29  32
ATOM     32  N   UNL     1      41.744 137.753  20.299  1.00  0.00    -0.316 NA
ATOM     33  H   UNL     1      42.272 138.503  19.798  1.00  0.00     0.119 HD
ATOM     34  H   UNL     1      42.369 136.916  20.349  1.00  0.00     0.119 HD
ENDBRANCH  29  32
BRANCH  31  35
ATOM     35  C   UNL     1      40.041 135.691  21.389  1.00  0.00     0.003 C 
ATOM     36  C   UNL     1      40.683 134.323  21.189  1.00  0.00     0.004 C 
ENDBRANCH  31  35
ENDBRANCH  27  29
ENDBRANCH  26  27
ENDBRANCH   6  26
TORSDOF 11
ENDMDL


