REMARK SMILES C=C(C)C(OC(=O)[C@H]1C[C@@H]2C[C@@H]2C1)=[N+]1C[C@@H]2CC[C@H](Oc3ccc4c5c(ccc(N=[N+]=[N-])c35)CC4)[C@@H]2C1
REMARK SMILES IDX 14 1 37 2 36 3 19 4 18 5 17 6 16 7 15 8 4 9 2 10 1 11 3 12
REMARK SMILES IDX 5 13 6 14 7 15 8 16 9 17 13 18 10 19 12 20 11 21 20 22 21 23
REMARK SMILES IDX 22 24 33 25 23 26 29 27 25 28 24 29 28 30 26 31 35 32 27 33
REMARK SMILES IDX 34 34 30 35 31 36 32 37
REMARK H PARENT
ROOT
ATOM      1  N   UNL     1      -1.118   2.685   0.674  1.00  0.00    -0.197 N 
ATOM      2  C   UNL     1       0.281   2.830   0.296  1.00  0.00     0.362 C 
ATOM      3  C   UNL     1       0.269   3.519  -1.063  1.00  0.00     0.105 C 
ATOM      4  C   UNL     1       0.267   2.591  -2.293  1.00  0.00     0.183 C 
ATOM      5  C   UNL     1      -0.447   3.425  -3.347  1.00  0.00     0.046 C 
ATOM      6  C   UNL     1      -1.500   4.237  -2.596  1.00  0.00     0.014 C 
ATOM      7  C   UNL     1      -1.059   4.263  -1.124  1.00  0.00     0.068 C 
ATOM      8  C   UNL     1      -1.992   3.508  -0.158  1.00  0.00     0.358 C 
ENDROOT
BRANCH   1   9
ATOM      9  C   UNL     1      -1.493   1.913   1.663  1.00  0.00     0.372 C 
BRANCH   9  10
ATOM     10  C   UNL     1      -2.901   1.848   2.135  1.00  0.00     0.054 C 
ATOM     11  C   UNL     1      -3.165   2.111   3.417  1.00  0.00     0.023 C 
ATOM     12  C   UNL     1      -4.022   1.470   1.212  1.00  0.00     0.055 C 
ENDBRANCH   9  10
BRANCH   9  13
ATOM     13  O   UNL     1      -0.516   1.169   2.338  1.00  0.00    -0.371 OA
BRANCH  13  14
ATOM     14  C   UNL     1      -0.665  -0.174   2.703  1.00  0.00     0.318 C 
ATOM     15  O   UNL     1      -1.704  -0.818   2.392  1.00  0.00    -0.251 OA
BRANCH  14  16
ATOM     16  C   UNL     1       0.434  -0.860   3.465  1.00  0.00     0.100 C 
ATOM     17  C   UNL     1       1.818  -0.626   2.842  1.00  0.00     0.019 C 
ATOM     18  C   UNL     1       0.517  -0.362   4.912  1.00  0.00     0.019 C 
ATOM     19  C   UNL     1       2.790  -0.349   3.979  1.00  0.00    -0.007 C 
ATOM     20  C   UNL     1       1.991  -0.191   5.252  1.00  0.00    -0.007 C 
ATOM     21  C   UNL     1       2.886  -1.411   5.069  1.00  0.00     0.007 C 
ENDBRANCH  14  16
ENDBRANCH  13  14
ENDBRANCH   9  13
ENDBRANCH   1   9
BRANCH   4  22
ATOM     22  O   UNL     1      -0.507   1.403  -2.088  1.00  0.00    -0.489 OA
BRANCH  22  23
ATOM     23  C   UNL     1      -0.070   0.168  -1.577  1.00  0.00     0.128 A 
ATOM     24  C   UNL     1       1.303  -0.103  -1.308  1.00  0.00     0.047 A 
ATOM     25  C   UNL     1      -1.036  -0.835  -1.296  1.00  0.00     0.034 A 
ATOM     26  C   UNL     1       1.698  -1.318  -0.712  1.00  0.00     0.008 A 
ATOM     27  C   UNL     1      -2.425  -0.744  -1.579  1.00  0.00     0.049 A 
ATOM     28  C   UNL     1      -0.585  -2.006  -0.688  1.00  0.00    -0.008 A 
ATOM     29  C   UNL     1       0.717  -2.256  -0.398  1.00  0.00    -0.039 A 
ATOM     30  C   UNL     1      -3.281  -1.816  -1.194  1.00  0.00     0.011 A 
ATOM     31  C   UNL     1      -1.395  -3.035  -0.326  1.00  0.00    -0.039 A 
ATOM     32  C   UNL     1       0.864  -3.611   0.222  1.00  0.00     0.041 C 
ATOM     33  C   UNL     1      -2.766  -2.962  -0.558  1.00  0.00     0.005 A 
ATOM     34  C   UNL     1      -0.596  -4.140   0.286  1.00  0.00     0.041 C 
BRANCH  27  35
ATOM     35  N   UNL     1      -2.947   0.397  -2.277  1.00  0.00    -0.060 NA
BRANCH  35  36
ATOM     36  N   UNL     1      -4.148   0.545  -2.505  1.00  0.00     0.005 N 
ATOM     37  N   UNL     1      -5.347   0.695  -2.736  1.00  0.00    -0.003 NA
ENDBRANCH  35  36
ENDBRANCH  27  35
ENDBRANCH  22  23
ENDBRANCH   4  22
TORSDOF 9


