MODEL 1
REMARK VINA RESULT:      -7.6      0.000      0.000
REMARK SMILES C=C(C)C(OC(=O)[C@H]1C[C@@H]2C[C@@H]2C1)=[N+]1C[C@@H]2CC[C@H](Oc3ccc4c5c(ccc(N=[N+]=[N-])c35)CC4)[C@@H]2C1
REMARK SMILES IDX 14 1 37 2 36 3 19 4 18 5 17 6 16 7 15 8 4 9 2 10 1 11 3 12
REMARK SMILES IDX 5 13 6 14 7 15 8 16 9 17 13 18 10 19 12 20 11 21 20 22 21 23
REMARK SMILES IDX 22 24 33 25 23 26 29 27 25 28 24 29 28 30 26 31 35 32 27 33
REMARK SMILES IDX 34 34 30 35 31 36 32 37
REMARK H PARENT
ROOT
ATOM      1  N   UNL     1      43.325 132.152  16.467  1.00  0.00    -0.197 N 
ATOM      2  C   UNL     1      42.066 132.520  17.096  1.00  0.00     0.362 C 
ATOM      3  C   UNL     1      41.327 133.444  16.112  1.00  0.00     0.105 C 
ATOM      4  C   UNL     1      41.069 134.880  16.619  1.00  0.00     0.183 C 
ATOM      5  C   UNL     1      42.220 135.708  16.075  1.00  0.00     0.046 C 
ATOM      6  C   UNL     1      42.531 135.085  14.727  1.00  0.00     0.014 C 
ATOM      7  C   UNL     1      42.235 133.587  14.882  1.00  0.00     0.068 C 
ATOM      8  C   UNL     1      43.493 132.743  15.147  1.00  0.00     0.358 C 
ENDROOT
BRANCH   1   9
ATOM      9  C   UNL     1      44.220 131.421  17.083  1.00  0.00     0.372 C 
BRANCH   9  10
ATOM     10  C   UNL     1      44.708 131.788  18.437  1.00  0.00     0.054 C 
ATOM     11  C   UNL     1      44.587 133.048  18.860  1.00  0.00     0.023 C 
ATOM     12  C   UNL     1      45.370 130.767  19.317  1.00  0.00     0.055 C 
ENDBRANCH   9  10
BRANCH   9  13
ATOM     13  O   UNL     1      44.654 130.232  16.470  1.00  0.00    -0.371 OA
BRANCH  13  14
ATOM     14  C   UNL     1      45.910 130.006  15.896  1.00  0.00     0.318 C 
ATOM     15  O   UNL     1      46.973 130.313  16.502  1.00  0.00    -0.251 OA
BRANCH  14  16
ATOM     16  C   UNL     1      45.968 129.471  14.488  1.00  0.00     0.100 C 
ATOM     17  C   UNL     1      45.555 130.543  13.479  1.00  0.00     0.019 C 
ATOM     18  C   UNL     1      47.386 129.040  14.097  1.00  0.00     0.019 C 
ATOM     19  C   UNL     1      46.838 131.101  12.877  1.00  0.00    -0.007 C 
ATOM     20  C   UNL     1      47.973 130.170  13.260  1.00  0.00    -0.007 C 
ATOM     21  C   UNL     1      47.517 130.254  11.812  1.00  0.00     0.007 C 
ENDBRANCH  14  16
ENDBRANCH  13  14
ENDBRANCH   9  13
ENDBRANCH   1   9
BRANCH   4  22
ATOM     22  O   UNL     1      41.012 134.989  18.043  1.00  0.00    -0.489 OA
BRANCH  22  23
ATOM     23  C   UNL     1      39.842 135.100  18.811  1.00  0.00     0.128 A 
ATOM     24  C   UNL     1      38.716 134.259  18.580  1.00  0.00     0.047 A 
ATOM     25  C   UNL     1      39.772 136.080  19.836  1.00  0.00     0.034 A 
ATOM     26  C   UNL     1      37.535 134.408  19.334  1.00  0.00     0.008 A 
ATOM     27  C   UNL     1      40.828 136.955  20.216  1.00  0.00     0.049 A 
ATOM     28  C   UNL     1      38.574 136.180  20.545  1.00  0.00    -0.008 A 
ATOM     29  C   UNL     1      37.490 135.394  20.317  1.00  0.00    -0.039 A 
ATOM     30  C   UNL     1      40.610 137.880  21.277  1.00  0.00     0.011 A 
ATOM     31  C   UNL     1      38.361 137.061  21.556  1.00  0.00    -0.039 A 
ATOM     32  C   UNL     1      36.381 135.746  21.258  1.00  0.00     0.041 C 
ATOM     33  C   UNL     1      39.373 137.936  21.949  1.00  0.00     0.005 A 
ATOM     34  C   UNL     1      36.977 136.906  22.104  1.00  0.00     0.041 C 
BRANCH  27  35
ATOM     35  N   UNL     1      42.099 136.886  19.552  1.00  0.00    -0.060 NA
BRANCH  35  36
ATOM     36  N   UNL     1      43.145 136.623  20.149  1.00  0.00     0.005 N 
ATOM     37  N   UNL     1      44.186 136.359  20.747  1.00  0.00    -0.003 NA
ENDBRANCH  35  36
ENDBRANCH  27  35
ENDBRANCH  22  23
ENDBRANCH   4  22
TORSDOF 9
ENDMDL
MODEL 2
REMARK VINA RESULT:      -7.4      2.105      2.509
REMARK SMILES C=C(C)C(OC(=O)[C@H]1C[C@@H]2C[C@@H]2C1)=[N+]1C[C@@H]2CC[C@H](Oc3ccc4c5c(ccc(N=[N+]=[N-])c35)CC4)[C@@H]2C1
REMARK SMILES IDX 14 1 37 2 36 3 19 4 18 5 17 6 16 7 15 8 4 9 2 10 1 11 3 12
REMARK SMILES IDX 5 13 6 14 7 15 8 16 9 17 13 18 10 19 12 20 11 21 20 22 21 23
REMARK SMILES IDX 22 24 33 25 23 26 29 27 25 28 24 29 28 30 26 31 35 32 27 33
REMARK SMILES IDX 34 34 30 35 31 36 32 37
REMARK H PARENT
ROOT
ATOM      1  N   UNL     1      42.614 132.556  16.510  1.00  0.00    -0.197 N 
ATOM      2  C   UNL     1      41.462 132.514  17.397  1.00  0.00     0.362 C 
ATOM      3  C   UNL     1      40.414 133.480  16.816  1.00  0.00     0.105 C 
ATOM      4  C   UNL     1      40.047 134.678  17.717  1.00  0.00     0.183 C 
ATOM      5  C   UNL     1      40.931 135.819  17.245  1.00  0.00     0.046 C 
ATOM      6  C   UNL     1      41.063 135.602  15.750  1.00  0.00     0.014 C 
ATOM      7  C   UNL     1      41.032 134.081  15.545  1.00  0.00     0.068 C 
ATOM      8  C   UNL     1      42.430 133.461  15.384  1.00  0.00     0.358 C 
ENDROOT
BRANCH   1   9
ATOM      9  C   UNL     1      43.713 131.891  16.769  1.00  0.00     0.372 C 
BRANCH   9  10
ATOM     10  C   UNL     1      44.503 132.166  17.995  1.00  0.00     0.054 C 
ATOM     11  C   UNL     1      44.565 133.411  18.472  1.00  0.00     0.023 C 
ATOM     12  C   UNL     1      45.265 131.067  18.678  1.00  0.00     0.055 C 
ENDBRANCH   9  10
BRANCH   9  13
ATOM     13  O   UNL     1      44.087 130.850  15.900  1.00  0.00    -0.371 OA
BRANCH  13  14
ATOM     14  C   UNL     1      44.457 130.984  14.556  1.00  0.00     0.318 C 
ATOM     15  O   UNL     1      43.642 130.741  13.625  1.00  0.00    -0.251 OA
BRANCH  14  16
ATOM     16  C   UNL     1      45.887 131.337  14.238  1.00  0.00     0.100 C 
ATOM     17  C   UNL     1      46.833 130.804  15.314  1.00  0.00     0.019 C 
ATOM     18  C   UNL     1      46.349 130.716  12.917  1.00  0.00     0.019 C 
ATOM     19  C   UNL     1      47.460 129.530  14.760  1.00  0.00    -0.007 C 
ATOM     20  C   UNL     1      47.161 129.476  13.274  1.00  0.00    -0.007 C 
ATOM     21  C   UNL     1      48.585 129.707  13.752  1.00  0.00     0.007 C 
ENDBRANCH  14  16
ENDBRANCH  13  14
ENDBRANCH   9  13
ENDBRANCH   1   9
BRANCH   4  22
ATOM     22  O   UNL     1      40.253 134.437  19.111  1.00  0.00    -0.489 OA
BRANCH  22  23
ATOM     23  C   UNL     1      39.527 135.022  20.161  1.00  0.00     0.128 A 
ATOM     24  C   UNL     1      38.320 135.739  19.924  1.00  0.00     0.047 A 
ATOM     25  C   UNL     1      40.010 134.907  21.492  1.00  0.00     0.034 A 
ATOM     26  C   UNL     1      37.622 136.353  20.983  1.00  0.00     0.008 A 
ATOM     27  C   UNL     1      41.168 134.183  21.890  1.00  0.00     0.049 A 
ATOM     28  C   UNL     1      39.276 135.539  22.495  1.00  0.00    -0.008 A 
ATOM     29  C   UNL     1      38.134 136.241  22.274  1.00  0.00    -0.039 A 
ATOM     30  C   UNL     1      41.520 134.148  23.270  1.00  0.00     0.011 A 
ATOM     31  C   UNL     1      39.608 135.510  23.812  1.00  0.00    -0.039 A 
ATOM     32  C   UNL     1      37.589 136.775  23.561  1.00  0.00     0.041 C 
ATOM     33  C   UNL     1      40.740 134.815  24.235  1.00  0.00     0.005 A 
ATOM     34  C   UNL     1      38.614 136.282  24.621  1.00  0.00     0.041 C 
BRANCH  27  35
ATOM     35  N   UNL     1      41.954 133.480  20.914  1.00  0.00    -0.060 NA
BRANCH  35  36
ATOM     36  N   UNL     1      42.323 132.316  21.075  1.00  0.00     0.005 N 
ATOM     37  N   UNL     1      42.690 131.153  21.234  1.00  0.00    -0.003 NA
ENDBRANCH  35  36
ENDBRANCH  27  35
ENDBRANCH  22  23
ENDBRANCH   4  22
TORSDOF 9
ENDMDL
MODEL 3
REMARK VINA RESULT:      -7.3      2.389      4.784
REMARK SMILES C=C(C)C(OC(=O)[C@H]1C[C@@H]2C[C@@H]2C1)=[N+]1C[C@@H]2CC[C@H](Oc3ccc4c5c(ccc(N=[N+]=[N-])c35)CC4)[C@@H]2C1
REMARK SMILES IDX 14 1 37 2 36 3 19 4 18 5 17 6 16 7 15 8 4 9 2 10 1 11 3 12
REMARK SMILES IDX 5 13 6 14 7 15 8 16 9 17 13 18 10 19 12 20 11 21 20 22 21 23
REMARK SMILES IDX 22 24 33 25 23 26 29 27 25 28 24 29 28 30 26 31 35 32 27 33
REMARK SMILES IDX 34 34 30 35 31 36 32 37
REMARK H PARENT
ROOT
ATOM      1  N   UNL     1      44.389 132.721  16.924  1.00  0.00    -0.197 N 
ATOM      2  C   UNL     1      44.189 134.011  17.565  1.00  0.00     0.362 C 
ATOM      3  C   UNL     1      44.141 133.754  19.081  1.00  0.00     0.105 C 
ATOM      4  C   UNL     1      42.806 134.113  19.771  1.00  0.00     0.183 C 
ATOM      5  C   UNL     1      42.021 132.815  19.822  1.00  0.00     0.046 C 
ATOM      6  C   UNL     1      43.076 131.742  20.018  1.00  0.00     0.014 C 
ATOM      7  C   UNL     1      44.322 132.241  19.273  1.00  0.00     0.068 C 
ATOM      8  C   UNL     1      44.483 131.623  17.875  1.00  0.00     0.358 C 
ENDROOT
BRANCH   1   9
ATOM      9  C   UNL     1      44.405 132.590  15.620  1.00  0.00     0.372 C 
BRANCH   9  10
ATOM     10  C   UNL     1      45.267 131.575  14.963  1.00  0.00     0.054 C 
ATOM     11  C   UNL     1      46.570 131.818  14.809  1.00  0.00     0.023 C 
ATOM     12  C   UNL     1      44.680 130.298  14.434  1.00  0.00     0.055 C 
ENDBRANCH   9  10
BRANCH   9  13
ATOM     13  O   UNL     1      43.526 133.378  14.856  1.00  0.00    -0.371 OA
BRANCH  13  14
ATOM     14  C   UNL     1      42.168 133.125  14.631  1.00  0.00     0.318 C 
ATOM     15  O   UNL     1      41.794 132.233  13.821  1.00  0.00    -0.251 OA
BRANCH  14  16
ATOM     16  C   UNL     1      41.152 134.007  15.307  1.00  0.00     0.100 C 
ATOM     17  C   UNL     1      41.640 135.456  15.367  1.00  0.00     0.019 C 
ATOM     18  C   UNL     1      39.822 134.036  14.549  1.00  0.00     0.019 C 
ATOM     19  C   UNL     1      40.932 136.207  14.246  1.00  0.00    -0.007 C 
ATOM     20  C   UNL     1      39.805 135.327  13.739  1.00  0.00    -0.007 C 
ATOM     21  C   UNL     1      39.486 136.605  14.499  1.00  0.00     0.007 C 
ENDBRANCH  14  16
ENDBRANCH  13  14
ENDBRANCH   9  13
ENDBRANCH   1   9
BRANCH   4  22
ATOM     22  O   UNL     1      42.055 135.119  19.088  1.00  0.00    -0.489 OA
BRANCH  22  23
ATOM     23  C   UNL     1      40.715 135.009  18.684  1.00  0.00     0.128 A 
ATOM     24  C   UNL     1      40.069 133.744  18.579  1.00  0.00     0.047 A 
ATOM     25  C   UNL     1      39.986 136.184  18.361  1.00  0.00     0.034 A 
ATOM     26  C   UNL     1      38.735 133.647  18.136  1.00  0.00     0.008 A 
ATOM     27  C   UNL     1      40.477 137.516  18.465  1.00  0.00     0.049 A 
ATOM     28  C   UNL     1      38.670 136.021  17.926  1.00  0.00    -0.008 A 
ATOM     29  C   UNL     1      38.054 134.817  17.805  1.00  0.00    -0.039 A 
ATOM     30  C   UNL     1      39.618 138.597  18.116  1.00  0.00     0.011 A 
ATOM     31  C   UNL     1      37.848 137.049  17.591  1.00  0.00    -0.039 A 
ATOM     32  C   UNL     1      36.645 134.994  17.332  1.00  0.00     0.041 C 
ATOM     33  C   UNL     1      38.300 138.365  17.676  1.00  0.00     0.005 A 
ATOM     34  C   UNL     1      36.508 136.533  17.171  1.00  0.00     0.041 C 
BRANCH  27  35
ATOM     35  N   UNL     1      41.811 137.760  18.937  1.00  0.00    -0.060 NA
BRANCH  35  36
ATOM     36  N   UNL     1      42.046 138.453  19.929  1.00  0.00     0.005 N 
ATOM     37  N   UNL     1      42.283 139.144  20.918  1.00  0.00    -0.003 NA
ENDBRANCH  35  36
ENDBRANCH  27  35
ENDBRANCH  22  23
ENDBRANCH   4  22
TORSDOF 9
ENDMDL
MODEL 4
REMARK VINA RESULT:      -7.2      2.160      2.932
REMARK SMILES C=C(C)C(OC(=O)[C@H]1C[C@@H]2C[C@@H]2C1)=[N+]1C[C@@H]2CC[C@H](Oc3ccc4c5c(ccc(N=[N+]=[N-])c35)CC4)[C@@H]2C1
REMARK SMILES IDX 14 1 37 2 36 3 19 4 18 5 17 6 16 7 15 8 4 9 2 10 1 11 3 12
REMARK SMILES IDX 5 13 6 14 7 15 8 16 9 17 13 18 10 19 12 20 11 21 20 22 21 23
REMARK SMILES IDX 22 24 33 25 23 26 29 27 25 28 24 29 28 30 26 31 35 32 27 33
REMARK SMILES IDX 34 34 30 35 31 36 32 37
REMARK H PARENT
ROOT
ATOM      1  N   UNL     1      44.273 132.675  16.448  1.00  0.00    -0.197 N 
ATOM      2  C   UNL     1      42.846 132.566  16.189  1.00  0.00     0.362 C 
ATOM      3  C   UNL     1      42.420 133.863  15.479  1.00  0.00     0.105 C 
ATOM      4  C   UNL     1      41.395 134.730  16.242  1.00  0.00     0.183 C 
ATOM      5  C   UNL     1      42.222 135.759  16.992  1.00  0.00     0.046 C 
ATOM      6  C   UNL     1      43.396 136.044  16.075  1.00  0.00     0.014 C 
ATOM      7  C   UNL     1      43.685 134.724  15.346  1.00  0.00     0.068 C 
ATOM      8  C   UNL     1      44.843 133.927  15.970  1.00  0.00     0.358 C 
ENDROOT
BRANCH   1   9
ATOM      9  C   UNL     1      44.930 131.753  17.108  1.00  0.00     0.372 C 
BRANCH   9  10
ATOM     10  C   UNL     1      44.655 131.498  18.545  1.00  0.00     0.054 C 
ATOM     11  C   UNL     1      45.604 130.954  19.309  1.00  0.00     0.023 C 
ATOM     12  C   UNL     1      43.309 131.808  19.135  1.00  0.00     0.055 C 
ENDBRANCH   9  10
BRANCH   9  13
ATOM     13  O   UNL     1      45.847 130.950  16.407  1.00  0.00    -0.371 OA
BRANCH  13  14
ATOM     14  C   UNL     1      45.618 129.656  15.927  1.00  0.00     0.318 C 
ATOM     15  O   UNL     1      45.354 128.703  16.711  1.00  0.00    -0.251 OA
BRANCH  14  16
ATOM     16  C   UNL     1      45.786 129.398  14.452  1.00  0.00     0.100 C 
ATOM     17  C   UNL     1      45.480 130.657  13.639  1.00  0.00     0.019 C 
ATOM     18  C   UNL     1      47.223 129.001  14.100  1.00  0.00     0.019 C 
ATOM     19  C   UNL     1      46.820 131.275  13.261  1.00  0.00    -0.007 C 
ATOM     20  C   UNL     1      47.901 130.249  13.546  1.00  0.00    -0.007 C 
ATOM     21  C   UNL     1      47.572 130.624  12.110  1.00  0.00     0.007 C 
ENDBRANCH  14  16
ENDBRANCH  13  14
ENDBRANCH   9  13
ENDBRANCH   1   9
BRANCH   4  22
ATOM     22  O   UNL     1      40.579 133.992  17.154  1.00  0.00    -0.489 OA
BRANCH  22  23
ATOM     23  C   UNL     1      40.184 134.417  18.432  1.00  0.00     0.128 A 
ATOM     24  C   UNL     1      40.965 134.130  19.588  1.00  0.00     0.047 A 
ATOM     25  C   UNL     1      38.973 135.144  18.582  1.00  0.00     0.034 A 
ATOM     26  C   UNL     1      40.537 134.531  20.869  1.00  0.00     0.008 A 
ATOM     27  C   UNL     1      38.116 135.548  17.521  1.00  0.00     0.049 A 
ATOM     28  C   UNL     1      38.603 135.510  19.876  1.00  0.00    -0.008 A 
ATOM     29  C   UNL     1      39.333 135.222  20.985  1.00  0.00    -0.039 A 
ATOM     30  C   UNL     1      36.937 136.286  17.828  1.00  0.00     0.011 A 
ATOM     31  C   UNL     1      37.479 136.212  20.175  1.00  0.00    -0.039 A 
ATOM     32  C   UNL     1      38.667 135.770  22.208  1.00  0.00     0.041 C 
ATOM     33  C   UNL     1      36.615 136.618  19.159  1.00  0.00     0.005 A 
ATOM     34  C   UNL     1      37.380 136.441  21.650  1.00  0.00     0.041 C 
BRANCH  27  35
ATOM     35  N   UNL     1      38.452 135.234  16.160  1.00  0.00    -0.060 NA
BRANCH  35  36
ATOM     36  N   UNL     1      37.598 134.966  15.313  1.00  0.00     0.005 N 
ATOM     37  N   UNL     1      36.744 134.702  14.468  1.00  0.00    -0.003 NA
ENDBRANCH  35  36
ENDBRANCH  27  35
ENDBRANCH  22  23
ENDBRANCH   4  22
TORSDOF 9
ENDMDL
MODEL 5
REMARK VINA RESULT:      -7.2      1.187      1.406
REMARK SMILES C=C(C)C(OC(=O)[C@H]1C[C@@H]2C[C@@H]2C1)=[N+]1C[C@@H]2CC[C@H](Oc3ccc4c5c(ccc(N=[N+]=[N-])c35)CC4)[C@@H]2C1
REMARK SMILES IDX 14 1 37 2 36 3 19 4 18 5 17 6 16 7 15 8 4 9 2 10 1 11 3 12
REMARK SMILES IDX 5 13 6 14 7 15 8 16 9 17 13 18 10 19 12 20 11 21 20 22 21 23
REMARK SMILES IDX 22 24 33 25 23 26 29 27 25 28 24 29 28 30 26 31 35 32 27 33
REMARK SMILES IDX 34 34 30 35 31 36 32 37
REMARK H PARENT
ROOT
ATOM      1  N   UNL     1      43.409 132.597  16.573  1.00  0.00    -0.197 N 
ATOM      2  C   UNL     1      42.232 133.071  17.283  1.00  0.00     0.362 C 
ATOM      3  C   UNL     1      41.151 133.346  16.223  1.00  0.00     0.105 C 
ATOM      4  C   UNL     1      40.684 134.814  16.120  1.00  0.00     0.183 C 
ATOM      5  C   UNL     1      41.516 135.420  15.004  1.00  0.00     0.046 C 
ATOM      6  C   UNL     1      41.712 134.284  14.018  1.00  0.00     0.014 C 
ATOM      7  C   UNL     1      41.776 133.004  14.863  1.00  0.00     0.068 C 
ATOM      8  C   UNL     1      43.213 132.526  15.132  1.00  0.00     0.358 C 
ENDROOT
BRANCH   1   9
ATOM      9  C   UNL     1      44.535 132.340  17.192  1.00  0.00     0.372 C 
BRANCH   9  10
ATOM     10  C   UNL     1      44.614 132.353  18.675  1.00  0.00     0.054 C 
ATOM     11  C   UNL     1      44.715 131.199  19.338  1.00  0.00     0.023 C 
ATOM     12  C   UNL     1      44.540 133.645  19.435  1.00  0.00     0.055 C 
ENDBRANCH   9  10
BRANCH   9  13
ATOM     13  O   UNL     1      45.654 131.969  16.424  1.00  0.00    -0.371 OA
BRANCH  13  14
ATOM     14  C   UNL     1      46.068 130.662  16.140  1.00  0.00     0.318 C 
ATOM     15  O   UNL     1      46.626 129.947  17.016  1.00  0.00    -0.251 OA
BRANCH  14  16
ATOM     16  C   UNL     1      45.920 130.154  14.729  1.00  0.00     0.100 C 
ATOM     17  C   UNL     1      46.137 131.280  13.717  1.00  0.00     0.019 C 
ATOM     18  C   UNL     1      46.956 129.076  14.397  1.00  0.00     0.019 C 
ATOM     19  C   UNL     1      47.555 131.126  13.182  1.00  0.00    -0.007 C 
ATOM     20  C   UNL     1      48.063 129.759  13.603  1.00  0.00    -0.007 C 
ATOM     21  C   UNL     1      47.776 130.043  12.137  1.00  0.00     0.007 C 
ENDBRANCH  14  16
ENDBRANCH  13  14
ENDBRANCH   9  13
ENDBRANCH   1   9
BRANCH   4  22
ATOM     22  O   UNL     1      40.855 135.562  17.326  1.00  0.00    -0.489 OA
BRANCH  22  23
ATOM     23  C   UNL     1      40.111 135.399  18.505  1.00  0.00     0.128 A 
ATOM     24  C   UNL     1      38.821 134.795  18.495  1.00  0.00     0.047 A 
ATOM     25  C   UNL     1      40.649 135.854  19.738  1.00  0.00     0.034 A 
ATOM     26  C   UNL     1      38.070 134.672  19.681  1.00  0.00     0.008 A 
ATOM     27  C   UNL     1      41.939 136.429  19.914  1.00  0.00     0.049 A 
ATOM     28  C   UNL     1      39.855 135.707  20.876  1.00  0.00    -0.008 A 
ATOM     29  C   UNL     1      38.617 135.150  20.871  1.00  0.00    -0.039 A 
ATOM     30  C   UNL     1      42.344 136.828  21.220  1.00  0.00     0.011 A 
ATOM     31  C   UNL     1      40.237 136.087  22.122  1.00  0.00    -0.039 A 
ATOM     32  C   UNL     1      38.046 135.128  22.254  1.00  0.00     0.041 C 
ATOM     33  C   UNL     1      41.492 136.659  22.328  1.00  0.00     0.005 A 
ATOM     34  C   UNL     1      39.159 135.788  23.115  1.00  0.00     0.041 C 
BRANCH  27  35
ATOM     35  N   UNL     1      42.822 136.582  18.791  1.00  0.00    -0.060 NA
BRANCH  35  36
ATOM     36  N   UNL     1      43.737 137.407  18.776  1.00  0.00     0.005 N 
ATOM     37  N   UNL     1      44.652 138.229  18.761  1.00  0.00    -0.003 NA
ENDBRANCH  35  36
ENDBRANCH  27  35
ENDBRANCH  22  23
ENDBRANCH   4  22
TORSDOF 9
ENDMDL
MODEL 6
REMARK VINA RESULT:      -7.0      3.708      6.720
REMARK SMILES C=C(C)C(OC(=O)[C@H]1C[C@@H]2C[C@@H]2C1)=[N+]1C[C@@H]2CC[C@H](Oc3ccc4c5c(ccc(N=[N+]=[N-])c35)CC4)[C@@H]2C1
REMARK SMILES IDX 14 1 37 2 36 3 19 4 18 5 17 6 16 7 15 8 4 9 2 10 1 11 3 12
REMARK SMILES IDX 5 13 6 14 7 15 8 16 9 17 13 18 10 19 12 20 11 21 20 22 21 23
REMARK SMILES IDX 22 24 33 25 23 26 29 27 25 28 24 29 28 30 26 31 35 32 27 33
REMARK SMILES IDX 34 34 30 35 31 36 32 37
REMARK H PARENT
ROOT
ATOM      1  N   UNL     1      43.556 132.053  17.487  1.00  0.00    -0.197 N 
ATOM      2  C   UNL     1      44.420 132.648  18.495  1.00  0.00     0.362 C 
ATOM      3  C   UNL     1      43.567 132.832  19.763  1.00  0.00     0.105 C 
ATOM      4  C   UNL     1      43.376 134.292  20.227  1.00  0.00     0.183 C 
ATOM      5  C   UNL     1      42.053 134.732  19.627  1.00  0.00     0.046 C 
ATOM      6  C   UNL     1      41.195 133.481  19.642  1.00  0.00     0.014 C 
ATOM      7  C   UNL     1      42.163 132.309  19.423  1.00  0.00     0.068 C 
ATOM      8  C   UNL     1      42.202 131.818  17.967  1.00  0.00     0.358 C 
ENDROOT
BRANCH   1   9
ATOM      9  C   UNL     1      43.970 131.833  16.263  1.00  0.00     0.372 C 
BRANCH   9  10
ATOM     10  C   UNL     1      45.254 131.136  16.002  1.00  0.00     0.054 C 
ATOM     11  C   UNL     1      45.500 129.968  16.599  1.00  0.00     0.023 C 
ATOM     12  C   UNL     1      46.293 131.750  15.109  1.00  0.00     0.055 C 
ENDBRANCH   9  10
BRANCH   9  13
ATOM     13  O   UNL     1      43.130 132.200  15.196  1.00  0.00    -0.371 OA
BRANCH  13  14
ATOM     14  C   UNL     1      42.659 133.488  14.917  1.00  0.00     0.318 C 
ATOM     15  O   UNL     1      43.448 134.467  14.816  1.00  0.00    -0.251 OA
BRANCH  14  16
ATOM     16  C   UNL     1      41.170 133.704  14.831  1.00  0.00     0.100 C 
ATOM     17  C   UNL     1      40.647 134.405  16.086  1.00  0.00     0.019 C 
ATOM     18  C   UNL     1      40.788 134.601  13.650  1.00  0.00     0.019 C 
ATOM     19  C   UNL     1      40.461 135.874  15.726  1.00  0.00    -0.007 C 
ATOM     20  C   UNL     1      40.548 135.996  14.216  1.00  0.00    -0.007 C 
ATOM     21  C   UNL     1      39.220 136.227  14.920  1.00  0.00     0.007 C 
ENDBRANCH  14  16
ENDBRANCH  13  14
ENDBRANCH   9  13
ENDBRANCH   1   9
BRANCH   4  22
ATOM     22  O   UNL     1      44.424 135.172  19.812  1.00  0.00    -0.489 OA
BRANCH  22  23
ATOM     23  C   UNL     1      45.526 135.559  20.589  1.00  0.00     0.128 A 
ATOM     24  C   UNL     1      46.090 134.691  21.568  1.00  0.00     0.047 A 
ATOM     25  C   UNL     1      46.090 136.849  20.405  1.00  0.00     0.034 A 
ATOM     26  C   UNL     1      47.173 135.107  22.367  1.00  0.00     0.008 A 
ATOM     27  C   UNL     1      45.671 137.804  19.437  1.00  0.00     0.049 A 
ATOM     28  C   UNL     1      47.159 137.203  21.229  1.00  0.00    -0.008 A 
ATOM     29  C   UNL     1      47.689 136.388  22.178  1.00  0.00    -0.039 A 
ATOM     30  C   UNL     1      46.346 139.056  19.365  1.00  0.00     0.011 A 
ATOM     31  C   UNL     1      47.805 138.396  21.165  1.00  0.00    -0.039 A 
ATOM     32  C   UNL     1      48.831 137.063  22.870  1.00  0.00     0.041 C 
ATOM     33  C   UNL     1      47.415 139.356  20.232  1.00  0.00     0.005 A 
ATOM     34  C   UNL     1      48.902 138.454  22.181  1.00  0.00     0.041 C 
BRANCH  27  35
ATOM     35  N   UNL     1      44.598 137.495  18.534  1.00  0.00    -0.060 NA
BRANCH  35  36
ATOM     36  N   UNL     1      44.006 138.361  17.888  1.00  0.00     0.005 N 
ATOM     37  N   UNL     1      43.414 139.227  17.246  1.00  0.00    -0.003 NA
ENDBRANCH  35  36
ENDBRANCH  27  35
ENDBRANCH  22  23
ENDBRANCH   4  22
TORSDOF 9
ENDMDL
MODEL 7
REMARK VINA RESULT:      -6.9      2.476      3.947
REMARK SMILES C=C(C)C(OC(=O)[C@H]1C[C@@H]2C[C@@H]2C1)=[N+]1C[C@@H]2CC[C@H](Oc3ccc4c5c(ccc(N=[N+]=[N-])c35)CC4)[C@@H]2C1
REMARK SMILES IDX 14 1 37 2 36 3 19 4 18 5 17 6 16 7 15 8 4 9 2 10 1 11 3 12
REMARK SMILES IDX 5 13 6 14 7 15 8 16 9 17 13 18 10 19 12 20 11 21 20 22 21 23
REMARK SMILES IDX 22 24 33 25 23 26 29 27 25 28 24 29 28 30 26 31 35 32 27 33
REMARK SMILES IDX 34 34 30 35 31 36 32 37
REMARK H PARENT
ROOT
ATOM      1  N   UNL     1      42.730 132.978  18.673  1.00  0.00    -0.197 N 
ATOM      2  C   UNL     1      42.137 134.112  19.363  1.00  0.00     0.362 C 
ATOM      3  C   UNL     1      40.689 134.237  18.858  1.00  0.00     0.105 C 
ATOM      4  C   UNL     1      40.359 135.550  18.115  1.00  0.00     0.183 C 
ATOM      5  C   UNL     1      40.535 135.230  16.641  1.00  0.00     0.046 C 
ATOM      6  C   UNL     1      40.096 133.784  16.512  1.00  0.00     0.014 C 
ATOM      7  C   UNL     1      40.486 133.110  17.835  1.00  0.00     0.068 C 
ATOM      8  C   UNL     1      41.807 132.329  17.752  1.00  0.00     0.358 C 
ENDROOT
BRANCH   1   9
ATOM      9  C   UNL     1      43.988 132.649  18.834  1.00  0.00     0.372 C 
BRANCH   9  10
ATOM     10  C   UNL     1      44.570 132.488  20.190  1.00  0.00     0.054 C 
ATOM     11  C   UNL     1      44.314 131.380  20.888  1.00  0.00     0.023 C 
ATOM     12  C   UNL     1      45.408 133.576  20.798  1.00  0.00     0.055 C 
ENDBRANCH   9  10
BRANCH   9  13
ATOM     13  O   UNL     1      44.760 132.368  17.691  1.00  0.00    -0.371 OA
BRANCH  13  14
ATOM     14  C   UNL     1      45.114 131.098  17.221  1.00  0.00     0.318 C 
ATOM     15  O   UNL     1      45.725 130.275  17.955  1.00  0.00    -0.251 OA
BRANCH  14  16
ATOM     16  C   UNL     1      44.832 130.764  15.779  1.00  0.00     0.100 C 
ATOM     17  C   UNL     1      45.423 131.823  14.847  1.00  0.00     0.019 C 
ATOM     18  C   UNL     1      45.464 129.431  15.367  1.00  0.00     0.019 C 
ATOM     19  C   UNL     1      46.722 131.250  14.294  1.00  0.00    -0.007 C 
ATOM     20  C   UNL     1      46.748 129.767  14.616  1.00  0.00    -0.007 C 
ATOM     21  C   UNL     1      46.594 130.228  13.175  1.00  0.00     0.007 C 
ENDBRANCH  14  16
ENDBRANCH  13  14
ENDBRANCH   9  13
ENDBRANCH   1   9
BRANCH   4  22
ATOM     22  O   UNL     1      41.193 136.650  18.485  1.00  0.00    -0.489 OA
BRANCH  22  23
ATOM     23  C   UNL     1      41.800 136.834  19.737  1.00  0.00     0.128 A 
ATOM     24  C   UNL     1      41.043 136.806  20.944  1.00  0.00     0.047 A 
ATOM     25  C   UNL     1      43.200 137.064  19.807  1.00  0.00     0.034 A 
ATOM     26  C   UNL     1      41.660 137.030  22.191  1.00  0.00     0.008 A 
ATOM     27  C   UNL     1      44.092 137.070  18.699  1.00  0.00     0.049 A 
ATOM     28  C   UNL     1      43.750 137.282  21.071  1.00  0.00    -0.008 A 
ATOM     29  C   UNL     1      43.031 137.276  22.223  1.00  0.00    -0.039 A 
ATOM     30  C   UNL     1      45.478 137.304  18.929  1.00  0.00     0.011 A 
ATOM     31  C   UNL     1      45.070 137.507  21.295  1.00  0.00    -0.039 A 
ATOM     32  C   UNL     1      43.924 137.525  23.398  1.00  0.00     0.041 C 
ATOM     33  C   UNL     1      45.970 137.526  20.231  1.00  0.00     0.005 A 
ATOM     34  C   UNL     1      45.329 137.698  22.757  1.00  0.00     0.041 C 
BRANCH  27  35
ATOM     35  N   UNL     1      43.600 136.821  17.372  1.00  0.00    -0.060 NA
BRANCH  35  36
ATOM     36  N   UNL     1      44.054 135.928  16.655  1.00  0.00     0.005 N 
ATOM     37  N   UNL     1      44.504 135.036  15.938  1.00  0.00    -0.003 NA
ENDBRANCH  35  36
ENDBRANCH  27  35
ENDBRANCH  22  23
ENDBRANCH   4  22
TORSDOF 9
ENDMDL
MODEL 8
REMARK VINA RESULT:      -6.9      2.254      3.609
REMARK SMILES C=C(C)C(OC(=O)[C@H]1C[C@@H]2C[C@@H]2C1)=[N+]1C[C@@H]2CC[C@H](Oc3ccc4c5c(ccc(N=[N+]=[N-])c35)CC4)[C@@H]2C1
REMARK SMILES IDX 14 1 37 2 36 3 19 4 18 5 17 6 16 7 15 8 4 9 2 10 1 11 3 12
REMARK SMILES IDX 5 13 6 14 7 15 8 16 9 17 13 18 10 19 12 20 11 21 20 22 21 23
REMARK SMILES IDX 22 24 33 25 23 26 29 27 25 28 24 29 28 30 26 31 35 32 27 33
REMARK SMILES IDX 34 34 30 35 31 36 32 37
REMARK H PARENT
ROOT
ATOM      1  N   UNL     1      42.313 132.937  16.211  1.00  0.00    -0.197 N 
ATOM      2  C   UNL     1      41.190 133.581  16.876  1.00  0.00     0.362 C 
ATOM      3  C   UNL     1      40.205 134.010  15.774  1.00  0.00     0.105 C 
ATOM      4  C   UNL     1      39.964 135.531  15.658  1.00  0.00     0.183 C 
ATOM      5  C   UNL     1      40.921 136.006  14.579  1.00  0.00     0.046 C 
ATOM      6  C   UNL     1      40.987 134.852  13.597  1.00  0.00     0.014 C 
ATOM      7  C   UNL     1      40.828 133.578  14.439  1.00  0.00     0.068 C 
ATOM      8  C   UNL     1      42.166 132.894  14.764  1.00  0.00     0.358 C 
ENDROOT
BRANCH   1   9
ATOM      9  C   UNL     1      43.362 132.518  16.874  1.00  0.00     0.372 C 
BRANCH   9  10
ATOM     10  C   UNL     1      43.319 132.346  18.348  1.00  0.00     0.054 C 
ATOM     11  C   UNL     1      42.170 132.006  18.937  1.00  0.00     0.023 C 
ATOM     12  C   UNL     1      44.541 132.591  19.185  1.00  0.00     0.055 C 
ENDBRANCH   9  10
BRANCH   9  13
ATOM     13  O   UNL     1      44.511 132.154  16.150  1.00  0.00    -0.371 OA
BRANCH  13  14
ATOM     14  C   UNL     1      45.066 130.871  16.065  1.00  0.00     0.318 C 
ATOM     15  O   UNL     1      44.426 129.854  16.448  1.00  0.00    -0.251 OA
BRANCH  14  16
ATOM     16  C   UNL     1      46.490 130.736  15.592  1.00  0.00     0.100 C 
ATOM     17  C   UNL     1      46.736 129.353  14.987  1.00  0.00     0.019 C 
ATOM     18  C   UNL     1      46.828 131.749  14.494  1.00  0.00     0.019 C 
ATOM     19  C   UNL     1      46.687 129.518  13.474  1.00  0.00    -0.007 C 
ATOM     20  C   UNL     1      46.744 131.003  13.167  1.00  0.00    -0.007 C 
ATOM     21  C   UNL     1      47.923 130.109  12.812  1.00  0.00     0.007 C 
ENDBRANCH  14  16
ENDBRANCH  13  14
ENDBRANCH   9  13
ENDBRANCH   1   9
BRANCH   4  22
ATOM     22  O   UNL     1      40.195 136.248  16.873  1.00  0.00    -0.489 OA
BRANCH  22  23
ATOM     23  C   UNL     1      41.394 136.262  17.603  1.00  0.00     0.128 A 
ATOM     24  C   UNL     1      42.627 136.650  17.003  1.00  0.00     0.047 A 
ATOM     25  C   UNL     1      41.385 135.872  18.968  1.00  0.00     0.034 A 
ATOM     26  C   UNL     1      43.829 136.623  17.737  1.00  0.00     0.008 A 
ATOM     27  C   UNL     1      40.230 135.509  19.715  1.00  0.00     0.049 A 
ATOM     28  C   UNL     1      42.608 135.864  19.639  1.00  0.00    -0.008 A 
ATOM     29  C   UNL     1      43.790 136.213  19.068  1.00  0.00    -0.039 A 
ATOM     30  C   UNL     1      40.379 135.153  21.086  1.00  0.00     0.011 A 
ATOM     31  C   UNL     1      42.755 135.523  20.946  1.00  0.00    -0.039 A 
ATOM     32  C   UNL     1      44.903 136.112  20.063  1.00  0.00     0.041 C 
ATOM     33  C   UNL     1      41.645 135.157  21.705  1.00  0.00     0.005 A 
ATOM     34  C   UNL     1      44.191 135.622  21.355  1.00  0.00     0.041 C 
BRANCH  27  35
ATOM     35  N   UNL     1      38.933 135.527  19.098  1.00  0.00    -0.060 NA
BRANCH  35  36
ATOM     36  N   UNL     1      38.309 134.496  18.841  1.00  0.00     0.005 N 
ATOM     37  N   UNL     1      37.687 133.467  18.583  1.00  0.00    -0.003 NA
ENDBRANCH  35  36
ENDBRANCH  27  35
ENDBRANCH  22  23
ENDBRANCH   4  22
TORSDOF 9
ENDMDL
MODEL 9
REMARK VINA RESULT:      -6.8      1.864      3.765
REMARK SMILES C=C(C)C(OC(=O)[C@H]1C[C@@H]2C[C@@H]2C1)=[N+]1C[C@@H]2CC[C@H](Oc3ccc4c5c(ccc(N=[N+]=[N-])c35)CC4)[C@@H]2C1
REMARK SMILES IDX 14 1 37 2 36 3 19 4 18 5 17 6 16 7 15 8 4 9 2 10 1 11 3 12
REMARK SMILES IDX 5 13 6 14 7 15 8 16 9 17 13 18 10 19 12 20 11 21 20 22 21 23
REMARK SMILES IDX 22 24 33 25 23 26 29 27 25 28 24 29 28 30 26 31 35 32 27 33
REMARK SMILES IDX 34 34 30 35 31 36 32 37
REMARK H PARENT
ROOT
ATOM      1  N   UNL     1      44.424 131.912  18.557  1.00  0.00    -0.197 N 
ATOM      2  C   UNL     1      44.500 133.311  18.945  1.00  0.00     0.362 C 
ATOM      3  C   UNL     1      45.045 133.348  20.384  1.00  0.00     0.105 C 
ATOM      4  C   UNL     1      44.088 133.945  21.439  1.00  0.00     0.183 C 
ATOM      5  C   UNL     1      43.375 132.753  22.052  1.00  0.00     0.046 C 
ATOM      6  C   UNL     1      44.414 131.648  22.048  1.00  0.00     0.014 C 
ATOM      7  C   UNL     1      45.275 131.888  20.800  1.00  0.00     0.068 C 
ATOM      8  C   UNL     1      44.873 131.007  19.606  1.00  0.00     0.358 C 
ENDROOT
BRANCH   1   9
ATOM      9  C   UNL     1      43.929 131.538  17.403  1.00  0.00     0.372 C 
BRANCH   9  10
ATOM     10  C   UNL     1      42.912 132.363  16.703  1.00  0.00     0.054 C 
ATOM     11  C   UNL     1      41.661 132.397  17.167  1.00  0.00     0.023 C 
ATOM     12  C   UNL     1      43.266 133.124  15.458  1.00  0.00     0.055 C 
ENDBRANCH   9  10
BRANCH   9  13
ATOM     13  O   UNL     1      44.442 130.377  16.797  1.00  0.00    -0.371 OA
BRANCH  13  14
ATOM     14  C   UNL     1      45.671 130.261  16.136  1.00  0.00     0.318 C 
ATOM     15  O   UNL     1      46.754 130.563  16.708  1.00  0.00    -0.251 OA
BRANCH  14  16
ATOM     16  C   UNL     1      45.668 129.855  14.685  1.00  0.00     0.100 C 
ATOM     17  C   UNL     1      45.727 131.082  13.774  1.00  0.00     0.019 C 
ATOM     18  C   UNL     1      46.887 128.999  14.327  1.00  0.00     0.019 C 
ATOM     19  C   UNL     1      47.170 131.216  13.304  1.00  0.00    -0.007 C 
ATOM     20  C   UNL     1      47.889 129.924  13.647  1.00  0.00    -0.007 C 
ATOM     21  C   UNL     1      47.615 130.277  12.193  1.00  0.00     0.007 C 
ENDBRANCH  14  16
ENDBRANCH  13  14
ENDBRANCH   9  13
ENDBRANCH   1   9
BRANCH   4  22
ATOM     22  O   UNL     1      43.137 134.867  20.901  1.00  0.00    -0.489 OA
BRANCH  22  23
ATOM     23  C   UNL     1      42.338 135.749  21.645  1.00  0.00     0.128 A 
ATOM     24  C   UNL     1      42.578 135.985  23.029  1.00  0.00     0.047 A 
ATOM     25  C   UNL     1      41.258 136.417  21.009  1.00  0.00     0.034 A 
ATOM     26  C   UNL     1      41.744 136.845  23.772  1.00  0.00     0.008 A 
ATOM     27  C   UNL     1      40.926 136.322  19.629  1.00  0.00     0.049 A 
ATOM     28  C   UNL     1      40.468 137.252  21.800  1.00  0.00    -0.008 A 
ATOM     29  C   UNL     1      40.679 137.467  23.124  1.00  0.00    -0.039 A 
ATOM     30  C   UNL     1      39.817 137.065  19.133  1.00  0.00     0.011 A 
ATOM     31  C   UNL     1      39.408 137.961  21.331  1.00  0.00    -0.039 A 
ATOM     32  C   UNL     1      39.667 138.426  23.667  1.00  0.00     0.041 C 
ATOM     33  C   UNL     1      39.053 137.886  19.986  1.00  0.00     0.005 A 
ATOM     34  C   UNL     1      38.782 138.756  22.433  1.00  0.00     0.041 C 
BRANCH  27  35
ATOM     35  N   UNL     1      41.716 135.506  18.749  1.00  0.00    -0.060 NA
BRANCH  35  36
ATOM     36  N   UNL     1      42.285 135.962  17.756  1.00  0.00     0.005 N 
ATOM     37  N   UNL     1      42.854 136.420  16.767  1.00  0.00    -0.003 NA
ENDBRANCH  35  36
ENDBRANCH  27  35
ENDBRANCH  22  23
ENDBRANCH   4  22
TORSDOF 9
ENDMDL


