MODEL 1
REMARK VINA RESULT:      -6.8      0.000      0.000
REMARK SMILES C#C/C(=N\[C@H](c1c(C)n[nH+]n1-c1c2ccccc2c(C=O)c2ccccc12)C(C)C)OC(=O)C=C
REMARK SMILES IDX 4 1 3 2 2 3 1 4 31 5 32 6 33 7 34 8 35 9 5 10 6 11 7 12
REMARK SMILES IDX 11 13 9 14 10 15 8 16 12 18 13 19 27 20 14 21 18 22 26 23
REMARK SMILES IDX 22 24 15 25 17 26 19 27 25 28 23 29 16 30 24 31 20 32 21 33
REMARK SMILES IDX 28 34 29 35 30 36
REMARK H PARENT 10 17
ROOT
ATOM      1  N   UNL     1      43.955 134.179  15.381  1.00  0.00    -0.233 NA
ENDROOT
BRANCH   1   2
ATOM      2  C   UNL     1      44.446 132.985  15.197  1.00  0.00     0.272 C 
BRANCH   2   3
ATOM      3  C   UNL     1      43.682 131.943  14.559  1.00  0.00    -0.011 C 
ATOM      4  C   UNL     1      43.061 131.055  14.034  1.00  0.00     0.015 C 
ENDBRANCH   2   3
BRANCH   2   5
ATOM      5  O   UNL     1      45.746 132.672  15.616  1.00  0.00    -0.396 OA
BRANCH   5   6
ATOM      6  C   UNL     1      46.461 131.516  15.273  1.00  0.00     0.337 C 
ATOM      7  O   UNL     1      46.563 130.549  16.077  1.00  0.00    -0.246 OA
BRANCH   6   8
ATOM      8  C   UNL     1      47.096 131.451  13.948  1.00  0.00     0.086 C 
ATOM      9  C   UNL     1      46.714 130.586  13.010  1.00  0.00     0.016 C 
ENDBRANCH   6   8
ENDBRANCH   5   6
ENDBRANCH   2   5
ENDBRANCH   1   2
BRANCH   1  10
ATOM     10  C   UNL     1      43.462 134.744  16.643  1.00  0.00     0.168 C 
BRANCH  10  11
ATOM     11  C   UNL     1      42.291 133.946  17.196  1.00  0.00     0.137 A 
ATOM     12  C   UNL     1      41.102 133.571  16.569  1.00  0.00     0.135 A 
ATOM     13  N   UNL     1      42.173 133.533  18.478  1.00  0.00    -0.097 N 
ATOM     14  N   UNL     1      40.331 132.927  17.470  1.00  0.00     0.020 NA
ATOM     15  N   UNL     1      41.006 132.925  18.608  1.00  0.00    -0.012 N 
ATOM     16  C   UNL     1      40.685 133.792  15.150  1.00  0.00     0.076 C 
ATOM     17  H   UNL     1      40.647 132.515  19.499  1.00  0.00     0.527 HD
BRANCH  13  18
ATOM     18  C   UNL     1      43.081 133.771  19.568  1.00  0.00     0.123 A 
ATOM     19  C   UNL     1      42.887 134.883  20.415  1.00  0.00     0.013 A 
ATOM     20  C   UNL     1      44.148 132.881  19.803  1.00  0.00     0.013 A 
ATOM     21  C   UNL     1      41.786 135.746  20.223  1.00  0.00     0.011 A 
ATOM     22  C   UNL     1      43.817 135.159  21.453  1.00  0.00    -0.005 A 
ATOM     23  C   UNL     1      44.288 131.713  19.025  1.00  0.00     0.011 A 
ATOM     24  C   UNL     1      45.075 133.139  20.850  1.00  0.00    -0.005 A 
ATOM     25  C   UNL     1      41.611 136.869  21.029  1.00  0.00     0.001 A 
ATOM     26  C   UNL     1      43.620 136.315  22.246  1.00  0.00     0.009 A 
ATOM     27  C   UNL     1      44.928 134.299  21.656  1.00  0.00     0.030 A 
ATOM     28  C   UNL     1      45.321 130.811  19.271  1.00  0.00     0.001 A 
ATOM     29  C   UNL     1      46.104 132.196  21.086  1.00  0.00     0.009 A 
ATOM     30  C   UNL     1      42.527 137.154  22.035  1.00  0.00     0.001 A 
ATOM     31  C   UNL     1      46.226 131.052  20.299  1.00  0.00     0.001 A 
BRANCH  27  32
ATOM     32  C   UNL     1      45.922 134.616  22.711  1.00  0.00     0.261 C 
ATOM     33  O   UNL     1      46.997 135.205  22.426  1.00  0.00    -0.298 OA
ENDBRANCH  27  32
ENDBRANCH  13  18
ENDBRANCH  10  11
BRANCH  10  34
ATOM     34  C   UNL     1      43.096 136.237  16.438  1.00  0.00     0.014 C 
ATOM     35  C   UNL     1      43.363 136.727  15.006  1.00  0.00     0.010 C 
ATOM     36  C   UNL     1      43.835 137.127  17.448  1.00  0.00     0.010 C 
ENDBRANCH  10  34
ENDBRANCH   1  10
TORSDOF 10
ENDMDL
MODEL 2
REMARK VINA RESULT:      -6.7      1.765      2.253
REMARK SMILES C#C/C(=N\[C@H](c1c(C)n[nH+]n1-c1c2ccccc2c(C=O)c2ccccc12)C(C)C)OC(=O)C=C
REMARK SMILES IDX 4 1 3 2 2 3 1 4 31 5 32 6 33 7 34 8 35 9 5 10 6 11 7 12
REMARK SMILES IDX 11 13 9 14 10 15 8 16 12 18 13 19 27 20 14 21 18 22 26 23
REMARK SMILES IDX 22 24 15 25 17 26 19 27 25 28 23 29 16 30 24 31 20 32 21 33
REMARK SMILES IDX 28 34 29 35 30 36
REMARK H PARENT 10 17
ROOT
ATOM      1  N   UNL     1      43.221 132.517  16.290  1.00  0.00    -0.233 NA
ENDROOT
BRANCH   1   2
ATOM      2  C   UNL     1      44.036 131.500  16.242  1.00  0.00     0.272 C 
BRANCH   2   3
ATOM      3  C   UNL     1      44.887 131.159  17.352  1.00  0.00    -0.011 C 
ATOM      4  C   UNL     1      45.619 130.874  18.265  1.00  0.00     0.015 C 
ENDBRANCH   2   3
BRANCH   2   5
ATOM      5  O   UNL     1      44.111 130.697  15.095  1.00  0.00    -0.396 OA
BRANCH   5   6
ATOM      6  C   UNL     1      45.279 130.121  14.575  1.00  0.00     0.337 C 
ATOM      7  O   UNL     1      45.546 128.902  14.763  1.00  0.00    -0.246 OA
BRANCH   6   8
ATOM      8  C   UNL     1      46.196 130.972  13.801  1.00  0.00     0.086 C 
ATOM      9  C   UNL     1      46.820 130.544  12.704  1.00  0.00     0.016 C 
ENDBRANCH   6   8
ENDBRANCH   5   6
ENDBRANCH   2   5
ENDBRANCH   1   2
BRANCH   1  10
ATOM     10  C   UNL     1      43.456 133.805  16.953  1.00  0.00     0.168 C 
BRANCH  10  11
ATOM     11  C   UNL     1      42.312 134.174  17.886  1.00  0.00     0.137 A 
ATOM     12  C   UNL     1      40.969 134.406  17.588  1.00  0.00     0.135 A 
ATOM     13  N   UNL     1      42.444 134.439  19.204  1.00  0.00    -0.097 N 
ATOM     14  N   UNL     1      40.338 134.768  18.724  1.00  0.00     0.020 NA
ATOM     15  N   UNL     1      41.257 134.780  19.677  1.00  0.00    -0.012 N 
ATOM     16  C   UNL     1      40.270 134.284  16.271  1.00  0.00     0.076 C 
ATOM     17  H   UNL     1      41.067 135.048  20.668  1.00  0.00     0.527 HD
BRANCH  13  18
ATOM     18  C   UNL     1      43.654 134.456  19.983  1.00  0.00     0.123 A 
ATOM     19  C   UNL     1      44.421 135.638  20.065  1.00  0.00     0.013 A 
ATOM     20  C   UNL     1      44.058 133.302  20.683  1.00  0.00     0.013 A 
ATOM     21  C   UNL     1      43.992 136.817  19.416  1.00  0.00     0.011 A 
ATOM     22  C   UNL     1      45.649 135.643  20.780  1.00  0.00    -0.005 A 
ATOM     23  C   UNL     1      43.244 132.150  20.690  1.00  0.00     0.011 A 
ATOM     24  C   UNL     1      45.277 133.301  21.415  1.00  0.00    -0.005 A 
ATOM     25  C   UNL     1      44.765 137.975  19.457  1.00  0.00     0.001 A 
ATOM     26  C   UNL     1      46.419 136.831  20.791  1.00  0.00     0.009 A 
ATOM     27  C   UNL     1      46.091 134.464  21.436  1.00  0.00     0.030 A 
ATOM     28  C   UNL     1      43.620 131.015  21.405  1.00  0.00     0.001 A 
ATOM     29  C   UNL     1      45.624 132.139  22.145  1.00  0.00     0.009 A 
ATOM     30  C   UNL     1      45.976 137.981  20.139  1.00  0.00     0.001 A 
ATOM     31  C   UNL     1      44.806 131.010  22.130  1.00  0.00     0.001 A 
BRANCH  27  32
ATOM     32  C   UNL     1      47.396 134.461  22.142  1.00  0.00     0.261 C 
ATOM     33  O   UNL     1      48.440 134.059  21.564  1.00  0.00    -0.298 OA
ENDBRANCH  27  32
ENDBRANCH  13  18
ENDBRANCH  10  11
BRANCH  10  34
ATOM     34  C   UNL     1      43.707 134.902  15.886  1.00  0.00     0.014 C 
ATOM     35  C   UNL     1      43.347 136.312  16.382  1.00  0.00     0.010 C 
ATOM     36  C   UNL     1      42.949 134.589  14.588  1.00  0.00     0.010 C 
ENDBRANCH  10  34
ENDBRANCH   1  10
TORSDOF 10
ENDMDL
MODEL 3
REMARK VINA RESULT:      -6.6      1.804      2.341
REMARK SMILES C#C/C(=N\[C@H](c1c(C)n[nH+]n1-c1c2ccccc2c(C=O)c2ccccc12)C(C)C)OC(=O)C=C
REMARK SMILES IDX 4 1 3 2 2 3 1 4 31 5 32 6 33 7 34 8 35 9 5 10 6 11 7 12
REMARK SMILES IDX 11 13 9 14 10 15 8 16 12 18 13 19 27 20 14 21 18 22 26 23
REMARK SMILES IDX 22 24 15 25 17 26 19 27 25 28 23 29 16 30 24 31 20 32 21 33
REMARK SMILES IDX 28 34 29 35 30 36
REMARK H PARENT 10 17
ROOT
ATOM      1  N   UNL     1      43.020 132.148  16.590  1.00  0.00    -0.233 NA
ENDROOT
BRANCH   1   2
ATOM      2  C   UNL     1      43.972 131.257  16.610  1.00  0.00     0.272 C 
BRANCH   2   3
ATOM      3  C   UNL     1      44.872 131.135  17.729  1.00  0.00    -0.011 C 
ATOM      4  C   UNL     1      45.626 131.009  18.659  1.00  0.00     0.015 C 
ENDBRANCH   2   3
BRANCH   2   5
ATOM      5  O   UNL     1      44.155 130.380  15.532  1.00  0.00    -0.396 OA
BRANCH   5   6
ATOM      6  C   UNL     1      44.505 130.750  14.226  1.00  0.00     0.337 C 
ATOM      7  O   UNL     1      43.631 130.862  13.323  1.00  0.00    -0.246 OA
BRANCH   6   8
ATOM      8  C   UNL     1      45.922 131.006  13.925  1.00  0.00     0.086 C 
ATOM      9  C   UNL     1      46.541 130.471  12.873  1.00  0.00     0.016 C 
ENDBRANCH   6   8
ENDBRANCH   5   6
ENDBRANCH   2   5
ENDBRANCH   1   2
BRANCH   1  10
ATOM     10  C   UNL     1      43.060 133.494  17.173  1.00  0.00     0.168 C 
BRANCH  10  11
ATOM     11  C   UNL     1      41.926 133.710  18.165  1.00  0.00     0.137 A 
ATOM     12  C   UNL     1      40.555 133.820  17.929  1.00  0.00     0.135 A 
ATOM     13  N   UNL     1      42.087 133.932  19.488  1.00  0.00    -0.097 N 
ATOM     14  N   UNL     1      39.941 134.071  19.104  1.00  0.00     0.020 NA
ATOM     15  N   UNL     1      40.894 134.134  20.020  1.00  0.00    -0.012 N 
ATOM     16  C   UNL     1      39.816 133.684  16.636  1.00  0.00     0.076 C 
ATOM     17  H   UNL     1      40.721 134.341  21.029  1.00  0.00     0.527 HD
BRANCH  13  18
ATOM     18  C   UNL     1      43.321 134.036  20.221  1.00  0.00     0.123 A 
ATOM     19  C   UNL     1      44.065 135.235  20.179  1.00  0.00     0.013 A 
ATOM     20  C   UNL     1      43.774 132.951  20.997  1.00  0.00     0.013 A 
ATOM     21  C   UNL     1      43.589 136.348  19.451  1.00  0.00     0.011 A 
ATOM     22  C   UNL     1      45.315 135.322  20.848  1.00  0.00    -0.005 A 
ATOM     23  C   UNL     1      42.986 131.788  21.126  1.00  0.00     0.011 A 
ATOM     24  C   UNL     1      45.016 133.033  21.684  1.00  0.00    -0.005 A 
ATOM     25  C   UNL     1      44.337 137.520  19.371  1.00  0.00     0.001 A 
ATOM     26  C   UNL     1      46.059 136.521  20.736  1.00  0.00     0.009 A 
ATOM     27  C   UNL     1      45.805 134.210  21.581  1.00  0.00     0.030 A 
ATOM     28  C   UNL     1      43.410 130.723  21.918  1.00  0.00     0.001 A 
ATOM     29  C   UNL     1      45.412 131.942  22.494  1.00  0.00     0.009 A 
ATOM     30  C   UNL     1      45.569 137.606  20.008  1.00  0.00     0.001 A 
ATOM     31  C   UNL     1      44.620 130.800  22.599  1.00  0.00     0.001 A 
BRANCH  27  32
ATOM     32  C   UNL     1      47.132 134.289  22.240  1.00  0.00     0.261 C 
ATOM     33  O   UNL     1      47.240 134.708  23.423  1.00  0.00    -0.298 OA
ENDBRANCH  27  32
ENDBRANCH  13  18
ENDBRANCH  10  11
BRANCH  10  34
ATOM     34  C   UNL     1      43.044 134.553  16.041  1.00  0.00     0.014 C 
ATOM     35  C   UNL     1      42.710 133.954  14.666  1.00  0.00     0.010 C 
ATOM     36  C   UNL     1      44.380 135.309  15.979  1.00  0.00     0.010 C 
ENDBRANCH  10  34
ENDBRANCH   1  10
TORSDOF 10
ENDMDL
MODEL 4
REMARK VINA RESULT:      -6.5      1.733      3.325
REMARK SMILES C#C/C(=N\[C@H](c1c(C)n[nH+]n1-c1c2ccccc2c(C=O)c2ccccc12)C(C)C)OC(=O)C=C
REMARK SMILES IDX 4 1 3 2 2 3 1 4 31 5 32 6 33 7 34 8 35 9 5 10 6 11 7 12
REMARK SMILES IDX 11 13 9 14 10 15 8 16 12 18 13 19 27 20 14 21 18 22 26 23
REMARK SMILES IDX 22 24 15 25 17 26 19 27 25 28 23 29 16 30 24 31 20 32 21 33
REMARK SMILES IDX 28 34 29 35 30 36
REMARK H PARENT 10 17
ROOT
ATOM      1  N   UNL     1      43.223 132.641  16.464  1.00  0.00    -0.233 NA
ENDROOT
BRANCH   1   2
ATOM      2  C   UNL     1      44.116 131.695  16.382  1.00  0.00     0.272 C 
BRANCH   2   3
ATOM      3  C   UNL     1      44.830 131.224  17.541  1.00  0.00    -0.011 C 
ATOM      4  C   UNL     1      45.422 130.852  18.521  1.00  0.00     0.015 C 
ENDBRANCH   2   3
BRANCH   2   5
ATOM      5  O   UNL     1      44.415 131.098  15.149  1.00  0.00    -0.396 OA
BRANCH   5   6
ATOM      6  C   UNL     1      45.601 131.273  14.421  1.00  0.00     0.337 C 
ATOM      7  O   UNL     1      46.457 132.133  14.765  1.00  0.00    -0.246 OA
BRANCH   6   8
ATOM      8  C   UNL     1      45.829 130.428  13.238  1.00  0.00     0.086 C 
ATOM      9  C   UNL     1      46.853 130.617  12.407  1.00  0.00     0.016 C 
ENDBRANCH   6   8
ENDBRANCH   5   6
ENDBRANCH   2   5
ENDBRANCH   1   2
BRANCH   1  10
ATOM     10  C   UNL     1      43.439 134.021  16.913  1.00  0.00     0.168 C 
BRANCH  10  11
ATOM     11  C   UNL     1      42.328 134.491  17.841  1.00  0.00     0.137 A 
ATOM     12  C   UNL     1      40.997 134.786  17.547  1.00  0.00     0.135 A 
ATOM     13  N   UNL     1      42.491 134.800  19.147  1.00  0.00    -0.097 N 
ATOM     14  N   UNL     1      40.401 135.227  18.673  1.00  0.00     0.020 NA
ATOM     15  N   UNL     1      41.330 135.225  19.616  1.00  0.00    -0.012 N 
ATOM     16  C   UNL     1      40.277 134.652  16.242  1.00  0.00     0.076 C 
ATOM     17  H   UNL     1      41.167 135.542  20.597  1.00  0.00     0.527 HD
BRANCH  13  18
ATOM     18  C   UNL     1      43.708 134.779  19.913  1.00  0.00     0.123 A 
ATOM     19  C   UNL     1      44.035 133.642  20.682  1.00  0.00     0.013 A 
ATOM     20  C   UNL     1      44.583 135.883  19.877  1.00  0.00     0.013 A 
ATOM     21  C   UNL     1      43.194 132.508  20.678  1.00  0.00     0.011 A 
ATOM     22  C   UNL     1      45.204 133.641  21.491  1.00  0.00    -0.005 A 
ATOM     23  C   UNL     1      44.313 136.979  19.031  1.00  0.00     0.011 A 
ATOM     24  C   UNL     1      45.763 135.886  20.669  1.00  0.00    -0.005 A 
ATOM     25  C   UNL     1      43.489 131.398  21.466  1.00  0.00     0.001 A 
ATOM     26  C   UNL     1      45.469 132.504  22.292  1.00  0.00     0.009 A 
ATOM     27  C   UNL     1      46.056 134.775  21.504  1.00  0.00     0.030 A 
ATOM     28  C   UNL     1      45.189 138.061  18.964  1.00  0.00     0.001 A 
ATOM     29  C   UNL     1      46.642 136.991  20.567  1.00  0.00     0.009 A 
ATOM     30  C   UNL     1      44.620 131.398  22.273  1.00  0.00     0.001 A 
ATOM     31  C   UNL     1      46.349 138.067  19.730  1.00  0.00     0.001 A 
BRANCH  27  32
ATOM     32  C   UNL     1      47.250 134.788  22.385  1.00  0.00     0.261 C 
ATOM     33  O   UNL     1      48.391 134.517  21.927  1.00  0.00    -0.298 OA
ENDBRANCH  27  32
ENDBRANCH  13  18
ENDBRANCH  10  11
BRANCH  10  34
ATOM     34  C   UNL     1      43.593 134.952  15.682  1.00  0.00     0.014 C 
ATOM     35  C   UNL     1      43.147 136.395  15.964  1.00  0.00     0.010 C 
ATOM     36  C   UNL     1      42.833 134.390  14.471  1.00  0.00     0.010 C 
ENDBRANCH  10  34
ENDBRANCH   1  10
TORSDOF 10
ENDMDL
MODEL 5
REMARK VINA RESULT:      -6.4      1.926      3.861
REMARK SMILES C#C/C(=N\[C@H](c1c(C)n[nH+]n1-c1c2ccccc2c(C=O)c2ccccc12)C(C)C)OC(=O)C=C
REMARK SMILES IDX 4 1 3 2 2 3 1 4 31 5 32 6 33 7 34 8 35 9 5 10 6 11 7 12
REMARK SMILES IDX 11 13 9 14 10 15 8 16 12 18 13 19 27 20 14 21 18 22 26 23
REMARK SMILES IDX 22 24 15 25 17 26 19 27 25 28 23 29 16 30 24 31 20 32 21 33
REMARK SMILES IDX 28 34 29 35 30 36
REMARK H PARENT 10 17
ROOT
ATOM      1  N   UNL     1      43.331 132.532  17.019  1.00  0.00    -0.233 NA
ENDROOT
BRANCH   1   2
ATOM      2  C   UNL     1      44.255 131.618  16.915  1.00  0.00     0.272 C 
BRANCH   2   3
ATOM      3  C   UNL     1      45.004 131.165  18.059  1.00  0.00    -0.011 C 
ATOM      4  C   UNL     1      45.625 130.762  19.009  1.00  0.00     0.015 C 
ENDBRANCH   2   3
BRANCH   2   5
ATOM      5  O   UNL     1      44.554 131.041  15.673  1.00  0.00    -0.396 OA
BRANCH   5   6
ATOM      6  C   UNL     1      45.614 131.411  14.833  1.00  0.00     0.337 C 
ATOM      7  O   UNL     1      46.257 132.479  15.025  1.00  0.00    -0.246 OA
BRANCH   6   8
ATOM      8  C   UNL     1      45.962 130.524  13.711  1.00  0.00     0.086 C 
ATOM      9  C   UNL     1      46.907 129.590  13.802  1.00  0.00     0.016 C 
ENDBRANCH   6   8
ENDBRANCH   5   6
ENDBRANCH   2   5
ENDBRANCH   1   2
BRANCH   1  10
ATOM     10  C   UNL     1      43.533 133.978  17.163  1.00  0.00     0.168 C 
BRANCH  10  11
ATOM     11  C   UNL     1      42.459 134.611  18.037  1.00  0.00     0.137 A 
ATOM     12  C   UNL     1      41.072 134.582  17.892  1.00  0.00     0.135 A 
ATOM     13  N   UNL     1      42.699 135.420  19.093  1.00  0.00    -0.097 N 
ATOM     14  N   UNL     1      40.527 135.337  18.868  1.00  0.00     0.020 NA
ATOM     15  N   UNL     1      41.536 135.828  19.571  1.00  0.00    -0.012 N 
ATOM     16  C   UNL     1      40.255 133.855  16.872  1.00  0.00     0.076 C 
ATOM     17  H   UNL     1      41.422 136.474  20.383  1.00  0.00     0.527 HD
BRANCH  13  18
ATOM     18  C   UNL     1      43.973 135.867  19.590  1.00  0.00     0.123 A 
ATOM     19  C   UNL     1      44.724 135.035  20.447  1.00  0.00     0.013 A 
ATOM     20  C   UNL     1      44.481 137.123  19.202  1.00  0.00     0.013 A 
ATOM     21  C   UNL     1      44.251 133.750  20.794  1.00  0.00     0.011 A 
ATOM     22  C   UNL     1      45.952 135.496  20.992  1.00  0.00    -0.005 A 
ATOM     23  C   UNL     1      43.784 137.915  18.265  1.00  0.00     0.011 A 
ATOM     24  C   UNL     1      45.717 137.588  19.728  1.00  0.00    -0.005 A 
ATOM     25  C   UNL     1      44.966 132.940  21.673  1.00  0.00     0.001 A 
ATOM     26  C   UNL     1      46.649 134.656  21.894  1.00  0.00     0.009 A 
ATOM     27  C   UNL     1      46.438 136.786  20.653  1.00  0.00     0.030 A 
ATOM     28  C   UNL     1      44.294 139.143  17.851  1.00  0.00     0.001 A 
ATOM     29  C   UNL     1      46.217 138.832  19.276  1.00  0.00     0.009 A 
ATOM     30  C   UNL     1      46.159 133.392  22.224  1.00  0.00     0.001 A 
ATOM     31  C   UNL     1      45.507 139.601  18.355  1.00  0.00     0.001 A 
BRANCH  27  32
ATOM     32  C   UNL     1      47.698 137.282  21.260  1.00  0.00     0.261 C 
ATOM     33  O   UNL     1      48.811 137.030  20.728  1.00  0.00    -0.298 OA
ENDBRANCH  27  32
ENDBRANCH  13  18
ENDBRANCH  10  11
BRANCH  10  34
ATOM     34  C   UNL     1      43.598 134.638  15.762  1.00  0.00     0.014 C 
ATOM     35  C   UNL     1      43.123 136.100  15.766  1.00  0.00     0.010 C 
ATOM     36  C   UNL     1      42.797 133.825  14.734  1.00  0.00     0.010 C 
ENDBRANCH  10  34
ENDBRANCH   1  10
TORSDOF 10
ENDMDL
MODEL 6
REMARK VINA RESULT:      -6.1      1.742      3.299
REMARK SMILES C#C/C(=N\[C@H](c1c(C)n[nH+]n1-c1c2ccccc2c(C=O)c2ccccc12)C(C)C)OC(=O)C=C
REMARK SMILES IDX 4 1 3 2 2 3 1 4 31 5 32 6 33 7 34 8 35 9 5 10 6 11 7 12
REMARK SMILES IDX 11 13 9 14 10 15 8 16 12 18 13 19 27 20 14 21 18 22 26 23
REMARK SMILES IDX 22 24 15 25 17 26 19 27 25 28 23 29 16 30 24 31 20 32 21 33
REMARK SMILES IDX 28 34 29 35 30 36
REMARK H PARENT 10 17
ROOT
ATOM      1  N   UNL     1      42.869 132.368  16.237  1.00  0.00    -0.233 NA
ENDROOT
BRANCH   1   2
ATOM      2  C   UNL     1      43.816 131.496  16.030  1.00  0.00     0.272 C 
BRANCH   2   3
ATOM      3  C   UNL     1      44.738 131.120  17.071  1.00  0.00    -0.011 C 
ATOM      4  C   UNL     1      45.520 130.828  17.939  1.00  0.00     0.015 C 
ENDBRANCH   2   3
BRANCH   2   5
ATOM      5  O   UNL     1      43.969 130.889  14.776  1.00  0.00    -0.396 OA
BRANCH   5   6
ATOM      6  C   UNL     1      45.074 130.130  14.365  1.00  0.00     0.337 C 
ATOM      7  O   UNL     1      45.253 128.955  14.788  1.00  0.00    -0.246 OA
BRANCH   6   8
ATOM      8  C   UNL     1      46.029 130.734  13.423  1.00  0.00     0.086 C 
ATOM      9  C   UNL     1      47.097 130.082  12.966  1.00  0.00     0.016 C 
ENDBRANCH   6   8
ENDBRANCH   5   6
ENDBRANCH   2   5
ENDBRANCH   1   2
BRANCH   1  10
ATOM     10  C   UNL     1      43.001 133.676  16.889  1.00  0.00     0.168 C 
BRANCH  10  11
ATOM     11  C   UNL     1      41.902 133.904  17.917  1.00  0.00     0.137 A 
ATOM     12  C   UNL     1      40.522 133.981  17.733  1.00  0.00     0.135 A 
ATOM     13  N   UNL     1      42.112 134.175  19.225  1.00  0.00    -0.097 N 
ATOM     14  N   UNL     1      39.950 134.260  18.923  1.00  0.00     0.020 NA
ATOM     15  N   UNL     1      40.936 134.372  19.797  1.00  0.00    -0.012 N 
ATOM     16  C   UNL     1      39.735 133.788  16.476  1.00  0.00     0.076 C 
ATOM     17  H   UNL     1      40.799 134.610  20.805  1.00  0.00     0.527 HD
BRANCH  13  18
ATOM     18  C   UNL     1      43.371 134.326  19.904  1.00  0.00     0.123 A 
ATOM     19  C   UNL     1      43.928 133.235  20.604  1.00  0.00     0.013 A 
ATOM     20  C   UNL     1      44.058 135.555  19.849  1.00  0.00     0.013 A 
ATOM     21  C   UNL     1      43.276 131.983  20.615  1.00  0.00     0.011 A 
ATOM     22  C   UNL     1      45.139 133.397  21.329  1.00  0.00    -0.005 A 
ATOM     23  C   UNL     1      43.558 136.617  19.066  1.00  0.00     0.011 A 
ATOM     24  C   UNL     1      45.279 135.724  20.557  1.00  0.00    -0.005 A 
ATOM     25  C   UNL     1      43.798 130.913  21.339  1.00  0.00     0.001 A 
ATOM     26  C   UNL     1      45.637 132.296  22.067  1.00  0.00     0.009 A 
ATOM     27  C   UNL     1      45.804 134.652  21.327  1.00  0.00     0.030 A 
ATOM     28  C   UNL     1      44.247 137.825  18.980  1.00  0.00     0.001 A 
ATOM     29  C   UNL     1      45.965 136.956  20.436  1.00  0.00     0.009 A 
ATOM     30  C   UNL     1      44.972 131.070  22.065  1.00  0.00     0.001 A 
ATOM     31  C   UNL     1      45.447 137.994  19.663  1.00  0.00     0.001 A 
BRANCH  27  32
ATOM     32  C   UNL     1      47.043 134.829  22.123  1.00  0.00     0.261 C 
ATOM     33  O   UNL     1      48.169 134.558  21.629  1.00  0.00    -0.298 OA
ENDBRANCH  27  32
ENDBRANCH  13  18
ENDBRANCH  10  11
BRANCH  10  34
ATOM     34  C   UNL     1      43.026 134.795  15.815  1.00  0.00     0.014 C 
ATOM     35  C   UNL     1      44.432 135.370  15.584  1.00  0.00     0.010 C 
ATOM     36  C   UNL     1      42.045 135.921  16.173  1.00  0.00     0.010 C 
ENDBRANCH  10  34
ENDBRANCH   1  10
TORSDOF 10
ENDMDL
MODEL 7
REMARK VINA RESULT:      -5.8      1.731      2.521
REMARK SMILES C#C/C(=N\[C@H](c1c(C)n[nH+]n1-c1c2ccccc2c(C=O)c2ccccc12)C(C)C)OC(=O)C=C
REMARK SMILES IDX 4 1 3 2 2 3 1 4 31 5 32 6 33 7 34 8 35 9 5 10 6 11 7 12
REMARK SMILES IDX 11 13 9 14 10 15 8 16 12 18 13 19 27 20 14 21 18 22 26 23
REMARK SMILES IDX 22 24 15 25 17 26 19 27 25 28 23 29 16 30 24 31 20 32 21 33
REMARK SMILES IDX 28 34 29 35 30 36
REMARK H PARENT 10 17
ROOT
ATOM      1  N   UNL     1      44.305 132.786  15.889  1.00  0.00    -0.233 NA
ENDROOT
BRANCH   1   2
ATOM      2  C   UNL     1      44.716 131.590  16.206  1.00  0.00     0.272 C 
BRANCH   2   3
ATOM      3  C   UNL     1      45.148 131.266  17.541  1.00  0.00    -0.011 C 
ATOM      4  C   UNL     1      45.487 130.984  18.662  1.00  0.00     0.015 C 
ENDBRANCH   2   3
BRANCH   2   5
ATOM      5  O   UNL     1      44.752 130.568  15.247  1.00  0.00    -0.396 OA
BRANCH   5   6
ATOM      6  C   UNL     1      45.744 130.396  14.270  1.00  0.00     0.337 C 
ATOM      7  O   UNL     1      45.484 130.540  13.044  1.00  0.00    -0.246 OA
BRANCH   6   8
ATOM      8  C   UNL     1      47.103 130.042  14.706  1.00  0.00     0.086 C 
ATOM      9  C   UNL     1      48.007 129.514  13.881  1.00  0.00     0.016 C 
ENDBRANCH   6   8
ENDBRANCH   5   6
ENDBRANCH   2   5
ENDBRANCH   1   2
BRANCH   1  10
ATOM     10  C   UNL     1      43.689 133.772  16.784  1.00  0.00     0.168 C 
BRANCH  10  11
ATOM     11  C   UNL     1      42.170 133.733  16.702  1.00  0.00     0.137 A 
ATOM     12  C   UNL     1      41.351 133.456  15.607  1.00  0.00     0.135 A 
ATOM     13  N   UNL     1      41.332 134.069  17.708  1.00  0.00    -0.097 N 
ATOM     14  N   UNL     1      40.066 133.601  15.990  1.00  0.00     0.020 NA
ATOM     15  N   UNL     1      40.092 133.973  17.260  1.00  0.00    -0.012 N 
ATOM     16  C   UNL     1      41.748 133.050  14.223  1.00  0.00     0.076 C 
ATOM     17  H   UNL     1      39.239 134.185  17.824  1.00  0.00     0.527 HD
BRANCH  13  18
ATOM     18  C   UNL     1      41.678 134.545  19.021  1.00  0.00     0.123 A 
ATOM     19  C   UNL     1      41.536 135.914  19.332  1.00  0.00     0.013 A 
ATOM     20  C   UNL     1      42.134 133.641  20.001  1.00  0.00     0.013 A 
ATOM     21  C   UNL     1      41.023 136.817  18.375  1.00  0.00     0.011 A 
ATOM     22  C   UNL     1      41.935 136.400  20.606  1.00  0.00    -0.005 A 
ATOM     23  C   UNL     1      42.180 132.257  19.729  1.00  0.00     0.011 A 
ATOM     24  C   UNL     1      42.521 134.114  21.285  1.00  0.00    -0.005 A 
ATOM     25  C   UNL     1      40.919 138.176  18.661  1.00  0.00     0.001 A 
ATOM     26  C   UNL     1      41.831 137.789  20.862  1.00  0.00     0.009 A 
ATOM     27  C   UNL     1      42.453 135.503  21.576  1.00  0.00     0.030 A 
ATOM     28  C   UNL     1      42.599 131.353  20.703  1.00  0.00     0.001 A 
ATOM     29  C   UNL     1      42.926 133.170  22.258  1.00  0.00     0.009 A 
ATOM     30  C   UNL     1      41.325 138.661  19.899  1.00  0.00     0.001 A 
ATOM     31  C   UNL     1      42.971 131.808  21.963  1.00  0.00     0.001 A 
BRANCH  27  32
ATOM     32  C   UNL     1      42.912 136.022  22.889  1.00  0.00     0.261 C 
ATOM     33  O   UNL     1      44.123 136.307  23.080  1.00  0.00    -0.298 OA
ENDBRANCH  27  32
ENDBRANCH  13  18
ENDBRANCH  10  11
BRANCH  10  34
ATOM     34  C   UNL     1      44.247 135.184  16.467  1.00  0.00     0.014 C 
ATOM     35  C   UNL     1      44.475 136.034  17.727  1.00  0.00     0.010 C 
ATOM     36  C   UNL     1      43.329 135.929  15.486  1.00  0.00     0.010 C 
ENDBRANCH  10  34
ENDBRANCH   1  10
TORSDOF 10
ENDMDL
MODEL 8
REMARK VINA RESULT:      -5.8      1.014      1.101
REMARK SMILES C#C/C(=N\[C@H](c1c(C)n[nH+]n1-c1c2ccccc2c(C=O)c2ccccc12)C(C)C)OC(=O)C=C
REMARK SMILES IDX 4 1 3 2 2 3 1 4 31 5 32 6 33 7 34 8 35 9 5 10 6 11 7 12
REMARK SMILES IDX 11 13 9 14 10 15 8 16 12 18 13 19 27 20 14 21 18 22 26 23
REMARK SMILES IDX 22 24 15 25 17 26 19 27 25 28 23 29 16 30 24 31 20 32 21 33
REMARK SMILES IDX 28 34 29 35 30 36
REMARK H PARENT 10 17
ROOT
ATOM      1  N   UNL     1      43.495 134.882  15.908  1.00  0.00    -0.233 NA
ENDROOT
BRANCH   1   2
ATOM      2  C   UNL     1      43.901 133.721  15.476  1.00  0.00     0.272 C 
BRANCH   2   3
ATOM      3  C   UNL     1      43.020 132.823  14.774  1.00  0.00    -0.011 C 
ATOM      4  C   UNL     1      42.303 132.063  14.176  1.00  0.00     0.015 C 
ENDBRANCH   2   3
BRANCH   2   5
ATOM      5  O   UNL     1      45.224 133.303  15.682  1.00  0.00    -0.396 OA
BRANCH   5   6
ATOM      6  C   UNL     1      45.684 131.980  15.613  1.00  0.00     0.337 C 
ATOM      7  O   UNL     1      45.791 131.271  16.652  1.00  0.00    -0.246 OA
BRANCH   6   8
ATOM      8  C   UNL     1      46.043 131.429  14.297  1.00  0.00     0.086 C 
ATOM      9  C   UNL     1      47.304 131.341  13.876  1.00  0.00     0.016 C 
ENDBRANCH   6   8
ENDBRANCH   5   6
ENDBRANCH   2   5
ENDBRANCH   1   2
BRANCH   1  10
ATOM     10  C   UNL     1      43.393 135.315  17.306  1.00  0.00     0.168 C 
BRANCH  10  11
ATOM     11  C   UNL     1      42.262 134.603  18.034  1.00  0.00     0.137 A 
ATOM     12  C   UNL     1      40.959 134.346  17.606  1.00  0.00     0.135 A 
ATOM     13  N   UNL     1      42.319 134.168  19.313  1.00  0.00    -0.097 N 
ATOM     14  N   UNL     1      40.292 133.745  18.613  1.00  0.00     0.020 NA
ATOM     15  N   UNL     1      41.140 133.656  19.625  1.00  0.00    -0.012 N 
ATOM     16  C   UNL     1      40.338 134.639  16.278  1.00  0.00     0.076 C 
ATOM     17  H   UNL     1      40.896 133.254  20.558  1.00  0.00     0.527 HD
BRANCH  13  18
ATOM     18  C   UNL     1      43.409 134.299  20.242  1.00  0.00     0.123 A 
ATOM     19  C   UNL     1      43.507 135.450  21.052  1.00  0.00     0.013 A 
ATOM     20  C   UNL     1      44.364 133.269  20.359  1.00  0.00     0.013 A 
ATOM     21  C   UNL     1      42.523 136.460  20.985  1.00  0.00     0.011 A 
ATOM     22  C   UNL     1      44.616 135.615  21.925  1.00  0.00    -0.005 A 
ATOM     23  C   UNL     1      44.215 132.073  19.627  1.00  0.00     0.011 A 
ATOM     24  C   UNL     1      45.469 133.416  21.241  1.00  0.00    -0.005 A 
ATOM     25  C   UNL     1      42.635 137.618  21.751  1.00  0.00     0.001 A 
ATOM     26  C   UNL     1      44.710 136.809  22.680  1.00  0.00     0.009 A 
ATOM     27  C   UNL     1      45.613 134.607  22.001  1.00  0.00     0.030 A 
ATOM     28  C   UNL     1      45.136 131.036  19.761  1.00  0.00     0.001 A 
ATOM     29  C   UNL     1      46.379 132.340  21.368  1.00  0.00     0.009 A 
ATOM     30  C   UNL     1      43.727 137.794  22.593  1.00  0.00     0.001 A 
ATOM     31  C   UNL     1      46.215 131.169  20.628  1.00  0.00     0.001 A 
BRANCH  27  32
ATOM     32  C   UNL     1      46.793 134.804  22.880  1.00  0.00     0.261 C 
ATOM     33  O   UNL     1      46.801 134.356  24.056  1.00  0.00    -0.298 OA
ENDBRANCH  27  32
ENDBRANCH  13  18
ENDBRANCH  10  11
BRANCH  10  34
ATOM     34  C   UNL     1      43.235 136.857  17.365  1.00  0.00     0.014 C 
ATOM     35  C   UNL     1      43.023 137.489  15.980  1.00  0.00     0.010 C 
ATOM     36  C   UNL     1      44.438 137.506  18.064  1.00  0.00     0.010 C 
ENDBRANCH  10  34
ENDBRANCH   1  10
TORSDOF 10
ENDMDL
MODEL 9
REMARK VINA RESULT:      -5.5      1.781      2.595
REMARK SMILES C#C/C(=N\[C@H](c1c(C)n[nH+]n1-c1c2ccccc2c(C=O)c2ccccc12)C(C)C)OC(=O)C=C
REMARK SMILES IDX 4 1 3 2 2 3 1 4 31 5 32 6 33 7 34 8 35 9 5 10 6 11 7 12
REMARK SMILES IDX 11 13 9 14 10 15 8 16 12 18 13 19 27 20 14 21 18 22 26 23
REMARK SMILES IDX 22 24 15 25 17 26 19 27 25 28 23 29 16 30 24 31 20 32 21 33
REMARK SMILES IDX 28 34 29 35 30 36
REMARK H PARENT 10 17
ROOT
ATOM      1  N   UNL     1      43.986 132.266  17.511  1.00  0.00    -0.233 NA
ENDROOT
BRANCH   1   2
ATOM      2  C   UNL     1      44.861 131.317  17.699  1.00  0.00     0.272 C 
BRANCH   2   3
ATOM      3  C   UNL     1      45.458 131.082  18.989  1.00  0.00    -0.011 C 
ATOM      4  C   UNL     1      45.974 130.871  20.057  1.00  0.00     0.015 C 
ENDBRANCH   2   3
BRANCH   2   5
ATOM      5  O   UNL     1      45.255 130.486  16.641  1.00  0.00    -0.396 OA
BRANCH   5   6
ATOM      6  C   UNL     1      45.329 130.859  15.291  1.00  0.00     0.337 C 
ATOM      7  O   UNL     1      44.393 130.591  14.488  1.00  0.00    -0.246 OA
BRANCH   6   8
ATOM      8  C   UNL     1      46.528 131.573  14.825  1.00  0.00     0.086 C 
ATOM      9  C   UNL     1      47.192 131.220  13.725  1.00  0.00     0.016 C 
ENDBRANCH   6   8
ENDBRANCH   5   6
ENDBRANCH   2   5
ENDBRANCH   1   2
BRANCH   1  10
ATOM     10  C   UNL     1      43.822 133.484  18.311  1.00  0.00     0.168 C 
BRANCH  10  11
ATOM     11  C   UNL     1      42.389 133.646  18.800  1.00  0.00     0.137 A 
ATOM     12  C   UNL     1      41.208 133.729  18.062  1.00  0.00     0.135 A 
ATOM     13  N   UNL     1      42.029 133.839  20.088  1.00  0.00    -0.097 N 
ATOM     14  N   UNL     1      40.186 133.934  18.918  1.00  0.00     0.020 NA
ATOM     15  N   UNL     1      40.716 133.997  20.128  1.00  0.00    -0.012 N 
ATOM     16  C   UNL     1      41.021 133.608  16.583  1.00  0.00     0.076 C 
ATOM     17  H   UNL     1      40.167 134.174  20.999  1.00  0.00     0.527 HD
BRANCH  13  18
ATOM     18  C   UNL     1      42.887 133.955  21.236  1.00  0.00     0.123 A 
ATOM     19  C   UNL     1      43.322 135.228  21.663  1.00  0.00     0.013 A 
ATOM     20  C   UNL     1      43.274 132.801  21.947  1.00  0.00     0.013 A 
ATOM     21  C   UNL     1      42.892 136.394  20.993  1.00  0.00     0.011 A 
ATOM     22  C   UNL     1      44.221 135.344  22.757  1.00  0.00    -0.005 A 
ATOM     23  C   UNL     1      42.761 131.537  21.589  1.00  0.00     0.011 A 
ATOM     24  C   UNL     1      44.160 132.907  23.054  1.00  0.00    -0.005 A 
ATOM     25  C   UNL     1      43.350 137.650  21.383  1.00  0.00     0.001 A 
ATOM     26  C   UNL     1      44.681 136.633  23.120  1.00  0.00     0.009 A 
ATOM     27  C   UNL     1      44.662 134.179  23.439  1.00  0.00     0.030 A 
ATOM     28  C   UNL     1      43.112 130.395  22.306  1.00  0.00     0.001 A 
ATOM     29  C   UNL     1      44.486 131.732  23.773  1.00  0.00     0.009 A 
ATOM     30  C   UNL     1      44.244 137.769  22.440  1.00  0.00     0.001 A 
ATOM     31  C   UNL     1      43.972 130.493  23.394  1.00  0.00     0.001 A 
BRANCH  27  32
ATOM     32  C   UNL     1      45.637 134.301  24.551  1.00  0.00     0.261 C 
ATOM     33  O   UNL     1      46.875 134.246  24.330  1.00  0.00    -0.298 OA
ENDBRANCH  27  32
ENDBRANCH  13  18
ENDBRANCH  10  11
BRANCH  10  34
ATOM     34  C   UNL     1      44.293 134.714  17.492  1.00  0.00     0.014 C 
ATOM     35  C   UNL     1      43.467 135.977  17.780  1.00  0.00     0.010 C 
ATOM     36  C   UNL     1      44.285 134.407  15.988  1.00  0.00     0.010 C 
ENDBRANCH  10  34
ENDBRANCH   1  10
TORSDOF 10
ENDMDL


