MODEL 1
REMARK VINA RESULT:      -5.5      0.000      0.000
REMARK SMILES [H]/N=C(/C#C)[NH2+][C@H](c1c(C)[nH+]nn1-c1c2ccccc2c(C=O)c2ccccc12)C(C)C
REMARK SMILES IDX 7 1 6 2 3 5 4 6 5 7 2 8 1 9 8 10 9 11 13 12 11 13 12 14
REMARK SMILES IDX 10 15 14 17 15 18 29 19 16 20 20 21 28 22 24 23 17 24 19 25
REMARK SMILES IDX 21 26 27 27 25 28 18 29 26 30 22 31 23 32 30 33 31 34 32 35
REMARK H PARENT 6 3 6 4 11 16
ROOT
ATOM      1  C   UNL     1      42.714 133.613  17.101  1.00  0.00     0.270 C 
ENDROOT
BRANCH   1   2
ATOM      2  N   UNL     1      42.515 132.258  16.516  1.00  0.00    -0.281 N 
ATOM      3  H   UNL     1      41.992 132.316  15.614  1.00  0.00     0.354 HD
ATOM      4  H   UNL     1      41.951 131.663  17.166  1.00  0.00     0.354 HD
BRANCH   2   5
ATOM      5  C   UNL     1      43.758 131.549  16.311  1.00  0.00     0.270 C 
BRANCH   5   6
ATOM      6  C   UNL     1      44.628 131.262  17.422  1.00  0.00     0.009 C 
ATOM      7  C   UNL     1      45.356 131.022  18.352  1.00  0.00     0.017 C 
ENDBRANCH   5   6
BRANCH   5   8
ATOM      8  N   UNL     1      44.172 131.270  15.114  1.00  0.00    -0.242 NA
ATOM      9  H   UNL     1      44.830 131.893  14.597  1.00  0.00     0.194 HD
ENDBRANCH   5   8
ENDBRANCH   2   5
ENDBRANCH   1   2
BRANCH   1  10
ATOM     10  C   UNL     1      41.633 133.958  18.122  1.00  0.00     0.234 A 
ATOM     11  C   UNL     1      40.256 134.108  17.950  1.00  0.00     0.171 A 
ATOM     12  N   UNL     1      41.874 134.258  19.420  1.00  0.00    -0.091 N 
ATOM     13  N   UNL     1      39.740 134.458  19.145  1.00  0.00    -0.147 N 
ATOM     14  N   UNL     1      40.730 134.550  20.015  1.00  0.00     0.094 NA
ATOM     15  C   UNL     1      39.421 133.868  16.730  1.00  0.00     0.100 C 
ATOM     16  H   UNL     1      38.736 134.633  19.369  1.00  0.00     0.342 HD
BRANCH  12  17
ATOM     17  C   UNL     1      43.147 134.289  20.088  1.00  0.00     0.172 A 
ATOM     18  C   UNL     1      43.600 133.156  20.792  1.00  0.00     0.032 A 
ATOM     19  C   UNL     1      43.948 135.448  20.018  1.00  0.00     0.032 A 
ATOM     20  C   UNL     1      42.796 131.997  20.880  1.00  0.00     0.013 A 
ATOM     21  C   UNL     1      44.869 133.172  21.433  1.00  0.00    -0.003 A 
ATOM     22  C   UNL     1      43.504 136.584  19.306  1.00  0.00     0.013 A 
ATOM     23  C   UNL     1      45.224 135.473  20.644  1.00  0.00    -0.003 A 
ATOM     24  C   UNL     1      43.236 130.875  21.576  1.00  0.00     0.001 A 
ATOM     25  C   UNL     1      45.282 132.021  22.148  1.00  0.00     0.009 A 
ATOM     26  C   UNL     1      45.679 134.337  21.369  1.00  0.00     0.030 A 
ATOM     27  C   UNL     1      44.309 137.715  19.193  1.00  0.00     0.001 A 
ATOM     28  C   UNL     1      46.030 136.626  20.489  1.00  0.00     0.009 A 
ATOM     29  C   UNL     1      44.473 130.887  22.209  1.00  0.00     0.001 A 
ATOM     30  C   UNL     1      45.571 137.733  19.777  1.00  0.00     0.001 A 
BRANCH  26  31
ATOM     31  C   UNL     1      46.989 134.359  22.065  1.00  0.00     0.261 C 
ATOM     32  O   UNL     1      47.071 134.699  23.275  1.00  0.00    -0.298 OA
ENDBRANCH  26  31
ENDBRANCH  12  17
ENDBRANCH   1  10
BRANCH   1  33
ATOM     33  C   UNL     1      42.869 134.760  16.049  1.00  0.00     0.050 C 
ATOM     34  C   UNL     1      44.304 135.294  15.963  1.00  0.00     0.014 C 
ATOM     35  C   UNL     1      42.343 134.422  14.645  1.00  0.00     0.014 C 
ENDBRANCH   1  33
TORSDOF 8
ENDMDL
MODEL 2
REMARK VINA RESULT:      -5.4      0.142      3.297
REMARK SMILES [H]/N=C(/C#C)[NH2+][C@H](c1c(C)[nH+]nn1-c1c2ccccc2c(C=O)c2ccccc12)C(C)C
REMARK SMILES IDX 7 1 6 2 3 5 4 6 5 7 2 8 1 9 8 10 9 11 13 12 11 13 12 14
REMARK SMILES IDX 10 15 14 17 15 18 29 19 16 20 20 21 28 22 24 23 17 24 19 25
REMARK SMILES IDX 21 26 27 27 25 28 18 29 26 30 22 31 23 32 30 33 31 34 32 35
REMARK H PARENT 6 3 6 4 11 16
ROOT
ATOM      1  C   UNL     1      42.603 133.693  17.006  1.00  0.00     0.270 C 
ENDROOT
BRANCH   1   2
ATOM      2  N   UNL     1      42.434 132.331  16.427  1.00  0.00    -0.281 N 
ATOM      3  H   UNL     1      41.888 132.370  15.538  1.00  0.00     0.354 HD
ATOM      4  H   UNL     1      41.906 131.719  17.091  1.00  0.00     0.354 HD
BRANCH   2   5
ATOM      5  C   UNL     1      43.695 131.663  16.193  1.00  0.00     0.270 C 
BRANCH   5   6
ATOM      6  C   UNL     1      44.569 131.345  17.292  1.00  0.00     0.009 C 
ATOM      7  C   UNL     1      45.299 131.078  18.213  1.00  0.00     0.017 C 
ENDBRANCH   5   6
BRANCH   5   8
ATOM      8  N   UNL     1      44.118 131.452  14.985  1.00  0.00    -0.242 NA
ATOM      9  H   UNL     1      43.837 130.609  14.439  1.00  0.00     0.194 HD
ENDBRANCH   5   8
ENDBRANCH   2   5
ENDBRANCH   1   2
BRANCH   1  10
ATOM     10  C   UNL     1      41.550 133.995  18.070  1.00  0.00     0.234 A 
ATOM     11  C   UNL     1      40.168 134.131  17.947  1.00  0.00     0.171 A 
ATOM     12  N   UNL     1      41.830 134.261  19.368  1.00  0.00    -0.091 N 
ATOM     13  N   UNL     1      39.685 134.440  19.167  1.00  0.00    -0.147 N 
ATOM     14  N   UNL     1      40.702 134.520  20.007  1.00  0.00     0.094 NA
ATOM     15  C   UNL     1      39.296 133.915  16.748  1.00  0.00     0.100 C 
ATOM     16  H   UNL     1      38.687 134.595  19.428  1.00  0.00     0.342 HD
BRANCH  12  17
ATOM     17  C   UNL     1      43.123 134.290  19.996  1.00  0.00     0.172 A 
ATOM     18  C   UNL     1      43.913 135.455  19.929  1.00  0.00     0.032 A 
ATOM     19  C   UNL     1      43.588 133.157  20.696  1.00  0.00     0.032 A 
ATOM     20  C   UNL     1      43.460 136.588  19.216  1.00  0.00     0.013 A 
ATOM     21  C   UNL     1      45.180 135.497  20.570  1.00  0.00    -0.003 A 
ATOM     22  C   UNL     1      42.798 131.990  20.775  1.00  0.00     0.013 A 
ATOM     23  C   UNL     1      44.848 133.191  21.352  1.00  0.00    -0.003 A 
ATOM     24  C   UNL     1      44.236 137.741  19.142  1.00  0.00     0.001 A 
ATOM     25  C   UNL     1      45.954 136.679  20.464  1.00  0.00     0.009 A 
ATOM     26  C   UNL     1      45.656 134.359  21.274  1.00  0.00     0.030 A 
ATOM     27  C   UNL     1      43.229 130.883  21.503  1.00  0.00     0.001 A 
ATOM     28  C   UNL     1      45.248 132.062  22.107  1.00  0.00     0.009 A 
ATOM     29  C   UNL     1      45.479 137.787  19.763  1.00  0.00     0.001 A 
ATOM     30  C   UNL     1      44.447 130.923  22.173  1.00  0.00     0.001 A 
BRANCH  26  31
ATOM     31  C   UNL     1      46.993 134.398  21.916  1.00  0.00     0.261 C 
ATOM     32  O   UNL     1      47.124 134.774  23.111  1.00  0.00    -0.298 OA
ENDBRANCH  26  31
ENDBRANCH  12  17
ENDBRANCH   1  10
BRANCH   1  33
ATOM     33  C   UNL     1      42.669 134.845  15.950  1.00  0.00     0.050 C 
ATOM     34  C   UNL     1      44.072 135.452  15.823  1.00  0.00     0.014 C 
ATOM     35  C   UNL     1      42.121 134.480  14.562  1.00  0.00     0.014 C 
ENDBRANCH   1  33
TORSDOF 8
ENDMDL
MODEL 3
REMARK VINA RESULT:      -5.4      2.523      5.689
REMARK SMILES [H]/N=C(/C#C)[NH2+][C@H](c1c(C)[nH+]nn1-c1c2ccccc2c(C=O)c2ccccc12)C(C)C
REMARK SMILES IDX 7 1 6 2 3 5 4 6 5 7 2 8 1 9 8 10 9 11 13 12 11 13 12 14
REMARK SMILES IDX 10 15 14 17 15 18 29 19 16 20 20 21 28 22 24 23 17 24 19 25
REMARK SMILES IDX 21 26 27 27 25 28 18 29 26 30 22 31 23 32 30 33 31 34 32 35
REMARK H PARENT 6 3 6 4 11 16
ROOT
ATOM      1  C   UNL     1      42.737 136.157  18.736  1.00  0.00     0.270 C 
ENDROOT
BRANCH   1   2
ATOM      2  N   UNL     1      41.973 137.212  18.016  1.00  0.00    -0.281 N 
ATOM      3  H   UNL     1      42.019 138.121  18.528  1.00  0.00     0.354 HD
ATOM      4  H   UNL     1      40.964 136.944  17.947  1.00  0.00     0.354 HD
BRANCH   2   5
ATOM      5  C   UNL     1      42.424 137.399  16.655  1.00  0.00     0.270 C 
BRANCH   5   6
ATOM      6  C   UNL     1      43.376 136.492  16.070  1.00  0.00     0.009 C 
ATOM      7  C   UNL     1      44.173 135.731  15.579  1.00  0.00     0.017 C 
ENDBRANCH   5   6
BRANCH   5   8
ATOM      8  N   UNL     1      42.079 138.453  15.982  1.00  0.00    -0.242 NA
ATOM      9  H   UNL     1      42.646 138.809  15.182  1.00  0.00     0.194 HD
ENDBRANCH   5   8
ENDBRANCH   2   5
ENDBRANCH   1   2
BRANCH   1  10
ATOM     10  C   UNL     1      41.816 135.180  19.463  1.00  0.00     0.234 A 
ATOM     11  C   UNL     1      40.992 135.384  20.570  1.00  0.00     0.171 A 
ATOM     12  N   UNL     1      41.708 133.865  19.163  1.00  0.00    -0.091 N 
ATOM     13  N   UNL     1      40.413 134.202  20.860  1.00  0.00    -0.147 N 
ATOM     14  N   UNL     1      40.861 133.298  20.006  1.00  0.00     0.094 NA
ATOM     15  C   UNL     1      40.688 136.652  21.306  1.00  0.00     0.100 C 
ATOM     16  H   UNL     1      39.727 134.007  21.622  1.00  0.00     0.342 HD
BRANCH  12  17
ATOM     17  C   UNL     1      42.392 133.146  18.122  1.00  0.00     0.172 A 
ATOM     18  C   UNL     1      41.969 133.274  16.783  1.00  0.00     0.032 A 
ATOM     19  C   UNL     1      43.497 132.331  18.442  1.00  0.00     0.032 A 
ATOM     20  C   UNL     1      40.853 134.076  16.458  1.00  0.00     0.013 A 
ATOM     21  C   UNL     1      42.658 132.586  15.748  1.00  0.00    -0.003 A 
ATOM     22  C   UNL     1      43.931 132.206  19.780  1.00  0.00     0.013 A 
ATOM     23  C   UNL     1      44.202 131.648  17.414  1.00  0.00    -0.003 A 
ATOM     24  C   UNL     1      40.428 134.204  15.138  1.00  0.00     0.001 A 
ATOM     25  C   UNL     1      42.192 132.723  14.417  1.00  0.00     0.009 A 
ATOM     26  C   UNL     1      43.770 131.762  16.064  1.00  0.00     0.030 A 
ATOM     27  C   UNL     1      45.051 131.441  20.099  1.00  0.00     0.001 A 
ATOM     28  C   UNL     1      45.352 130.900  17.765  1.00  0.00     0.009 A 
ATOM     29  C   UNL     1      41.094 133.530  14.121  1.00  0.00     0.001 A 
ATOM     30  C   UNL     1      45.762 130.796  19.093  1.00  0.00     0.001 A 
BRANCH  26  31
ATOM     31  C   UNL     1      44.466 131.022  14.982  1.00  0.00     0.261 C 
ATOM     32  O   UNL     1      45.416 131.552  14.346  1.00  0.00    -0.298 OA
ENDBRANCH  26  31
ENDBRANCH  12  17
ENDBRANCH   1  10
BRANCH   1  33
ATOM     33  C   UNL     1      43.842 136.700  19.702  1.00  0.00     0.050 C 
ATOM     34  C   UNL     1      44.809 135.606  20.170  1.00  0.00     0.014 C 
ATOM     35  C   UNL     1      44.626 137.910  19.170  1.00  0.00     0.014 C 
ENDBRANCH   1  33
TORSDOF 8
ENDMDL
MODEL 4
REMARK VINA RESULT:      -5.4      2.509      4.704
REMARK SMILES [H]/N=C(/C#C)[NH2+][C@H](c1c(C)[nH+]nn1-c1c2ccccc2c(C=O)c2ccccc12)C(C)C
REMARK SMILES IDX 7 1 6 2 3 5 4 6 5 7 2 8 1 9 8 10 9 11 13 12 11 13 12 14
REMARK SMILES IDX 10 15 14 17 15 18 29 19 16 20 20 21 28 22 24 23 17 24 19 25
REMARK SMILES IDX 21 26 27 27 25 28 18 29 26 30 22 31 23 32 30 33 31 34 32 35
REMARK H PARENT 6 3 6 4 11 16
ROOT
ATOM      1  C   UNL     1      41.047 136.150  17.231  1.00  0.00     0.270 C 
ENDROOT
BRANCH   1   2
ATOM      2  N   UNL     1      41.006 136.942  15.971  1.00  0.00    -0.281 N 
ATOM      3  H   UNL     1      40.599 137.888  16.139  1.00  0.00     0.354 HD
ATOM      4  H   UNL     1      40.401 136.464  15.263  1.00  0.00     0.354 HD
BRANCH   2   5
ATOM      5  C   UNL     1      42.306 137.076  15.351  1.00  0.00     0.270 C 
BRANCH   5   6
ATOM      6  C   UNL     1      43.398 136.229  15.755  1.00  0.00     0.009 C 
ATOM      7  C   UNL     1      44.312 135.519  16.092  1.00  0.00     0.017 C 
ENDBRANCH   5   6
BRANCH   5   8
ATOM      8  N   UNL     1      42.545 138.039  14.517  1.00  0.00    -0.242 NA
ATOM      9  H   UNL     1      42.144 138.994  14.643  1.00  0.00     0.194 HD
ENDBRANCH   5   8
ENDBRANCH   2   5
ENDBRANCH   1   2
BRANCH   1  10
ATOM     10  C   UNL     1      40.036 135.006  17.219  1.00  0.00     0.234 A 
ATOM     11  C   UNL     1      38.661 135.031  16.983  1.00  0.00     0.171 A 
ATOM     12  N   UNL     1      40.332 133.721  17.526  1.00  0.00    -0.091 N 
ATOM     13  N   UNL     1      38.207 133.770  17.129  1.00  0.00    -0.147 N 
ATOM     14  N   UNL     1      39.227 132.997  17.461  1.00  0.00     0.094 NA
ATOM     15  C   UNL     1      37.791 136.176  16.566  1.00  0.00     0.100 C 
ATOM     16  H   UNL     1      37.226 133.436  17.006  1.00  0.00     0.342 HD
BRANCH  12  17
ATOM     17  C   UNL     1      41.614 133.181  17.887  1.00  0.00     0.172 A 
ATOM     18  C   UNL     1      42.472 132.677  16.889  1.00  0.00     0.032 A 
ATOM     19  C   UNL     1      42.018 133.177  19.238  1.00  0.00     0.032 A 
ATOM     20  C   UNL     1      42.068 132.663  15.535  1.00  0.00     0.013 A 
ATOM     21  C   UNL     1      43.752 132.166  17.238  1.00  0.00    -0.003 A 
ATOM     22  C   UNL     1      41.167 133.689  20.242  1.00  0.00     0.013 A 
ATOM     23  C   UNL     1      43.301 132.680  19.598  1.00  0.00    -0.003 A 
ATOM     24  C   UNL     1      42.908 132.164  14.545  1.00  0.00     0.001 A 
ATOM     25  C   UNL     1      44.578 131.650  16.210  1.00  0.00     0.009 A 
ATOM     26  C   UNL     1      44.164 132.156  18.597  1.00  0.00     0.030 A 
ATOM     27  C   UNL     1      41.577 133.732  21.572  1.00  0.00     0.001 A 
ATOM     28  C   UNL     1      43.700 132.762  20.954  1.00  0.00     0.009 A 
ATOM     29  C   UNL     1      44.159 131.658  14.880  1.00  0.00     0.001 A 
ATOM     30  C   UNL     1      42.843 133.276  21.925  1.00  0.00     0.001 A 
BRANCH  26  31
ATOM     31  C   UNL     1      45.488 131.594  18.959  1.00  0.00     0.261 C 
ATOM     32  O   UNL     1      45.613 130.374  19.248  1.00  0.00    -0.298 OA
ENDBRANCH  26  31
ENDBRANCH  12  17
ENDBRANCH   1  10
BRANCH   1  33
ATOM     33  C   UNL     1      40.909 136.999  18.537  1.00  0.00     0.050 C 
ATOM     34  C   UNL     1      42.212 137.061  19.344  1.00  0.00     0.014 C 
ATOM     35  C   UNL     1      40.344 138.413  18.331  1.00  0.00     0.014 C 
ENDBRANCH   1  33
TORSDOF 8
ENDMDL
MODEL 5
REMARK VINA RESULT:      -5.4      2.544      4.365
REMARK SMILES [H]/N=C(/C#C)[NH2+][C@H](c1c(C)[nH+]nn1-c1c2ccccc2c(C=O)c2ccccc12)C(C)C
REMARK SMILES IDX 7 1 6 2 3 5 4 6 5 7 2 8 1 9 8 10 9 11 13 12 11 13 12 14
REMARK SMILES IDX 10 15 14 17 15 18 29 19 16 20 20 21 28 22 24 23 17 24 19 25
REMARK SMILES IDX 21 26 27 27 25 28 18 29 26 30 22 31 23 32 30 33 31 34 32 35
REMARK H PARENT 6 3 6 4 11 16
ROOT
ATOM      1  C   UNL     1      41.032 136.298  16.796  1.00  0.00     0.270 C 
ENDROOT
BRANCH   1   2
ATOM      2  N   UNL     1      41.915 136.499  15.615  1.00  0.00    -0.281 N 
ATOM      3  H   UNL     1      41.959 137.508  15.350  1.00  0.00     0.354 HD
ATOM      4  H   UNL     1      41.539 135.977  14.790  1.00  0.00     0.354 HD
BRANCH   2   5
ATOM      5  C   UNL     1      43.254 135.994  15.824  1.00  0.00     0.270 C 
BRANCH   5   6
ATOM      6  C   UNL     1      43.848 136.021  17.135  1.00  0.00     0.009 C 
ATOM      7  C   UNL     1      44.346 136.046  18.233  1.00  0.00     0.017 C 
ENDBRANCH   5   6
BRANCH   5   8
ATOM      8  N   UNL     1      43.987 135.627  14.820  1.00  0.00    -0.242 NA
ATOM      9  H   UNL     1      44.217 136.275  14.035  1.00  0.00     0.194 HD
ENDBRANCH   5   8
ENDBRANCH   2   5
ENDBRANCH   1   2
BRANCH   1  10
ATOM     10  C   UNL     1      40.051 135.147  16.587  1.00  0.00     0.234 A 
ATOM     11  C   UNL     1      38.848 135.114  15.882  1.00  0.00     0.171 A 
ATOM     12  N   UNL     1      40.179 133.922  17.150  1.00  0.00    -0.091 N 
ATOM     13  N   UNL     1      38.331 133.879  16.030  1.00  0.00    -0.147 N 
ATOM     14  N   UNL     1      39.144 133.178  16.802  1.00  0.00     0.094 NA
ATOM     15  C   UNL     1      38.217 136.175  15.034  1.00  0.00     0.100 C 
ATOM     16  H   UNL     1      37.444 133.514  15.617  1.00  0.00     0.342 HD
BRANCH  12  17
ATOM     17  C   UNL     1      41.236 133.460  18.009  1.00  0.00     0.172 A 
ATOM     18  C   UNL     1      42.356 132.807  17.457  1.00  0.00     0.032 A 
ATOM     19  C   UNL     1      41.157 133.681  19.399  1.00  0.00     0.032 A 
ATOM     20  C   UNL     1      42.434 132.568  16.067  1.00  0.00     0.013 A 
ATOM     21  C   UNL     1      43.415 132.371  18.299  1.00  0.00    -0.003 A 
ATOM     22  C   UNL     1      40.041 134.343  19.957  1.00  0.00     0.013 A 
ATOM     23  C   UNL     1      42.215 133.262  20.250  1.00  0.00    -0.003 A 
ATOM     24  C   UNL     1      43.536 131.921  15.516  1.00  0.00     0.001 A 
ATOM     25  C   UNL     1      44.516 131.701  17.711  1.00  0.00     0.009 A 
ATOM     26  C   UNL     1      43.341 132.588  19.700  1.00  0.00     0.030 A 
ATOM     27  C   UNL     1      39.977 134.607  21.323  1.00  0.00     0.001 A 
ATOM     28  C   UNL     1      42.135 133.568  21.630  1.00  0.00     0.009 A 
ATOM     29  C   UNL     1      44.573 131.488  16.334  1.00  0.00     0.001 A 
ATOM     30  C   UNL     1      41.024 134.227  22.155  1.00  0.00     0.001 A 
BRANCH  26  31
ATOM     31  C   UNL     1      44.435 132.104  20.577  1.00  0.00     0.261 C 
ATOM     32  O   UNL     1      44.382 130.961  21.103  1.00  0.00    -0.298 OA
ENDBRANCH  26  31
ENDBRANCH  12  17
ENDBRANCH   1  10
BRANCH   1  33
ATOM     33  C   UNL     1      40.281 137.585  17.274  1.00  0.00     0.050 C 
ATOM     34  C   UNL     1      40.351 137.782  18.793  1.00  0.00     0.014 C 
ATOM     35  C   UNL     1      40.693 138.877  16.551  1.00  0.00     0.014 C 
ENDBRANCH   1  33
TORSDOF 8
ENDMDL
MODEL 6
REMARK VINA RESULT:      -5.4      2.866      5.888
REMARK SMILES [H]/N=C(/C#C)[NH2+][C@H](c1c(C)[nH+]nn1-c1c2ccccc2c(C=O)c2ccccc12)C(C)C
REMARK SMILES IDX 7 1 6 2 3 5 4 6 5 7 2 8 1 9 8 10 9 11 13 12 11 13 12 14
REMARK SMILES IDX 10 15 14 17 15 18 29 19 16 20 20 21 28 22 24 23 17 24 19 25
REMARK SMILES IDX 21 26 27 27 25 28 18 29 26 30 22 31 23 32 30 33 31 34 32 35
REMARK H PARENT 6 3 6 4 11 16
ROOT
ATOM      1  C   UNL     1      44.390 134.692  21.379  1.00  0.00     0.270 C 
ENDROOT
BRANCH   1   2
ATOM      2  N   UNL     1      43.634 135.919  21.753  1.00  0.00    -0.281 N 
ATOM      3  H   UNL     1      44.205 136.533  22.375  1.00  0.00     0.354 HD
ATOM      4  H   UNL     1      42.767 135.663  22.279  1.00  0.00     0.354 HD
BRANCH   2   5
ATOM      5  C   UNL     1      43.189 136.674  20.603  1.00  0.00     0.270 C 
BRANCH   5   6
ATOM      6  C   UNL     1      43.776 136.448  19.308  1.00  0.00     0.009 C 
ATOM      7  C   UNL     1      44.269 136.258  18.224  1.00  0.00     0.017 C 
ENDBRANCH   5   6
BRANCH   5   8
ATOM      8  N   UNL     1      42.348 137.652  20.738  1.00  0.00    -0.242 NA
ATOM      9  H   UNL     1      41.941 138.150  19.916  1.00  0.00     0.194 HD
ENDBRANCH   5   8
ENDBRANCH   2   5
ENDBRANCH   1   2
BRANCH   1  10
ATOM     10  C   UNL     1      43.650 133.420  21.786  1.00  0.00     0.234 A 
ATOM     11  C   UNL     1      43.516 132.827  23.042  1.00  0.00     0.171 A 
ATOM     12  N   UNL     1      43.030 132.586  20.919  1.00  0.00    -0.091 N 
ATOM     13  N   UNL     1      42.807 131.693  22.876  1.00  0.00    -0.147 N 
ATOM     14  N   UNL     1      42.529 131.562  21.590  1.00  0.00     0.094 NA
ATOM     15  C   UNL     1      43.972 133.324  24.379  1.00  0.00     0.100 C 
ATOM     16  H   UNL     1      42.515 131.019  23.617  1.00  0.00     0.342 HD
BRANCH  12  17
ATOM     17  C   UNL     1      42.921 132.730  19.493  1.00  0.00     0.172 A 
ATOM     18  C   UNL     1      43.841 132.078  18.647  1.00  0.00     0.032 A 
ATOM     19  C   UNL     1      41.880 133.507  18.944  1.00  0.00     0.032 A 
ATOM     20  C   UNL     1      44.896 131.311  19.190  1.00  0.00     0.013 A 
ATOM     21  C   UNL     1      43.722 132.196  17.236  1.00  0.00    -0.003 A 
ATOM     22  C   UNL     1      40.950 134.154  19.786  1.00  0.00     0.013 A 
ATOM     23  C   UNL     1      41.742 133.622  17.534  1.00  0.00    -0.003 A 
ATOM     24  C   UNL     1      45.810 130.668  18.361  1.00  0.00     0.001 A 
ATOM     25  C   UNL     1      44.676 131.543  16.418  1.00  0.00     0.009 A 
ATOM     26  C   UNL     1      42.677 132.979  16.677  1.00  0.00     0.030 A 
ATOM     27  C   UNL     1      39.891 134.885  19.251  1.00  0.00     0.001 A 
ATOM     28  C   UNL     1      40.641 134.349  17.020  1.00  0.00     0.009 A 
ATOM     29  C   UNL     1      45.702 130.784  16.980  1.00  0.00     0.001 A 
ATOM     30  C   UNL     1      39.734 134.975  17.873  1.00  0.00     0.001 A 
BRANCH  26  31
ATOM     31  C   UNL     1      42.576 133.124  15.204  1.00  0.00     0.261 C 
ATOM     32  O   UNL     1      41.915 132.299  14.519  1.00  0.00    -0.298 OA
ENDBRANCH  26  31
ENDBRANCH  12  17
ENDBRANCH   1  10
BRANCH   1  33
ATOM     33  C   UNL     1      45.869 134.659  21.887  1.00  0.00     0.050 C 
ATOM     34  C   UNL     1      46.593 133.358  21.519  1.00  0.00     0.014 C 
ATOM     35  C   UNL     1      46.719 135.873  21.477  1.00  0.00     0.014 C 
ENDBRANCH   1  33
TORSDOF 8
ENDMDL
MODEL 7
REMARK VINA RESULT:      -5.4      2.506      4.413
REMARK SMILES [H]/N=C(/C#C)[NH2+][C@H](c1c(C)[nH+]nn1-c1c2ccccc2c(C=O)c2ccccc12)C(C)C
REMARK SMILES IDX 7 1 6 2 3 5 4 6 5 7 2 8 1 9 8 10 9 11 13 12 11 13 12 14
REMARK SMILES IDX 10 15 14 17 15 18 29 19 16 20 20 21 28 22 24 23 17 24 19 25
REMARK SMILES IDX 21 26 27 27 25 28 18 29 26 30 22 31 23 32 30 33 31 34 32 35
REMARK H PARENT 6 3 6 4 11 16
ROOT
ATOM      1  C   UNL     1      41.022 136.418  16.722  1.00  0.00     0.270 C 
ENDROOT
BRANCH   1   2
ATOM      2  N   UNL     1      41.900 136.673  15.547  1.00  0.00    -0.281 N 
ATOM      3  H   UNL     1      41.954 137.694  15.337  1.00  0.00     0.354 HD
ATOM      4  H   UNL     1      41.514 136.200  14.698  1.00  0.00     0.354 HD
BRANCH   2   5
ATOM      5  C   UNL     1      43.235 136.143  15.720  1.00  0.00     0.270 C 
BRANCH   5   6
ATOM      6  C   UNL     1      43.851 136.126  17.021  1.00  0.00     0.009 C 
ATOM      7  C   UNL     1      44.368 136.112  18.110  1.00  0.00     0.017 C 
ENDBRANCH   5   6
BRANCH   5   8
ATOM      8  N   UNL     1      43.946 135.793  14.694  1.00  0.00    -0.242 NA
ATOM      9  H   UNL     1      43.723 136.118  13.728  1.00  0.00     0.194 HD
ENDBRANCH   5   8
ENDBRANCH   2   5
ENDBRANCH   1   2
BRANCH   1  10
ATOM     10  C   UNL     1      40.060 135.258  16.475  1.00  0.00     0.234 A 
ATOM     11  C   UNL     1      38.848 135.234  15.785  1.00  0.00     0.171 A 
ATOM     12  N   UNL     1      40.218 134.013  16.982  1.00  0.00    -0.091 N 
ATOM     13  N   UNL     1      38.356 133.983  15.885  1.00  0.00    -0.147 N 
ATOM     14  N   UNL     1      39.192 133.265  16.615  1.00  0.00     0.094 NA
ATOM     15  C   UNL     1      38.186 136.318  14.992  1.00  0.00     0.100 C 
ATOM     16  H   UNL     1      37.471 133.620  15.468  1.00  0.00     0.342 HD
BRANCH  12  17
ATOM     17  C   UNL     1      41.295 133.534  17.806  1.00  0.00     0.172 A 
ATOM     18  C   UNL     1      41.242 133.707  19.204  1.00  0.00     0.032 A 
ATOM     19  C   UNL     1      42.391 132.873  17.214  1.00  0.00     0.032 A 
ATOM     20  C   UNL     1      40.156 134.383  19.803  1.00  0.00     0.013 A 
ATOM     21  C   UNL     1      42.292 133.213  20.025  1.00  0.00    -0.003 A 
ATOM     22  C   UNL     1      42.445 132.688  15.815  1.00  0.00     0.013 A 
ATOM     23  C   UNL     1      43.440 132.362  18.025  1.00  0.00    -0.003 A 
ATOM     24  C   UNL     1      40.099 134.560  21.182  1.00  0.00     0.001 A 
ATOM     25  C   UNL     1      42.214 133.422  21.423  1.00  0.00     0.009 A 
ATOM     26  C   UNL     1      43.400 132.548  19.435  1.00  0.00     0.030 A 
ATOM     27  C   UNL     1      43.500 131.995  15.227  1.00  0.00     0.001 A 
ATOM     28  C   UNL     1      44.485 131.639  17.402  1.00  0.00     0.009 A 
ATOM     29  C   UNL     1      41.124 134.083  21.990  1.00  0.00     0.001 A 
ATOM     30  C   UNL     1      44.513 131.467  16.019  1.00  0.00     0.001 A 
BRANCH  26  31
ATOM     31  C   UNL     1      44.506 132.061  20.294  1.00  0.00     0.261 C 
ATOM     32  O   UNL     1      45.432 132.836  20.655  1.00  0.00    -0.298 OA
ENDBRANCH  26  31
ENDBRANCH  12  17
ENDBRANCH   1  10
BRANCH   1  33
ATOM     33  C   UNL     1      40.252 137.675  17.243  1.00  0.00     0.050 C 
ATOM     34  C   UNL     1      40.431 137.898  18.750  1.00  0.00     0.014 C 
ATOM     35  C   UNL     1      40.544 138.975  16.476  1.00  0.00     0.014 C 
ENDBRANCH   1  33
TORSDOF 8
ENDMDL
MODEL 8
REMARK VINA RESULT:      -5.4      0.828      3.470
REMARK SMILES [H]/N=C(/C#C)[NH2+][C@H](c1c(C)[nH+]nn1-c1c2ccccc2c(C=O)c2ccccc12)C(C)C
REMARK SMILES IDX 7 1 6 2 3 5 4 6 5 7 2 8 1 9 8 10 9 11 13 12 11 13 12 14
REMARK SMILES IDX 10 15 14 17 15 18 29 19 16 20 20 21 28 22 24 23 17 24 19 25
REMARK SMILES IDX 21 26 27 27 25 28 18 29 26 30 22 31 23 32 30 33 31 34 32 35
REMARK H PARENT 6 3 6 4 11 16
ROOT
ATOM      1  C   UNL     1      42.881 133.548  17.164  1.00  0.00     0.270 C 
ENDROOT
BRANCH   1   2
ATOM      2  N   UNL     1      42.729 132.165  16.635  1.00  0.00    -0.281 N 
ATOM      3  H   UNL     1      42.185 132.164  15.744  1.00  0.00     0.354 HD
ATOM      4  H   UNL     1      42.207 131.571  17.320  1.00  0.00     0.354 HD
BRANCH   2   5
ATOM      5  C   UNL     1      43.998 131.503  16.428  1.00  0.00     0.270 C 
BRANCH   5   6
ATOM      6  C   UNL     1      44.381 131.051  15.115  1.00  0.00     0.009 C 
ATOM      7  C   UNL     1      44.699 130.673  14.016  1.00  0.00     0.017 C 
ENDBRANCH   5   6
BRANCH   5   8
ATOM      8  N   UNL     1      44.755 131.192  17.434  1.00  0.00    -0.242 NA
ATOM      9  H   UNL     1      45.015 130.204  17.646  1.00  0.00     0.194 HD
ENDBRANCH   5   8
ENDBRANCH   2   5
ENDBRANCH   1   2
BRANCH   1  10
ATOM     10  C   UNL     1      41.819 133.879  18.210  1.00  0.00     0.234 A 
ATOM     11  C   UNL     1      40.437 134.006  18.071  1.00  0.00     0.171 A 
ATOM     12  N   UNL     1      42.088 134.187  19.500  1.00  0.00    -0.091 N 
ATOM     13  N   UNL     1      39.944 134.351  19.277  1.00  0.00    -0.147 N 
ATOM     14  N   UNL     1      40.954 134.461  20.123  1.00  0.00     0.094 NA
ATOM     15  C   UNL     1      39.576 133.750  16.873  1.00  0.00     0.100 C 
ATOM     16  H   UNL     1      38.943 134.510  19.526  1.00  0.00     0.342 HD
BRANCH  12  17
ATOM     17  C   UNL     1      43.375 134.240  20.137  1.00  0.00     0.172 A 
ATOM     18  C   UNL     1      44.146 135.418  20.071  1.00  0.00     0.032 A 
ATOM     19  C   UNL     1      43.854 133.118  20.846  1.00  0.00     0.032 A 
ATOM     20  C   UNL     1      43.679 136.540  19.350  1.00  0.00     0.013 A 
ATOM     21  C   UNL     1      45.408 135.484  20.721  1.00  0.00    -0.003 A 
ATOM     22  C   UNL     1      43.083 131.938  20.924  1.00  0.00     0.013 A 
ATOM     23  C   UNL     1      45.109 133.176  21.511  1.00  0.00    -0.003 A 
ATOM     24  C   UNL     1      44.436 137.706  19.278  1.00  0.00     0.001 A 
ATOM     25  C   UNL     1      46.162 136.678  20.616  1.00  0.00     0.009 A 
ATOM     26  C   UNL     1      45.897 134.357  21.433  1.00  0.00     0.030 A 
ATOM     27  C   UNL     1      43.528 130.842  21.660  1.00  0.00     0.001 A 
ATOM     28  C   UNL     1      45.522 132.057  22.273  1.00  0.00     0.009 A 
ATOM     29  C   UNL     1      45.674 137.775  19.907  1.00  0.00     0.001 A 
ATOM     30  C   UNL     1      44.740 130.904  22.338  1.00  0.00     0.001 A 
BRANCH  26  31
ATOM     31  C   UNL     1      47.229 134.421  22.084  1.00  0.00     0.261 C 
ATOM     32  O   UNL     1      48.256 133.992  21.495  1.00  0.00    -0.298 OA
ENDBRANCH  26  31
ENDBRANCH  12  17
ENDBRANCH   1  10
BRANCH   1  33
ATOM     33  C   UNL     1      42.943 134.661  16.066  1.00  0.00     0.050 C 
ATOM     34  C   UNL     1      44.332 135.300  15.948  1.00  0.00     0.014 C 
ATOM     35  C   UNL     1      42.438 134.228  14.680  1.00  0.00     0.014 C 
ENDBRANCH   1  33
TORSDOF 8
ENDMDL
MODEL 9
REMARK VINA RESULT:      -5.3      0.824      1.088
REMARK SMILES [H]/N=C(/C#C)[NH2+][C@H](c1c(C)[nH+]nn1-c1c2ccccc2c(C=O)c2ccccc12)C(C)C
REMARK SMILES IDX 7 1 6 2 3 5 4 6 5 7 2 8 1 9 8 10 9 11 13 12 11 13 12 14
REMARK SMILES IDX 10 15 14 17 15 18 29 19 16 20 20 21 28 22 24 23 17 24 19 25
REMARK SMILES IDX 21 26 27 27 25 28 18 29 26 30 22 31 23 32 30 33 31 34 32 35
REMARK H PARENT 6 3 6 4 11 16
ROOT
ATOM      1  C   UNL     1      42.875 133.558  17.219  1.00  0.00     0.270 C 
ENDROOT
BRANCH   1   2
ATOM      2  N   UNL     1      42.725 132.183  16.667  1.00  0.00    -0.281 N 
ATOM      3  H   UNL     1      42.188 132.197  15.772  1.00  0.00     0.354 HD
ATOM      4  H   UNL     1      42.196 131.580  17.339  1.00  0.00     0.354 HD
BRANCH   2   5
ATOM      5  C   UNL     1      43.994 131.521  16.461  1.00  0.00     0.270 C 
BRANCH   5   6
ATOM      6  C   UNL     1      44.369 131.053  15.152  1.00  0.00     0.009 C 
ATOM      7  C   UNL     1      44.682 130.661  14.056  1.00  0.00     0.017 C 
ENDBRANCH   5   6
BRANCH   5   8
ATOM      8  N   UNL     1      44.759 131.226  17.466  1.00  0.00    -0.242 NA
ATOM      9  H   UNL     1      44.772 130.273  17.890  1.00  0.00     0.194 HD
ENDBRANCH   5   8
ENDBRANCH   2   5
ENDBRANCH   1   2
BRANCH   1  10
ATOM     10  C   UNL     1      41.803 133.876  18.258  1.00  0.00     0.234 A 
ATOM     11  C   UNL     1      40.420 133.988  18.110  1.00  0.00     0.171 A 
ATOM     12  N   UNL     1      42.059 134.186  19.550  1.00  0.00    -0.091 N 
ATOM     13  N   UNL     1      39.915 134.327  19.313  1.00  0.00    -0.147 N 
ATOM     14  N   UNL     1      40.919 134.448  20.165  1.00  0.00     0.094 NA
ATOM     15  C   UNL     1      39.570 133.724  16.906  1.00  0.00     0.100 C 
ATOM     16  H   UNL     1      38.911 134.475  19.555  1.00  0.00     0.342 HD
BRANCH  12  17
ATOM     17  C   UNL     1      43.342 134.252  20.195  1.00  0.00     0.172 A 
ATOM     18  C   UNL     1      43.842 133.130  20.886  1.00  0.00     0.032 A 
ATOM     19  C   UNL     1      44.107 135.435  20.117  1.00  0.00     0.032 A 
ATOM     20  C   UNL     1      43.075 131.948  20.983  1.00  0.00     0.013 A 
ATOM     21  C   UNL     1      45.121 133.183  21.504  1.00  0.00    -0.003 A 
ATOM     22  C   UNL     1      43.616 136.560  19.418  1.00  0.00     0.013 A 
ATOM     23  C   UNL     1      45.393 135.496  20.719  1.00  0.00    -0.003 A 
ATOM     24  C   UNL     1      43.561 130.837  21.666  1.00  0.00     0.001 A 
ATOM     25  C   UNL     1      45.582 132.042  22.206  1.00  0.00     0.009 A 
ATOM     26  C   UNL     1      45.895 134.372  21.431  1.00  0.00     0.030 A 
ATOM     27  C   UNL     1      44.383 137.716  19.296  1.00  0.00     0.001 A 
ATOM     28  C   UNL     1      46.161 136.674  20.555  1.00  0.00     0.009 A 
ATOM     29  C   UNL     1      44.809 130.883  22.277  1.00  0.00     0.001 A 
ATOM     30  C   UNL     1      45.655 137.769  19.856  1.00  0.00     0.001 A 
BRANCH  26  31
ATOM     31  C   UNL     1      47.216 134.431  22.103  1.00  0.00     0.261 C 
ATOM     32  O   UNL     1      48.260 134.058  21.506  1.00  0.00    -0.298 OA
ENDBRANCH  26  31
ENDBRANCH  12  17
ENDBRANCH   1  10
BRANCH   1  33
ATOM     33  C   UNL     1      42.951 134.686  16.138  1.00  0.00     0.050 C 
ATOM     34  C   UNL     1      44.343 135.325  16.046  1.00  0.00     0.014 C 
ATOM     35  C   UNL     1      42.462 134.275  14.740  1.00  0.00     0.014 C 
ENDBRANCH   1  33
TORSDOF 8
ENDMDL


