REMARK SMILES [H]/N=C1\C=C(n2cc(CCCCN(C)[C@@H](C)C#N)[nH+]n2)c2cccc3c(O)[n-]c1c23
REMARK SMILES IDX 10 1 9 2 8 3 6 4 20 5 7 6 19 7 5 9 3 10 4 11 29 12 28 13
REMARK SMILES IDX 30 14 21 15 26 16 25 17 22 18 24 19 23 20 2 21 1 22 27 23
REMARK SMILES IDX 11 25 12 26 13 27 14 28 15 29 16 30 17 31 18 32
REMARK H PARENT 19 8 27 24
ROOT
ATOM      1  C   UNL     1      -0.270   2.461  -2.279  1.00  0.00     0.010 C 
ENDROOT
BRANCH   1   2
ATOM      2  C   UNL     1      -1.797   2.529  -2.428  1.00  0.00     0.086 C 
BRANCH   2   3
ATOM      3  C   UNL     1      -2.509   1.346  -1.833  1.00  0.00     0.165 A 
ATOM      4  N   UNL     1      -3.173  -0.249  -0.495  1.00  0.00    -0.101 N 
ATOM      5  N   UNL     1      -4.063  -0.110  -1.466  1.00  0.00     0.093 NA
ATOM      6  C   UNL     1      -2.197   0.662  -0.673  1.00  0.00     0.281 A 
ATOM      7  N   UNL     1      -3.676   0.851  -2.288  1.00  0.00    -0.147 N 
ATOM      8  H   UNL     1      -4.211   1.169  -3.127  1.00  0.00     0.342 HD
BRANCH   4   9
ATOM      9  C   UNL     1      -3.300  -1.172   0.596  1.00  0.00     0.165 C 
ATOM     10  C   UNL     1      -4.655  -2.192   2.424  1.00  0.00     0.044 C 
ATOM     11  C   UNL     1      -4.495  -1.289   1.240  1.00  0.00     0.081 C 
ATOM     12  C   UNL     1      -3.468  -2.938   2.850  1.00  0.00    -0.100 A 
ATOM     13  N   UNL     1      -3.330  -3.854   3.837  1.00  0.00    -0.625 NA
ATOM     14  C   UNL     1      -2.318  -2.799   2.157  1.00  0.00    -0.018 A 
ATOM     15  C   UNL     1      -2.130  -1.997   1.048  1.00  0.00     0.031 A 
ATOM     16  C   UNL     1      -2.038  -4.277   3.722  1.00  0.00     0.021 A 
ATOM     17  C   UNL     1      -1.393  -3.636   2.672  1.00  0.00     0.001 A 
ATOM     18  C   UNL     1      -0.870  -2.091   0.414  1.00  0.00     0.013 A 
ATOM     19  C   UNL     1      -0.129  -3.742   2.092  1.00  0.00     0.010 A 
ATOM     20  C   UNL     1       0.128  -2.955   0.944  1.00  0.00     0.002 A 
BRANCH  10  21
ATOM     21  N   UNL     1      -5.783  -2.313   3.047  1.00  0.00    -0.302 NA
ATOM     22  H   UNL     1      -6.633  -1.784   2.749  1.00  0.00     0.188 HD
ENDBRANCH  10  21
BRANCH  16  23
ATOM     23  O   UNL     1      -1.475  -5.241   4.552  1.00  0.00    -0.530 OA
ATOM     24  H   UNL     1      -0.514  -5.536   4.435  1.00  0.00     0.290 HD
ENDBRANCH  16  23
ENDBRANCH   4   9
ENDBRANCH   2   3
ENDBRANCH   1   2
BRANCH   1  25
ATOM     25  C   UNL     1       0.340   1.256  -3.017  1.00  0.00     0.016 C 
BRANCH  25  26
ATOM     26  C   UNL     1       1.872   1.243  -2.918  1.00  0.00     0.085 C 
BRANCH  26  27
ATOM     27  N   UNL     1       2.311   1.214  -1.504  1.00  0.00    -0.291 NA
ATOM     28  C   UNL     1       3.549   1.990  -1.306  1.00  0.00     0.106 C 
BRANCH  27  29
ATOM     29  C   UNL     1       2.362  -0.160  -0.937  1.00  0.00     0.157 C 
ATOM     30  C   UNL     1       3.651  -0.932  -1.272  1.00  0.00     0.041 C 
BRANCH  29  31
ATOM     31  C   UNL     1       2.176  -0.096   0.520  1.00  0.00     0.081 C 
ATOM     32  N   UNL     1       2.028  -0.045   1.667  1.00  0.00    -0.197 NA
ENDBRANCH  29  31
ENDBRANCH  27  29
ENDBRANCH  26  27
ENDBRANCH  25  26
ENDBRANCH   1  25
TORSDOF 10


