MODEL 1
REMARK VINA RESULT:      -6.1      0.000      0.000
REMARK SMILES C#C[C@@](O)(c1cc(N=[N+]=[N-])cc(SC(C)(C)C[NH2+]C[C@](C)(O)C=C)ccc2cc1CC2)C(C)(C)C
REMARK SMILES IDX 14 1 15 2 16 3 13 4 12 5 5 6 6 7 29 8 7 9 28 10 30 11 11 12
REMARK SMILES IDX 27 13 31 14 26 15 25 16 3 17 2 18 1 19 4 20 32 22 33 23
REMARK SMILES IDX 34 24 35 25 8 26 9 27 10 28 17 29 18 30 19 33 20 34 21 35
REMARK SMILES IDX 22 36 23 38 24 39
REMARK H PARENT 4 21 18 31 18 32 22 37
ROOT
ATOM      1  C   UNL     1      42.828 133.175  15.306  1.00  0.00     0.064 C 
ATOM      2  C   UNL     1      43.547 134.523  15.488  1.00  0.00     0.029 C 
ATOM      3  C   UNL     1      41.679 133.349  14.287  1.00  0.00     0.029 C 
ENDROOT
BRANCH   1   4
ATOM      4  S   UNL     1      42.248 132.637  16.988  1.00  0.00    -0.114 SA
BRANCH   4   5
ATOM      5  C   UNL     1      42.210 134.184  17.924  1.00  0.00     0.008 A 
ATOM      6  C   UNL     1      44.499 135.689  21.183  1.00  0.00    -0.000 A 
ATOM      7  C   UNL     1      44.839 134.496  20.462  1.00  0.00     0.018 A 
ATOM      8  C   UNL     1      43.201 136.283  21.088  1.00  0.00    -0.040 A 
ATOM      9  C   UNL     1      44.262 133.960  19.275  1.00  0.00     0.039 A 
ATOM     10  C   UNL     1      42.078 135.593  20.684  1.00  0.00     0.007 A 
ATOM     11  C   UNL     1      42.927 137.761  20.966  1.00  0.00     0.041 C 
ATOM     12  C   UNL     1      43.404 134.712  18.456  1.00  0.00     0.025 A 
ATOM     13  C   UNL     1      41.292 136.415  19.910  1.00  0.00    -0.047 A 
ATOM     14  C   UNL     1      41.589 137.839  20.220  1.00  0.00     0.040 C 
ATOM     15  C   UNL     1      40.667 136.036  18.708  1.00  0.00     0.005 A 
ATOM     16  C   UNL     1      41.015 134.938  17.887  1.00  0.00     0.015 A 
BRANCH   6  17
ATOM     17  C   UNL     1      45.554 136.201  22.211  1.00  0.00     0.155 C 
BRANCH  17  18
ATOM     18  C   UNL     1      44.905 136.687  23.459  1.00  0.00    -0.066 C 
ATOM     19  C   UNL     1      44.408 137.060  24.494  1.00  0.00     0.007 C 
ENDBRANCH  17  18
BRANCH  17  20
ATOM     20  O   UNL     1      46.370 135.116  22.599  1.00  0.00    -0.373 OA
ATOM     21  H   UNL     1      46.134 134.329  22.037  1.00  0.00     0.213 HD
ENDBRANCH  17  20
BRANCH  17  22
ATOM     22  C   UNL     1      46.507 137.337  21.629  1.00  0.00     0.006 C 
ATOM     23  C   UNL     1      46.418 137.434  20.091  1.00  0.00     0.015 C 
ATOM     24  C   UNL     1      46.119 138.724  22.217  1.00  0.00     0.015 C 
ATOM     25  C   UNL     1      47.993 137.095  22.000  1.00  0.00     0.015 C 
ENDBRANCH  17  22
ENDBRANCH   6  17
BRANCH   9  26
ATOM     26  N   UNL     1      44.581 132.618  18.867  1.00  0.00    -0.061 NA
BRANCH  26  27
ATOM     27  N   UNL     1      45.179 131.819  19.590  1.00  0.00     0.005 N 
ATOM     28  N   UNL     1      45.770 131.018  20.313  1.00  0.00    -0.003 NA
ENDBRANCH  26  27
ENDBRANCH   9  26
ENDBRANCH   4   5
ENDBRANCH   1   4
BRANCH   1  29
ATOM     29  C   UNL     1      43.823 132.070  14.837  1.00  0.00     0.278 C 
BRANCH  29  30
ATOM     30  N   UNL     1      44.960 131.841  15.751  1.00  0.00    -0.342 N 
ATOM     31  H   UNL     1      44.730 131.059  16.404  1.00  0.00     0.346 HD
ATOM     32  H   UNL     1      45.154 132.714  16.289  1.00  0.00     0.346 HD
BRANCH  30  33
ATOM     33  C   UNL     1      46.167 131.482  14.981  1.00  0.00     0.300 C 
BRANCH  33  34
ATOM     34  C   UNL     1      46.580 129.990  15.154  1.00  0.00     0.128 C 
ATOM     35  C   UNL     1      45.314 129.116  15.161  1.00  0.00     0.053 C 
BRANCH  34  36
ATOM     36  O   UNL     1      47.208 129.812  16.403  1.00  0.00    -0.380 OA
ATOM     37  H   UNL     1      46.993 130.591  16.980  1.00  0.00     0.212 HD
ENDBRANCH  34  36
BRANCH  34  38
ATOM     38  C   UNL     1      47.501 129.514  14.034  1.00  0.00     0.005 C 
ATOM     39  C   UNL     1      47.496 130.046  12.805  1.00  0.00     0.007 C 
ENDBRANCH  34  38
ENDBRANCH  33  34
ENDBRANCH  30  33
ENDBRANCH  29  30
ENDBRANCH   1  29
TORSDOF 14
ENDMDL
MODEL 2
REMARK VINA RESULT:      -5.7      3.468      8.140
REMARK SMILES C#C[C@@](O)(c1cc(N=[N+]=[N-])cc(SC(C)(C)C[NH2+]C[C@](C)(O)C=C)ccc2cc1CC2)C(C)(C)C
REMARK SMILES IDX 14 1 15 2 16 3 13 4 12 5 5 6 6 7 29 8 7 9 28 10 30 11 11 12
REMARK SMILES IDX 27 13 31 14 26 15 25 16 3 17 2 18 1 19 4 20 32 22 33 23
REMARK SMILES IDX 34 24 35 25 8 26 9 27 10 28 17 29 18 30 19 33 20 34 21 35
REMARK SMILES IDX 22 36 23 38 24 39
REMARK H PARENT 4 21 18 31 18 32 22 37
ROOT
ATOM      1  C   UNL     1      41.138 135.367  19.994  1.00  0.00     0.064 C 
ATOM      2  C   UNL     1      40.186 136.574  20.065  1.00  0.00     0.029 C 
ATOM      3  C   UNL     1      41.451 134.886  21.428  1.00  0.00     0.029 C 
ENDROOT
BRANCH   1   4
ATOM      4  S   UNL     1      42.644 135.917  19.054  1.00  0.00    -0.114 SA
BRANCH   4   5
ATOM      5  C   UNL     1      43.704 134.453  19.083  1.00  0.00     0.008 A 
ATOM      6  C   UNL     1      44.561 131.405  16.236  1.00  0.00    -0.000 A 
ATOM      7  C   UNL     1      43.827 132.597  15.922  1.00  0.00     0.018 A 
ATOM      8  C   UNL     1      44.776 130.987  17.588  1.00  0.00    -0.040 A 
ATOM      9  C   UNL     1      43.596 133.755  16.719  1.00  0.00     0.039 A 
ATOM     10  C   UNL     1      43.989 131.396  18.643  1.00  0.00     0.007 A 
ATOM     11  C   UNL     1      46.073 130.447  18.136  1.00  0.00     0.041 C 
ATOM     12  C   UNL     1      44.320 134.009  17.894  1.00  0.00     0.025 A 
ATOM     13  C   UNL     1      44.782 131.598  19.750  1.00  0.00    -0.047 A 
ATOM     14  C   UNL     1      46.036 130.809  19.626  1.00  0.00     0.040 C 
ATOM     15  C   UNL     1      44.683 132.695  20.624  1.00  0.00     0.005 A 
ATOM     16  C   UNL     1      44.072 133.940  20.347  1.00  0.00     0.015 A 
BRANCH   6  17
ATOM     17  C   UNL     1      44.955 130.496  15.031  1.00  0.00     0.155 C 
BRANCH  17  18
ATOM     18  C   UNL     1      44.902 129.054  15.399  1.00  0.00    -0.066 C 
ATOM     19  C   UNL     1      44.856 127.897  15.737  1.00  0.00     0.007 C 
ENDBRANCH  17  18
BRANCH  17  20
ATOM     20  O   UNL     1      44.000 130.667  14.006  1.00  0.00    -0.373 OA
ATOM     21  H   UNL     1      43.791 131.637  13.930  1.00  0.00     0.213 HD
ENDBRANCH  17  20
BRANCH  17  22
ATOM     22  C   UNL     1      46.386 130.838  14.421  1.00  0.00     0.006 C 
ATOM     23  C   UNL     1      46.400 130.723  12.881  1.00  0.00     0.015 C 
ATOM     24  C   UNL     1      46.801 132.289  14.794  1.00  0.00     0.015 C 
ATOM     25  C   UNL     1      47.491 129.901  14.971  1.00  0.00     0.015 C 
ENDBRANCH  17  22
ENDBRANCH   6  17
BRANCH   9  26
ATOM     26  N   UNL     1      42.615 134.723  16.306  1.00  0.00    -0.061 NA
BRANCH  26  27
ATOM     27  N   UNL     1      42.857 135.627  15.504  1.00  0.00     0.005 N 
ATOM     28  N   UNL     1      43.095 136.533  14.708  1.00  0.00    -0.003 NA
ENDBRANCH  26  27
ENDBRANCH   9  26
ENDBRANCH   4   5
ENDBRANCH   1   4
BRANCH   1  29
ATOM     29  C   UNL     1      40.516 134.216  19.146  1.00  0.00     0.278 C 
BRANCH  29  30
ATOM     30  N   UNL     1      40.117 134.607  17.779  1.00  0.00    -0.342 N 
ATOM     31  H   UNL     1      40.848 134.295  17.100  1.00  0.00     0.346 HD
ATOM     32  H   UNL     1      40.004 135.643  17.734  1.00  0.00     0.346 HD
BRANCH  30  33
ATOM     33  C   UNL     1      38.832 133.975  17.423  1.00  0.00     0.300 C 
BRANCH  33  34
ATOM     34  C   UNL     1      37.641 134.980  17.406  1.00  0.00     0.128 C 
ATOM     35  C   UNL     1      36.935 134.897  16.042  1.00  0.00     0.053 C 
BRANCH  34  36
ATOM     36  O   UNL     1      38.127 136.295  17.537  1.00  0.00    -0.380 OA
ATOM     37  H   UNL     1      39.004 136.265  18.003  1.00  0.00     0.212 HD
ENDBRANCH  34  36
BRANCH  34  38
ATOM     38  C   UNL     1      36.624 134.686  18.506  1.00  0.00     0.005 C 
ATOM     39  C   UNL     1      36.606 135.332  19.679  1.00  0.00     0.007 C 
ENDBRANCH  34  38
ENDBRANCH  33  34
ENDBRANCH  30  33
ENDBRANCH  29  30
ENDBRANCH   1  29
TORSDOF 14
ENDMDL
MODEL 3
REMARK VINA RESULT:      -5.6      1.347      2.105
REMARK SMILES C#C[C@@](O)(c1cc(N=[N+]=[N-])cc(SC(C)(C)C[NH2+]C[C@](C)(O)C=C)ccc2cc1CC2)C(C)(C)C
REMARK SMILES IDX 14 1 15 2 16 3 13 4 12 5 5 6 6 7 29 8 7 9 28 10 30 11 11 12
REMARK SMILES IDX 27 13 31 14 26 15 25 16 3 17 2 18 1 19 4 20 32 22 33 23
REMARK SMILES IDX 34 24 35 25 8 26 9 27 10 28 17 29 18 30 19 33 20 34 21 35
REMARK SMILES IDX 22 36 23 38 24 39
REMARK H PARENT 4 21 18 31 18 32 22 37
ROOT
ATOM      1  C   UNL     1      42.972 132.879  15.330  1.00  0.00     0.064 C 
ATOM      2  C   UNL     1      44.337 133.566  15.509  1.00  0.00     0.029 C 
ATOM      3  C   UNL     1      42.214 133.557  14.166  1.00  0.00     0.029 C 
ENDROOT
BRANCH   1   4
ATOM      4  S   UNL     1      42.084 133.000  16.958  1.00  0.00    -0.114 SA
BRANCH   4   5
ATOM      5  C   UNL     1      42.648 134.587  17.617  1.00  0.00     0.008 A 
ATOM      6  C   UNL     1      45.001 135.684  20.991  1.00  0.00    -0.000 A 
ATOM      7  C   UNL     1      44.841 134.330  20.545  1.00  0.00     0.018 A 
ATOM      8  C   UNL     1      44.131 136.730  20.550  1.00  0.00    -0.040 A 
ATOM      9  C   UNL     1      44.217 133.832  19.365  1.00  0.00     0.039 A 
ATOM     10  C   UNL     1      42.868 136.505  20.045  1.00  0.00     0.007 A 
ATOM     11  C   UNL     1      44.569 138.116  20.149  1.00  0.00     0.041 C 
ATOM     12  C   UNL     1      43.886 134.669  18.286  1.00  0.00     0.025 A 
ATOM     13  C   UNL     1      42.628 137.382  19.012  1.00  0.00    -0.047 A 
ATOM     14  C   UNL     1      43.501 138.579  19.151  1.00  0.00     0.040 C 
ATOM     15  C   UNL     1      42.034 137.040  17.785  1.00  0.00     0.005 A 
ATOM     16  C   UNL     1      41.935 135.744  17.228  1.00  0.00     0.015 A 
BRANCH   6  17
ATOM     17  C   UNL     1      46.055 135.923  22.116  1.00  0.00     0.155 C 
BRANCH  17  18
ATOM     18  C   UNL     1      47.255 135.062  21.928  1.00  0.00    -0.066 C 
ATOM     19  C   UNL     1      48.206 134.341  21.748  1.00  0.00     0.007 C 
ENDBRANCH  17  18
BRANCH  17  20
ATOM     20  O   UNL     1      46.518 137.254  22.025  1.00  0.00    -0.373 OA
ATOM     21  H   UNL     1      45.729 137.860  22.017  1.00  0.00     0.213 HD
ENDBRANCH  17  20
BRANCH  17  22
ATOM     22  C   UNL     1      45.474 135.713  23.584  1.00  0.00     0.006 C 
ATOM     23  C   UNL     1      45.861 134.338  24.169  1.00  0.00     0.015 C 
ATOM     24  C   UNL     1      46.018 136.810  24.543  1.00  0.00     0.015 C 
ATOM     25  C   UNL     1      43.928 135.819  23.616  1.00  0.00     0.015 C 
ENDBRANCH  17  22
ENDBRANCH   6  17
BRANCH   9  26
ATOM     26  N   UNL     1      43.938 132.427  19.241  1.00  0.00    -0.061 NA
BRANCH  26  27
ATOM     27  N   UNL     1      44.812 131.581  19.045  1.00  0.00     0.005 N 
ATOM     28  N   UNL     1      45.686 130.739  18.843  1.00  0.00    -0.003 NA
ENDBRANCH  26  27
ENDBRANCH   9  26
ENDBRANCH   4   5
ENDBRANCH   1   4
BRANCH   1  29
ATOM     29  C   UNL     1      43.146 131.353  15.064  1.00  0.00     0.278 C 
BRANCH  29  30
ATOM     30  N   UNL     1      44.362 130.997  14.307  1.00  0.00    -0.342 N 
ATOM     31  H   UNL     1      44.997 131.825  14.258  1.00  0.00     0.346 HD
ATOM     32  H   UNL     1      44.095 130.692  13.345  1.00  0.00     0.346 HD
BRANCH  30  33
ATOM     33  C   UNL     1      45.071 129.888  14.974  1.00  0.00     0.300 C 
BRANCH  33  34
ATOM     34  C   UNL     1      46.622 130.045  14.938  1.00  0.00     0.128 C 
ATOM     35  C   UNL     1      47.229 128.846  14.189  1.00  0.00     0.053 C 
BRANCH  34  36
ATOM     36  O   UNL     1      47.133 130.011  16.249  1.00  0.00    -0.380 OA
ATOM     37  H   UNL     1      48.093 129.759  16.210  1.00  0.00     0.212 HD
ENDBRANCH  34  36
BRANCH  34  38
ATOM     38  C   UNL     1      47.054 131.332  14.241  1.00  0.00     0.005 C 
ATOM     39  C   UNL     1      47.842 131.350  13.158  1.00  0.00     0.007 C 
ENDBRANCH  34  38
ENDBRANCH  33  34
ENDBRANCH  30  33
ENDBRANCH  29  30
ENDBRANCH   1  29
TORSDOF 14
ENDMDL
MODEL 4
REMARK VINA RESULT:      -5.4      1.796      2.577
REMARK SMILES C#C[C@@](O)(c1cc(N=[N+]=[N-])cc(SC(C)(C)C[NH2+]C[C@](C)(O)C=C)ccc2cc1CC2)C(C)(C)C
REMARK SMILES IDX 14 1 15 2 16 3 13 4 12 5 5 6 6 7 29 8 7 9 28 10 30 11 11 12
REMARK SMILES IDX 27 13 31 14 26 15 25 16 3 17 2 18 1 19 4 20 32 22 33 23
REMARK SMILES IDX 34 24 35 25 8 26 9 27 10 28 17 29 18 30 19 33 20 34 21 35
REMARK SMILES IDX 22 36 23 38 24 39
REMARK H PARENT 4 21 18 31 18 32 22 37
ROOT
ATOM      1  C   UNL     1      42.437 133.416  15.715  1.00  0.00     0.064 C 
ATOM      2  C   UNL     1      41.858 133.472  14.291  1.00  0.00     0.029 C 
ATOM      3  C   UNL     1      41.280 133.519  16.735  1.00  0.00     0.029 C 
ENDROOT
BRANCH   1   4
ATOM      4  S   UNL     1      43.670 134.800  15.856  1.00  0.00    -0.114 SA
BRANCH   4   5
ATOM      5  C   UNL     1      42.788 136.038  16.836  1.00  0.00     0.008 A 
ATOM      6  C   UNL     1      42.088 136.508  21.009  1.00  0.00    -0.000 A 
ATOM      7  C   UNL     1      42.996 135.540  20.463  1.00  0.00     0.018 A 
ATOM      8  C   UNL     1      41.107 137.161  20.198  1.00  0.00    -0.040 A 
ATOM      9  C   UNL     1      43.438 135.369  19.120  1.00  0.00     0.039 A 
ATOM     10  C   UNL     1      40.653 136.654  18.999  1.00  0.00     0.007 A 
ATOM     11  C   UNL     1      40.761 138.628  20.263  1.00  0.00     0.041 C 
ATOM     12  C   UNL     1      43.234 136.350  18.136  1.00  0.00     0.025 A 
ATOM     13  C   UNL     1      40.463 137.688  18.111  1.00  0.00    -0.047 A 
ATOM     14  C   UNL     1      40.259 138.961  18.852  1.00  0.00     0.040 C 
ATOM     15  C   UNL     1      40.855 137.674  16.761  1.00  0.00     0.005 A 
ATOM     16  C   UNL     1      41.820 136.825  16.173  1.00  0.00     0.015 A 
BRANCH   6  17
ATOM     17  C   UNL     1      42.106 136.678  22.560  1.00  0.00     0.155 C 
BRANCH  17  18
ATOM     18  C   UNL     1      40.783 137.127  23.072  1.00  0.00    -0.066 C 
ATOM     19  C   UNL     1      39.697 137.452  23.487  1.00  0.00     0.007 C 
ENDBRANCH  17  18
BRANCH  17  20
ATOM     20  O   UNL     1      42.339 135.416  23.149  1.00  0.00    -0.373 OA
ATOM     21  H   UNL     1      43.314 135.326  23.323  1.00  0.00     0.213 HD
ENDBRANCH  17  20
BRANCH  17  22
ATOM     22  C   UNL     1      43.242 137.668  23.076  1.00  0.00     0.006 C 
ATOM     23  C   UNL     1      43.164 139.047  22.386  1.00  0.00     0.015 C 
ATOM     24  C   UNL     1      43.109 137.893  24.609  1.00  0.00     0.015 C 
ATOM     25  C   UNL     1      44.663 137.100  22.829  1.00  0.00     0.015 C 
ENDBRANCH  17  22
ENDBRANCH   6  17
BRANCH   9  26
ATOM     26  N   UNL     1      44.146 134.175  18.746  1.00  0.00    -0.061 NA
BRANCH  26  27
ATOM     27  N   UNL     1      44.254 133.196  19.487  1.00  0.00     0.005 N 
ATOM     28  N   UNL     1      44.362 132.215  20.222  1.00  0.00    -0.003 NA
ENDBRANCH  26  27
ENDBRANCH   9  26
ENDBRANCH   4   5
ENDBRANCH   1   4
BRANCH   1  29
ATOM     29  C   UNL     1      43.255 132.107  15.934  1.00  0.00     0.278 C 
BRANCH  29  30
ATOM     30  N   UNL     1      44.696 132.318  16.179  1.00  0.00    -0.342 N 
ATOM     31  H   UNL     1      44.822 133.087  16.874  1.00  0.00     0.346 HD
ATOM     32  H   UNL     1      45.168 132.564  15.281  1.00  0.00     0.346 HD
BRANCH  30  33
ATOM     33  C   UNL     1      45.307 131.085  16.712  1.00  0.00     0.300 C 
BRANCH  33  34
ATOM     34  C   UNL     1      46.227 130.363  15.680  1.00  0.00     0.128 C 
ATOM     35  C   UNL     1      45.436 129.224  15.016  1.00  0.00     0.053 C 
BRANCH  34  36
ATOM     36  O   UNL     1      47.316 129.772  16.348  1.00  0.00    -0.380 OA
ATOM     37  H   UNL     1      47.691 130.430  16.990  1.00  0.00     0.212 HD
ENDBRANCH  34  36
BRANCH  34  38
ATOM     38  C   UNL     1      46.730 131.312  14.596  1.00  0.00     0.005 C 
ATOM     39  C   UNL     1      46.879 130.948  13.316  1.00  0.00     0.007 C 
ENDBRANCH  34  38
ENDBRANCH  33  34
ENDBRANCH  30  33
ENDBRANCH  29  30
ENDBRANCH   1  29
TORSDOF 14
ENDMDL
MODEL 5
REMARK VINA RESULT:      -5.3      2.828      5.226
REMARK SMILES C#C[C@@](O)(c1cc(N=[N+]=[N-])cc(SC(C)(C)C[NH2+]C[C@](C)(O)C=C)ccc2cc1CC2)C(C)(C)C
REMARK SMILES IDX 14 1 15 2 16 3 13 4 12 5 5 6 6 7 29 8 7 9 28 10 30 11 11 12
REMARK SMILES IDX 27 13 31 14 26 15 25 16 3 17 2 18 1 19 4 20 32 22 33 23
REMARK SMILES IDX 34 24 35 25 8 26 9 27 10 28 17 29 18 30 19 33 20 34 21 35
REMARK SMILES IDX 22 36 23 38 24 39
REMARK H PARENT 4 21 18 31 18 32 22 37
ROOT
ATOM      1  C   UNL     1      44.719 131.045  14.661  1.00  0.00     0.064 C 
ATOM      2  C   UNL     1      44.578 129.873  15.648  1.00  0.00     0.029 C 
ATOM      3  C   UNL     1      45.606 130.603  13.476  1.00  0.00     0.029 C 
ENDROOT
BRANCH   1   4
ATOM      4  S   UNL     1      45.421 132.478  15.616  1.00  0.00    -0.114 SA
BRANCH   4   5
ATOM      5  C   UNL     1      44.978 132.089  17.325  1.00  0.00     0.008 A 
ATOM      6  C   UNL     1      43.380 134.393  20.529  1.00  0.00    -0.000 A 
ATOM      7  C   UNL     1      43.469 134.870  19.180  1.00  0.00     0.018 A 
ATOM      8  C   UNL     1      44.115 133.248  20.974  1.00  0.00    -0.040 A 
ATOM      9  C   UNL     1      43.836 134.171  17.994  1.00  0.00     0.039 A 
ATOM     10  C   UNL     1      45.245 132.777  20.338  1.00  0.00     0.007 A 
ATOM     11  C   UNL     1      43.573 132.156  21.862  1.00  0.00     0.041 C 
ATOM     12  C   UNL     1      43.911 132.770  17.946  1.00  0.00     0.025 A 
ATOM     13  C   UNL     1      45.240 131.401  20.362  1.00  0.00    -0.047 A 
ATOM     14  C   UNL     1      44.393 130.917  21.484  1.00  0.00     0.040 C 
ATOM     15  C   UNL     1      45.564 130.575  19.271  1.00  0.00     0.005 A 
ATOM     16  C   UNL     1      45.568 130.944  17.906  1.00  0.00     0.015 A 
BRANCH   6  17
ATOM     17  C   UNL     1      42.587 135.288  21.531  1.00  0.00     0.155 C 
BRANCH  17  18
ATOM     18  C   UNL     1      41.635 136.185  20.821  1.00  0.00    -0.066 C 
ATOM     19  C   UNL     1      40.849 136.880  20.223  1.00  0.00     0.007 C 
ENDBRANCH  17  18
BRANCH  17  20
ATOM     20  O   UNL     1      41.794 134.455  22.349  1.00  0.00    -0.373 OA
ATOM     21  H   UNL     1      41.631 133.602  21.865  1.00  0.00     0.213 HD
ENDBRANCH  17  20
BRANCH  17  22
ATOM     22  C   UNL     1      43.523 136.153  22.486  1.00  0.00     0.006 C 
ATOM     23  C   UNL     1      44.697 136.797  21.717  1.00  0.00     0.015 C 
ATOM     24  C   UNL     1      42.707 137.295  23.155  1.00  0.00     0.015 C 
ATOM     25  C   UNL     1      44.125 135.303  23.634  1.00  0.00     0.015 C 
ENDBRANCH  17  22
ENDBRANCH   6  17
BRANCH   9  26
ATOM     26  N   UNL     1      44.111 134.904  16.788  1.00  0.00    -0.061 NA
BRANCH  26  27
ATOM     27  N   UNL     1      43.555 135.967  16.504  1.00  0.00     0.005 N 
ATOM     28  N   UNL     1      43.003 137.031  16.226  1.00  0.00    -0.003 NA
ENDBRANCH  26  27
ENDBRANCH   9  26
ENDBRANCH   4   5
ENDBRANCH   1   4
BRANCH   1  29
ATOM     29  C   UNL     1      43.322 131.524  14.161  1.00  0.00     0.278 C 
BRANCH  29  30
ATOM     30  N   UNL     1      42.816 132.741  14.826  1.00  0.00    -0.342 N 
ATOM     31  H   UNL     1      43.604 133.411  14.974  1.00  0.00     0.346 HD
ATOM     32  H   UNL     1      42.387 132.483  15.742  1.00  0.00     0.346 HD
BRANCH  30  33
ATOM     33  C   UNL     1      41.788 133.389  13.988  1.00  0.00     0.300 C 
BRANCH  33  34
ATOM     34  C   UNL     1      40.711 134.148  14.820  1.00  0.00     0.128 C 
ATOM     35  C   UNL     1      39.317 133.806  14.268  1.00  0.00     0.053 C 
BRANCH  34  36
ATOM     36  O   UNL     1      40.884 135.537  14.665  1.00  0.00    -0.380 OA
ATOM     37  H   UNL     1      41.653 135.696  14.058  1.00  0.00     0.212 HD
ENDBRANCH  34  36
BRANCH  34  38
ATOM     38  C   UNL     1      40.759 133.777  16.300  1.00  0.00     0.005 C 
ATOM     39  C   UNL     1      39.883 134.239  17.200  1.00  0.00     0.007 C 
ENDBRANCH  34  38
ENDBRANCH  33  34
ENDBRANCH  30  33
ENDBRANCH  29  30
ENDBRANCH   1  29
TORSDOF 14
ENDMDL
MODEL 6
REMARK VINA RESULT:      -5.3      3.260      5.815
REMARK SMILES C#C[C@@](O)(c1cc(N=[N+]=[N-])cc(SC(C)(C)C[NH2+]C[C@](C)(O)C=C)ccc2cc1CC2)C(C)(C)C
REMARK SMILES IDX 14 1 15 2 16 3 13 4 12 5 5 6 6 7 29 8 7 9 28 10 30 11 11 12
REMARK SMILES IDX 27 13 31 14 26 15 25 16 3 17 2 18 1 19 4 20 32 22 33 23
REMARK SMILES IDX 34 24 35 25 8 26 9 27 10 28 17 29 18 30 19 33 20 34 21 35
REMARK SMILES IDX 22 36 23 38 24 39
REMARK H PARENT 4 21 18 31 18 32 22 37
ROOT
ATOM      1  C   UNL     1      44.124 132.191  17.908  1.00  0.00     0.064 C 
ATOM      2  C   UNL     1      44.695 132.601  19.277  1.00  0.00     0.029 C 
ATOM      3  C   UNL     1      44.413 133.312  16.884  1.00  0.00     0.029 C 
ENDROOT
BRANCH   1   4
ATOM      4  S   UNL     1      42.310 131.863  18.152  1.00  0.00    -0.114 SA
BRANCH   4   5
ATOM      5  C   UNL     1      41.691 133.436  18.794  1.00  0.00     0.008 A 
ATOM      6  C   UNL     1      40.172 136.956  16.942  1.00  0.00    -0.000 A 
ATOM      7  C   UNL     1      40.427 135.736  16.232  1.00  0.00     0.018 A 
ATOM      8  C   UNL     1      40.712 137.196  18.245  1.00  0.00    -0.040 A 
ATOM      9  C   UNL     1      40.787 134.453  16.736  1.00  0.00     0.039 A 
ATOM     10  C   UNL     1      41.814 136.535  18.744  1.00  0.00     0.007 A 
ATOM     11  C   UNL     1      39.963 137.819  19.396  1.00  0.00     0.041 C 
ATOM     12  C   UNL     1      40.679 134.128  18.097  1.00  0.00     0.025 A 
ATOM     13  C   UNL     1      41.625 136.281  20.083  1.00  0.00    -0.047 A 
ATOM     14  C   UNL     1      40.638 137.240  20.646  1.00  0.00     0.040 C 
ATOM     15  C   UNL     1      41.919 135.064  20.723  1.00  0.00     0.005 A 
ATOM     16  C   UNL     1      42.076 133.802  20.103  1.00  0.00     0.015 A 
BRANCH   6  17
ATOM     17  C   UNL     1      39.431 138.077  16.150  1.00  0.00     0.155 C 
BRANCH  17  18
ATOM     18  C   UNL     1      37.977 137.781  16.022  1.00  0.00    -0.066 C 
ATOM     19  C   UNL     1      36.807 137.522  15.881  1.00  0.00     0.007 C 
ENDBRANCH  17  18
BRANCH  17  20
ATOM     20  O   UNL     1      39.516 139.280  16.885  1.00  0.00    -0.373 OA
ATOM     21  H   UNL     1      40.142 139.892  16.413  1.00  0.00     0.213 HD
ENDBRANCH  17  20
BRANCH  17  22
ATOM     22  C   UNL     1      40.049 138.348  14.707  1.00  0.00     0.006 C 
ATOM     23  C   UNL     1      39.886 137.132  13.771  1.00  0.00     0.015 C 
ATOM     24  C   UNL     1      39.346 139.563  14.037  1.00  0.00     0.015 C 
ATOM     25  C   UNL     1      41.559 138.689  14.777  1.00  0.00     0.015 C 
ENDBRANCH  17  22
ENDBRANCH   6  17
BRANCH   9  26
ATOM     26  N   UNL     1      41.249 133.434  15.832  1.00  0.00    -0.061 NA
BRANCH  26  27
ATOM     27  N   UNL     1      41.252 133.570  14.607  1.00  0.00     0.005 N 
ATOM     28  N   UNL     1      41.260 133.702  13.384  1.00  0.00    -0.003 NA
ENDBRANCH  26  27
ENDBRANCH   9  26
ENDBRANCH   4   5
ENDBRANCH   1   4
BRANCH   1  29
ATOM     29  C   UNL     1      44.731 130.836  17.434  1.00  0.00     0.278 C 
BRANCH  29  30
ATOM     30  N   UNL     1      46.090 130.938  16.864  1.00  0.00    -0.342 N 
ATOM     31  H   UNL     1      46.794 130.723  17.605  1.00  0.00     0.346 HD
ATOM     32  H   UNL     1      46.239 131.902  16.495  1.00  0.00     0.346 HD
BRANCH  30  33
ATOM     33  C   UNL     1      46.251 129.976  15.757  1.00  0.00     0.300 C 
BRANCH  33  34
ATOM     34  C   UNL     1      46.551 130.663  14.390  1.00  0.00     0.128 C 
ATOM     35  C   UNL     1      47.777 129.991  13.750  1.00  0.00     0.053 C 
BRANCH  34  36
ATOM     36  O   UNL     1      46.887 132.014  14.601  1.00  0.00    -0.380 OA
ATOM     37  H   UNL     1      46.785 132.220  15.568  1.00  0.00     0.212 HD
ENDBRANCH  34  36
BRANCH  34  38
ATOM     38  C   UNL     1      45.373 130.562  13.424  1.00  0.00     0.005 C 
ATOM     39  C   UNL     1      44.100 130.734  13.801  1.00  0.00     0.007 C 
ENDBRANCH  34  38
ENDBRANCH  33  34
ENDBRANCH  30  33
ENDBRANCH  29  30
ENDBRANCH   1  29
TORSDOF 14
ENDMDL
MODEL 7
REMARK VINA RESULT:      -5.2      3.998      5.846
REMARK SMILES C#C[C@@](O)(c1cc(N=[N+]=[N-])cc(SC(C)(C)C[NH2+]C[C@](C)(O)C=C)ccc2cc1CC2)C(C)(C)C
REMARK SMILES IDX 14 1 15 2 16 3 13 4 12 5 5 6 6 7 29 8 7 9 28 10 30 11 11 12
REMARK SMILES IDX 27 13 31 14 26 15 25 16 3 17 2 18 1 19 4 20 32 22 33 23
REMARK SMILES IDX 34 24 35 25 8 26 9 27 10 28 17 29 18 30 19 33 20 34 21 35
REMARK SMILES IDX 22 36 23 38 24 39
REMARK H PARENT 4 21 18 31 18 32 22 37
ROOT
ATOM      1  C   UNL     1      43.559 132.263  16.549  1.00  0.00     0.064 C 
ATOM      2  C   UNL     1      43.486 131.318  15.337  1.00  0.00     0.029 C 
ATOM      3  C   UNL     1      42.344 132.000  17.467  1.00  0.00     0.029 C 
ENDROOT
BRANCH   1   4
ATOM      4  S   UNL     1      43.620 133.997  15.883  1.00  0.00    -0.114 SA
BRANCH   4   5
ATOM      5  C   UNL     1      41.885 134.363  15.528  1.00  0.00     0.008 A 
ATOM      6  C   UNL     1      38.694 135.947  17.858  1.00  0.00    -0.000 A 
ATOM      7  C   UNL     1      40.059 135.926  18.298  1.00  0.00     0.018 A 
ATOM      8  C   UNL     1      38.243 135.149  16.759  1.00  0.00    -0.040 A 
ATOM      9  C   UNL     1      41.237 135.570  17.579  1.00  0.00     0.039 A 
ATOM     10  C   UNL     1      38.905 134.022  16.318  1.00  0.00     0.007 A 
ATOM     11  C   UNL     1      37.305 135.612  15.673  1.00  0.00     0.041 C 
ATOM     12  C   UNL     1      41.247 135.436  16.181  1.00  0.00     0.025 A 
ATOM     13  C   UNL     1      38.842 133.967  14.944  1.00  0.00    -0.047 A 
ATOM     14  C   UNL     1      37.676 134.752  14.458  1.00  0.00     0.040 C 
ATOM     15  C   UNL     1      39.919 133.645  14.099  1.00  0.00     0.005 A 
ATOM     16  C   UNL     1      41.294 133.705  14.426  1.00  0.00     0.015 A 
BRANCH   6  17
ATOM     17  C   UNL     1      37.691 136.743  18.749  1.00  0.00     0.155 C 
BRANCH  17  18
ATOM     18  C   UNL     1      37.808 138.209  18.522  1.00  0.00    -0.066 C 
ATOM     19  C   UNL     1      37.938 139.391  18.315  1.00  0.00     0.007 C 
ENDBRANCH  17  18
BRANCH  17  20
ATOM     20  O   UNL     1      36.376 136.398  18.367  1.00  0.00    -0.373 OA
ATOM     21  H   UNL     1      36.359 136.272  17.380  1.00  0.00     0.213 HD
ENDBRANCH  17  20
BRANCH  17  22
ATOM     22  C   UNL     1      37.839 136.431  20.304  1.00  0.00     0.006 C 
ATOM     23  C   UNL     1      38.108 134.935  20.570  1.00  0.00     0.015 C 
ATOM     24  C   UNL     1      39.021 137.243  20.908  1.00  0.00     0.015 C 
ATOM     25  C   UNL     1      36.570 136.830  21.100  1.00  0.00     0.015 C 
ENDBRANCH  17  22
ENDBRANCH   6  17
BRANCH   9  26
ATOM     26  N   UNL     1      42.473 135.369  18.286  1.00  0.00    -0.061 NA
BRANCH  26  27
ATOM     27  N   UNL     1      42.776 135.995  19.303  1.00  0.00     0.005 N 
ATOM     28  N   UNL     1      43.074 136.620  20.321  1.00  0.00    -0.003 NA
ENDBRANCH  26  27
ENDBRANCH   9  26
ENDBRANCH   4   5
ENDBRANCH   1   4
BRANCH   1  29
ATOM     29  C   UNL     1      44.896 132.069  17.328  1.00  0.00     0.278 C 
BRANCH  29  30
ATOM     30  N   UNL     1      45.722 130.939  16.858  1.00  0.00    -0.342 N 
ATOM     31  H   UNL     1      45.107 130.120  16.652  1.00  0.00     0.346 HD
ATOM     32  H   UNL     1      46.419 130.689  17.593  1.00  0.00     0.346 HD
BRANCH  30  33
ATOM     33  C   UNL     1      46.446 131.315  15.628  1.00  0.00     0.300 C 
BRANCH  33  34
ATOM     34  C   UNL     1      47.063 130.092  14.885  1.00  0.00     0.128 C 
ATOM     35  C   UNL     1      45.976 129.021  14.692  1.00  0.00     0.053 C 
BRANCH  34  36
ATOM     36  O   UNL     1      48.072 129.514  15.679  1.00  0.00    -0.380 OA
ATOM     37  H   UNL     1      48.509 128.789  15.160  1.00  0.00     0.212 HD
ENDBRANCH  34  36
BRANCH  34  38
ATOM     38  C   UNL     1      47.627 130.473  13.518  1.00  0.00     0.005 C 
ATOM     39  C   UNL     1      46.873 130.571  12.416  1.00  0.00     0.007 C 
ENDBRANCH  34  38
ENDBRANCH  33  34
ENDBRANCH  30  33
ENDBRANCH  29  30
ENDBRANCH   1  29
TORSDOF 14
ENDMDL
MODEL 8
REMARK VINA RESULT:      -5.2      3.043      5.423
REMARK SMILES C#C[C@@](O)(c1cc(N=[N+]=[N-])cc(SC(C)(C)C[NH2+]C[C@](C)(O)C=C)ccc2cc1CC2)C(C)(C)C
REMARK SMILES IDX 14 1 15 2 16 3 13 4 12 5 5 6 6 7 29 8 7 9 28 10 30 11 11 12
REMARK SMILES IDX 27 13 31 14 26 15 25 16 3 17 2 18 1 19 4 20 32 22 33 23
REMARK SMILES IDX 34 24 35 25 8 26 9 27 10 28 17 29 18 30 19 33 20 34 21 35
REMARK SMILES IDX 22 36 23 38 24 39
REMARK H PARENT 4 21 18 31 18 32 22 37
ROOT
ATOM      1  C   UNL     1      44.633 130.901  14.770  1.00  0.00     0.064 C 
ATOM      2  C   UNL     1      44.857 129.487  15.336  1.00  0.00     0.029 C 
ATOM      3  C   UNL     1      44.915 130.887  13.251  1.00  0.00     0.029 C 
ENDROOT
BRANCH   1   4
ATOM      4  S   UNL     1      45.747 132.048  15.718  1.00  0.00    -0.114 SA
BRANCH   4   5
ATOM      5  C   UNL     1      45.087 131.966  17.399  1.00  0.00     0.008 A 
ATOM      6  C   UNL     1      43.271 134.832  19.972  1.00  0.00    -0.000 A 
ATOM      7  C   UNL     1      43.544 135.075  18.585  1.00  0.00     0.018 A 
ATOM      8  C   UNL     1      43.879 133.747  20.681  1.00  0.00    -0.040 A 
ATOM      9  C   UNL     1      44.003 134.175  17.580  1.00  0.00     0.039 A 
ATOM     10  C   UNL     1      45.044 133.132  20.273  1.00  0.00     0.007 A 
ATOM     11  C   UNL     1      43.173 132.841  21.657  1.00  0.00     0.041 C 
ATOM     12  C   UNL     1      43.998 132.783  17.767  1.00  0.00     0.025 A 
ATOM     13  C   UNL     1      44.953 131.781  20.515  1.00  0.00    -0.047 A 
ATOM     14  C   UNL     1      43.955 131.523  21.587  1.00  0.00     0.040 C 
ATOM     15  C   UNL     1      45.352 130.773  19.620  1.00  0.00     0.005 A 
ATOM     16  C   UNL     1      45.535 130.910  18.224  1.00  0.00     0.015 A 
BRANCH   6  17
ATOM     17  C   UNL     1      42.423 135.912  20.712  1.00  0.00     0.155 C 
BRANCH  17  18
ATOM     18  C   UNL     1      42.773 135.982  22.157  1.00  0.00    -0.066 C 
ATOM     19  C   UNL     1      43.084 136.007  23.323  1.00  0.00     0.007 C 
ENDBRANCH  17  18
BRANCH  17  20
ATOM     20  O   UNL     1      42.742 137.179  20.177  1.00  0.00    -0.373 OA
ATOM     21  H   UNL     1      43.609 137.475  20.564  1.00  0.00     0.213 HD
ENDBRANCH  17  20
BRANCH  17  22
ATOM     22  C   UNL     1      40.852 135.702  20.553  1.00  0.00     0.006 C 
ATOM     23  C   UNL     1      40.090 136.030  21.855  1.00  0.00     0.015 C 
ATOM     24  C   UNL     1      40.294 136.623  19.430  1.00  0.00     0.015 C 
ATOM     25  C   UNL     1      40.498 134.247  20.155  1.00  0.00     0.015 C 
ENDBRANCH  17  22
ENDBRANCH   6  17
BRANCH   9  26
ATOM     26  N   UNL     1      44.459 134.686  16.316  1.00  0.00    -0.061 NA
BRANCH  26  27
ATOM     27  N   UNL     1      43.944 135.656  15.756  1.00  0.00     0.005 N 
ATOM     28  N   UNL     1      43.425 136.623  15.200  1.00  0.00    -0.003 NA
ENDBRANCH  26  27
ENDBRANCH   9  26
ENDBRANCH   4   5
ENDBRANCH   1   4
BRANCH   1  29
ATOM     29  C   UNL     1      43.183 131.395  15.061  1.00  0.00     0.278 C 
BRANCH  29  30
ATOM     30  N   UNL     1      42.479 131.954  13.890  1.00  0.00    -0.342 N 
ATOM     31  H   UNL     1      41.533 131.519  13.812  1.00  0.00     0.346 HD
ATOM     32  H   UNL     1      43.035 131.763  13.028  1.00  0.00     0.346 HD
BRANCH  30  33
ATOM     33  C   UNL     1      42.323 133.414  14.039  1.00  0.00     0.300 C 
BRANCH  33  34
ATOM     34  C   UNL     1      40.856 133.844  14.343  1.00  0.00     0.128 C 
ATOM     35  C   UNL     1      40.697 134.046  15.860  1.00  0.00     0.053 C 
BRANCH  34  36
ATOM     36  O   UNL     1      39.973 132.812  13.972  1.00  0.00    -0.380 OA
ATOM     37  H   UNL     1      39.080 133.002  14.362  1.00  0.00     0.212 HD
ENDBRANCH  34  36
BRANCH  34  38
ATOM     38  C   UNL     1      40.477 135.139  13.631  1.00  0.00     0.005 C 
ATOM     39  C   UNL     1      40.037 136.228  14.275  1.00  0.00     0.007 C 
ENDBRANCH  34  38
ENDBRANCH  33  34
ENDBRANCH  30  33
ENDBRANCH  29  30
ENDBRANCH   1  29
TORSDOF 14
ENDMDL
MODEL 9
REMARK VINA RESULT:      -4.9      2.809      5.236
REMARK SMILES C#C[C@@](O)(c1cc(N=[N+]=[N-])cc(SC(C)(C)C[NH2+]C[C@](C)(O)C=C)ccc2cc1CC2)C(C)(C)C
REMARK SMILES IDX 14 1 15 2 16 3 13 4 12 5 5 6 6 7 29 8 7 9 28 10 30 11 11 12
REMARK SMILES IDX 27 13 31 14 26 15 25 16 3 17 2 18 1 19 4 20 32 22 33 23
REMARK SMILES IDX 34 24 35 25 8 26 9 27 10 28 17 29 18 30 19 33 20 34 21 35
REMARK SMILES IDX 22 36 23 38 24 39
REMARK H PARENT 4 21 18 31 18 32 22 37
ROOT
ATOM      1  C   UNL     1      44.673 131.083  14.674  1.00  0.00     0.064 C 
ATOM      2  C   UNL     1      44.604 129.878  15.629  1.00  0.00     0.029 C 
ATOM      3  C   UNL     1      45.492 130.690  13.424  1.00  0.00     0.029 C 
ENDROOT
BRANCH   1   4
ATOM      4  S   UNL     1      45.416 132.493  15.631  1.00  0.00    -0.114 SA
BRANCH   4   5
ATOM      5  C   UNL     1      44.969 132.110  17.341  1.00  0.00     0.008 A 
ATOM      6  C   UNL     1      43.455 134.447  20.561  1.00  0.00    -0.000 A 
ATOM      7  C   UNL     1      43.552 134.928  19.213  1.00  0.00     0.018 A 
ATOM      8  C   UNL     1      44.155 133.279  20.998  1.00  0.00    -0.040 A 
ATOM      9  C   UNL     1      43.893 134.223  18.023  1.00  0.00     0.039 A 
ATOM     10  C   UNL     1      45.267 132.776  20.356  1.00  0.00     0.007 A 
ATOM     11  C   UNL     1      43.583 132.201  21.883  1.00  0.00     0.041 C 
ATOM     12  C   UNL     1      43.925 132.820  17.969  1.00  0.00     0.025 A 
ATOM     13  C   UNL     1      45.220 131.401  20.373  1.00  0.00    -0.047 A 
ATOM     14  C   UNL     1      44.364 130.938  21.497  1.00  0.00     0.040 C 
ATOM     15  C   UNL     1      45.515 130.570  19.278  1.00  0.00     0.005 A 
ATOM     16  C   UNL     1      45.525 130.945  17.914  1.00  0.00     0.015 A 
BRANCH   6  17
ATOM     17  C   UNL     1      42.693 135.362  21.570  1.00  0.00     0.155 C 
BRANCH  17  18
ATOM     18  C   UNL     1      41.332 135.705  21.072  1.00  0.00    -0.066 C 
ATOM     19  C   UNL     1      40.245 135.986  20.629  1.00  0.00     0.007 C 
ENDBRANCH  17  18
BRANCH  17  20
ATOM     20  O   UNL     1      42.495 134.644  22.769  1.00  0.00    -0.373 OA
ATOM     21  H   UNL     1      41.677 134.995  23.214  1.00  0.00     0.213 HD
ENDBRANCH  17  20
BRANCH  17  22
ATOM     22  C   UNL     1      43.480 136.699  21.932  1.00  0.00     0.006 C 
ATOM     23  C   UNL     1      44.987 136.442  22.147  1.00  0.00     0.015 C 
ATOM     24  C   UNL     1      43.333 137.741  20.786  1.00  0.00     0.015 C 
ATOM     25  C   UNL     1      42.929 137.367  23.217  1.00  0.00     0.015 C 
ENDBRANCH  17  22
ENDBRANCH   6  17
BRANCH   9  26
ATOM     26  N   UNL     1      44.186 134.953  16.819  1.00  0.00    -0.061 NA
BRANCH  26  27
ATOM     27  N   UNL     1      43.557 135.952  16.467  1.00  0.00     0.005 N 
ATOM     28  N   UNL     1      42.932 136.951  16.110  1.00  0.00    -0.003 NA
ENDBRANCH  26  27
ENDBRANCH   9  26
ENDBRANCH   4   5
ENDBRANCH   1   4
BRANCH   1  29
ATOM     29  C   UNL     1      43.244 131.560  14.274  1.00  0.00     0.278 C 
BRANCH  29  30
ATOM     30  N   UNL     1      42.909 132.930  14.712  1.00  0.00    -0.342 N 
ATOM     31  H   UNL     1      42.891 133.565  13.883  1.00  0.00     0.346 HD
ATOM     32  H   UNL     1      43.621 133.257  15.401  1.00  0.00     0.346 HD
BRANCH  30  33
ATOM     33  C   UNL     1      41.582 132.948  15.358  1.00  0.00     0.300 C 
BRANCH  33  34
ATOM     34  C   UNL     1      40.642 134.055  14.793  1.00  0.00     0.128 C 
ATOM     35  C   UNL     1      41.238 134.597  13.482  1.00  0.00     0.053 C 
BRANCH  34  36
ATOM     36  O   UNL     1      40.585 135.135  15.695  1.00  0.00    -0.380 OA
ATOM     37  H   UNL     1      40.350 134.786  16.594  1.00  0.00     0.212 HD
ENDBRANCH  34  36
BRANCH  34  38
ATOM     38  C   UNL     1      39.236 133.530  14.516  1.00  0.00     0.005 C 
ATOM     39  C   UNL     1      38.396 134.109  13.649  1.00  0.00     0.007 C 
ENDBRANCH  34  38
ENDBRANCH  33  34
ENDBRANCH  30  33
ENDBRANCH  29  30
ENDBRANCH   1  29
TORSDOF 14
ENDMDL


