REMARK SMILES C#C/C(N)=[NH+]\[C@H](c1c(C)nnn1-c1c2ccccc2c(C=O)c2ccccc12)C(C)C
REMARK SMILES IDX 6 1 5 2 3 4 4 5 2 8 1 9 7 10 8 11 12 12 10 13 11 14 9 15
REMARK SMILES IDX 13 16 14 17 28 18 15 19 19 20 27 21 23 22 16 23 18 24 20 25
REMARK SMILES IDX 26 26 24 27 17 28 25 29 21 30 22 31 29 32 30 33 31 34
REMARK H PARENT 5 3 4 6 4 7
ROOT
ATOM      1  C   UNL     1      -0.955  -0.278  -1.605  1.00  0.00     0.227 C 
ENDROOT
BRANCH   1   2
ATOM      2  N   UNL     1       0.297   0.483  -1.443  1.00  0.00    -0.258 N 
ATOM      3  H   UNL     1       1.185  -0.059  -1.340  1.00  0.00     0.306 HD
BRANCH   2   4
ATOM      4  C   UNL     1       0.367   1.788  -1.394  1.00  0.00     0.319 C 
ATOM      5  N   UNL     1       1.637   2.425  -1.228  1.00  0.00    -0.280 N 
ATOM      6  H   UNL     1       1.705   3.466  -1.170  1.00  0.00     0.302 HD
ATOM      7  H   UNL     1       2.513   1.864  -1.139  1.00  0.00     0.302 HD
BRANCH   4   8
ATOM      8  C   UNL     1      -0.813   2.618  -1.473  1.00  0.00     0.017 C 
ATOM      9  C   UNL     1      -1.795   3.313  -1.535  1.00  0.00     0.018 C 
ENDBRANCH   4   8
ENDBRANCH   2   4
ENDBRANCH   1   2
BRANCH   1  10
ATOM     10  C   UNL     1      -1.676  -0.374  -0.269  1.00  0.00     0.112 A 
ATOM     11  C   UNL     1      -3.021  -0.149  -0.030  1.00  0.00     0.088 A 
ATOM     12  N   UNL     1      -1.151  -0.754   0.917  1.00  0.00    -0.212 N 
ATOM     13  N   UNL     1      -3.268  -0.397   1.272  1.00  0.00    -0.135 NA
ATOM     14  N   UNL     1      -2.117  -0.756   1.822  1.00  0.00    -0.062 NA
ATOM     15  C   UNL     1      -4.072   0.244  -1.017  1.00  0.00     0.071 C 
BRANCH  12  16
ATOM     16  C   UNL     1       0.216  -1.076   1.222  1.00  0.00     0.083 A 
ATOM     17  C   UNL     1       1.106  -0.057   1.618  1.00  0.00     0.009 A 
ATOM     18  C   UNL     1       0.659  -2.412   1.150  1.00  0.00     0.009 A 
ATOM     19  C   UNL     1       0.644   1.264   1.805  1.00  0.00     0.011 A 
ATOM     20  C   UNL     1       2.482  -0.350   1.819  1.00  0.00    -0.005 A 
ATOM     21  C   UNL     1      -0.252  -3.455   0.877  1.00  0.00     0.011 A 
ATOM     22  C   UNL     1       2.030  -2.721   1.366  1.00  0.00    -0.005 A 
ATOM     23  C   UNL     1       1.526   2.285   2.151  1.00  0.00     0.001 A 
ATOM     24  C   UNL     1       3.358   0.713   2.147  1.00  0.00     0.009 A 
ATOM     25  C   UNL     1       2.952  -1.681   1.662  1.00  0.00     0.030 A 
ATOM     26  C   UNL     1       0.178  -4.777   0.808  1.00  0.00     0.001 A 
ATOM     27  C   UNL     1       2.432  -4.078   1.315  1.00  0.00     0.009 A 
ATOM     28  C   UNL     1       2.880   2.012   2.312  1.00  0.00     0.001 A 
ATOM     29  C   UNL     1       1.514  -5.088   1.029  1.00  0.00     0.001 A 
BRANCH  25  30
ATOM     30  C   UNL     1       4.397  -1.975   1.821  1.00  0.00     0.261 C 
ATOM     31  O   UNL     1       5.031  -2.591   0.923  1.00  0.00    -0.298 OA
ENDBRANCH  25  30
ENDBRANCH  12  16
ENDBRANCH   1  10
BRANCH   1  32
ATOM     32  C   UNL     1      -0.670  -1.677  -2.223  1.00  0.00     0.034 C 
ATOM     33  C   UNL     1       0.006  -1.542  -3.598  1.00  0.00     0.012 C 
ATOM     34  C   UNL     1      -1.951  -2.514  -2.376  1.00  0.00     0.012 C 
ENDBRANCH   1  32
TORSDOF 7


