MODEL 1
REMARK VINA RESULT:      -6.1      0.000      0.000
REMARK SMILES CC(=O)n1cc[nH+]c1[C@H](N=C=O)C(=O)Oc1cccc2c(Cl)c(Cl)c(Cl)c(N=[N+]=[N-])c12
REMARK SMILES IDX 13 1 14 2 9 3 8 4 4 5 5 6 6 7 7 8 2 10 1 11 3 12 10 13 11 14
REMARK SMILES IDX 12 15 15 16 16 17 17 18 31 19 18 20 27 21 20 22 19 23 25 24
REMARK SMILES IDX 21 25 23 26 26 27 22 28 24 29 28 30 29 31 30 32
REMARK H PARENT 7 9
ROOT
ATOM      1  C   UNL     1      44.495 133.000  15.778  1.00  0.00     0.350 C 
ATOM      2  O   UNL     1      45.690 133.166  15.410  1.00  0.00    -0.248 OA
ENDROOT
BRANCH   1   3
ATOM      3  C   UNL     1      44.053 131.655  16.298  1.00  0.00     0.342 C 
BRANCH   3   4
ATOM      4  C   UNL     1      44.148 131.592  17.805  1.00  0.00     0.299 A 
ATOM      5  N   UNL     1      43.183 131.964  18.693  1.00  0.00    -0.167 N 
ATOM      6  C   UNL     1      43.699 131.679  19.910  1.00  0.00     0.252 A 
ATOM      7  C   UNL     1      44.958 131.147  19.746  1.00  0.00     0.241 A 
ATOM      8  N   UNL     1      45.236 131.094  18.431  1.00  0.00    -0.245 N 
ATOM      9  H   UNL     1      46.112 130.731  17.992  1.00  0.00     0.311 HD
BRANCH   5  10
ATOM     10  C   UNL     1      41.878 132.536  18.450  1.00  0.00     0.311 C 
ATOM     11  C   UNL     1      41.356 133.652  19.307  1.00  0.00     0.145 C 
ATOM     12  O   UNL     1      41.163 132.127  17.497  1.00  0.00    -0.247 OA
ENDBRANCH   5  10
ENDBRANCH   3   4
BRANCH   3  13
ATOM     13  N   UNL     1      44.837 130.565  15.719  1.00  0.00    -0.177 NA
BRANCH  13  14
ATOM     14  C   UNL     1      45.053 130.475  14.465  1.00  0.00     0.236 C 
ATOM     15  O   UNL     1      45.263 130.389  13.248  1.00  0.00    -0.211 OA
ENDBRANCH  13  14
ENDBRANCH   3  13
ENDBRANCH   1   3
BRANCH   1  16
ATOM     16  O   UNL     1      43.544 134.015  15.590  1.00  0.00    -0.424 OA
BRANCH  16  17
ATOM     17  C   UNL     1      43.371 135.144  16.405  1.00  0.00     0.139 A 
ATOM     18  C   UNL     1      44.207 135.341  17.516  1.00  0.00     0.048 A 
ATOM     19  C   UNL     1      42.325 136.074  16.132  1.00  0.00     0.037 A 
ATOM     20  C   UNL     1      44.059 136.457  18.328  1.00  0.00     0.005 A 
ATOM     21  C   UNL     1      41.414 135.891  15.052  1.00  0.00     0.069 A 
ATOM     22  C   UNL     1      42.188 137.222  16.969  1.00  0.00     0.006 A 
ATOM     23  C   UNL     1      43.069 137.395  18.055  1.00  0.00     0.010 A 
ATOM     24  C   UNL     1      40.440 136.880  14.779  1.00  0.00     0.071 A 
ATOM     25  C   UNL     1      41.181 138.176  16.704  1.00  0.00     0.069 A 
ATOM     26  C   UNL     1      40.324 138.008  15.604  1.00  0.00     0.079 A 
ATOM     27  Cl  UNL     1      39.411 136.765  13.342  1.00  0.00    -0.082 Cl
ATOM     28  Cl  UNL     1      40.984 139.610  17.725  1.00  0.00    -0.082 Cl
ATOM     29  Cl  UNL     1      39.108 139.240  15.241  1.00  0.00    -0.081 Cl
BRANCH  21  30
ATOM     30  N   UNL     1      41.506 134.713  14.233  1.00  0.00    -0.058 NA
BRANCH  30  31
ATOM     31  N   UNL     1      40.578 133.910  14.116  1.00  0.00     0.005 N 
ATOM     32  N   UNL     1      39.656 133.104  13.995  1.00  0.00    -0.003 NA
ENDBRANCH  30  31
ENDBRANCH  21  30
ENDBRANCH  16  17
ENDBRANCH   1  16
TORSDOF 9
ENDMDL
MODEL 2
REMARK VINA RESULT:      -5.8      3.727      6.772
REMARK SMILES CC(=O)n1cc[nH+]c1[C@H](N=C=O)C(=O)Oc1cccc2c(Cl)c(Cl)c(Cl)c(N=[N+]=[N-])c12
REMARK SMILES IDX 13 1 14 2 9 3 8 4 4 5 5 6 6 7 7 8 2 10 1 11 3 12 10 13 11 14
REMARK SMILES IDX 12 15 15 16 16 17 17 18 31 19 18 20 27 21 20 22 19 23 25 24
REMARK SMILES IDX 21 25 23 26 26 27 22 28 24 29 28 30 29 31 30 32
REMARK H PARENT 7 9
ROOT
ATOM      1  C   UNL     1      41.301 134.431  14.505  1.00  0.00     0.350 C 
ATOM      2  O   UNL     1      42.367 135.055  14.250  1.00  0.00    -0.248 OA
ENDROOT
BRANCH   1   3
ATOM      3  C   UNL     1      39.977 134.999  14.060  1.00  0.00     0.342 C 
BRANCH   3   4
ATOM      4  C   UNL     1      39.380 135.895  15.122  1.00  0.00     0.299 A 
ATOM      5  N   UNL     1      39.536 137.246  15.221  1.00  0.00    -0.167 N 
ATOM      6  C   UNL     1      38.783 137.607  16.284  1.00  0.00     0.252 A 
ATOM      7  C   UNL     1      38.190 136.482  16.813  1.00  0.00     0.241 A 
ATOM      8  N   UNL     1      38.564 135.415  16.084  1.00  0.00    -0.245 N 
ATOM      9  H   UNL     1      38.272 134.423  16.234  1.00  0.00     0.311 HD
BRANCH   5  10
ATOM     10  C   UNL     1      40.314 138.147  14.402  1.00  0.00     0.311 C 
ATOM     11  C   UNL     1      39.647 139.067  13.421  1.00  0.00     0.145 C 
ATOM     12  O   UNL     1      41.569 138.198  14.514  1.00  0.00    -0.247 OA
ENDBRANCH   5  10
ENDBRANCH   3   4
BRANCH   3  13
ATOM     13  N   UNL     1      39.019 133.946  13.724  1.00  0.00    -0.177 NA
BRANCH  13  14
ATOM     14  C   UNL     1      38.022 134.155  12.956  1.00  0.00     0.236 C 
ATOM     15  O   UNL     1      37.054 134.357  12.212  1.00  0.00    -0.211 OA
ENDBRANCH  13  14
ENDBRANCH   3  13
ENDBRANCH   1   3
BRANCH   1  16
ATOM     16  O   UNL     1      41.323 133.280  15.309  1.00  0.00    -0.424 OA
BRANCH  16  17
ATOM     17  C   UNL     1      42.469 132.574  15.706  1.00  0.00     0.139 A 
ATOM     18  C   UNL     1      43.277 131.951  14.741  1.00  0.00     0.048 A 
ATOM     19  C   UNL     1      42.796 132.452  17.088  1.00  0.00     0.037 A 
ATOM     20  C   UNL     1      44.421 131.257  15.112  1.00  0.00     0.005 A 
ATOM     21  C   UNL     1      41.978 133.016  18.110  1.00  0.00     0.069 A 
ATOM     22  C   UNL     1      43.978 131.744  17.457  1.00  0.00     0.006 A 
ATOM     23  C   UNL     1      44.777 131.161  16.453  1.00  0.00     0.010 A 
ATOM     24  C   UNL     1      42.384 132.932  19.463  1.00  0.00     0.071 A 
ATOM     25  C   UNL     1      44.343 131.635  18.818  1.00  0.00     0.069 A 
ATOM     26  C   UNL     1      43.554 132.240  19.809  1.00  0.00     0.079 A 
ATOM     27  Cl  UNL     1      41.482 133.771  20.734  1.00  0.00    -0.082 Cl
ATOM     28  Cl  UNL     1      45.803 130.759  19.308  1.00  0.00    -0.082 Cl
ATOM     29  Cl  UNL     1      44.054 132.154  21.504  1.00  0.00    -0.081 Cl
BRANCH  21  30
ATOM     30  N   UNL     1      40.757 133.687  17.757  1.00  0.00    -0.058 NA
BRANCH  30  31
ATOM     31  N   UNL     1      39.660 133.124  17.770  1.00  0.00     0.005 N 
ATOM     32  N   UNL     1      38.566 132.561  17.777  1.00  0.00    -0.003 NA
ENDBRANCH  30  31
ENDBRANCH  21  30
ENDBRANCH  16  17
ENDBRANCH   1  16
TORSDOF 9
ENDMDL
MODEL 3
REMARK VINA RESULT:      -5.8      3.983      7.076
REMARK SMILES CC(=O)n1cc[nH+]c1[C@H](N=C=O)C(=O)Oc1cccc2c(Cl)c(Cl)c(Cl)c(N=[N+]=[N-])c12
REMARK SMILES IDX 13 1 14 2 9 3 8 4 4 5 5 6 6 7 7 8 2 10 1 11 3 12 10 13 11 14
REMARK SMILES IDX 12 15 15 16 16 17 17 18 31 19 18 20 27 21 20 22 19 23 25 24
REMARK SMILES IDX 21 25 23 26 26 27 22 28 24 29 28 30 29 31 30 32
REMARK H PARENT 7 9
ROOT
ATOM      1  C   UNL     1      39.776 134.209  17.250  1.00  0.00     0.350 C 
ATOM      2  O   UNL     1      39.324 133.036  17.149  1.00  0.00    -0.248 OA
ENDROOT
BRANCH   1   3
ATOM      3  C   UNL     1      38.885 135.383  16.929  1.00  0.00     0.342 C 
BRANCH   3   4
ATOM      4  C   UNL     1      39.325 136.075  15.659  1.00  0.00     0.299 A 
ATOM      5  N   UNL     1      38.885 135.806  14.397  1.00  0.00    -0.167 N 
ATOM      6  C   UNL     1      39.516 136.705  13.608  1.00  0.00     0.252 A 
ATOM      7  C   UNL     1      40.325 137.496  14.393  1.00  0.00     0.241 A 
ATOM      8  N   UNL     1      40.204 137.101  15.673  1.00  0.00    -0.245 N 
ATOM      9  H   UNL     1      40.686 137.513  16.502  1.00  0.00     0.311 HD
BRANCH   5  10
ATOM     10  C   UNL     1      37.951 134.802  13.941  1.00  0.00     0.311 C 
ATOM     11  C   UNL     1      36.470 135.007  14.080  1.00  0.00     0.145 C 
ATOM     12  O   UNL     1      38.360 133.744  13.392  1.00  0.00    -0.247 OA
ENDBRANCH   5  10
ENDBRANCH   3   4
BRANCH   3  13
ATOM     13  N   UNL     1      38.853 136.355  18.022  1.00  0.00    -0.177 NA
BRANCH  13  14
ATOM     14  C   UNL     1      37.776 136.931  18.388  1.00  0.00     0.236 C 
ATOM     15  O   UNL     1      36.730 137.490  18.743  1.00  0.00    -0.211 OA
ENDBRANCH  13  14
ENDBRANCH   3  13
ENDBRANCH   1   3
BRANCH   1  16
ATOM     16  O   UNL     1      41.133 134.429  17.532  1.00  0.00    -0.424 OA
BRANCH  16  17
ATOM     17  C   UNL     1      41.901 133.735  18.479  1.00  0.00     0.139 A 
ATOM     18  C   UNL     1      41.606 133.857  19.847  1.00  0.00     0.048 A 
ATOM     19  C   UNL     1      43.005 132.934  18.062  1.00  0.00     0.037 A 
ATOM     20  C   UNL     1      42.347 133.169  20.798  1.00  0.00     0.005 A 
ATOM     21  C   UNL     1      43.382 132.823  16.692  1.00  0.00     0.069 A 
ATOM     22  C   UNL     1      43.754 132.226  19.048  1.00  0.00     0.006 A 
ATOM     23  C   UNL     1      43.403 132.354  20.407  1.00  0.00     0.010 A 
ATOM     24  C   UNL     1      44.439 131.958  16.322  1.00  0.00     0.071 A 
ATOM     25  C   UNL     1      44.833 131.401  18.661  1.00  0.00     0.069 A 
ATOM     26  C   UNL     1      45.160 131.260  17.302  1.00  0.00     0.079 A 
ATOM     27  Cl  UNL     1      44.815 131.665  14.617  1.00  0.00    -0.082 Cl
ATOM     28  Cl  UNL     1      45.784 130.510  19.862  1.00  0.00    -0.082 Cl
ATOM     29  Cl  UNL     1      46.471 130.174  16.821  1.00  0.00    -0.081 Cl
BRANCH  21  30
ATOM     30  N   UNL     1      42.670 133.572  15.693  1.00  0.00    -0.058 NA
BRANCH  30  31
ATOM     31  N   UNL     1      42.060 133.033  14.767  1.00  0.00     0.005 N 
ATOM     32  N   UNL     1      41.445 132.500  13.843  1.00  0.00    -0.003 NA
ENDBRANCH  30  31
ENDBRANCH  21  30
ENDBRANCH  16  17
ENDBRANCH   1  16
TORSDOF 9
ENDMDL
MODEL 4
REMARK VINA RESULT:      -5.8      3.575      5.521
REMARK SMILES CC(=O)n1cc[nH+]c1[C@H](N=C=O)C(=O)Oc1cccc2c(Cl)c(Cl)c(Cl)c(N=[N+]=[N-])c12
REMARK SMILES IDX 13 1 14 2 9 3 8 4 4 5 5 6 6 7 7 8 2 10 1 11 3 12 10 13 11 14
REMARK SMILES IDX 12 15 15 16 16 17 17 18 31 19 18 20 27 21 20 22 19 23 25 24
REMARK SMILES IDX 21 25 23 26 26 27 22 28 24 29 28 30 29 31 30 32
REMARK H PARENT 7 9
ROOT
ATOM      1  C   UNL     1      42.362 132.711  16.723  1.00  0.00     0.350 C 
ATOM      2  O   UNL     1      41.964 131.595  17.155  1.00  0.00    -0.248 OA
ENDROOT
BRANCH   1   3
ATOM      3  C   UNL     1      43.610 132.784  15.879  1.00  0.00     0.342 C 
BRANCH   3   4
ATOM      4  C   UNL     1      44.571 131.669  16.226  1.00  0.00     0.299 A 
ATOM      5  N   UNL     1      45.151 130.800  15.350  1.00  0.00    -0.167 N 
ATOM      6  C   UNL     1      45.962 130.029  16.109  1.00  0.00     0.252 A 
ATOM      7  C   UNL     1      45.861 130.433  17.422  1.00  0.00     0.241 A 
ATOM      8  N   UNL     1      44.992 131.458  17.491  1.00  0.00    -0.245 N 
ATOM      9  H   UNL     1      44.712 131.983  18.350  1.00  0.00     0.311 HD
BRANCH   5  10
ATOM     10  C   UNL     1      44.982 130.682  13.920  1.00  0.00     0.311 C 
ATOM     11  C   UNL     1      46.169 130.529  13.014  1.00  0.00     0.145 C 
ATOM     12  O   UNL     1      43.831 130.678  13.406  1.00  0.00    -0.247 OA
ENDBRANCH   5  10
ENDBRANCH   3   4
BRANCH   3  13
ATOM     13  N   UNL     1      44.290 134.070  16.025  1.00  0.00    -0.177 NA
BRANCH  13  14
ATOM     14  C   UNL     1      43.858 135.134  15.469  1.00  0.00     0.236 C 
ATOM     15  O   UNL     1      43.440 136.166  14.930  1.00  0.00    -0.211 OA
ENDBRANCH  13  14
ENDBRANCH   3  13
ENDBRANCH   1   3
BRANCH   1  16
ATOM     16  O   UNL     1      41.729 133.898  17.124  1.00  0.00    -0.424 OA
BRANCH  16  17
ATOM     17  C   UNL     1      40.485 133.994  17.766  1.00  0.00     0.139 A 
ATOM     18  C   UNL     1      39.311 133.657  17.074  1.00  0.00     0.048 A 
ATOM     19  C   UNL     1      40.404 134.468  19.109  1.00  0.00     0.037 A 
ATOM     20  C   UNL     1      38.072 133.734  17.695  1.00  0.00     0.005 A 
ATOM     21  C   UNL     1      41.559 134.877  19.837  1.00  0.00     0.069 A 
ATOM     22  C   UNL     1      39.126 134.534  19.740  1.00  0.00     0.006 A 
ATOM     23  C   UNL     1      37.977 134.157  19.016  1.00  0.00     0.010 A 
ATOM     24  C   UNL     1      41.434 135.269  21.190  1.00  0.00     0.071 A 
ATOM     25  C   UNL     1      39.019 134.970  21.079  1.00  0.00     0.069 A 
ATOM     26  C   UNL     1      40.172 135.321  21.800  1.00  0.00     0.079 A 
ATOM     27  Cl  UNL     1      42.869 135.614  22.169  1.00  0.00    -0.082 Cl
ATOM     28  Cl  UNL     1      37.446 135.067  21.889  1.00  0.00    -0.082 Cl
ATOM     29  Cl  UNL     1      40.036 135.803  23.496  1.00  0.00    -0.081 Cl
BRANCH  21  30
ATOM     30  N   UNL     1      42.846 134.865  19.197  1.00  0.00    -0.058 NA
BRANCH  30  31
ATOM     31  N   UNL     1      43.748 134.093  19.531  1.00  0.00     0.005 N 
ATOM     32  N   UNL     1      44.645 133.321  19.871  1.00  0.00    -0.003 NA
ENDBRANCH  30  31
ENDBRANCH  21  30
ENDBRANCH  16  17
ENDBRANCH   1  16
TORSDOF 9
ENDMDL
MODEL 5
REMARK VINA RESULT:      -5.6      3.767      6.943
REMARK SMILES CC(=O)n1cc[nH+]c1[C@H](N=C=O)C(=O)Oc1cccc2c(Cl)c(Cl)c(Cl)c(N=[N+]=[N-])c12
REMARK SMILES IDX 13 1 14 2 9 3 8 4 4 5 5 6 6 7 7 8 2 10 1 11 3 12 10 13 11 14
REMARK SMILES IDX 12 15 15 16 16 17 17 18 31 19 18 20 27 21 20 22 19 23 25 24
REMARK SMILES IDX 21 25 23 26 26 27 22 28 24 29 28 30 29 31 30 32
REMARK H PARENT 7 9
ROOT
ATOM      1  C   UNL     1      40.900 134.577  14.745  1.00  0.00     0.350 C 
ATOM      2  O   UNL     1      40.924 134.434  13.492  1.00  0.00    -0.248 OA
ENDROOT
BRANCH   1   3
ATOM      3  C   UNL     1      40.854 135.964  15.337  1.00  0.00     0.342 C 
BRANCH   3   4
ATOM      4  C   UNL     1      39.905 136.857  14.570  1.00  0.00     0.299 A 
ATOM      5  N   UNL     1      38.552 136.921  14.725  1.00  0.00    -0.167 N 
ATOM      6  C   UNL     1      38.148 137.887  13.870  1.00  0.00     0.252 A 
ATOM      7  C   UNL     1      39.249 138.388  13.212  1.00  0.00     0.241 A 
ATOM      8  N   UNL     1      40.345 137.743  13.651  1.00  0.00    -0.245 N 
ATOM      9  H   UNL     1      41.331 137.906  13.346  1.00  0.00     0.311 HD
BRANCH   5  10
ATOM     10  C   UNL     1      37.687 136.158  15.594  1.00  0.00     0.311 C 
ATOM     11  C   UNL     1      37.055 134.880  15.124  1.00  0.00     0.145 C 
ATOM     12  O   UNL     1      37.464 136.536  16.776  1.00  0.00    -0.247 OA
ENDBRANCH   5  10
ENDBRANCH   3   4
BRANCH   3  13
ATOM     13  N   UNL     1      42.178 136.584  15.371  1.00  0.00    -0.177 NA
BRANCH  13  14
ATOM     14  C   UNL     1      42.716 136.980  16.458  1.00  0.00     0.236 C 
ATOM     15  O   UNL     1      43.237 137.364  17.513  1.00  0.00    -0.211 OA
ENDBRANCH  13  14
ENDBRANCH   3  13
ENDBRANCH   1   3
BRANCH   1  16
ATOM     16  O   UNL     1      41.043 133.468  15.593  1.00  0.00    -0.424 OA
BRANCH  16  17
ATOM     17  C   UNL     1      42.239 132.786  15.863  1.00  0.00     0.139 A 
ATOM     18  C   UNL     1      43.031 132.314  14.804  1.00  0.00     0.048 A 
ATOM     19  C   UNL     1      42.636 132.536  17.210  1.00  0.00     0.037 A 
ATOM     20  C   UNL     1      44.224 131.647  15.050  1.00  0.00     0.005 A 
ATOM     21  C   UNL     1      41.841 132.943  18.319  1.00  0.00     0.069 A 
ATOM     22  C   UNL     1      43.868 131.857  17.450  1.00  0.00     0.006 A 
ATOM     23  C   UNL     1      44.646 131.428  16.356  1.00  0.00     0.010 A 
ATOM     24  C   UNL     1      42.314 132.738  19.637  1.00  0.00     0.071 A 
ATOM     25  C   UNL     1      44.301 131.624  18.774  1.00  0.00     0.069 A 
ATOM     26  C   UNL     1      43.531 132.077  19.858  1.00  0.00     0.079 A 
ATOM     27  Cl  UNL     1      41.432 133.387  21.028  1.00  0.00    -0.082 Cl
ATOM     28  Cl  UNL     1      45.824 130.781  19.106  1.00  0.00    -0.082 Cl
ATOM     29  Cl  UNL     1      44.113 131.838  21.511  1.00  0.00    -0.081 Cl
BRANCH  21  30
ATOM     30  N   UNL     1      40.573 133.582  18.092  1.00  0.00    -0.058 NA
BRANCH  30  31
ATOM     31  N   UNL     1      40.328 134.729  18.471  1.00  0.00     0.005 N 
ATOM     32  N   UNL     1      40.078 135.874  18.847  1.00  0.00    -0.003 NA
ENDBRANCH  30  31
ENDBRANCH  21  30
ENDBRANCH  16  17
ENDBRANCH   1  16
TORSDOF 9
ENDMDL
MODEL 6
REMARK VINA RESULT:      -5.6      4.160      7.581
REMARK SMILES CC(=O)n1cc[nH+]c1[C@H](N=C=O)C(=O)Oc1cccc2c(Cl)c(Cl)c(Cl)c(N=[N+]=[N-])c12
REMARK SMILES IDX 13 1 14 2 9 3 8 4 4 5 5 6 6 7 7 8 2 10 1 11 3 12 10 13 11 14
REMARK SMILES IDX 12 15 15 16 16 17 17 18 31 19 18 20 27 21 20 22 19 23 25 24
REMARK SMILES IDX 21 25 23 26 26 27 22 28 24 29 28 30 29 31 30 32
REMARK H PARENT 7 9
ROOT
ATOM      1  C   UNL     1      40.946 135.401  17.725  1.00  0.00     0.350 C 
ATOM      2  O   UNL     1      41.784 136.283  18.059  1.00  0.00    -0.248 OA
ENDROOT
BRANCH   1   3
ATOM      3  C   UNL     1      39.484 135.757  17.626  1.00  0.00     0.342 C 
BRANCH   3   4
ATOM      4  C   UNL     1      39.222 136.675  16.453  1.00  0.00     0.299 A 
ATOM      5  N   UNL     1      38.264 136.512  15.497  1.00  0.00    -0.167 N 
ATOM      6  C   UNL     1      38.379 137.597  14.698  1.00  0.00     0.252 A 
ATOM      7  C   UNL     1      39.396 138.394  15.174  1.00  0.00     0.241 A 
ATOM      8  N   UNL     1      39.920 137.816  16.270  1.00  0.00    -0.245 N 
ATOM      9  H   UNL     1      40.701 138.185  16.857  1.00  0.00     0.311 HD
BRANCH   5  10
ATOM     10  C   UNL     1      37.307 135.443  15.323  1.00  0.00     0.311 C 
ATOM     11  C   UNL     1      37.417 134.491  14.168  1.00  0.00     0.145 C 
ATOM     12  O   UNL     1      36.375 135.272  16.154  1.00  0.00    -0.247 OA
ENDBRANCH   5  10
ENDBRANCH   3   4
BRANCH   3  13
ATOM     13  N   UNL     1      38.996 136.389  18.851  1.00  0.00    -0.177 NA
BRANCH  13  14
ATOM     14  C   UNL     1      37.942 135.989  19.448  1.00  0.00     0.236 C 
ATOM     15  O   UNL     1      36.919 135.601  20.027  1.00  0.00    -0.211 OA
ENDBRANCH  13  14
ENDBRANCH   3  13
ENDBRANCH   1   3
BRANCH   1  16
ATOM     16  O   UNL     1      41.343 134.064  17.567  1.00  0.00    -0.424 OA
BRANCH  16  17
ATOM     17  C   UNL     1      41.803 133.474  16.380  1.00  0.00     0.139 A 
ATOM     18  C   UNL     1      41.141 133.731  15.168  1.00  0.00     0.048 A 
ATOM     19  C   UNL     1      42.918 132.586  16.403  1.00  0.00     0.037 A 
ATOM     20  C   UNL     1      41.587 133.166  13.981  1.00  0.00     0.005 A 
ATOM     21  C   UNL     1      43.590 132.248  17.613  1.00  0.00     0.069 A 
ATOM     22  C   UNL     1      43.373 132.019  15.175  1.00  0.00     0.006 A 
ATOM     23  C   UNL     1      42.697 132.328  13.978  1.00  0.00     0.010 A 
ATOM     24  C   UNL     1      44.736 131.420  17.574  1.00  0.00     0.071 A 
ATOM     25  C   UNL     1      44.494 131.160  15.164  1.00  0.00     0.069 A 
ATOM     26  C   UNL     1      45.177 130.877  16.358  1.00  0.00     0.079 A 
ATOM     27  Cl  UNL     1      45.692 131.125  19.036  1.00  0.00    -0.082 Cl
ATOM     28  Cl  UNL     1      45.082 130.438  13.656  1.00  0.00    -0.082 Cl
ATOM     29  Cl  UNL     1      46.619 129.854  16.325  1.00  0.00    -0.081 Cl
BRANCH  21  30
ATOM     30  N   UNL     1      43.111 132.770  18.864  1.00  0.00    -0.058 NA
BRANCH  30  31
ATOM     31  N   UNL     1      42.826 132.047  19.822  1.00  0.00     0.005 N 
ATOM     32  N   UNL     1      42.534 131.325  20.775  1.00  0.00    -0.003 NA
ENDBRANCH  30  31
ENDBRANCH  21  30
ENDBRANCH  16  17
ENDBRANCH   1  16
TORSDOF 9
ENDMDL
MODEL 7
REMARK VINA RESULT:      -5.6      2.138      4.083
REMARK SMILES CC(=O)n1cc[nH+]c1[C@H](N=C=O)C(=O)Oc1cccc2c(Cl)c(Cl)c(Cl)c(N=[N+]=[N-])c12
REMARK SMILES IDX 13 1 14 2 9 3 8 4 4 5 5 6 6 7 7 8 2 10 1 11 3 12 10 13 11 14
REMARK SMILES IDX 12 15 15 16 16 17 17 18 31 19 18 20 27 21 20 22 19 23 25 24
REMARK SMILES IDX 21 25 23 26 26 27 22 28 24 29 28 30 29 31 30 32
REMARK H PARENT 7 9
ROOT
ATOM      1  C   UNL     1      42.899 132.163  14.726  1.00  0.00     0.350 C 
ATOM      2  O   UNL     1      42.780 131.134  14.005  1.00  0.00    -0.248 OA
ENDROOT
BRANCH   1   3
ATOM      3  C   UNL     1      44.273 132.705  15.033  1.00  0.00     0.342 C 
BRANCH   3   4
ATOM      4  C   UNL     1      45.142 131.657  15.689  1.00  0.00     0.299 A 
ATOM      5  N   UNL     1      46.079 130.882  15.073  1.00  0.00    -0.167 N 
ATOM      6  C   UNL     1      46.628 130.143  16.064  1.00  0.00     0.252 A 
ATOM      7  C   UNL     1      46.020 130.474  17.255  1.00  0.00     0.241 A 
ATOM      8  N   UNL     1      45.093 131.419  17.018  1.00  0.00    -0.245 N 
ATOM      9  H   UNL     1      44.474 131.878  17.723  1.00  0.00     0.311 HD
BRANCH   5  10
ATOM     10  C   UNL     1      46.452 130.820  13.679  1.00  0.00     0.311 C 
ATOM     11  C   UNL     1      47.834 131.198  13.233  1.00  0.00     0.145 C 
ATOM     12  O   UNL     1      45.630 130.421  12.809  1.00  0.00    -0.247 OA
ENDBRANCH   5  10
ENDBRANCH   3   4
BRANCH   3  13
ATOM     13  N   UNL     1      44.210 133.887  15.892  1.00  0.00    -0.177 NA
BRANCH  13  14
ATOM     14  C   UNL     1      44.017 135.058  15.424  1.00  0.00     0.236 C 
ATOM     15  O   UNL     1      43.830 136.194  14.969  1.00  0.00    -0.211 OA
ENDBRANCH  13  14
ENDBRANCH   3  13
ENDBRANCH   1   3
BRANCH   1  16
ATOM     16  O   UNL     1      41.777 132.731  15.349  1.00  0.00    -0.424 OA
BRANCH  16  17
ATOM     17  C   UNL     1      41.613 132.932  16.728  1.00  0.00     0.139 A 
ATOM     18  C   UNL     1      42.116 131.989  17.639  1.00  0.00     0.048 A 
ATOM     19  C   UNL     1      40.904 134.072  17.209  1.00  0.00     0.037 A 
ATOM     20  C   UNL     1      41.974 132.175  19.007  1.00  0.00     0.005 A 
ATOM     21  C   UNL     1      40.324 135.029  16.327  1.00  0.00     0.069 A 
ATOM     22  C   UNL     1      40.772 134.257  18.617  1.00  0.00     0.006 A 
ATOM     23  C   UNL     1      41.320 133.300  19.496  1.00  0.00     0.010 A 
ATOM     24  C   UNL     1      39.695 136.181  16.854  1.00  0.00     0.071 A 
ATOM     25  C   UNL     1      40.102 135.394  19.123  1.00  0.00     0.069 A 
ATOM     26  C   UNL     1      39.581 136.354  18.241  1.00  0.00     0.079 A 
ATOM     27  Cl  UNL     1      39.121 137.470  15.783  1.00  0.00    -0.082 Cl
ATOM     28  Cl  UNL     1      39.919 135.651  20.867  1.00  0.00    -0.082 Cl
ATOM     29  Cl  UNL     1      38.801 137.806  18.883  1.00  0.00    -0.081 Cl
BRANCH  21  30
ATOM     30  N   UNL     1      40.404 134.828  14.905  1.00  0.00    -0.058 NA
BRANCH  30  31
ATOM     31  N   UNL     1      39.483 134.336  14.250  1.00  0.00     0.005 N 
ATOM     32  N   UNL     1      38.559 133.846  13.601  1.00  0.00    -0.003 NA
ENDBRANCH  30  31
ENDBRANCH  21  30
ENDBRANCH  16  17
ENDBRANCH   1  16
TORSDOF 9
ENDMDL
MODEL 8
REMARK VINA RESULT:      -5.5      2.475      3.762
REMARK SMILES CC(=O)n1cc[nH+]c1[C@H](N=C=O)C(=O)Oc1cccc2c(Cl)c(Cl)c(Cl)c(N=[N+]=[N-])c12
REMARK SMILES IDX 13 1 14 2 9 3 8 4 4 5 5 6 6 7 7 8 2 10 1 11 3 12 10 13 11 14
REMARK SMILES IDX 12 15 15 16 16 17 17 18 31 19 18 20 27 21 20 22 19 23 25 24
REMARK SMILES IDX 21 25 23 26 26 27 22 28 24 29 28 30 29 31 30 32
REMARK H PARENT 7 9
ROOT
ATOM      1  C   UNL     1      43.873 133.967  16.113  1.00  0.00     0.350 C 
ATOM      2  O   UNL     1      44.937 134.402  15.591  1.00  0.00    -0.248 OA
ENDROOT
BRANCH   1   3
ATOM      3  C   UNL     1      43.444 132.544  15.857  1.00  0.00     0.342 C 
BRANCH   3   4
ATOM      4  C   UNL     1      44.622 131.597  15.912  1.00  0.00     0.299 A 
ATOM      5  N   UNL     1      45.187 131.074  17.036  1.00  0.00    -0.167 N 
ATOM      6  C   UNL     1      46.163 130.253  16.588  1.00  0.00     0.252 A 
ATOM      7  C   UNL     1      46.179 130.291  15.211  1.00  0.00     0.241 A 
ATOM      8  N   UNL     1      45.216 131.131  14.792  1.00  0.00    -0.245 N 
ATOM      9  H   UNL     1      44.976 131.363  13.802  1.00  0.00     0.311 HD
BRANCH   5  10
ATOM     10  C   UNL     1      44.859 131.304  18.425  1.00  0.00     0.311 C 
ATOM     11  C   UNL     1      45.874 131.066  19.505  1.00  0.00     0.145 C 
ATOM     12  O   UNL     1      43.721 131.734  18.756  1.00  0.00    -0.247 OA
ENDBRANCH   5  10
ENDBRANCH   3   4
BRANCH   3  13
ATOM     13  N   UNL     1      42.772 132.403  14.565  1.00  0.00    -0.177 NA
BRANCH  13  14
ATOM     14  C   UNL     1      41.616 132.894  14.344  1.00  0.00     0.236 C 
ATOM     15  O   UNL     1      40.494 133.370  14.130  1.00  0.00    -0.211 OA
ENDBRANCH  13  14
ENDBRANCH   3  13
ENDBRANCH   1   3
BRANCH   1  16
ATOM     16  O   UNL     1      43.022 134.828  16.822  1.00  0.00    -0.424 OA
BRANCH  16  17
ATOM     17  C   UNL     1      42.244 135.858  16.270  1.00  0.00     0.139 A 
ATOM     18  C   UNL     1      42.830 136.787  15.397  1.00  0.00     0.048 A 
ATOM     19  C   UNL     1      40.869 135.987  16.623  1.00  0.00     0.037 A 
ATOM     20  C   UNL     1      42.076 137.806  14.832  1.00  0.00     0.005 A 
ATOM     21  C   UNL     1      40.240 135.105  17.548  1.00  0.00     0.069 A 
ATOM     22  C   UNL     1      40.101 137.033  16.029  1.00  0.00     0.006 A 
ATOM     23  C   UNL     1      40.723 137.925  15.133  1.00  0.00     0.010 A 
ATOM     24  C   UNL     1      38.855 135.229  17.809  1.00  0.00     0.071 A 
ATOM     25  C   UNL     1      38.728 137.166  16.335  1.00  0.00     0.069 A 
ATOM     26  C   UNL     1      38.111 136.257  17.210  1.00  0.00     0.079 A 
ATOM     27  Cl  UNL     1      38.012 134.043  18.817  1.00  0.00    -0.082 Cl
ATOM     28  Cl  UNL     1      37.749 138.455  15.617  1.00  0.00    -0.082 Cl
ATOM     29  Cl  UNL     1      36.378 136.391  17.537  1.00  0.00    -0.081 Cl
BRANCH  21  30
ATOM     30  N   UNL     1      41.013 134.079  18.194  1.00  0.00    -0.058 NA
BRANCH  30  31
ATOM     31  N   UNL     1      41.263 134.095  19.401  1.00  0.00     0.005 N 
ATOM     32  N   UNL     1      41.506 134.107  20.608  1.00  0.00    -0.003 NA
ENDBRANCH  30  31
ENDBRANCH  21  30
ENDBRANCH  16  17
ENDBRANCH   1  16
TORSDOF 9
ENDMDL
MODEL 9
REMARK VINA RESULT:      -5.5      2.102      3.855
REMARK SMILES CC(=O)n1cc[nH+]c1[C@H](N=C=O)C(=O)Oc1cccc2c(Cl)c(Cl)c(Cl)c(N=[N+]=[N-])c12
REMARK SMILES IDX 13 1 14 2 9 3 8 4 4 5 5 6 6 7 7 8 2 10 1 11 3 12 10 13 11 14
REMARK SMILES IDX 12 15 15 16 16 17 17 18 31 19 18 20 27 21 20 22 19 23 25 24
REMARK SMILES IDX 21 25 23 26 26 27 22 28 24 29 28 30 29 31 30 32
REMARK H PARENT 7 9
ROOT
ATOM      1  C   UNL     1      43.701 133.898  17.083  1.00  0.00     0.350 C 
ATOM      2  O   UNL     1      44.223 135.031  16.891  1.00  0.00    -0.248 OA
ENDROOT
BRANCH   1   3
ATOM      3  C   UNL     1      44.506 132.650  16.818  1.00  0.00     0.342 C 
BRANCH   3   4
ATOM      4  C   UNL     1      44.129 132.026  15.494  1.00  0.00     0.299 A 
ATOM      5  N   UNL     1      44.957 131.333  14.662  1.00  0.00    -0.167 N 
ATOM      6  C   UNL     1      44.169 130.929  13.640  1.00  0.00     0.252 A 
ATOM      7  C   UNL     1      42.887 131.381  13.862  1.00  0.00     0.241 A 
ATOM      8  N   UNL     1      42.865 132.065  15.020  1.00  0.00    -0.245 N 
ATOM      9  H   UNL     1      42.035 132.521  15.461  1.00  0.00     0.311 HD
BRANCH   5  10
ATOM     10  C   UNL     1      46.370 131.055  14.788  1.00  0.00     0.311 C 
ATOM     11  C   UNL     1      46.869 130.038  15.773  1.00  0.00     0.145 C 
ATOM     12  O   UNL     1      47.210 131.642  14.056  1.00  0.00    -0.247 OA
ENDBRANCH   5  10
ENDBRANCH   3   4
BRANCH   3  13
ATOM     13  N   UNL     1      44.340 131.661  17.883  1.00  0.00    -0.177 NA
BRANCH  13  14
ATOM     14  C   UNL     1      44.821 131.833  19.051  1.00  0.00     0.236 C 
ATOM     15  O   UNL     1      45.288 132.000  20.185  1.00  0.00    -0.211 OA
ENDBRANCH  13  14
ENDBRANCH   3  13
ENDBRANCH   1   3
BRANCH   1  16
ATOM     16  O   UNL     1      42.343 133.786  17.417  1.00  0.00    -0.424 OA
BRANCH  16  17
ATOM     17  C   UNL     1      41.649 134.592  18.333  1.00  0.00     0.139 A 
ATOM     18  C   UNL     1      41.882 134.448  19.710  1.00  0.00     0.048 A 
ATOM     19  C   UNL     1      40.680 135.531  17.873  1.00  0.00     0.037 A 
ATOM     20  C   UNL     1      41.215 135.243  20.631  1.00  0.00     0.005 A 
ATOM     21  C   UNL     1      40.365 135.676  16.491  1.00  0.00     0.069 A 
ATOM     22  C   UNL     1      40.007 136.349  18.829  1.00  0.00     0.006 A 
ATOM     23  C   UNL     1      40.294 136.192  20.199  1.00  0.00     0.010 A 
ATOM     24  C   UNL     1      39.450 136.674  16.080  1.00  0.00     0.071 A 
ATOM     25  C   UNL     1      39.065 137.310  18.400  1.00  0.00     0.069 A 
ATOM     26  C   UNL     1      38.803 137.477  17.030  1.00  0.00     0.079 A 
ATOM     27  Cl  UNL     1      39.171 136.994  14.361  1.00  0.00    -0.082 Cl
ATOM     28  Cl  UNL     1      38.210 138.339  19.562  1.00  0.00    -0.082 Cl
ATOM     29  Cl  UNL     1      37.670 138.728  16.498  1.00  0.00    -0.081 Cl
BRANCH  21  30
ATOM     30  N   UNL     1      40.997 134.823  15.522  1.00  0.00    -0.058 NA
BRANCH  30  31
ATOM     31  N   UNL     1      40.363 134.039  14.812  1.00  0.00     0.005 N 
ATOM     32  N   UNL     1      39.736 133.252  14.104  1.00  0.00    -0.003 NA
ENDBRANCH  30  31
ENDBRANCH  21  30
ENDBRANCH  16  17
ENDBRANCH   1  16
TORSDOF 9
ENDMDL


