MODEL 1
REMARK VINA RESULT:      -8.2      0.000      0.000
REMARK SMILES C#CCO/C([O-])=C\[C@@H]1CC[C@@H]2C(OC(=O)[C@H](C)C(F)(F)F)=Nc3c(N=[N+]=[N-])cc(Cl)c1c32
REMARK SMILES IDX 8 1 31 2 29 3 30 4 28 5 24 6 23 7 32 8 11 9 12 10 22 11
REMARK SMILES IDX 10 12 9 13 7 14 5 15 6 16 4 17 3 18 2 19 1 20 25 21 26 22
REMARK SMILES IDX 27 23 13 24 14 25 15 26 16 27 17 28 18 29 19 30 20 31 21 32
REMARK H PARENT
ROOT
ATOM      1  C   UNL     1      42.407 133.890  16.396  1.00  0.00     0.045 C 
ATOM      2  C   UNL     1      43.025 133.406  17.707  1.00  0.00    -0.016 A 
ATOM      3  C   UNL     1      42.359 133.475  18.958  1.00  0.00     0.045 A 
ATOM      4  Cl  UNL     1      40.946 134.498  19.192  1.00  0.00    -0.084 Cl
ATOM      5  C   UNL     1      42.798 132.672  20.034  1.00  0.00     0.033 A 
ATOM      6  C   UNL     1      43.878 131.772  19.866  1.00  0.00     0.065 A 
ATOM      7  C   UNL     1      44.565 131.806  18.653  1.00  0.00     0.081 A 
ATOM      8  C   UNL     1      44.207 132.671  17.660  1.00  0.00    -0.004 A 
ATOM      9  C   UNL     1      45.029 132.400  16.467  1.00  0.00     0.109 C 
ATOM     10  C   UNL     1      45.711 131.137  16.923  1.00  0.00     0.206 C 
ATOM     11  N   UNL     1      45.488 130.841  18.173  1.00  0.00    -0.216 NA
ATOM     12  C   UNL     1      44.125 132.290  15.241  1.00  0.00     0.019 C 
ATOM     13  C   UNL     1      43.277 133.577  15.131  1.00  0.00     0.014 C 
ENDROOT
BRANCH   1  14
ATOM     14  C   UNL     1      40.996 133.370  16.195  1.00  0.00     0.005 C 
BRANCH  14  15
ATOM     15  C   UNL     1      40.035 134.005  15.512  1.00  0.00     0.049 C 
ATOM     16  O   UNL     1      39.388 135.087  16.102  1.00  0.00    -0.547 OA
BRANCH  15  17
ATOM     17  O   UNL     1      39.667 133.585  14.233  1.00  0.00    -0.601 OA
BRANCH  17  18
ATOM     18  C   UNL     1      38.374 133.818  13.692  1.00  0.00     0.160 C 
BRANCH  18  19
ATOM     19  C   UNL     1      38.431 134.971  12.793  1.00  0.00    -0.095 C 
ATOM     20  C   UNL     1      38.479 135.922  12.055  1.00  0.00     0.005 C 
ENDBRANCH  18  19
ENDBRANCH  17  18
ENDBRANCH  15  17
ENDBRANCH  14  15
ENDBRANCH   1  14
BRANCH   6  21
ATOM     21  N   UNL     1      44.259 130.830  20.877  1.00  0.00    -0.058 NA
BRANCH  21  22
ATOM     22  N   UNL     1      44.563 131.180  22.018  1.00  0.00     0.005 N 
ATOM     23  N   UNL     1      44.867 131.528  23.157  1.00  0.00    -0.003 NA
ENDBRANCH  21  22
ENDBRANCH   6  21
BRANCH  10  24
ATOM     24  O   UNL     1      46.540 130.381  16.086  1.00  0.00    -0.410 OA
BRANCH  24  25
ATOM     25  C   UNL     1      46.091 129.486  15.104  1.00  0.00     0.324 C 
ATOM     26  O   UNL     1      45.078 128.760  15.301  1.00  0.00    -0.251 OA
BRANCH  25  27
ATOM     27  C   UNL     1      46.839 129.399  13.801  1.00  0.00     0.201 C 
ATOM     28  C   UNL     1      48.346 129.277  14.058  1.00  0.00     0.030 C 
BRANCH  27  29
ATOM     29  C   UNL     1      46.509 130.596  12.895  1.00  0.00     0.401 C 
ATOM     30  F   UNL     1      45.138 130.723  12.761  1.00  0.00    -0.170 F 
ATOM     31  F   UNL     1      47.067 130.430  11.638  1.00  0.00    -0.170 F 
ATOM     32  F   UNL     1      47.004 131.761  13.455  1.00  0.00    -0.170 F 
ENDBRANCH  27  29
ENDBRANCH  25  27
ENDBRANCH  24  25
ENDBRANCH  10  24
TORSDOF 11
ENDMDL
MODEL 2
REMARK VINA RESULT:      -7.7      3.626      5.486
REMARK SMILES C#CCO/C([O-])=C\[C@@H]1CC[C@@H]2C(OC(=O)[C@H](C)C(F)(F)F)=Nc3c(N=[N+]=[N-])cc(Cl)c1c32
REMARK SMILES IDX 8 1 31 2 29 3 30 4 28 5 24 6 23 7 32 8 11 9 12 10 22 11
REMARK SMILES IDX 10 12 9 13 7 14 5 15 6 16 4 17 3 18 2 19 1 20 25 21 26 22
REMARK SMILES IDX 27 23 13 24 14 25 15 26 16 27 17 28 18 29 19 30 20 31 21 32
REMARK H PARENT
ROOT
ATOM      1  C   UNL     1      42.287 132.605  19.427  1.00  0.00     0.045 C 
ATOM      2  C   UNL     1      41.701 133.200  18.147  1.00  0.00    -0.016 A 
ATOM      3  C   UNL     1      40.637 134.138  18.137  1.00  0.00     0.045 A 
ATOM      4  Cl  UNL     1      39.615 134.385  19.548  1.00  0.00    -0.084 Cl
ATOM      5  C   UNL     1      40.412 134.936  16.992  1.00  0.00     0.033 A 
ATOM      6  C   UNL     1      41.261 134.830  15.864  1.00  0.00     0.065 A 
ATOM      7  C   UNL     1      42.233 133.830  15.878  1.00  0.00     0.081 A 
ATOM      8  C   UNL     1      42.365 132.985  16.941  1.00  0.00    -0.004 A 
ATOM      9  C   UNL     1      43.538 132.119  16.726  1.00  0.00     0.109 C 
ATOM     10  C   UNL     1      44.108 132.783  15.499  1.00  0.00     0.206 C 
ATOM     11  N   UNL     1      43.338 133.708  14.997  1.00  0.00    -0.216 NA
ATOM     12  C   UNL     1      44.411 132.123  17.978  1.00  0.00     0.019 C 
ATOM     13  C   UNL     1      43.547 131.705  19.189  1.00  0.00     0.014 C 
ENDROOT
BRANCH   1  14
ATOM     14  C   UNL     1      42.597 133.664  20.468  1.00  0.00     0.005 C 
BRANCH  14  15
ATOM     15  C   UNL     1      43.767 133.792  21.106  1.00  0.00     0.049 C 
ATOM     16  O   UNL     1      43.932 133.183  22.346  1.00  0.00    -0.547 OA
BRANCH  15  17
ATOM     17  O   UNL     1      44.808 134.539  20.552  1.00  0.00    -0.601 OA
BRANCH  17  18
ATOM     18  C   UNL     1      44.677 135.917  20.232  1.00  0.00     0.160 C 
BRANCH  18  19
ATOM     19  C   UNL     1      44.439 136.055  18.795  1.00  0.00    -0.095 C 
ATOM     20  C   UNL     1      44.241 136.170  17.612  1.00  0.00     0.005 C 
ENDBRANCH  18  19
ENDBRANCH  17  18
ENDBRANCH  15  17
ENDBRANCH  14  15
ENDBRANCH   1  14
BRANCH   6  21
ATOM     21  N   UNL     1      41.169 135.721  14.745  1.00  0.00    -0.058 NA
BRANCH  21  22
ATOM     22  N   UNL     1      40.386 135.524  13.814  1.00  0.00     0.005 N 
ATOM     23  N   UNL     1      39.606 135.326  12.884  1.00  0.00    -0.003 NA
ENDBRANCH  21  22
ENDBRANCH   6  21
BRANCH  10  24
ATOM     24  O   UNL     1      45.332 132.405  14.934  1.00  0.00    -0.410 OA
BRANCH  24  25
ATOM     25  C   UNL     1      45.541 131.247  14.172  1.00  0.00     0.324 C 
ATOM     26  O   UNL     1      44.581 130.487  13.864  1.00  0.00    -0.251 OA
BRANCH  25  27
ATOM     27  C   UNL     1      46.938 130.913  13.722  1.00  0.00     0.201 C 
ATOM     28  C   UNL     1      46.966 130.664  12.209  1.00  0.00     0.030 C 
BRANCH  27  29
ATOM     29  C   UNL     1      47.500 129.717  14.508  1.00  0.00     0.401 C 
ATOM     30  F   UNL     1      47.421 129.967  15.866  1.00  0.00    -0.170 F 
ATOM     31  F   UNL     1      48.823 129.485  14.172  1.00  0.00    -0.170 F 
ATOM     32  F   UNL     1      46.761 128.581  14.228  1.00  0.00    -0.170 F 
ENDBRANCH  27  29
ENDBRANCH  25  27
ENDBRANCH  24  25
ENDBRANCH  10  24
TORSDOF 11
ENDMDL
MODEL 3
REMARK VINA RESULT:      -7.6      1.390      1.707
REMARK SMILES C#CCO/C([O-])=C\[C@@H]1CC[C@@H]2C(OC(=O)[C@H](C)C(F)(F)F)=Nc3c(N=[N+]=[N-])cc(Cl)c1c32
REMARK SMILES IDX 8 1 31 2 29 3 30 4 28 5 24 6 23 7 32 8 11 9 12 10 22 11
REMARK SMILES IDX 10 12 9 13 7 14 5 15 6 16 4 17 3 18 2 19 1 20 25 21 26 22
REMARK SMILES IDX 27 23 13 24 14 25 15 26 16 27 17 28 18 29 19 30 20 31 21 32
REMARK H PARENT
ROOT
ATOM      1  C   UNL     1      41.782 134.412  15.570  1.00  0.00     0.045 C 
ATOM      2  C   UNL     1      42.558 134.185  16.866  1.00  0.00    -0.016 A 
ATOM      3  C   UNL     1      42.197 134.769  18.107  1.00  0.00     0.045 A 
ATOM      4  Cl  UNL     1      41.086 136.131  18.194  1.00  0.00    -0.084 Cl
ATOM      5  C   UNL     1      42.691 134.222  19.313  1.00  0.00     0.033 A 
ATOM      6  C   UNL     1      43.521 133.075  19.296  1.00  0.00     0.065 A 
ATOM      7  C   UNL     1      43.930 132.593  18.053  1.00  0.00     0.081 A 
ATOM      8  C   UNL     1      43.543 133.200  16.894  1.00  0.00    -0.004 A 
ATOM      9  C   UNL     1      44.028 132.407  15.750  1.00  0.00     0.109 C 
ATOM     10  C   UNL     1      44.538 131.199  16.490  1.00  0.00     0.206 C 
ATOM     11  N   UNL     1      44.531 131.335  17.787  1.00  0.00    -0.216 NA
ATOM     12  C   UNL     1      42.882 132.179  14.767  1.00  0.00     0.019 C 
ATOM     13  C   UNL     1      42.290 133.549  14.365  1.00  0.00     0.014 C 
ENDROOT
BRANCH   1  14
ATOM     14  C   UNL     1      40.287 134.221  15.750  1.00  0.00     0.005 C 
BRANCH  14  15
ATOM     15  C   UNL     1      39.381 134.297  14.767  1.00  0.00     0.049 C 
ATOM     16  O   UNL     1      39.193 133.199  13.933  1.00  0.00    -0.547 OA
BRANCH  15  17
ATOM     17  O   UNL     1      38.641 135.463  14.564  1.00  0.00    -0.601 OA
BRANCH  17  18
ATOM     18  C   UNL     1      38.971 136.698  15.184  1.00  0.00     0.160 C 
BRANCH  18  19
ATOM     19  C   UNL     1      39.198 137.709  14.151  1.00  0.00    -0.095 C 
ATOM     20  C   UNL     1      39.387 138.542  13.302  1.00  0.00     0.005 C 
ENDBRANCH  18  19
ENDBRANCH  17  18
ENDBRANCH  15  17
ENDBRANCH  14  15
ENDBRANCH   1  14
BRANCH   6  21
ATOM     21  N   UNL     1      43.921 132.396  20.492  1.00  0.00    -0.058 NA
BRANCH  21  22
ATOM     22  N   UNL     1      45.104 132.177  20.757  1.00  0.00     0.005 N 
ATOM     23  N   UNL     1      46.285 131.958  21.019  1.00  0.00    -0.003 NA
ENDBRANCH  21  22
ENDBRANCH   6  21
BRANCH  10  24
ATOM     24  O   UNL     1      45.014 130.056  15.835  1.00  0.00    -0.410 OA
BRANCH  24  25
ATOM     25  C   UNL     1      46.344 129.852  15.440  1.00  0.00     0.324 C 
ATOM     26  O   UNL     1      47.293 129.966  16.264  1.00  0.00    -0.251 OA
BRANCH  25  27
ATOM     27  C   UNL     1      46.631 129.493  14.008  1.00  0.00     0.201 C 
ATOM     28  C   UNL     1      48.105 129.103  13.840  1.00  0.00     0.030 C 
BRANCH  27  29
ATOM     29  C   UNL     1      46.232 130.638  13.061  1.00  0.00     0.401 C 
ATOM     30  F   UNL     1      44.877 130.575  12.791  1.00  0.00    -0.170 F 
ATOM     31  F   UNL     1      46.930 130.556  11.868  1.00  0.00    -0.170 F 
ATOM     32  F   UNL     1      46.504 131.857  13.657  1.00  0.00    -0.170 F 
ENDBRANCH  27  29
ENDBRANCH  25  27
ENDBRANCH  24  25
ENDBRANCH  10  24
TORSDOF 11
ENDMDL
MODEL 4
REMARK VINA RESULT:      -7.6      1.874      2.563
REMARK SMILES C#CCO/C([O-])=C\[C@@H]1CC[C@@H]2C(OC(=O)[C@H](C)C(F)(F)F)=Nc3c(N=[N+]=[N-])cc(Cl)c1c32
REMARK SMILES IDX 8 1 31 2 29 3 30 4 28 5 24 6 23 7 32 8 11 9 12 10 22 11
REMARK SMILES IDX 10 12 9 13 7 14 5 15 6 16 4 17 3 18 2 19 1 20 25 21 26 22
REMARK SMILES IDX 27 23 13 24 14 25 15 26 16 27 17 28 18 29 19 30 20 31 21 32
REMARK H PARENT
ROOT
ATOM      1  C   UNL     1      42.598 135.054  16.341  1.00  0.00     0.045 C 
ATOM      2  C   UNL     1      43.525 134.340  17.324  1.00  0.00    -0.016 A 
ATOM      3  C   UNL     1      43.577 134.641  18.710  1.00  0.00     0.045 A 
ATOM      4  Cl  UNL     1      42.899 136.133  19.352  1.00  0.00    -0.084 Cl
ATOM      5  C   UNL     1      44.136 133.708  19.612  1.00  0.00     0.033 A 
ATOM      6  C   UNL     1      44.616 132.460  19.150  1.00  0.00     0.065 A 
ATOM      7  C   UNL     1      44.636 132.245  17.772  1.00  0.00     0.081 A 
ATOM      8  C   UNL     1      44.204 133.200  16.899  1.00  0.00    -0.004 A 
ATOM      9  C   UNL     1      44.232 132.652  15.531  1.00  0.00     0.109 C 
ATOM     10  C   UNL     1      44.543 131.213  15.853  1.00  0.00     0.206 C 
ATOM     11  N   UNL     1      44.824 131.004  17.109  1.00  0.00    -0.216 NA
ATOM     12  C   UNL     1      42.899 132.931  14.843  1.00  0.00     0.019 C 
ATOM     13  C   UNL     1      42.619 134.450  14.896  1.00  0.00     0.014 C 
ENDROOT
BRANCH   1  14
ATOM     14  C   UNL     1      41.170 135.136  16.847  1.00  0.00     0.005 C 
BRANCH  14  15
ATOM     15  C   UNL     1      40.394 134.081  17.124  1.00  0.00     0.049 C 
ATOM     16  O   UNL     1      39.702 133.459  16.089  1.00  0.00    -0.547 OA
BRANCH  15  17
ATOM     17  O   UNL     1      40.259 133.615  18.433  1.00  0.00    -0.601 OA
BRANCH  17  18
ATOM     18  C   UNL     1      39.491 134.297  19.414  1.00  0.00     0.160 C 
BRANCH  18  19
ATOM     19  C   UNL     1      38.072 134.179  19.081  1.00  0.00    -0.095 C 
ATOM     20  C   UNL     1      36.902 134.083  18.807  1.00  0.00     0.005 C 
ENDBRANCH  18  19
ENDBRANCH  17  18
ENDBRANCH  15  17
ENDBRANCH  14  15
ENDBRANCH   1  14
BRANCH   6  21
ATOM     21  N   UNL     1      45.049 131.423  20.040  1.00  0.00    -0.058 NA
BRANCH  21  22
ATOM     22  N   UNL     1      44.361 131.046  20.990  1.00  0.00     0.005 N 
ATOM     23  N   UNL     1      43.676 130.670  21.939  1.00  0.00    -0.003 NA
ENDBRANCH  21  22
ENDBRANCH   6  21
BRANCH  10  24
ATOM     24  O   UNL     1      44.566 130.209  14.878  1.00  0.00    -0.410 OA
BRANCH  24  25
ATOM     25  C   UNL     1      45.513 129.176  14.811  1.00  0.00     0.324 C 
ATOM     26  O   UNL     1      45.376 128.122  15.490  1.00  0.00    -0.251 OA
BRANCH  25  27
ATOM     27  C   UNL     1      46.708 129.342  13.911  1.00  0.00     0.201 C 
ATOM     28  C   UNL     1      47.989 129.475  14.745  1.00  0.00     0.030 C 
BRANCH  27  29
ATOM     29  C   UNL     1      46.521 130.534  12.958  1.00  0.00     0.401 C 
ATOM     30  F   UNL     1      47.266 130.340  11.809  1.00  0.00    -0.170 F 
ATOM     31  F   UNL     1      46.926 131.714  13.561  1.00  0.00    -0.170 F 
ATOM     32  F   UNL     1      45.188 130.647  12.602  1.00  0.00    -0.170 F 
ENDBRANCH  27  29
ENDBRANCH  25  27
ENDBRANCH  24  25
ENDBRANCH  10  24
TORSDOF 11
ENDMDL
MODEL 5
REMARK VINA RESULT:      -7.5      3.508      5.829
REMARK SMILES C#CCO/C([O-])=C\[C@@H]1CC[C@@H]2C(OC(=O)[C@H](C)C(F)(F)F)=Nc3c(N=[N+]=[N-])cc(Cl)c1c32
REMARK SMILES IDX 8 1 31 2 29 3 30 4 28 5 24 6 23 7 32 8 11 9 12 10 22 11
REMARK SMILES IDX 10 12 9 13 7 14 5 15 6 16 4 17 3 18 2 19 1 20 25 21 26 22
REMARK SMILES IDX 27 23 13 24 14 25 15 26 16 27 17 28 18 29 19 30 20 31 21 32
REMARK H PARENT
ROOT
ATOM      1  C   UNL     1      41.652 132.856  19.114  1.00  0.00     0.045 C 
ATOM      2  C   UNL     1      41.390 133.699  17.867  1.00  0.00    -0.016 A 
ATOM      3  C   UNL     1      40.632 134.898  17.879  1.00  0.00     0.045 A 
ATOM      4  Cl  UNL     1      39.577 135.306  19.226  1.00  0.00    -0.084 Cl
ATOM      5  C   UNL     1      40.757 135.820  16.814  1.00  0.00     0.033 A 
ATOM      6  C   UNL     1      41.657 135.573  15.751  1.00  0.00     0.065 A 
ATOM      7  C   UNL     1      42.309 134.340  15.729  1.00  0.00     0.081 A 
ATOM      8  C   UNL     1      42.091 133.406  16.700  1.00  0.00    -0.004 A 
ATOM      9  C   UNL     1      42.996 132.263  16.480  1.00  0.00     0.109 C 
ATOM     10  C   UNL     1      43.851 132.838  15.381  1.00  0.00     0.206 C 
ATOM     11  N   UNL     1      43.423 133.982  14.926  1.00  0.00    -0.216 NA
ATOM     12  C   UNL     1      43.701 131.913  17.788  1.00  0.00     0.019 C 
ATOM     13  C   UNL     1      42.633 131.658  18.876  1.00  0.00     0.014 C 
ENDROOT
BRANCH   1  14
ATOM     14  C   UNL     1      42.132 133.692  20.287  1.00  0.00     0.005 C 
BRANCH  14  15
ATOM     15  C   UNL     1      43.406 133.797  20.683  1.00  0.00     0.049 C 
ATOM     16  O   UNL     1      44.289 134.561  19.925  1.00  0.00    -0.547 OA
BRANCH  15  17
ATOM     17  O   UNL     1      43.858 133.141  21.829  1.00  0.00    -0.601 OA
BRANCH  17  18
ATOM     18  C   UNL     1      44.455 131.853  21.789  1.00  0.00     0.160 C 
BRANCH  18  19
ATOM     19  C   UNL     1      43.532 130.877  22.367  1.00  0.00    -0.095 C 
ATOM     20  C   UNL     1      42.770 130.072  22.842  1.00  0.00     0.005 C 
ENDBRANCH  18  19
ENDBRANCH  17  18
ENDBRANCH  15  17
ENDBRANCH  14  15
ENDBRANCH   1  14
BRANCH   6  21
ATOM     21  N   UNL     1      41.931 136.543  14.732  1.00  0.00    -0.058 NA
BRANCH  21  22
ATOM     22  N   UNL     1      42.352 137.670  14.998  1.00  0.00     0.005 N 
ATOM     23  N   UNL     1      42.774 138.794  15.264  1.00  0.00    -0.003 NA
ENDBRANCH  21  22
ENDBRANCH   6  21
BRANCH  10  24
ATOM     24  O   UNL     1      44.976 132.176  14.874  1.00  0.00    -0.410 OA
BRANCH  24  25
ATOM     25  C   UNL     1      44.939 131.003  14.106  1.00  0.00     0.324 C 
ATOM     26  O   UNL     1      43.908 130.686  13.450  1.00  0.00    -0.251 OA
BRANCH  25  27
ATOM     27  C   UNL     1      46.154 130.116  14.074  1.00  0.00     0.201 C 
ATOM     28  C   UNL     1      46.867 130.137  15.432  1.00  0.00     0.030 C 
BRANCH  27  29
ATOM     29  C   UNL     1      47.098 130.514  12.927  1.00  0.00     0.401 C 
ATOM     30  F   UNL     1      48.018 129.506  12.703  1.00  0.00    -0.170 F 
ATOM     31  F   UNL     1      47.779 131.681  13.234  1.00  0.00    -0.170 F 
ATOM     32  F   UNL     1      46.371 130.711  11.766  1.00  0.00    -0.170 F 
ENDBRANCH  27  29
ENDBRANCH  25  27
ENDBRANCH  24  25
ENDBRANCH  10  24
TORSDOF 11
ENDMDL
MODEL 6
REMARK VINA RESULT:      -7.3      3.528      5.672
REMARK SMILES C#CCO/C([O-])=C\[C@@H]1CC[C@@H]2C(OC(=O)[C@H](C)C(F)(F)F)=Nc3c(N=[N+]=[N-])cc(Cl)c1c32
REMARK SMILES IDX 8 1 31 2 29 3 30 4 28 5 24 6 23 7 32 8 11 9 12 10 22 11
REMARK SMILES IDX 10 12 9 13 7 14 5 15 6 16 4 17 3 18 2 19 1 20 25 21 26 22
REMARK SMILES IDX 27 23 13 24 14 25 15 26 16 27 17 28 18 29 19 30 20 31 21 32
REMARK H PARENT
ROOT
ATOM      1  C   UNL     1      43.312 132.445  19.992  1.00  0.00     0.045 C 
ATOM      2  C   UNL     1      42.306 132.779  18.891  1.00  0.00    -0.016 A 
ATOM      3  C   UNL     1      41.154 133.580  19.100  1.00  0.00     0.045 A 
ATOM      4  Cl  UNL     1      40.548 133.914  20.718  1.00  0.00    -0.084 Cl
ATOM      5  C   UNL     1      40.499 134.173  17.997  1.00  0.00     0.033 A 
ATOM      6  C   UNL     1      41.001 134.000  16.685  1.00  0.00     0.065 A 
ATOM      7  C   UNL     1      42.075 133.127  16.514  1.00  0.00     0.081 A 
ATOM      8  C   UNL     1      42.627 132.466  17.572  1.00  0.00    -0.004 A 
ATOM      9  C   UNL     1      43.807 131.715  17.108  1.00  0.00     0.109 C 
ATOM     10  C   UNL     1      43.901 132.253  15.703  1.00  0.00     0.206 C 
ATOM     11  N   UNL     1      42.891 133.003  15.360  1.00  0.00    -0.216 NA
ATOM     12  C   UNL     1      44.987 131.998  18.033  1.00  0.00     0.019 C 
ATOM     13  C   UNL     1      44.573 131.666  19.485  1.00  0.00     0.014 C 
ENDROOT
BRANCH   1  14
ATOM     14  C   UNL     1      43.742 133.672  20.774  1.00  0.00     0.005 C 
BRANCH  14  15
ATOM     15  C   UNL     1      44.593 134.605  20.330  1.00  0.00     0.049 C 
ATOM     16  O   UNL     1      44.439 135.102  19.039  1.00  0.00    -0.547 OA
BRANCH  15  17
ATOM     17  O   UNL     1      45.634 135.068  21.136  1.00  0.00    -0.601 OA
BRANCH  17  18
ATOM     18  C   UNL     1      45.795 136.439  21.467  1.00  0.00     0.160 C 
BRANCH  18  19
ATOM     19  C   UNL     1      44.597 136.910  22.162  1.00  0.00    -0.095 C 
ATOM     20  C   UNL     1      43.611 137.300  22.735  1.00  0.00     0.005 C 
ENDBRANCH  18  19
ENDBRANCH  17  18
ENDBRANCH  15  17
ENDBRANCH  14  15
ENDBRANCH   1  14
BRANCH   6  21
ATOM     21  N   UNL     1      40.464 134.702  15.557  1.00  0.00    -0.058 NA
BRANCH  21  22
ATOM     22  N   UNL     1      39.843 134.127  14.662  1.00  0.00     0.005 N 
ATOM     23  N   UNL     1      39.224 133.553  13.768  1.00  0.00    -0.003 NA
ENDBRANCH  21  22
ENDBRANCH   6  21
BRANCH  10  24
ATOM     24  O   UNL     1      44.957 131.935  14.842  1.00  0.00    -0.410 OA
BRANCH  24  25
ATOM     25  C   UNL     1      45.016 130.795  14.028  1.00  0.00     0.324 C 
ATOM     26  O   UNL     1      44.019 130.429  13.346  1.00  0.00    -0.251 OA
BRANCH  25  27
ATOM     27  C   UNL     1      46.293 130.000  13.980  1.00  0.00     0.201 C 
ATOM     28  C   UNL     1      47.019 130.073  15.329  1.00  0.00     0.030 C 
BRANCH  27  29
ATOM     29  C   UNL     1      47.191 130.469  12.822  1.00  0.00     0.401 C 
ATOM     30  F   UNL     1      48.096 129.475  12.495  1.00  0.00    -0.170 F 
ATOM     31  F   UNL     1      47.890 131.612  13.174  1.00  0.00    -0.170 F 
ATOM     32  F   UNL     1      46.417 130.741  11.707  1.00  0.00    -0.170 F 
ENDBRANCH  27  29
ENDBRANCH  25  27
ENDBRANCH  24  25
ENDBRANCH  10  24
TORSDOF 11
ENDMDL
MODEL 7
REMARK VINA RESULT:      -7.1      1.588      2.067
REMARK SMILES C#CCO/C([O-])=C\[C@@H]1CC[C@@H]2C(OC(=O)[C@H](C)C(F)(F)F)=Nc3c(N=[N+]=[N-])cc(Cl)c1c32
REMARK SMILES IDX 8 1 31 2 29 3 30 4 28 5 24 6 23 7 32 8 11 9 12 10 22 11
REMARK SMILES IDX 10 12 9 13 7 14 5 15 6 16 4 17 3 18 2 19 1 20 25 21 26 22
REMARK SMILES IDX 27 23 13 24 14 25 15 26 16 27 17 28 18 29 19 30 20 31 21 32
REMARK H PARENT
ROOT
ATOM      1  C   UNL     1      43.039 135.301  17.142  1.00  0.00     0.045 C 
ATOM      2  C   UNL     1      43.617 134.555  18.344  1.00  0.00    -0.016 A 
ATOM      3  C   UNL     1      43.269 134.849  19.688  1.00  0.00     0.045 A 
ATOM      4  Cl  UNL     1      42.474 136.357  20.123  1.00  0.00    -0.084 Cl
ATOM      5  C   UNL     1      43.514 133.896  20.702  1.00  0.00     0.033 A 
ATOM      6  C   UNL     1      44.075 132.635  20.385  1.00  0.00     0.065 A 
ATOM      7  C   UNL     1      44.491 132.426  19.070  1.00  0.00     0.081 A 
ATOM      8  C   UNL     1      44.360 133.398  18.122  1.00  0.00    -0.004 A 
ATOM      9  C   UNL     1      44.772 132.855  16.815  1.00  0.00     0.109 C 
ATOM     10  C   UNL     1      44.936 131.406  17.195  1.00  0.00     0.206 C 
ATOM     11  N   UNL     1      44.831 131.183  18.475  1.00  0.00    -0.216 NA
ATOM     12  C   UNL     1      43.707 133.176  15.770  1.00  0.00     0.019 C 
ATOM     13  C   UNL     1      43.465 134.703  15.759  1.00  0.00     0.014 C 
ENDROOT
BRANCH   1  14
ATOM     14  C   UNL     1      41.528 135.423  17.209  1.00  0.00     0.005 C 
BRANCH  14  15
ATOM     15  C   UNL     1      40.830 136.511  16.860  1.00  0.00     0.049 C 
ATOM     16  O   UNL     1      41.424 137.764  16.983  1.00  0.00    -0.547 OA
BRANCH  15  17
ATOM     17  O   UNL     1      39.519 136.403  16.394  1.00  0.00    -0.601 OA
BRANCH  17  18
ATOM     18  C   UNL     1      39.197 136.378  15.011  1.00  0.00     0.160 C 
BRANCH  18  19
ATOM     19  C   UNL     1      38.881 135.006  14.616  1.00  0.00    -0.095 C 
ATOM     20  C   UNL     1      38.622 133.874  14.291  1.00  0.00     0.005 C 
ENDBRANCH  18  19
ENDBRANCH  17  18
ENDBRANCH  15  17
ENDBRANCH  14  15
ENDBRANCH   1  14
BRANCH   6  21
ATOM     21  N   UNL     1      44.200 131.583  21.349  1.00  0.00    -0.058 NA
BRANCH  21  22
ATOM     22  N   UNL     1      43.667 131.644  22.459  1.00  0.00     0.005 N 
ATOM     23  N   UNL     1      43.136 131.708  23.566  1.00  0.00    -0.003 NA
ENDBRANCH  21  22
ENDBRANCH   6  21
BRANCH  10  24
ATOM     24  O   UNL     1      45.217 130.405  16.257  1.00  0.00    -0.410 OA
BRANCH  24  25
ATOM     25  C   UNL     1      46.263 130.449  15.324  1.00  0.00     0.324 C 
ATOM     26  O   UNL     1      47.420 130.044  15.624  1.00  0.00    -0.251 OA
BRANCH  25  27
ATOM     27  C   UNL     1      45.989 130.994  13.948  1.00  0.00     0.201 C 
ATOM     28  C   UNL     1      44.609 130.538  13.459  1.00  0.00     0.030 C 
BRANCH  27  29
ATOM     29  C   UNL     1      47.103 130.594  12.966  1.00  0.00     0.401 C 
ATOM     30  F   UNL     1      47.492 129.288  13.200  1.00  0.00    -0.170 F 
ATOM     31  F   UNL     1      48.205 131.421  13.109  1.00  0.00    -0.170 F 
ATOM     32  F   UNL     1      46.639 130.687  11.665  1.00  0.00    -0.170 F 
ENDBRANCH  27  29
ENDBRANCH  25  27
ENDBRANCH  24  25
ENDBRANCH  10  24
TORSDOF 11
ENDMDL
MODEL 8
REMARK VINA RESULT:      -7.0      3.887      6.197
REMARK SMILES C#CCO/C([O-])=C\[C@@H]1CC[C@@H]2C(OC(=O)[C@H](C)C(F)(F)F)=Nc3c(N=[N+]=[N-])cc(Cl)c1c32
REMARK SMILES IDX 8 1 31 2 29 3 30 4 28 5 24 6 23 7 32 8 11 9 12 10 22 11
REMARK SMILES IDX 10 12 9 13 7 14 5 15 6 16 4 17 3 18 2 19 1 20 25 21 26 22
REMARK SMILES IDX 27 23 13 24 14 25 15 26 16 27 17 28 18 29 19 30 20 31 21 32
REMARK H PARENT
ROOT
ATOM      1  C   UNL     1      43.735 132.669  19.265  1.00  0.00     0.045 C 
ATOM      2  C   UNL     1      42.563 132.974  18.334  1.00  0.00    -0.016 A 
ATOM      3  C   UNL     1      41.520 133.879  18.660  1.00  0.00     0.045 A 
ATOM      4  Cl  UNL     1      41.250 134.413  20.315  1.00  0.00    -0.084 Cl
ATOM      5  C   UNL     1      40.706 134.413  17.635  1.00  0.00     0.033 A 
ATOM      6  C   UNL     1      40.941 134.076  16.281  1.00  0.00     0.065 A 
ATOM      7  C   UNL     1      41.910 133.109  16.014  1.00  0.00     0.081 A 
ATOM      8  C   UNL     1      42.611 132.512  17.021  1.00  0.00    -0.004 A 
ATOM      9  C   UNL     1      43.636 131.628  16.436  1.00  0.00     0.109 C 
ATOM     10  C   UNL     1      43.496 132.020  14.988  1.00  0.00     0.206 C 
ATOM     11  N   UNL     1      42.487 132.810  14.753  1.00  0.00    -0.216 NA
ATOM     12  C   UNL     1      44.984 131.905  17.097  1.00  0.00     0.019 C 
ATOM     13  C   UNL     1      44.830 131.748  18.627  1.00  0.00     0.014 C 
ENDROOT
BRANCH   1  14
ATOM     14  C   UNL     1      44.377 133.928  19.819  1.00  0.00     0.005 C 
BRANCH  14  15
ATOM     15  C   UNL     1      44.980 134.020  21.010  1.00  0.00     0.049 C 
ATOM     16  O   UNL     1      44.257 133.723  22.161  1.00  0.00    -0.547 OA
BRANCH  15  17
ATOM     17  O   UNL     1      46.312 134.426  21.109  1.00  0.00    -0.601 OA
BRANCH  17  18
ATOM     18  C   UNL     1      46.741 135.434  22.014  1.00  0.00     0.160 C 
BRANCH  18  19
ATOM     19  C   UNL     1      48.067 135.905  21.614  1.00  0.00    -0.095 C 
ATOM     20  C   UNL     1      49.159 136.295  21.285  1.00  0.00     0.005 C 
ENDBRANCH  18  19
ENDBRANCH  17  18
ENDBRANCH  15  17
ENDBRANCH  14  15
ENDBRANCH   1  14
BRANCH   6  21
ATOM     21  N   UNL     1      40.245 134.707  15.198  1.00  0.00    -0.058 NA
BRANCH  21  22
ATOM     22  N   UNL     1      39.481 134.083  14.459  1.00  0.00     0.005 N 
ATOM     23  N   UNL     1      38.719 133.460  13.724  1.00  0.00    -0.003 NA
ENDBRANCH  21  22
ENDBRANCH   6  21
BRANCH  10  24
ATOM     24  O   UNL     1      44.352 131.539  13.989  1.00  0.00    -0.410 OA
BRANCH  24  25
ATOM     25  C   UNL     1      45.271 130.493  14.154  1.00  0.00     0.324 C 
ATOM     26  O   UNL     1      44.922 129.395  14.670  1.00  0.00    -0.251 OA
BRANCH  25  27
ATOM     27  C   UNL     1      46.693 130.696  13.705  1.00  0.00     0.201 C 
ATOM     28  C   UNL     1      46.787 130.620  12.176  1.00  0.00     0.030 C 
BRANCH  27  29
ATOM     29  C   UNL     1      47.635 129.688  14.386  1.00  0.00     0.401 C 
ATOM     30  F   UNL     1      47.587 129.852  15.759  1.00  0.00    -0.170 F 
ATOM     31  F   UNL     1      48.940 129.869  13.959  1.00  0.00    -0.170 F 
ATOM     32  F   UNL     1      47.239 128.397  14.084  1.00  0.00    -0.170 F 
ENDBRANCH  27  29
ENDBRANCH  25  27
ENDBRANCH  24  25
ENDBRANCH  10  24
TORSDOF 11
ENDMDL
MODEL 9
REMARK VINA RESULT:      -7.0      3.577      6.047
REMARK SMILES C#CCO/C([O-])=C\[C@@H]1CC[C@@H]2C(OC(=O)[C@H](C)C(F)(F)F)=Nc3c(N=[N+]=[N-])cc(Cl)c1c32
REMARK SMILES IDX 8 1 31 2 29 3 30 4 28 5 24 6 23 7 32 8 11 9 12 10 22 11
REMARK SMILES IDX 10 12 9 13 7 14 5 15 6 16 4 17 3 18 2 19 1 20 25 21 26 22
REMARK SMILES IDX 27 23 13 24 14 25 15 26 16 27 17 28 18 29 19 30 20 31 21 32
REMARK H PARENT
ROOT
ATOM      1  C   UNL     1      43.236 132.715  19.543  1.00  0.00     0.045 C 
ATOM      2  C   UNL     1      42.262 132.992  18.399  1.00  0.00    -0.016 A 
ATOM      3  C   UNL     1      41.143 133.856  18.516  1.00  0.00     0.045 A 
ATOM      4  Cl  UNL     1      40.529 134.357  20.088  1.00  0.00    -0.084 Cl
ATOM      5  C   UNL     1      40.529 134.375  17.354  1.00  0.00     0.033 A 
ATOM      6  C   UNL     1      41.041 134.066  16.071  1.00  0.00     0.065 A 
ATOM      7  C   UNL     1      42.079 133.137  15.997  1.00  0.00     0.081 A 
ATOM      8  C   UNL     1      42.587 132.550  17.118  1.00  0.00    -0.004 A 
ATOM      9  C   UNL     1      43.740 131.712  16.744  1.00  0.00     0.109 C 
ATOM     10  C   UNL     1      43.877 132.118  15.299  1.00  0.00     0.206 C 
ATOM     11  N   UNL     1      42.906 132.876  14.873  1.00  0.00    -0.216 NA
ATOM     12  C   UNL     1      44.919 132.026  17.662  1.00  0.00     0.019 C 
ATOM     13  C   UNL     1      44.469 131.842  19.129  1.00  0.00     0.014 C 
ENDROOT
BRANCH   1  14
ATOM     14  C   UNL     1      43.708 133.988  20.222  1.00  0.00     0.005 C 
BRANCH  14  15
ATOM     15  C   UNL     1      44.016 134.095  21.520  1.00  0.00     0.049 C 
ATOM     16  O   UNL     1      45.174 134.775  21.887  1.00  0.00    -0.547 OA
BRANCH  15  17
ATOM     17  O   UNL     1      43.204 133.522  22.500  1.00  0.00    -0.601 OA
BRANCH  17  18
ATOM     18  C   UNL     1      43.719 133.021  23.725  1.00  0.00     0.160 C 
BRANCH  18  19
ATOM     19  C   UNL     1      43.533 131.571  23.768  1.00  0.00    -0.095 C 
ATOM     20  C   UNL     1      43.379 130.376  23.801  1.00  0.00     0.005 C 
ENDBRANCH  18  19
ENDBRANCH  17  18
ENDBRANCH  15  17
ENDBRANCH  14  15
ENDBRANCH   1  14
BRANCH   6  21
ATOM     21  N   UNL     1      40.552 134.687  14.876  1.00  0.00    -0.058 NA
BRANCH  21  22
ATOM     22  N   UNL     1      39.646 134.190  14.204  1.00  0.00     0.005 N 
ATOM     23  N   UNL     1      38.744 133.694  13.531  1.00  0.00    -0.003 NA
ENDBRANCH  21  22
ENDBRANCH   6  21
BRANCH  10  24
ATOM     24  O   UNL     1      44.931 131.682  14.488  1.00  0.00    -0.410 OA
BRANCH  24  25
ATOM     25  C   UNL     1      45.121 130.361  14.059  1.00  0.00     0.324 C 
ATOM     26  O   UNL     1      44.140 129.630  13.747  1.00  0.00    -0.251 OA
BRANCH  25  27
ATOM     27  C   UNL     1      46.521 129.816  13.976  1.00  0.00     0.201 C 
ATOM     28  C   UNL     1      47.267 130.056  15.295  1.00  0.00     0.030 C 
BRANCH  27  29
ATOM     29  C   UNL     1      47.276 130.414  12.777  1.00  0.00     0.401 C 
ATOM     30  F   UNL     1      48.142 129.474  12.248  1.00  0.00    -0.170 F 
ATOM     31  F   UNL     1      48.005 131.528  13.160  1.00  0.00    -0.170 F 
ATOM     32  F   UNL     1      46.377 130.784  11.792  1.00  0.00    -0.170 F 
ENDBRANCH  27  29
ENDBRANCH  25  27
ENDBRANCH  24  25
ENDBRANCH  10  24
TORSDOF 11
ENDMDL


