REMARK SMILES Cc1nnn(C/C(C#N)=N\c2cccc(C#N)c2C)c1-c1cc2ccccc2c2ccccc12
REMARK SMILES IDX 10 1 11 2 13 3 14 4 12 5 15 6 18 7 19 8 16 9 17 10 7 11 8 12
REMARK SMILES IDX 9 13 6 14 5 15 4 16 20 17 3 18 2 19 1 20 21 21 22 22 34 23
REMARK SMILES IDX 23 24 33 25 29 26 24 27 28 28 32 29 30 30 25 31 27 32 31 33
REMARK SMILES IDX 26 34
REMARK H PARENT
ROOT
ATOM      1  N   UNL     1      -2.452  -1.254  -2.202  1.00  0.00    -0.240 NA
ENDROOT
BRANCH   1   2
ATOM      2  C   UNL     1      -2.519  -0.151  -1.281  1.00  0.00     0.068 A 
ATOM      3  C   UNL     1      -3.423   0.854   0.739  1.00  0.00     0.004 A 
ATOM      4  C   UNL     1      -2.781   2.053   0.440  1.00  0.00     0.020 A 
ATOM      5  C   UNL     1      -3.318  -0.232  -0.128  1.00  0.00     0.029 A 
ATOM      6  C   UNL     1      -2.039   2.182  -0.741  1.00  0.00     0.057 A 
ATOM      7  C   UNL     1      -1.897   1.075  -1.613  1.00  0.00    -0.008 A 
ATOM      8  C   UNL     1      -1.164   1.215  -2.927  1.00  0.00     0.048 C 
BRANCH   6   9
ATOM      9  C   UNL     1      -1.441   3.462  -1.036  1.00  0.00     0.099 C 
ATOM     10  N   UNL     1      -0.959   4.488  -1.271  1.00  0.00    -0.192 NA
ENDBRANCH   6   9
ENDBRANCH   1   2
BRANCH   1  11
ATOM     11  C   UNL     1      -2.190  -2.507  -1.952  1.00  0.00     0.139 C 
BRANCH  11  12
ATOM     12  C   UNL     1      -2.213  -3.429  -3.055  1.00  0.00     0.117 C 
ATOM     13  N   UNL     1      -2.231  -4.171  -3.943  1.00  0.00    -0.191 NA
ENDBRANCH  11  12
BRANCH  11  14
ATOM     14  C   UNL     1      -1.755  -3.029  -0.602  1.00  0.00     0.214 C 
BRANCH  14  15
ATOM     15  N   UNL     1      -0.351  -3.434  -0.638  1.00  0.00    -0.238 N 
ATOM     16  N   UNL     1       0.056  -4.649  -0.974  1.00  0.00    -0.066 NA
ATOM     17  C   UNL     1       0.741  -2.678  -0.406  1.00  0.00     0.093 A 
ATOM     18  N   UNL     1       1.379  -4.723  -0.947  1.00  0.00    -0.135 NA
ATOM     19  C   UNL     1       1.832  -3.508  -0.579  1.00  0.00     0.088 A 
ATOM     20  C   UNL     1       3.279  -3.161  -0.430  1.00  0.00     0.071 C 
BRANCH  17  21
ATOM     21  C   UNL     1       0.749  -1.259   0.023  1.00  0.00     0.010 A 
ATOM     22  C   UNL     1       0.190  -0.953   1.264  1.00  0.00     0.019 A 
ATOM     23  C   UNL     1       1.341  -0.235  -0.753  1.00  0.00    -0.008 A 
ATOM     24  C   UNL     1       0.188   0.353   1.754  1.00  0.00    -0.017 A 
ATOM     25  C   UNL     1       1.865  -0.513  -2.035  1.00  0.00     0.009 A 
ATOM     26  C   UNL     1       1.393   1.102  -0.251  1.00  0.00    -0.010 A 
ATOM     27  C   UNL     1      -0.426   0.618   2.989  1.00  0.00     0.009 A 
ATOM     28  C   UNL     1       0.796   1.401   1.012  1.00  0.00    -0.010 A 
ATOM     29  C   UNL     1       2.476   0.484  -2.789  1.00  0.00     0.001 A 
ATOM     30  C   UNL     1       2.032   2.090  -1.043  1.00  0.00     0.009 A 
ATOM     31  C   UNL     1      -0.452   1.913   3.500  1.00  0.00     0.001 A 
ATOM     32  C   UNL     1       0.758   2.708   1.562  1.00  0.00     0.009 A 
ATOM     33  C   UNL     1       2.568   1.776  -2.291  1.00  0.00     0.001 A 
ATOM     34  C   UNL     1       0.138   2.953   2.789  1.00  0.00     0.001 A 
ENDBRANCH  17  21
ENDBRANCH  14  15
ENDBRANCH  11  14
ENDBRANCH   1  11
TORSDOF 7


