MODEL 1
REMARK VINA RESULT:      -5.9      0.000      0.000
REMARK SMILES C#Cc1ccc(-n2cc(CCCCN(C)[C@@H](C)C#N)nn2)cc(N=C=O)ccc2ccccc12
REMARK SMILES IDX 11 1 10 2 9 3 7 4 21 5 8 6 20 7 6 8 3 9 4 10 34 11 5 12
REMARK SMILES IDX 33 13 29 14 32 15 28 16 30 17 22 18 31 19 27 20 23 21 2 22
REMARK SMILES IDX 1 23 24 24 25 25 26 26 12 27 13 28 14 29 15 30 16 31 17 32
REMARK SMILES IDX 18 33 19 34
REMARK H PARENT
ROOT
ATOM      1  C   UNL     1      45.525 130.411  17.921  1.00  0.00     0.008 C 
ENDROOT
BRANCH   1   2
ATOM      2  C   UNL     1      45.167 131.825  18.416  1.00  0.00     0.060 C 
BRANCH   2   3
ATOM      3  C   UNL     1      44.220 132.546  17.499  1.00  0.00     0.083 A 
ATOM      4  N   UNL     1      42.432 133.337  16.531  1.00  0.00    -0.220 N 
ATOM      5  N   UNL     1      43.503 133.921  16.013  1.00  0.00    -0.062 NA
ATOM      6  C   UNL     1      42.843 132.469  17.475  1.00  0.00     0.140 A 
ATOM      7  N   UNL     1      44.605 133.464  16.590  1.00  0.00    -0.135 NA
BRANCH   4   8
ATOM      8  C   UNL     1      41.078 133.588  16.109  1.00  0.00     0.069 A 
ATOM      9  C   UNL     1      40.831 134.979  18.825  1.00  0.00     0.032 A 
ATOM     10  C   UNL     1      40.032 133.917  18.341  1.00  0.00     0.020 A 
ATOM     11  C   UNL     1      41.468 135.945  17.995  1.00  0.00    -0.003 A 
ATOM     12  C   UNL     1      40.018 133.436  17.021  1.00  0.00     0.030 A 
ATOM     13  C   UNL     1      42.750 136.413  18.357  1.00  0.00     0.010 A 
ATOM     14  C   UNL     1      40.924 136.369  16.744  1.00  0.00    -0.017 A 
ATOM     15  C   UNL     1      43.522 137.150  17.459  1.00  0.00     0.001 A 
ATOM     16  C   UNL     1      39.559 136.203  16.442  1.00  0.00     0.011 A 
ATOM     17  C   UNL     1      41.746 137.049  15.827  1.00  0.00     0.009 A 
ATOM     18  C   UNL     1      40.823 133.981  14.781  1.00  0.00     0.057 A 
ATOM     19  C   UNL     1      43.037 137.435  16.184  1.00  0.00     0.001 A 
ATOM     20  C   UNL     1      39.070 135.702  15.224  1.00  0.00     0.030 A 
ATOM     21  C   UNL     1      39.750 134.812  14.364  1.00  0.00     0.078 A 
BRANCH   9  22
ATOM     22  C   UNL     1      40.983 135.069  20.259  1.00  0.00    -0.070 C 
ATOM     23  C   UNL     1      41.109 135.142  21.455  1.00  0.00     0.010 C 
ENDBRANCH   9  22
BRANCH  21  24
ATOM     24  N   UNL     1      39.292 134.774  13.001  1.00  0.00    -0.168 NA
BRANCH  24  25
ATOM     25  C   UNL     1      38.329 135.475  12.549  1.00  0.00     0.240 C 
ATOM     26  O   UNL     1      37.394 136.155  12.110  1.00  0.00    -0.211 OA
ENDBRANCH  24  25
ENDBRANCH  21  24
ENDBRANCH   4   8
ENDBRANCH   2   3
ENDBRANCH   1   2
BRANCH   1  27
ATOM     27  C   UNL     1      44.893 130.096  16.555  1.00  0.00     0.016 C 
BRANCH  27  28
ATOM     28  C   UNL     1      45.934 129.596  15.544  1.00  0.00     0.085 C 
BRANCH  28  29
ATOM     29  N   UNL     1      45.501 129.898  14.155  1.00  0.00    -0.291 NA
ATOM     30  C   UNL     1      44.268 130.716  14.194  1.00  0.00     0.106 C 
BRANCH  29  31
ATOM     31  C   UNL     1      46.589 130.539  13.361  1.00  0.00     0.157 C 
ATOM     32  C   UNL     1      47.112 131.798  14.074  1.00  0.00     0.041 C 
BRANCH  31  33
ATOM     33  C   UNL     1      47.748 129.639  13.173  1.00  0.00     0.081 C 
ATOM     34  N   UNL     1      48.654 128.933  13.024  1.00  0.00    -0.197 NA
ENDBRANCH  31  33
ENDBRANCH  29  31
ENDBRANCH  28  29
ENDBRANCH  27  28
ENDBRANCH   1  27
TORSDOF 11
ENDMDL
MODEL 2
REMARK VINA RESULT:      -5.7      2.479      3.663
REMARK SMILES C#Cc1ccc(-n2cc(CCCCN(C)[C@@H](C)C#N)nn2)cc(N=C=O)ccc2ccccc12
REMARK SMILES IDX 11 1 10 2 9 3 7 4 21 5 8 6 20 7 6 8 3 9 4 10 34 11 5 12
REMARK SMILES IDX 33 13 29 14 32 15 28 16 30 17 22 18 31 19 27 20 23 21 2 22
REMARK SMILES IDX 1 23 24 24 25 25 26 26 12 27 13 28 14 29 15 30 16 31 17 32
REMARK SMILES IDX 18 33 19 34
REMARK H PARENT
ROOT
ATOM      1  C   UNL     1      43.124 133.164  14.952  1.00  0.00     0.008 C 
ENDROOT
BRANCH   1   2
ATOM      2  C   UNL     1      42.303 133.493  16.213  1.00  0.00     0.060 C 
BRANCH   2   3
ATOM      3  C   UNL     1      40.845 133.715  15.923  1.00  0.00     0.083 A 
ATOM      4  N   UNL     1      38.950 134.232  14.974  1.00  0.00    -0.220 N 
ATOM      5  N   UNL     1      38.709 133.589  16.107  1.00  0.00    -0.062 NA
ATOM      6  C   UNL     1      40.284 134.324  14.820  1.00  0.00     0.140 A 
ATOM      7  N   UNL     1      39.845 133.255  16.702  1.00  0.00    -0.135 NA
BRANCH   4   8
ATOM      8  C   UNL     1      37.934 134.757  14.098  1.00  0.00     0.069 A 
ATOM      9  C   UNL     1      37.250 136.543  16.489  1.00  0.00     0.032 A 
ATOM     10  C   UNL     1      36.375 135.662  15.811  1.00  0.00     0.020 A 
ATOM     11  C   UNL     1      38.368 137.184  15.885  1.00  0.00    -0.003 A 
ATOM     12  C   UNL     1      36.643 135.015  14.594  1.00  0.00     0.030 A 
ATOM     13  C   UNL     1      39.546 137.356  16.644  1.00  0.00     0.010 A 
ATOM     14  C   UNL     1      38.397 137.547  14.503  1.00  0.00    -0.017 A 
ATOM     15  C   UNL     1      40.742 137.734  16.033  1.00  0.00     0.001 A 
ATOM     16  C   UNL     1      37.213 137.693  13.757  1.00  0.00     0.011 A 
ATOM     17  C   UNL     1      39.628 137.855  13.895  1.00  0.00     0.009 A 
ATOM     18  C   UNL     1      38.240 135.006  12.746  1.00  0.00     0.057 A 
ATOM     19  C   UNL     1      40.792 137.945  14.657  1.00  0.00     0.001 A 
ATOM     20  C   UNL     1      37.014 137.163  12.471  1.00  0.00     0.030 A 
ATOM     21  C   UNL     1      37.644 136.015  11.944  1.00  0.00     0.078 A 
BRANCH   9  22
ATOM     22  C   UNL     1      36.957 136.796  17.882  1.00  0.00    -0.070 C 
ATOM     23  C   UNL     1      36.712 137.008  19.042  1.00  0.00     0.010 C 
ENDBRANCH   9  22
BRANCH  21  24
ATOM     24  N   UNL     1      37.654 135.899  10.510  1.00  0.00    -0.168 NA
BRANCH  24  25
ATOM     25  C   UNL     1      38.670 136.136   9.779  1.00  0.00     0.240 C 
ATOM     26  O   UNL     1      39.656 136.366   9.069  1.00  0.00    -0.211 OA
ENDBRANCH  24  25
ENDBRANCH  21  24
ENDBRANCH   4   8
ENDBRANCH   2   3
ENDBRANCH   1   2
BRANCH   1  27
ATOM     27  C   UNL     1      44.475 132.513  15.291  1.00  0.00     0.016 C 
BRANCH  27  28
ATOM     28  C   UNL     1      44.616 131.123  14.658  1.00  0.00     0.085 C 
BRANCH  28  29
ATOM     29  N   UNL     1      45.769 130.393  15.249  1.00  0.00    -0.291 NA
ATOM     30  C   UNL     1      45.426 128.958  15.372  1.00  0.00     0.106 C 
BRANCH  29  31
ATOM     31  C   UNL     1      47.024 130.619  14.477  1.00  0.00     0.157 C 
ATOM     32  C   UNL     1      48.044 129.501  14.759  1.00  0.00     0.041 C 
BRANCH  31  33
ATOM     33  C   UNL     1      46.788 130.626  13.016  1.00  0.00     0.081 C 
ATOM     34  N   UNL     1      46.605 130.634  11.873  1.00  0.00    -0.197 NA
ENDBRANCH  31  33
ENDBRANCH  29  31
ENDBRANCH  28  29
ENDBRANCH  27  28
ENDBRANCH   1  27
TORSDOF 11
ENDMDL
MODEL 3
REMARK VINA RESULT:      -5.4      3.038      4.942
REMARK SMILES C#Cc1ccc(-n2cc(CCCCN(C)[C@@H](C)C#N)nn2)cc(N=C=O)ccc2ccccc12
REMARK SMILES IDX 11 1 10 2 9 3 7 4 21 5 8 6 20 7 6 8 3 9 4 10 34 11 5 12
REMARK SMILES IDX 33 13 29 14 32 15 28 16 30 17 22 18 31 19 27 20 23 21 2 22
REMARK SMILES IDX 1 23 24 24 25 25 26 26 12 27 13 28 14 29 15 30 16 31 17 32
REMARK SMILES IDX 18 33 19 34
REMARK H PARENT
ROOT
ATOM      1  C   UNL     1      45.319 131.943  16.435  1.00  0.00     0.008 C 
ENDROOT
BRANCH   1   2
ATOM      2  C   UNL     1      45.078 131.377  17.847  1.00  0.00     0.060 C 
BRANCH   2   3
ATOM      3  C   UNL     1      44.130 132.212  18.661  1.00  0.00     0.083 A 
ATOM      4  N   UNL     1      43.140 133.864  19.685  1.00  0.00    -0.220 N 
ATOM      5  N   UNL     1      42.361 132.792  19.732  1.00  0.00    -0.062 NA
ATOM      6  C   UNL     1      44.260 133.539  19.013  1.00  0.00     0.140 A 
ATOM      7  N   UNL     1      42.936 131.774  19.109  1.00  0.00    -0.135 NA
BRANCH   4   8
ATOM      8  C   UNL     1      42.824 135.133  20.290  1.00  0.00     0.069 A 
ATOM      9  C   UNL     1      42.606 136.095  17.392  1.00  0.00     0.032 A 
ATOM     10  C   UNL     1      43.443 136.626  18.400  1.00  0.00     0.020 A 
ATOM     11  C   UNL     1      41.360 135.453  17.640  1.00  0.00    -0.003 A 
ATOM     12  C   UNL     1      43.377 136.317  19.768  1.00  0.00     0.030 A 
ATOM     13  C   UNL     1      40.995 134.344  16.845  1.00  0.00     0.010 A 
ATOM     14  C   UNL     1      40.518 135.800  18.741  1.00  0.00    -0.017 A 
ATOM     15  C   UNL     1      39.925 133.526  17.207  1.00  0.00     0.001 A 
ATOM     16  C   UNL     1      40.633 137.043  19.391  1.00  0.00     0.011 A 
ATOM     17  C   UNL     1      39.490 134.921  19.130  1.00  0.00     0.009 A 
ATOM     18  C   UNL     1      41.964 135.179  21.404  1.00  0.00     0.057 A 
ATOM     19  C   UNL     1      39.199 133.791  18.366  1.00  0.00     0.001 A 
ATOM     20  C   UNL     1      40.652 137.211  20.785  1.00  0.00     0.030 A 
ATOM     21  C   UNL     1      41.099 136.258  21.726  1.00  0.00     0.078 A 
BRANCH   9  22
ATOM     22  C   UNL     1      43.069 136.237  16.030  1.00  0.00    -0.070 C 
ATOM     23  C   UNL     1      43.454 136.355  14.894  1.00  0.00     0.010 C 
ENDBRANCH   9  22
BRANCH  21  24
ATOM     24  N   UNL     1      40.634 136.434  23.077  1.00  0.00    -0.168 NA
BRANCH  24  25
ATOM     25  C   UNL     1      39.433 136.722  23.389  1.00  0.00     0.240 C 
ATOM     26  O   UNL     1      38.267 137.001  23.691  1.00  0.00    -0.211 OA
ENDBRANCH  24  25
ENDBRANCH  21  24
ENDBRANCH   4   8
ENDBRANCH   2   3
ENDBRANCH   1   2
BRANCH   1  27
ATOM     27  C   UNL     1      44.121 131.704  15.500  1.00  0.00     0.016 C 
BRANCH  27  28
ATOM     28  C   UNL     1      44.471 130.744  14.356  1.00  0.00     0.085 C 
BRANCH  28  29
ATOM     29  N   UNL     1      45.657 129.920  14.707  1.00  0.00    -0.291 NA
ATOM     30  C   UNL     1      45.211 128.698  15.413  1.00  0.00     0.106 C 
BRANCH  29  31
ATOM     31  C   UNL     1      46.497 129.618  13.512  1.00  0.00     0.157 C 
ATOM     32  C   UNL     1      46.387 130.745  12.471  1.00  0.00     0.041 C 
BRANCH  31  33
ATOM     33  C   UNL     1      47.931 129.487  13.856  1.00  0.00     0.081 C 
ATOM     34  N   UNL     1      49.052 129.386  14.126  1.00  0.00    -0.197 NA
ENDBRANCH  31  33
ENDBRANCH  29  31
ENDBRANCH  28  29
ENDBRANCH  27  28
ENDBRANCH   1  27
TORSDOF 11
ENDMDL
MODEL 4
REMARK VINA RESULT:      -5.4      3.331      5.313
REMARK SMILES C#Cc1ccc(-n2cc(CCCCN(C)[C@@H](C)C#N)nn2)cc(N=C=O)ccc2ccccc12
REMARK SMILES IDX 11 1 10 2 9 3 7 4 21 5 8 6 20 7 6 8 3 9 4 10 34 11 5 12
REMARK SMILES IDX 33 13 29 14 32 15 28 16 30 17 22 18 31 19 27 20 23 21 2 22
REMARK SMILES IDX 1 23 24 24 25 25 26 26 12 27 13 28 14 29 15 30 16 31 17 32
REMARK SMILES IDX 18 33 19 34
REMARK H PARENT
ROOT
ATOM      1  C   UNL     1      43.530 133.204  15.729  1.00  0.00     0.008 C 
ENDROOT
BRANCH   1   2
ATOM      2  C   UNL     1      43.023 134.444  14.969  1.00  0.00     0.060 C 
BRANCH   2   3
ATOM      3  C   UNL     1      41.596 134.312  14.516  1.00  0.00     0.083 A 
ATOM      4  N   UNL     1      39.677 134.596  13.517  1.00  0.00    -0.220 N 
ATOM      5  N   UNL     1      39.647 133.463  14.205  1.00  0.00    -0.062 NA
ATOM      6  C   UNL     1      40.891 135.155  13.683  1.00  0.00     0.140 A 
ATOM      7  N   UNL     1      40.805 133.262  14.817  1.00  0.00    -0.135 NA
BRANCH   4   8
ATOM      8  C   UNL     1      38.572 135.123  12.759  1.00  0.00     0.069 A 
ATOM      9  C   UNL     1      37.290 135.516  15.511  1.00  0.00     0.032 A 
ATOM     10  C   UNL     1      36.760 134.779  14.427  1.00  0.00     0.020 A 
ATOM     11  C   UNL     1      38.163 136.632  15.371  1.00  0.00    -0.003 A 
ATOM     12  C   UNL     1      37.252 134.784  13.112  1.00  0.00     0.030 A 
ATOM     13  C   UNL     1      39.204 136.804  16.310  1.00  0.00     0.010 A 
ATOM     14  C   UNL     1      38.112 137.516  14.250  1.00  0.00    -0.017 A 
ATOM     15  C   UNL     1      40.234 137.716  16.076  1.00  0.00     0.001 A 
ATOM     16  C   UNL     1      36.964 137.614  13.442  1.00  0.00     0.011 A 
ATOM     17  C   UNL     1      39.198 138.375  13.997  1.00  0.00     0.009 A 
ATOM     18  C   UNL     1      38.819 135.973  11.664  1.00  0.00     0.057 A 
ATOM     19  C   UNL     1      40.251 138.471  14.906  1.00  0.00     0.001 A 
ATOM     20  C   UNL     1      36.979 137.618  12.037  1.00  0.00     0.030 A 
ATOM     21  C   UNL     1      37.956 137.009  11.220  1.00  0.00     0.078 A 
BRANCH   9  22
ATOM     22  C   UNL     1      36.894 135.090  16.834  1.00  0.00    -0.070 C 
ATOM     23  C   UNL     1      36.564 134.735  17.937  1.00  0.00     0.010 C 
ENDBRANCH   9  22
BRANCH  21  24
ATOM     24  N   UNL     1      38.041 137.492   9.867  1.00  0.00    -0.168 NA
BRANCH  24  25
ATOM     25  C   UNL     1      38.314 136.759   8.861  1.00  0.00     0.240 C 
ATOM     26  O   UNL     1      38.579 136.049   7.884  1.00  0.00    -0.211 OA
ENDBRANCH  24  25
ENDBRANCH  21  24
ENDBRANCH   4   8
ENDBRANCH   2   3
ENDBRANCH   1   2
BRANCH   1  27
ATOM     27  C   UNL     1      44.139 133.568  17.093  1.00  0.00     0.016 C 
BRANCH  27  28
ATOM     28  C   UNL     1      43.875 132.484  18.146  1.00  0.00     0.085 C 
BRANCH  28  29
ATOM     29  N   UNL     1      42.578 132.723  18.831  1.00  0.00    -0.291 NA
ATOM     30  C   UNL     1      41.544 131.843  18.241  1.00  0.00     0.106 C 
BRANCH  29  31
ATOM     31  C   UNL     1      42.692 132.563  20.309  1.00  0.00     0.157 C 
ATOM     32  C   UNL     1      43.794 131.549  20.662  1.00  0.00     0.041 C 
BRANCH  31  33
ATOM     33  C   UNL     1      43.045 133.832  20.983  1.00  0.00     0.081 C 
ATOM     34  N   UNL     1      43.322 134.824  21.511  1.00  0.00    -0.197 NA
ENDBRANCH  31  33
ENDBRANCH  29  31
ENDBRANCH  28  29
ENDBRANCH  27  28
ENDBRANCH   1  27
TORSDOF 11
ENDMDL
MODEL 5
REMARK VINA RESULT:      -5.2      2.049      2.686
REMARK SMILES C#Cc1ccc(-n2cc(CCCCN(C)[C@@H](C)C#N)nn2)cc(N=C=O)ccc2ccccc12
REMARK SMILES IDX 11 1 10 2 9 3 7 4 21 5 8 6 20 7 6 8 3 9 4 10 34 11 5 12
REMARK SMILES IDX 33 13 29 14 32 15 28 16 30 17 22 18 31 19 27 20 23 21 2 22
REMARK SMILES IDX 1 23 24 24 25 25 26 26 12 27 13 28 14 29 15 30 16 31 17 32
REMARK SMILES IDX 18 33 19 34
REMARK H PARENT
ROOT
ATOM      1  C   UNL     1      44.257 131.775  18.726  1.00  0.00     0.008 C 
ENDROOT
BRANCH   1   2
ATOM      2  C   UNL     1      43.771 133.216  18.483  1.00  0.00     0.060 C 
BRANCH   2   3
ATOM      3  C   UNL     1      42.351 133.282  17.995  1.00  0.00     0.083 A 
ATOM      4  N   UNL     1      40.508 133.849  16.974  1.00  0.00    -0.220 N 
ATOM      5  N   UNL     1      40.325 132.692  17.593  1.00  0.00    -0.062 NA
ATOM      6  C   UNL     1      41.775 134.249  17.197  1.00  0.00     0.140 A 
ATOM      7  N   UNL     1      41.433 132.319  18.217  1.00  0.00    -0.135 NA
BRANCH   4   8
ATOM      8  C   UNL     1      39.495 134.547  16.225  1.00  0.00     0.069 A 
ATOM      9  C   UNL     1      38.146 134.855  18.956  1.00  0.00     0.032 A 
ATOM     10  C   UNL     1      37.589 134.265  17.798  1.00  0.00     0.020 A 
ATOM     11  C   UNL     1      39.132 135.882  18.938  1.00  0.00    -0.003 A 
ATOM     12  C   UNL     1      38.134 134.322  16.505  1.00  0.00     0.030 A 
ATOM     13  C   UNL     1      40.146 135.870  19.922  1.00  0.00     0.010 A 
ATOM     14  C   UNL     1      39.219 136.851  17.892  1.00  0.00    -0.017 A 
ATOM     15  C   UNL     1      41.272 136.684  19.798  1.00  0.00     0.001 A 
ATOM     16  C   UNL     1      38.122 137.132  17.057  1.00  0.00     0.011 A 
ATOM     17  C   UNL     1      40.396 137.609  17.747  1.00  0.00     0.009 A 
ATOM     18  C   UNL     1      39.873 135.450  15.213  1.00  0.00     0.057 A 
ATOM     19  C   UNL     1      41.415 137.523  18.695  1.00  0.00     0.001 A 
ATOM     20  C   UNL     1      38.196 137.244  15.659  1.00  0.00     0.030 A 
ATOM     21  C   UNL     1      39.139 136.602  14.827  1.00  0.00     0.078 A 
BRANCH   9  22
ATOM     22  C   UNL     1      37.653 134.371  20.226  1.00  0.00    -0.070 C 
ATOM     23  C   UNL     1      37.244 133.968  21.285  1.00  0.00     0.010 C 
ENDBRANCH   9  22
BRANCH  21  24
ATOM     24  N   UNL     1      39.329 137.178  13.522  1.00  0.00    -0.168 NA
BRANCH  24  25
ATOM     25  C   UNL     1      39.206 138.419  13.261  1.00  0.00     0.240 C 
ATOM     26  O   UNL     1      39.086 139.624  13.009  1.00  0.00    -0.211 OA
ENDBRANCH  24  25
ENDBRANCH  21  24
ENDBRANCH   4   8
ENDBRANCH   2   3
ENDBRANCH   1   2
BRANCH   1  27
ATOM     27  C   UNL     1      45.276 131.319  17.669  1.00  0.00     0.016 C 
BRANCH  27  28
ATOM     28  C   UNL     1      45.024 131.982  16.308  1.00  0.00     0.085 C 
BRANCH  28  29
ATOM     29  N   UNL     1      44.071 131.176  15.501  1.00  0.00    -0.291 NA
ATOM     30  C   UNL     1      43.073 132.077  14.880  1.00  0.00     0.106 C 
BRANCH  29  31
ATOM     31  C   UNL     1      44.773 130.322  14.501  1.00  0.00     0.157 C 
ATOM     32  C   UNL     1      46.143 130.921  14.141  1.00  0.00     0.041 C 
BRANCH  31  33
ATOM     33  C   UNL     1      45.022 128.955  15.010  1.00  0.00     0.081 C 
ATOM     34  N   UNL     1      45.216 127.886  15.410  1.00  0.00    -0.197 NA
ENDBRANCH  31  33
ENDBRANCH  29  31
ENDBRANCH  28  29
ENDBRANCH  27  28
ENDBRANCH   1  27
TORSDOF 11
ENDMDL
MODEL 6
REMARK VINA RESULT:      -5.2      3.095      5.338
REMARK SMILES C#Cc1ccc(-n2cc(CCCCN(C)[C@@H](C)C#N)nn2)cc(N=C=O)ccc2ccccc12
REMARK SMILES IDX 11 1 10 2 9 3 7 4 21 5 8 6 20 7 6 8 3 9 4 10 34 11 5 12
REMARK SMILES IDX 33 13 29 14 32 15 28 16 30 17 22 18 31 19 27 20 23 21 2 22
REMARK SMILES IDX 1 23 24 24 25 25 26 26 12 27 13 28 14 29 15 30 16 31 17 32
REMARK SMILES IDX 18 33 19 34
REMARK H PARENT
ROOT
ATOM      1  C   UNL     1      42.533 131.756  13.777  1.00  0.00     0.008 C 
ENDROOT
BRANCH   1   2
ATOM      2  C   UNL     1      41.975 133.155  14.099  1.00  0.00     0.060 C 
BRANCH   2   3
ATOM      3  C   UNL     1      41.979 133.465  15.570  1.00  0.00     0.083 A 
ATOM      4  N   UNL     1      42.425 134.295  17.537  1.00  0.00    -0.220 N 
ATOM      5  N   UNL     1      41.334 133.547  17.617  1.00  0.00    -0.062 NA
ATOM      6  C   UNL     1      42.856 134.273  16.262  1.00  0.00     0.140 A 
ATOM      7  N   UNL     1      41.035 133.035  16.432  1.00  0.00    -0.135 NA
BRANCH   4   8
ATOM      8  C   UNL     1      43.036 134.974  18.651  1.00  0.00     0.069 A 
ATOM      9  C   UNL     1      42.419 137.500  17.035  1.00  0.00     0.032 A 
ATOM     10  C   UNL     1      43.685 137.085  17.509  1.00  0.00     0.020 A 
ATOM     11  C   UNL     1      41.183 137.180  17.664  1.00  0.00    -0.003 A 
ATOM     12  C   UNL     1      43.919 136.045  18.423  1.00  0.00     0.030 A 
ATOM     13  C   UNL     1      40.057 136.909  16.856  1.00  0.00     0.010 A 
ATOM     14  C   UNL     1      41.060 136.994  19.076  1.00  0.00    -0.017 A 
ATOM     15  C   UNL     1      38.905 136.341  17.401  1.00  0.00     0.001 A 
ATOM     16  C   UNL     1      42.012 137.517  19.971  1.00  0.00     0.011 A 
ATOM     17  C   UNL     1      39.919 136.354  19.593  1.00  0.00     0.009 A 
ATOM     18  C   UNL     1      42.746 134.558  19.965  1.00  0.00     0.057 A 
ATOM     19  C   UNL     1      38.850 136.029  18.758  1.00  0.00     0.001 A 
ATOM     20  C   UNL     1      42.570 136.802  21.044  1.00  0.00     0.030 A 
ATOM     21  C   UNL     1      42.733 135.401  21.107  1.00  0.00     0.078 A 
BRANCH   9  22
ATOM     22  C   UNL     1      42.413 138.308  15.836  1.00  0.00    -0.070 C 
ATOM     23  C   UNL     1      42.409 138.982  14.838  1.00  0.00     0.010 C 
ENDBRANCH   9  22
BRANCH  21  24
ATOM     24  N   UNL     1      42.900 134.841  22.422  1.00  0.00    -0.168 NA
BRANCH  24  25
ATOM     25  C   UNL     1      43.263 135.509  23.445  1.00  0.00     0.240 C 
ATOM     26  O   UNL     1      43.617 136.157  24.437  1.00  0.00    -0.211 OA
ENDBRANCH  24  25
ENDBRANCH  21  24
ENDBRANCH   4   8
ENDBRANCH   2   3
ENDBRANCH   1   2
BRANCH   1  27
ATOM     27  C   UNL     1      43.691 131.363  14.710  1.00  0.00     0.016 C 
BRANCH  27  28
ATOM     28  C   UNL     1      44.945 130.955  13.926  1.00  0.00     0.085 C 
BRANCH  28  29
ATOM     29  N   UNL     1      46.164 131.535  14.549  1.00  0.00    -0.291 NA
ATOM     30  C   UNL     1      45.766 132.564  15.535  1.00  0.00     0.106 C 
BRANCH  29  31
ATOM     31  C   UNL     1      47.040 130.483  15.139  1.00  0.00     0.157 C 
ATOM     32  C   UNL     1      46.217 129.511  16.002  1.00  0.00     0.041 C 
BRANCH  31  33
ATOM     33  C   UNL     1      47.715 129.670  14.102  1.00  0.00     0.081 C 
ATOM     34  N   UNL     1      48.244 129.034  13.292  1.00  0.00    -0.197 NA
ENDBRANCH  31  33
ENDBRANCH  29  31
ENDBRANCH  28  29
ENDBRANCH  27  28
ENDBRANCH   1  27
TORSDOF 11
ENDMDL
MODEL 7
REMARK VINA RESULT:      -5.2      2.982      7.191
REMARK SMILES C#Cc1ccc(-n2cc(CCCCN(C)[C@@H](C)C#N)nn2)cc(N=C=O)ccc2ccccc12
REMARK SMILES IDX 11 1 10 2 9 3 7 4 21 5 8 6 20 7 6 8 3 9 4 10 34 11 5 12
REMARK SMILES IDX 33 13 29 14 32 15 28 16 30 17 22 18 31 19 27 20 23 21 2 22
REMARK SMILES IDX 1 23 24 24 25 25 26 26 12 27 13 28 14 29 15 30 16 31 17 32
REMARK SMILES IDX 18 33 19 34
REMARK H PARENT
ROOT
ATOM      1  C   UNL     1      42.187 139.125  18.123  1.00  0.00     0.008 C 
ENDROOT
BRANCH   1   2
ATOM      2  C   UNL     1      42.464 138.999  16.613  1.00  0.00     0.060 C 
BRANCH   2   3
ATOM      3  C   UNL     1      42.989 137.646  16.223  1.00  0.00     0.083 A 
ATOM      4  N   UNL     1      43.774 135.611  16.257  1.00  0.00    -0.220 N 
ATOM      5  N   UNL     1      43.452 135.933  15.013  1.00  0.00    -0.062 NA
ATOM      6  C   UNL     1      43.490 136.662  17.050  1.00  0.00     0.140 A 
ATOM      7  N   UNL     1      42.964 137.164  14.964  1.00  0.00    -0.135 NA
BRANCH   4   8
ATOM      8  C   UNL     1      44.357 134.354  16.654  1.00  0.00     0.069 A 
ATOM      9  C   UNL     1      41.644 133.887  17.993  1.00  0.00     0.032 A 
ATOM     10  C   UNL     1      42.913 133.860  18.617  1.00  0.00     0.020 A 
ATOM     11  C   UNL     1      41.416 133.565  16.624  1.00  0.00    -0.003 A 
ATOM     12  C   UNL     1      44.152 133.864  17.957  1.00  0.00     0.030 A 
ATOM     13  C   UNL     1      40.449 134.300  15.904  1.00  0.00     0.010 A 
ATOM     14  C   UNL     1      42.213 132.618  15.911  1.00  0.00    -0.017 A 
ATOM     15  C   UNL     1      40.370 134.208  14.514  1.00  0.00     0.001 A 
ATOM     16  C   UNL     1      42.976 131.644  16.583  1.00  0.00     0.011 A 
ATOM     17  C   UNL     1      42.168 132.595  14.505  1.00  0.00     0.009 A 
ATOM     18  C   UNL     1      45.133 133.624  15.732  1.00  0.00     0.057 A 
ATOM     19  C   UNL     1      41.252 133.388  13.813  1.00  0.00     0.001 A 
ATOM     20  C   UNL     1      44.311 131.331  16.278  1.00  0.00     0.030 A 
ATOM     21  C   UNL     1      45.255 132.210  15.705  1.00  0.00     0.078 A 
BRANCH   9  22
ATOM     22  C   UNL     1      40.523 134.259  18.827  1.00  0.00    -0.070 C 
ATOM     23  C   UNL     1      39.589 134.569  19.521  1.00  0.00     0.010 C 
ENDBRANCH   9  22
BRANCH  21  24
ATOM     24  N   UNL     1      46.393 131.594  15.074  1.00  0.00    -0.168 NA
BRANCH  24  25
ATOM     25  C   UNL     1      46.351 130.993  13.952  1.00  0.00     0.240 C 
ATOM     26  O   UNL     1      46.311 130.409  12.862  1.00  0.00    -0.211 OA
ENDBRANCH  24  25
ENDBRANCH  21  24
ENDBRANCH   4   8
ENDBRANCH   2   3
ENDBRANCH   1   2
BRANCH   1  27
ATOM     27  C   UNL     1      41.357 137.948  18.662  1.00  0.00     0.016 C 
BRANCH  27  28
ATOM     28  C   UNL     1      40.637 138.306  19.969  1.00  0.00     0.085 C 
BRANCH  28  29
ATOM     29  N   UNL     1      41.492 137.987  21.142  1.00  0.00    -0.291 NA
ATOM     30  C   UNL     1      40.630 137.615  22.287  1.00  0.00     0.106 C 
BRANCH  29  31
ATOM     31  C   UNL     1      42.505 136.940  20.823  1.00  0.00     0.157 C 
ATOM     32  C   UNL     1      43.927 137.459  21.094  1.00  0.00     0.041 C 
BRANCH  31  33
ATOM     33  C   UNL     1      42.327 135.722  21.645  1.00  0.00     0.081 C 
ATOM     34  N   UNL     1      42.190 134.770  22.289  1.00  0.00    -0.197 NA
ENDBRANCH  31  33
ENDBRANCH  29  31
ENDBRANCH  28  29
ENDBRANCH  27  28
ENDBRANCH   1  27
TORSDOF 11
ENDMDL
MODEL 8
REMARK VINA RESULT:      -5.2      3.225      7.258
REMARK SMILES C#Cc1ccc(-n2cc(CCCCN(C)[C@@H](C)C#N)nn2)cc(N=C=O)ccc2ccccc12
REMARK SMILES IDX 11 1 10 2 9 3 7 4 21 5 8 6 20 7 6 8 3 9 4 10 34 11 5 12
REMARK SMILES IDX 33 13 29 14 32 15 28 16 30 17 22 18 31 19 27 20 23 21 2 22
REMARK SMILES IDX 1 23 24 24 25 25 26 26 12 27 13 28 14 29 15 30 16 31 17 32
REMARK SMILES IDX 18 33 19 34
REMARK H PARENT
ROOT
ATOM      1  C   UNL     1      41.515 136.082  21.742  1.00  0.00     0.008 C 
ENDROOT
BRANCH   1   2
ATOM      2  C   UNL     1      42.997 135.660  21.737  1.00  0.00     0.060 C 
BRANCH   2   3
ATOM      3  C   UNL     1      43.455 135.140  20.403  1.00  0.00     0.083 A 
ATOM      4  N   UNL     1      43.752 133.929  18.613  1.00  0.00    -0.220 N 
ATOM      5  N   UNL     1      44.329 135.109  18.441  1.00  0.00    -0.062 NA
ATOM      6  C   UNL     1      43.184 133.913  19.834  1.00  0.00     0.140 A 
ATOM      7  N   UNL     1      44.157 135.870  19.513  1.00  0.00    -0.135 NA
BRANCH   4   8
ATOM      8  C   UNL     1      43.775 132.858  17.650  1.00  0.00     0.069 A 
ATOM      9  C   UNL     1      40.765 133.386  17.470  1.00  0.00     0.032 A 
ATOM     10  C   UNL     1      41.392 132.160  17.790  1.00  0.00     0.020 A 
ATOM     11  C   UNL     1      41.344 134.392  16.646  1.00  0.00    -0.003 A 
ATOM     12  C   UNL     1      42.762 131.881  17.661  1.00  0.00     0.030 A 
ATOM     13  C   UNL     1      41.126 135.749  16.972  1.00  0.00     0.010 A 
ATOM     14  C   UNL     1      42.244 134.092  15.577  1.00  0.00    -0.017 A 
ATOM     15  C   UNL     1      41.873 136.760  16.366  1.00  0.00     0.001 A 
ATOM     16  C   UNL     1      42.291 132.812  14.994  1.00  0.00     0.011 A 
ATOM     17  C   UNL     1      43.038 135.118  15.032  1.00  0.00     0.009 A 
ATOM     18  C   UNL     1      44.816 132.794  16.703  1.00  0.00     0.057 A 
ATOM     19  C   UNL     1      42.852 136.443  15.427  1.00  0.00     0.001 A 
ATOM     20  C   UNL     1      43.475 132.111  14.711  1.00  0.00     0.030 A 
ATOM     21  C   UNL     1      44.702 132.251  15.396  1.00  0.00     0.078 A 
BRANCH   9  22
ATOM     22  C   UNL     1      39.446 133.599  18.022  1.00  0.00    -0.070 C 
ATOM     23  C   UNL     1      38.346 133.776  18.481  1.00  0.00     0.010 C 
ENDBRANCH   9  22
BRANCH  21  24
ATOM     24  N   UNL     1      45.875 131.799  14.696  1.00  0.00    -0.168 NA
BRANCH  24  25
ATOM     25  C   UNL     1      46.105 130.582  14.396  1.00  0.00     0.240 C 
ATOM     26  O   UNL     1      46.330 129.401  14.106  1.00  0.00    -0.211 OA
ENDBRANCH  24  25
ENDBRANCH  21  24
ENDBRANCH   4   8
ENDBRANCH   2   3
ENDBRANCH   1   2
BRANCH   1  27
ATOM     27  C   UNL     1      41.191 137.076  20.614  1.00  0.00     0.016 C 
BRANCH  27  28
ATOM     28  C   UNL     1      39.702 137.058  20.246  1.00  0.00     0.085 C 
BRANCH  28  29
ATOM     29  N   UNL     1      39.121 138.424  20.342  1.00  0.00    -0.291 NA
ATOM     30  C   UNL     1      40.107 139.330  20.974  1.00  0.00     0.106 C 
BRANCH  29  31
ATOM     31  C   UNL     1      38.651 138.922  19.018  1.00  0.00     0.157 C 
ATOM     32  C   UNL     1      39.835 139.419  18.172  1.00  0.00     0.041 C 
BRANCH  31  33
ATOM     33  C   UNL     1      37.974 137.866  18.232  1.00  0.00     0.081 C 
ATOM     34  N   UNL     1      37.442 137.041  17.618  1.00  0.00    -0.197 NA
ENDBRANCH  31  33
ENDBRANCH  29  31
ENDBRANCH  28  29
ENDBRANCH  27  28
ENDBRANCH   1  27
TORSDOF 11
ENDMDL
MODEL 9
REMARK VINA RESULT:      -5.1      2.083      2.844
REMARK SMILES C#Cc1ccc(-n2cc(CCCCN(C)[C@@H](C)C#N)nn2)cc(N=C=O)ccc2ccccc12
REMARK SMILES IDX 11 1 10 2 9 3 7 4 21 5 8 6 20 7 6 8 3 9 4 10 34 11 5 12
REMARK SMILES IDX 33 13 29 14 32 15 28 16 30 17 22 18 31 19 27 20 23 21 2 22
REMARK SMILES IDX 1 23 24 24 25 25 26 26 12 27 13 28 14 29 15 30 16 31 17 32
REMARK SMILES IDX 18 33 19 34
REMARK H PARENT
ROOT
ATOM      1  C   UNL     1      43.370 132.208  16.938  1.00  0.00     0.008 C 
ENDROOT
BRANCH   1   2
ATOM      2  C   UNL     1      42.626 132.448  15.611  1.00  0.00     0.060 C 
BRANCH   2   3
ATOM      3  C   UNL     1      41.937 133.783  15.556  1.00  0.00     0.083 A 
ATOM      4  N   UNL     1      40.547 135.439  15.845  1.00  0.00    -0.220 N 
ATOM      5  N   UNL     1      41.621 135.878  15.204  1.00  0.00    -0.062 NA
ATOM      6  C   UNL     1      40.712 134.126  16.091  1.00  0.00     0.140 A 
ATOM      7  N   UNL     1      42.487 134.892  15.022  1.00  0.00    -0.135 NA
BRANCH   4   8
ATOM      8  C   UNL     1      39.404 136.250  16.177  1.00  0.00     0.069 A 
ATOM      9  C   UNL     1      40.523 136.094  19.022  1.00  0.00     0.032 A 
ATOM     10  C   UNL     1      39.232 135.704  18.597  1.00  0.00     0.020 A 
ATOM     11  C   UNL     1      41.300 137.111  18.398  1.00  0.00    -0.003 A 
ATOM     12  C   UNL     1      38.664 135.978  17.342  1.00  0.00     0.030 A 
ATOM     13  C   UNL     1      42.698 136.937  18.301  1.00  0.00     0.010 A 
ATOM     14  C   UNL     1      40.714 138.242  17.751  1.00  0.00    -0.017 A 
ATOM     15  C   UNL     1      43.466 137.763  17.480  1.00  0.00     0.001 A 
ATOM     16  C   UNL     1      39.401 138.656  18.039  1.00  0.00     0.011 A 
ATOM     17  C   UNL     1      41.494 139.016  16.872  1.00  0.00     0.009 A 
ATOM     18  C   UNL     1      39.031 137.311  15.328  1.00  0.00     0.057 A 
ATOM     19  C   UNL     1      42.861 138.775  16.738  1.00  0.00     0.001 A 
ATOM     20  C   UNL     1      38.445 139.001  17.070  1.00  0.00     0.030 A 
ATOM     21  C   UNL     1      38.396 138.509  15.747  1.00  0.00     0.078 A 
BRANCH   9  22
ATOM     22  C   UNL     1      41.058 135.403  20.173  1.00  0.00    -0.070 C 
ATOM     23  C   UNL     1      41.505 134.827  21.133  1.00  0.00     0.010 C 
ENDBRANCH   9  22
BRANCH  21  24
ATOM     24  N   UNL     1      37.642 139.296  14.806  1.00  0.00    -0.168 NA
BRANCH  24  25
ATOM     25  C   UNL     1      37.956 139.440  13.580  1.00  0.00     0.240 C 
ATOM     26  O   UNL     1      38.261 139.581  12.390  1.00  0.00    -0.211 OA
ENDBRANCH  24  25
ENDBRANCH  21  24
ENDBRANCH   4   8
ENDBRANCH   2   3
ENDBRANCH   1   2
BRANCH   1  27
ATOM     27  C   UNL     1      44.850 132.616  16.856  1.00  0.00     0.016 C 
BRANCH  27  28
ATOM     28  C   UNL     1      45.542 132.017  15.626  1.00  0.00     0.085 C 
BRANCH  28  29
ATOM     29  N   UNL     1      46.422 130.885  16.018  1.00  0.00    -0.291 NA
ATOM     30  C   UNL     1      46.072 130.447  17.389  1.00  0.00     0.106 C 
BRANCH  29  31
ATOM     31  C   UNL     1      46.369 129.771  15.029  1.00  0.00     0.157 C 
ATOM     32  C   UNL     1      45.020 129.035  15.111  1.00  0.00     0.041 C 
BRANCH  31  33
ATOM     33  C   UNL     1      46.512 130.252  13.637  1.00  0.00     0.081 C 
ATOM     34  N   UNL     1      46.622 130.629  12.548  1.00  0.00    -0.197 NA
ENDBRANCH  31  33
ENDBRANCH  29  31
ENDBRANCH  28  29
ENDBRANCH  27  28
ENDBRANCH   1  27
TORSDOF 11
ENDMDL


