MODEL 1
REMARK VINA RESULT:      -5.7      0.000      0.000
REMARK SMILES C#Cc1ccc(-n2cc(CCCCN(C)[C@@H](C)C#N)[nH+]n2)cc(N=[N+]=[N-])ccc2ccccc12
REMARK SMILES IDX 11 1 10 2 9 3 7 4 21 5 8 6 20 7 6 9 3 10 4 11 34 12 5 13
REMARK SMILES IDX 33 14 29 15 32 16 28 17 30 18 22 19 31 20 27 21 23 22 2 23
REMARK SMILES IDX 1 24 24 25 25 26 26 27 12 28 13 29 14 30 15 31 16 32 17 33
REMARK SMILES IDX 18 34 19 35
REMARK H PARENT 20 8
ROOT
ATOM      1  C   UNL     1      45.259 130.908  18.093  1.00  0.00     0.010 C 
ENDROOT
BRANCH   1   2
ATOM      2  C   UNL     1      45.504 131.437  19.515  1.00  0.00     0.086 C 
BRANCH   2   3
ATOM      3  C   UNL     1      44.313 132.120  20.138  1.00  0.00     0.165 A 
ATOM      4  N   UNL     1      42.963 133.535  21.129  1.00  0.00    -0.102 N 
ATOM      5  N   UNL     1      42.339 132.377  20.976  1.00  0.00     0.093 NA
ATOM      6  C   UNL     1      44.211 133.409  20.629  1.00  0.00     0.281 A 
ATOM      7  N   UNL     1      43.139 131.508  20.379  1.00  0.00    -0.147 N 
ATOM      8  H   UNL     1      42.884 130.523  20.152  1.00  0.00     0.342 HD
BRANCH   4   9
ATOM      9  C   UNL     1      42.366 134.717  21.703  1.00  0.00     0.156 A 
ATOM     10  C   UNL     1      40.485 134.586  19.291  1.00  0.00     0.032 A 
ATOM     11  C   UNL     1      40.114 134.575  20.655  1.00  0.00     0.022 A 
ATOM     12  C   UNL     1      41.649 135.227  18.782  1.00  0.00    -0.003 A 
ATOM     13  C   UNL     1      40.965 134.851  21.737  1.00  0.00     0.056 A 
ATOM     14  C   UNL     1      42.348 134.623  17.713  1.00  0.00     0.010 A 
ATOM     15  C   UNL     1      42.208 136.398  19.379  1.00  0.00    -0.017 A 
ATOM     16  C   UNL     1      43.609 135.084  17.332  1.00  0.00     0.001 A 
ATOM     17  C   UNL     1      41.453 137.225  20.229  1.00  0.00     0.009 A 
ATOM     18  C   UNL     1      43.511 136.800  19.027  1.00  0.00     0.009 A 
ATOM     19  C   UNL     1      43.186 135.727  22.248  1.00  0.00     0.064 A 
ATOM     20  C   UNL     1      44.198 136.151  18.003  1.00  0.00     0.001 A 
ATOM     21  C   UNL     1      41.910 137.725  21.458  1.00  0.00     0.011 A 
ATOM     22  C   UNL     1      42.865 137.109  22.296  1.00  0.00     0.042 A 
BRANCH  10  23
ATOM     23  C   UNL     1      39.596 133.904  18.377  1.00  0.00    -0.070 C 
ATOM     24  C   UNL     1      38.854 133.337  17.615  1.00  0.00     0.010 C 
ENDBRANCH  10  23
BRANCH  22  25
ATOM     25  N   UNL     1      43.525 137.961  23.244  1.00  0.00    -0.061 NA
BRANCH  25  26
ATOM     26  N   UNL     1      44.745 138.134  23.246  1.00  0.00     0.005 N 
ATOM     27  N   UNL     1      45.962 138.307  23.247  1.00  0.00    -0.003 NA
ENDBRANCH  25  26
ENDBRANCH  22  25
ENDBRANCH   4   9
ENDBRANCH   2   3
ENDBRANCH   1   2
BRANCH   1  28
ATOM     28  C   UNL     1      44.955 132.036  17.093  1.00  0.00     0.016 C 
BRANCH  28  29
ATOM     29  C   UNL     1      45.804 131.920  15.820  1.00  0.00     0.085 C 
BRANCH  29  30
ATOM     30  N   UNL     1      44.950 131.813  14.610  1.00  0.00    -0.291 NA
ATOM     31  C   UNL     1      43.531 132.056  14.932  1.00  0.00     0.106 C 
BRANCH  30  32
ATOM     32  C   UNL     1      45.116 130.541  13.859  1.00  0.00     0.157 C 
ATOM     33  C   UNL     1      46.375 130.584  12.988  1.00  0.00     0.041 C 
BRANCH  32  34
ATOM     34  C   UNL     1      45.131 129.355  14.742  1.00  0.00     0.081 C 
ATOM     35  N   UNL     1      45.143 128.427  15.433  1.00  0.00    -0.197 NA
ENDBRANCH  32  34
ENDBRANCH  30  32
ENDBRANCH  29  30
ENDBRANCH  28  29
ENDBRANCH   1  28
TORSDOF 11
ENDMDL
MODEL 2
REMARK VINA RESULT:      -5.5      3.626      4.747
REMARK SMILES C#Cc1ccc(-n2cc(CCCCN(C)[C@@H](C)C#N)[nH+]n2)cc(N=[N+]=[N-])ccc2ccccc12
REMARK SMILES IDX 11 1 10 2 9 3 7 4 21 5 8 6 20 7 6 9 3 10 4 11 34 12 5 13
REMARK SMILES IDX 33 14 29 15 32 16 28 17 30 18 22 19 31 20 27 21 23 22 2 23
REMARK SMILES IDX 1 24 24 25 25 26 26 27 12 28 13 29 14 30 15 31 16 32 17 33
REMARK SMILES IDX 18 34 19 35
REMARK H PARENT 20 8
ROOT
ATOM      1  C   UNL     1      44.242 133.174  15.299  1.00  0.00     0.010 C 
ENDROOT
BRANCH   1   2
ATOM      2  C   UNL     1      43.689 134.361  16.104  1.00  0.00     0.086 C 
BRANCH   2   3
ATOM      3  C   UNL     1      42.227 134.246  16.456  1.00  0.00     0.165 A 
ATOM      4  N   UNL     1      40.216 134.555  17.271  1.00  0.00    -0.102 N 
ATOM      5  N   UNL     1      40.255 133.386  16.649  1.00  0.00     0.093 NA
ATOM      6  C   UNL     1      41.439 135.118  17.184  1.00  0.00     0.281 A 
ATOM      7  N   UNL     1      41.464 133.181  16.151  1.00  0.00    -0.147 N 
ATOM      8  H   UNL     1      41.753 132.329  15.622  1.00  0.00     0.342 HD
BRANCH   4   9
ATOM      9  C   UNL     1      39.037 135.113  17.889  1.00  0.00     0.156 A 
ATOM     10  C   UNL     1      37.973 135.297  15.024  1.00  0.00     0.032 A 
ATOM     11  C   UNL     1      37.376 134.612  16.107  1.00  0.00     0.022 A 
ATOM     12  C   UNL     1      38.788 136.456  15.162  1.00  0.00    -0.003 A 
ATOM     13  C   UNL     1      37.759 134.715  17.453  1.00  0.00     0.056 A 
ATOM     14  C   UNL     1      39.891 136.621  14.294  1.00  0.00     0.010 A 
ATOM     15  C   UNL     1      38.608 137.406  16.213  1.00  0.00    -0.017 A 
ATOM     16  C   UNL     1      40.846 137.610  14.531  1.00  0.00     0.001 A 
ATOM     17  C   UNL     1      37.399 137.498  16.926  1.00  0.00     0.009 A 
ATOM     18  C   UNL     1      39.620 138.349  16.475  1.00  0.00     0.009 A 
ATOM     19  C   UNL     1      39.168 136.040  18.944  1.00  0.00     0.064 A 
ATOM     20  C   UNL     1      40.725 138.453  15.632  1.00  0.00     0.001 A 
ATOM     21  C   UNL     1      37.309 137.592  18.323  1.00  0.00     0.011 A 
ATOM     22  C   UNL     1      38.244 137.075  19.247  1.00  0.00     0.042 A 
BRANCH  10  23
ATOM     23  C   UNL     1      37.709 134.771  13.704  1.00  0.00    -0.070 C 
ATOM     24  C   UNL     1      37.487 134.331  12.604  1.00  0.00     0.010 C 
ENDBRANCH  10  23
BRANCH  22  25
ATOM     25  N   UNL     1      38.225 137.650  20.562  1.00  0.00    -0.061 NA
BRANCH  25  26
ATOM     26  N   UNL     1      38.143 136.968  21.584  1.00  0.00     0.005 N 
ATOM     27  N   UNL     1      38.061 136.288  22.605  1.00  0.00    -0.003 NA
ENDBRANCH  25  26
ENDBRANCH  22  25
ENDBRANCH   4   9
ENDBRANCH   2   3
ENDBRANCH   1   2
BRANCH   1  28
ATOM     28  C   UNL     1      45.354 132.424  16.050  1.00  0.00     0.016 C 
BRANCH  28  29
ATOM     29  C   UNL     1      46.313 131.707  15.091  1.00  0.00     0.085 C 
BRANCH  29  30
ATOM     30  N   UNL     1      45.786 130.376  14.695  1.00  0.00    -0.291 NA
ATOM     31  C   UNL     1      45.762 129.447  15.841  1.00  0.00     0.106 C 
BRANCH  30  32
ATOM     32  C   UNL     1      46.483 129.769  13.530  1.00  0.00     0.157 C 
ATOM     33  C   UNL     1      46.310 130.639  12.281  1.00  0.00     0.041 C 
BRANCH  32  34
ATOM     34  C   UNL     1      47.913 129.507  13.793  1.00  0.00     0.081 C 
ATOM     35  N   UNL     1      49.033 129.303  14.000  1.00  0.00    -0.197 NA
ENDBRANCH  32  34
ENDBRANCH  30  32
ENDBRANCH  29  30
ENDBRANCH  28  29
ENDBRANCH   1  28
TORSDOF 11
ENDMDL
MODEL 3
REMARK VINA RESULT:      -5.5      2.379      3.646
REMARK SMILES C#Cc1ccc(-n2cc(CCCCN(C)[C@@H](C)C#N)[nH+]n2)cc(N=[N+]=[N-])ccc2ccccc12
REMARK SMILES IDX 11 1 10 2 9 3 7 4 21 5 8 6 20 7 6 9 3 10 4 11 34 12 5 13
REMARK SMILES IDX 33 14 29 15 32 16 28 17 30 18 22 19 31 20 27 21 23 22 2 23
REMARK SMILES IDX 1 24 24 25 25 26 26 27 12 28 13 29 14 30 15 31 16 32 17 33
REMARK SMILES IDX 18 34 19 35
REMARK H PARENT 20 8
ROOT
ATOM      1  C   UNL     1      43.649 131.971  15.446  1.00  0.00     0.010 C 
ENDROOT
BRANCH   1   2
ATOM      2  C   UNL     1      42.503 132.919  15.056  1.00  0.00     0.086 C 
BRANCH   2   3
ATOM      3  C   UNL     1      41.666 133.392  16.217  1.00  0.00     0.165 A 
ATOM      4  N   UNL     1      40.886 133.863  18.211  1.00  0.00    -0.102 N 
ATOM      5  N   UNL     1      39.950 134.120  17.309  1.00  0.00     0.093 NA
ATOM      6  C   UNL     1      41.973 133.390  17.566  1.00  0.00     0.281 A 
ATOM      7  N   UNL     1      40.403 133.839  16.098  1.00  0.00    -0.147 N 
ATOM      8  H   UNL     1      39.854 133.949  15.217  1.00  0.00     0.342 HD
BRANCH   4   9
ATOM      9  C   UNL     1      40.743 134.099  19.628  1.00  0.00     0.156 A 
ATOM     10  C   UNL     1      40.400 137.030  18.812  1.00  0.00     0.032 A 
ATOM     11  C   UNL     1      39.486 136.244  19.550  1.00  0.00     0.022 A 
ATOM     12  C   UNL     1      41.811 136.841  18.825  1.00  0.00    -0.003 A 
ATOM     13  C   UNL     1      39.749 134.978  20.097  1.00  0.00     0.056 A 
ATOM     14  C   UNL     1      42.538 137.052  17.631  1.00  0.00     0.010 A 
ATOM     15  C   UNL     1      42.513 136.337  19.962  1.00  0.00    -0.017 A 
ATOM     16  C   UNL     1      43.874 136.664  17.529  1.00  0.00     0.001 A 
ATOM     17  C   UNL     1      41.953 136.379  21.252  1.00  0.00     0.009 A 
ATOM     18  C   UNL     1      43.838 135.887  19.815  1.00  0.00     0.009 A 
ATOM     19  C   UNL     1      41.586 133.431  20.541  1.00  0.00     0.064 A 
ATOM     20  C   UNL     1      44.514 136.060  18.608  1.00  0.00     0.001 A 
ATOM     21  C   UNL     1      41.963 135.303  22.154  1.00  0.00     0.011 A 
ATOM     22  C   UNL     1      41.989 133.935  21.806  1.00  0.00     0.042 A 
BRANCH  10  23
ATOM     23  C   UNL     1      39.836 138.095  18.015  1.00  0.00    -0.070 C 
ATOM     24  C   UNL     1      39.366 138.984  17.349  1.00  0.00     0.010 C 
ENDBRANCH  10  23
BRANCH  22  25
ATOM     25  N   UNL     1      42.448 133.028  22.820  1.00  0.00    -0.061 NA
BRANCH  25  26
ATOM     26  N   UNL     1      42.618 131.827  22.609  1.00  0.00     0.005 N 
ATOM     27  N   UNL     1      42.786 130.627  22.399  1.00  0.00    -0.003 NA
ENDBRANCH  25  26
ENDBRANCH  22  25
ENDBRANCH   4   9
ENDBRANCH   2   3
ENDBRANCH   1   2
BRANCH   1  28
ATOM     28  C   UNL     1      44.973 132.718  15.681  1.00  0.00     0.016 C 
BRANCH  28  29
ATOM     29  C   UNL     1      46.176 131.941  15.133  1.00  0.00     0.085 C 
BRANCH  29  30
ATOM     30  N   UNL     1      45.928 130.476  15.155  1.00  0.00    -0.291 NA
ATOM     31  C   UNL     1      46.593 129.837  16.305  1.00  0.00     0.106 C 
BRANCH  30  32
ATOM     32  C   UNL     1      46.273 129.783  13.885  1.00  0.00     0.157 C 
ATOM     33  C   UNL     1      45.839 130.617  12.676  1.00  0.00     0.041 C 
BRANCH  32  34
ATOM     34  C   UNL     1      47.707 129.436  13.796  1.00  0.00     0.081 C 
ATOM     35  N   UNL     1      48.829 129.165  13.727  1.00  0.00    -0.197 NA
ENDBRANCH  32  34
ENDBRANCH  30  32
ENDBRANCH  29  30
ENDBRANCH  28  29
ENDBRANCH   1  28
TORSDOF 11
ENDMDL
MODEL 4
REMARK VINA RESULT:      -5.2      3.751      6.082
REMARK SMILES C#Cc1ccc(-n2cc(CCCCN(C)[C@@H](C)C#N)[nH+]n2)cc(N=[N+]=[N-])ccc2ccccc12
REMARK SMILES IDX 11 1 10 2 9 3 7 4 21 5 8 6 20 7 6 9 3 10 4 11 34 12 5 13
REMARK SMILES IDX 33 14 29 15 32 16 28 17 30 18 22 19 31 20 27 21 23 22 2 23
REMARK SMILES IDX 1 24 24 25 25 26 26 27 12 28 13 29 14 30 15 31 16 32 17 33
REMARK SMILES IDX 18 34 19 35
REMARK H PARENT 20 8
ROOT
ATOM      1  C   UNL     1      45.126 129.101  16.443  1.00  0.00     0.010 C 
ENDROOT
BRANCH   1   2
ATOM      2  C   UNL     1      45.269 130.388  17.272  1.00  0.00     0.086 C 
BRANCH   2   3
ATOM      3  C   UNL     1      44.821 131.638  16.559  1.00  0.00     0.165 A 
ATOM      4  N   UNL     1      43.659 133.193  15.539  1.00  0.00    -0.102 N 
ATOM      5  N   UNL     1      44.946 133.502  15.473  1.00  0.00     0.093 NA
ATOM      6  C   UNL     1      43.542 132.022  16.200  1.00  0.00     0.281 A 
ATOM      7  N   UNL     1      45.664 132.573  16.083  1.00  0.00    -0.147 N 
ATOM      8  H   UNL     1      46.705 132.582  16.162  1.00  0.00     0.342 HD
BRANCH   4   9
ATOM      9  C   UNL     1      42.593 134.013  15.015  1.00  0.00     0.156 A 
ATOM     10  C   UNL     1      43.411 135.976  17.218  1.00  0.00     0.032 A 
ATOM     11  C   UNL     1      43.363 136.234  15.829  1.00  0.00     0.022 A 
ATOM     12  C   UNL     1      42.575 135.039  17.888  1.00  0.00    -0.003 A 
ATOM     13  C   UNL     1      42.784 135.399  14.860  1.00  0.00     0.056 A 
ATOM     14  C   UNL     1      43.111 134.294  18.962  1.00  0.00     0.010 A 
ATOM     15  C   UNL     1      41.250 134.735  17.450  1.00  0.00    -0.017 A 
ATOM     16  C   UNL     1      42.415 133.211  19.500  1.00  0.00     0.001 A 
ATOM     17  C   UNL     1      40.535 135.604  16.607  1.00  0.00     0.009 A 
ATOM     18  C   UNL     1      40.598 133.595  17.957  1.00  0.00     0.009 A 
ATOM     19  C   UNL     1      41.370 133.421  14.640  1.00  0.00     0.064 A 
ATOM     20  C   UNL     1      41.176 132.847  18.982  1.00  0.00     0.001 A 
ATOM     21  C   UNL     1      39.815 135.192  15.474  1.00  0.00     0.011 A 
ATOM     22  C   UNL     1      40.102 134.059  14.681  1.00  0.00     0.042 A 
BRANCH  10  23
ATOM     23  C   UNL     1      44.373 136.740  17.981  1.00  0.00    -0.070 C 
ATOM     24  C   UNL     1      45.175 137.375  18.618  1.00  0.00     0.010 C 
ENDBRANCH  10  23
BRANCH  22  25
ATOM     25  N   UNL     1      39.025 133.556  13.876  1.00  0.00    -0.061 NA
BRANCH  25  26
ATOM     26  N   UNL     1      37.996 134.200  13.665  1.00  0.00     0.005 N 
ATOM     27  N   UNL     1      36.969 134.842  13.453  1.00  0.00    -0.003 NA
ENDBRANCH  25  26
ENDBRANCH  22  25
ENDBRANCH   4   9
ENDBRANCH   2   3
ENDBRANCH   1   2
BRANCH   1  28
ATOM     28  C   UNL     1      45.544 129.299  14.977  1.00  0.00     0.016 C 
BRANCH  28  29
ATOM     29  C   UNL     1      47.066 129.235  14.799  1.00  0.00     0.085 C 
BRANCH  29  30
ATOM     30  N   UNL     1      47.444 129.274  13.364  1.00  0.00    -0.291 NA
ATOM     31  C   UNL     1      48.882 128.998  13.180  1.00  0.00     0.106 C 
BRANCH  30  32
ATOM     32  C   UNL     1      47.048 130.525  12.665  1.00  0.00     0.157 C 
ATOM     33  C   UNL     1      47.729 131.742  13.298  1.00  0.00     0.041 C 
BRANCH  32  34
ATOM     34  C   UNL     1      47.311 130.475  11.211  1.00  0.00     0.081 C 
ATOM     35  N   UNL     1      47.517 130.437  10.073  1.00  0.00    -0.197 NA
ENDBRANCH  32  34
ENDBRANCH  30  32
ENDBRANCH  29  30
ENDBRANCH  28  29
ENDBRANCH   1  28
TORSDOF 11
ENDMDL
MODEL 5
REMARK VINA RESULT:      -5.2      1.789      2.160
REMARK SMILES C#Cc1ccc(-n2cc(CCCCN(C)[C@@H](C)C#N)[nH+]n2)cc(N=[N+]=[N-])ccc2ccccc12
REMARK SMILES IDX 11 1 10 2 9 3 7 4 21 5 8 6 20 7 6 9 3 10 4 11 34 12 5 13
REMARK SMILES IDX 33 14 29 15 32 16 28 17 30 18 22 19 31 20 27 21 23 22 2 23
REMARK SMILES IDX 1 24 24 25 25 26 26 27 12 28 13 29 14 30 15 31 16 32 17 33
REMARK SMILES IDX 18 34 19 35
REMARK H PARENT 20 8
ROOT
ATOM      1  C   UNL     1      46.095 130.757  17.360  1.00  0.00     0.010 C 
ENDROOT
BRANCH   1   2
ATOM      2  C   UNL     1      45.357 130.603  18.700  1.00  0.00     0.086 C 
BRANCH   2   3
ATOM      3  C   UNL     1      44.395 131.721  19.012  1.00  0.00     0.165 A 
ATOM      4  N   UNL     1      43.484 133.636  19.568  1.00  0.00    -0.102 N 
ATOM      5  N   UNL     1      42.531 132.724  19.443  1.00  0.00     0.093 NA
ATOM      6  C   UNL     1      44.670 133.041  19.320  1.00  0.00     0.281 A 
ATOM      7  N   UNL     1      43.063 131.560  19.108  1.00  0.00    -0.147 N 
ATOM      8  H   UNL     1      42.522 130.680  18.958  1.00  0.00     0.342 HD
BRANCH   4   9
ATOM      9  C   UNL     1      43.250 135.026  19.880  1.00  0.00     0.156 A 
ATOM     10  C   UNL     1      40.721 134.681  18.191  1.00  0.00     0.032 A 
ATOM     11  C   UNL     1      40.788 135.103  19.538  1.00  0.00     0.022 A 
ATOM     12  C   UNL     1      41.746 134.905  17.229  1.00  0.00    -0.003 A 
ATOM     13  C   UNL     1      41.958 135.461  20.227  1.00  0.00     0.056 A 
ATOM     14  C   UNL     1      41.999 133.909  16.259  1.00  0.00     0.010 A 
ATOM     15  C   UNL     1      42.609 136.042  17.271  1.00  0.00    -0.017 A 
ATOM     16  C   UNL     1      43.131 133.974  15.445  1.00  0.00     0.001 A 
ATOM     17  C   UNL     1      42.265 137.203  17.986  1.00  0.00     0.009 A 
ATOM     18  C   UNL     1      43.781 136.051  16.492  1.00  0.00     0.009 A 
ATOM     19  C   UNL     1      44.323 135.942  19.857  1.00  0.00     0.064 A 
ATOM     20  C   UNL     1      44.031 135.027  15.580  1.00  0.00     0.001 A 
ATOM     21  C   UNL     1      43.138 137.894  18.841  1.00  0.00     0.011 A 
ATOM     22  C   UNL     1      44.215 137.325  19.555  1.00  0.00     0.042 A 
BRANCH  10  23
ATOM     23  C   UNL     1      39.513 133.994  17.792  1.00  0.00    -0.070 C 
ATOM     24  C   UNL     1      38.506 133.421  17.459  1.00  0.00     0.010 C 
ENDBRANCH  10  23
BRANCH  22  25
ATOM     25  N   UNL     1      45.239 138.232  19.992  1.00  0.00    -0.061 NA
BRANCH  25  26
ATOM     26  N   UNL     1      46.435 138.039  19.772  1.00  0.00     0.005 N 
ATOM     27  N   UNL     1      47.629 137.846  19.551  1.00  0.00    -0.003 NA
ENDBRANCH  25  26
ENDBRANCH  22  25
ENDBRANCH   4   9
ENDBRANCH   2   3
ENDBRANCH   1   2
BRANCH   1  28
ATOM     28  C   UNL     1      45.315 131.626  16.359  1.00  0.00     0.016 C 
BRANCH  28  29
ATOM     29  C   UNL     1      46.115 131.880  15.075  1.00  0.00     0.085 C 
BRANCH  29  30
ATOM     30  N   UNL     1      45.532 131.147  13.922  1.00  0.00    -0.291 NA
ATOM     31  C   UNL     1      44.292 130.446  14.304  1.00  0.00     0.106 C 
BRANCH  30  32
ATOM     32  C   UNL     1      46.482 130.223  13.247  1.00  0.00     0.157 C 
ATOM     33  C   UNL     1      47.031 130.852  11.962  1.00  0.00     0.041 C 
BRANCH  32  34
ATOM     34  C   UNL     1      47.584 129.791  14.131  1.00  0.00     0.081 C 
ATOM     35  N   UNL     1      48.446 129.451  14.824  1.00  0.00    -0.197 NA
ENDBRANCH  32  34
ENDBRANCH  30  32
ENDBRANCH  29  30
ENDBRANCH  28  29
ENDBRANCH   1  28
TORSDOF 11
ENDMDL
MODEL 6
REMARK VINA RESULT:      -5.2      2.967      3.793
REMARK SMILES C#Cc1ccc(-n2cc(CCCCN(C)[C@@H](C)C#N)[nH+]n2)cc(N=[N+]=[N-])ccc2ccccc12
REMARK SMILES IDX 11 1 10 2 9 3 7 4 21 5 8 6 20 7 6 9 3 10 4 11 34 12 5 13
REMARK SMILES IDX 33 14 29 15 32 16 28 17 30 18 22 19 31 20 27 21 23 22 2 23
REMARK SMILES IDX 1 24 24 25 25 26 26 27 12 28 13 29 14 30 15 31 16 32 17 33
REMARK SMILES IDX 18 34 19 35
REMARK H PARENT 20 8
ROOT
ATOM      1  C   UNL     1      44.791 132.310  16.719  1.00  0.00     0.010 C 
ENDROOT
BRANCH   1   2
ATOM      2  C   UNL     1      44.261 133.126  17.909  1.00  0.00     0.086 C 
BRANCH   2   3
ATOM      3  C   UNL     1      42.758 133.143  18.031  1.00  0.00     0.165 A 
ATOM      4  N   UNL     1      40.687 133.550  18.623  1.00  0.00    -0.102 N 
ATOM      5  N   UNL     1      40.701 132.540  17.767  1.00  0.00     0.093 NA
ATOM      6  C   UNL     1      41.962 133.947  18.826  1.00  0.00     0.281 A 
ATOM      7  N   UNL     1      41.945 132.278  17.399  1.00  0.00    -0.147 N 
ATOM      8  H   UNL     1      42.222 131.521  16.736  1.00  0.00     0.342 HD
BRANCH   4   9
ATOM      9  C   UNL     1      39.491 134.126  19.190  1.00  0.00     0.156 A 
ATOM     10  C   UNL     1      38.715 134.662  16.277  1.00  0.00     0.032 A 
ATOM     11  C   UNL     1      37.978 133.917  17.226  1.00  0.00     0.022 A 
ATOM     12  C   UNL     1      39.581 135.743  16.605  1.00  0.00    -0.003 A 
ATOM     13  C   UNL     1      38.238 133.862  18.605  1.00  0.00     0.056 A 
ATOM     14  C   UNL     1      40.770 135.915  15.859  1.00  0.00     0.010 A 
ATOM     15  C   UNL     1      39.361 136.596  17.729  1.00  0.00    -0.017 A 
ATOM     16  C   UNL     1      41.756 136.807  16.280  1.00  0.00     0.001 A 
ATOM     17  C   UNL     1      38.097 136.701  18.338  1.00  0.00     0.009 A 
ATOM     18  C   UNL     1      40.398 137.436  18.175  1.00  0.00     0.009 A 
ATOM     19  C   UNL     1      39.577 134.934  20.342  1.00  0.00     0.064 A 
ATOM     20  C   UNL     1      41.582 137.545  17.447  1.00  0.00     0.001 A 
ATOM     21  C   UNL     1      37.882 136.664  19.725  1.00  0.00     0.011 A 
ATOM     22  C   UNL     1      38.693 135.996  20.668  1.00  0.00     0.042 A 
BRANCH  10  23
ATOM     23  C   UNL     1      38.545 134.287  14.892  1.00  0.00    -0.070 C 
ATOM     24  C   UNL     1      38.404 133.973  13.736  1.00  0.00     0.010 C 
ENDBRANCH  10  23
BRANCH  22  25
ATOM     25  N   UNL     1      38.584 136.440  22.029  1.00  0.00    -0.061 NA
BRANCH  25  26
ATOM     26  N   UNL     1      38.534 135.660  22.981  1.00  0.00     0.005 N 
ATOM     27  N   UNL     1      38.482 134.880  23.930  1.00  0.00    -0.003 NA
ENDBRANCH  25  26
ENDBRANCH  22  25
ENDBRANCH   4   9
ENDBRANCH   2   3
ENDBRANCH   1   2
BRANCH   1  28
ATOM     28  C   UNL     1      45.309 130.925  17.143  1.00  0.00     0.016 C 
BRANCH  28  29
ATOM     29  C   UNL     1      44.854 129.822  16.178  1.00  0.00     0.085 C 
BRANCH  29  30
ATOM     30  N   UNL     1      45.921 129.488  15.200  1.00  0.00    -0.291 NA
ATOM     31  C   UNL     1      47.222 130.046  15.614  1.00  0.00     0.106 C 
BRANCH  30  32
ATOM     32  C   UNL     1      45.599 129.865  13.799  1.00  0.00     0.157 C 
ATOM     33  C   UNL     1      44.341 130.737  13.745  1.00  0.00     0.041 C 
BRANCH  32  34
ATOM     34  C   UNL     1      46.727 130.530  13.113  1.00  0.00     0.081 C 
ATOM     35  N   UNL     1      47.610 131.052  12.577  1.00  0.00    -0.197 NA
ENDBRANCH  32  34
ENDBRANCH  30  32
ENDBRANCH  29  30
ENDBRANCH  28  29
ENDBRANCH   1  28
TORSDOF 11
ENDMDL
MODEL 7
REMARK VINA RESULT:      -5.1      4.798      6.886
REMARK SMILES C#Cc1ccc(-n2cc(CCCCN(C)[C@@H](C)C#N)[nH+]n2)cc(N=[N+]=[N-])ccc2ccccc12
REMARK SMILES IDX 11 1 10 2 9 3 7 4 21 5 8 6 20 7 6 9 3 10 4 11 34 12 5 13
REMARK SMILES IDX 33 14 29 15 32 16 28 17 30 18 22 19 31 20 27 21 23 22 2 23
REMARK SMILES IDX 1 24 24 25 25 26 26 27 12 28 13 29 14 30 15 31 16 32 17 33
REMARK SMILES IDX 18 34 19 35
REMARK H PARENT 20 8
ROOT
ATOM      1  C   UNL     1      39.816 135.089  13.166  1.00  0.00     0.010 C 
ENDROOT
BRANCH   1   2
ATOM      2  C   UNL     1      38.995 134.105  14.015  1.00  0.00     0.086 C 
BRANCH   2   3
ATOM      3  C   UNL     1      39.379 134.069  15.472  1.00  0.00     0.165 A 
ATOM      4  N   UNL     1      40.420 133.782  17.380  1.00  0.00    -0.102 N 
ATOM      5  N   UNL     1      39.176 134.171  17.620  1.00  0.00     0.093 NA
ATOM      6  C   UNL     1      40.581 133.692  16.043  1.00  0.00     0.281 A 
ATOM      7  N   UNL     1      38.531 134.348  16.478  1.00  0.00    -0.147 N 
ATOM      8  H   UNL     1      37.535 134.647  16.398  1.00  0.00     0.342 HD
BRANCH   4   9
ATOM      9  C   UNL     1      41.413 133.542  18.400  1.00  0.00     0.156 A 
ATOM     10  C   UNL     1      41.407 136.588  18.714  1.00  0.00     0.032 A 
ATOM     11  C   UNL     1      41.140 135.632  19.721  1.00  0.00     0.022 A 
ATOM     12  C   UNL     1      42.264 136.360  17.601  1.00  0.00    -0.003 A 
ATOM     13  C   UNL     1      41.357 134.249  19.616  1.00  0.00     0.056 A 
ATOM     14  C   UNL     1      41.926 136.929  16.352  1.00  0.00     0.010 A 
ATOM     15  C   UNL     1      43.394 135.488  17.661  1.00  0.00    -0.017 A 
ATOM     16  C   UNL     1      42.599 136.554  15.189  1.00  0.00     0.001 A 
ATOM     17  C   UNL     1      43.976 135.120  18.888  1.00  0.00     0.009 A 
ATOM     18  C   UNL     1      44.010 135.069  16.467  1.00  0.00     0.009 A 
ATOM     19  C   UNL     1      42.426 132.585  18.184  1.00  0.00     0.064 A 
ATOM     20  C   UNL     1      43.619 135.609  15.243  1.00  0.00     0.001 A 
ATOM     21  C   UNL     1      44.338 133.808  19.230  1.00  0.00     0.011 A 
ATOM     22  C   UNL     1      43.731 132.630  18.741  1.00  0.00     0.042 A 
BRANCH  10  23
ATOM     23  C   UNL     1      40.763 137.873  18.860  1.00  0.00    -0.070 C 
ATOM     24  C   UNL     1      40.225 138.946  18.984  1.00  0.00     0.010 C 
ENDBRANCH  10  23
BRANCH  22  25
ATOM     25  N   UNL     1      44.507 131.426  18.838  1.00  0.00    -0.061 NA
BRANCH  25  26
ATOM     26  N   UNL     1      45.203 131.009  17.911  1.00  0.00     0.005 N 
ATOM     27  N   UNL     1      45.898 130.590  16.987  1.00  0.00    -0.003 NA
ENDBRANCH  25  26
ENDBRANCH  22  25
ENDBRANCH   4   9
ENDBRANCH   2   3
ENDBRANCH   1   2
BRANCH   1  28
ATOM     28  C   UNL     1      38.951 136.210  12.567  1.00  0.00     0.016 C 
BRANCH  28  29
ATOM     29  C   UNL     1      38.039 135.694  11.446  1.00  0.00     0.085 C 
BRANCH  29  30
ATOM     30  N   UNL     1      37.798 136.743  10.422  1.00  0.00    -0.291 NA
ATOM     31  C   UNL     1      36.393 137.192  10.435  1.00  0.00     0.106 C 
BRANCH  30  32
ATOM     32  C   UNL     1      38.223 136.360   9.050  1.00  0.00     0.157 C 
ATOM     33  C   UNL     1      39.750 136.382   8.927  1.00  0.00     0.041 C 
BRANCH  32  34
ATOM     34  C   UNL     1      37.683 135.050   8.629  1.00  0.00     0.081 C 
ATOM     35  N   UNL     1      37.261 134.024   8.301  1.00  0.00    -0.197 NA
ENDBRANCH  32  34
ENDBRANCH  30  32
ENDBRANCH  29  30
ENDBRANCH  28  29
ENDBRANCH   1  28
TORSDOF 11
ENDMDL
MODEL 8
REMARK VINA RESULT:      -5.1      2.996      4.042
REMARK SMILES C#Cc1ccc(-n2cc(CCCCN(C)[C@@H](C)C#N)[nH+]n2)cc(N=[N+]=[N-])ccc2ccccc12
REMARK SMILES IDX 11 1 10 2 9 3 7 4 21 5 8 6 20 7 6 9 3 10 4 11 34 12 5 13
REMARK SMILES IDX 33 14 29 15 32 16 28 17 30 18 22 19 31 20 27 21 23 22 2 23
REMARK SMILES IDX 1 24 24 25 25 26 26 27 12 28 13 29 14 30 15 31 16 32 17 33
REMARK SMILES IDX 18 34 19 35
REMARK H PARENT 20 8
ROOT
ATOM      1  C   UNL     1      44.429 131.256  17.323  1.00  0.00     0.010 C 
ENDROOT
BRANCH   1   2
ATOM      2  C   UNL     1      43.888 132.502  16.603  1.00  0.00     0.086 C 
BRANCH   2   3
ATOM      3  C   UNL     1      42.937 133.332  17.427  1.00  0.00     0.165 A 
ATOM      4  N   UNL     1      41.187 134.113  18.493  1.00  0.00    -0.102 N 
ATOM      5  N   UNL     1      42.145 135.028  18.505  1.00  0.00     0.093 NA
ATOM      6  C   UNL     1      41.641 133.039  17.812  1.00  0.00     0.281 A 
ATOM      7  N   UNL     1      43.210 134.575  17.864  1.00  0.00    -0.147 N 
ATOM      8  H   UNL     1      44.095 135.110  17.728  1.00  0.00     0.342 HD
BRANCH   4   9
ATOM      9  C   UNL     1      39.906 134.261  19.142  1.00  0.00     0.156 A 
ATOM     10  C   UNL     1      38.822 134.557  16.294  1.00  0.00     0.032 A 
ATOM     11  C   UNL     1      38.425 133.600  17.256  1.00  0.00     0.022 A 
ATOM     12  C   UNL     1      39.311 135.855  16.611  1.00  0.00    -0.003 A 
ATOM     13  C   UNL     1      38.773 133.612  18.616  1.00  0.00     0.056 A 
ATOM     14  C   UNL     1      40.332 136.414  15.809  1.00  0.00     0.010 A 
ATOM     15  C   UNL     1      38.896 136.575  17.772  1.00  0.00    -0.017 A 
ATOM     16  C   UNL     1      41.000 137.572  16.205  1.00  0.00     0.001 A 
ATOM     17  C   UNL     1      37.706 136.255  18.451  1.00  0.00     0.009 A 
ATOM     18  C   UNL     1      39.631 137.700  18.190  1.00  0.00     0.009 A 
ATOM     19  C   UNL     1      39.797 135.037  20.314  1.00  0.00     0.064 A 
ATOM     20  C   UNL     1      40.669 138.198  17.404  1.00  0.00     0.001 A 
ATOM     21  C   UNL     1      37.600 136.132  19.846  1.00  0.00     0.011 A 
ATOM     22  C   UNL     1      38.639 135.751  20.722  1.00  0.00     0.042 A 
BRANCH  10  23
ATOM     23  C   UNL     1      38.698 134.165  14.908  1.00  0.00    -0.070 C 
ATOM     24  C   UNL     1      38.596 133.840  13.752  1.00  0.00     0.010 C 
ENDBRANCH  10  23
BRANCH  22  25
ATOM     25  N   UNL     1      38.476 136.116  22.100  1.00  0.00    -0.061 NA
BRANCH  25  26
ATOM     26  N   UNL     1      37.435 135.907  22.725  1.00  0.00     0.005 N 
ATOM     27  N   UNL     1      36.396 135.696  23.349  1.00  0.00    -0.003 NA
ENDBRANCH  25  26
ENDBRANCH  22  25
ENDBRANCH   4   9
ENDBRANCH   2   3
ENDBRANCH   1   2
BRANCH   1  28
ATOM     28  C   UNL     1      45.793 130.808  16.772  1.00  0.00     0.016 C 
BRANCH  28  29
ATOM     29  C   UNL     1      45.646 129.802  15.623  1.00  0.00     0.085 C 
BRANCH  29  30
ATOM     30  N   UNL     1      45.726 130.477  14.302  1.00  0.00    -0.291 NA
ATOM     31  C   UNL     1      44.387 130.648  13.706  1.00  0.00     0.106 C 
BRANCH  30  32
ATOM     32  C   UNL     1      46.658 129.827  13.344  1.00  0.00     0.157 C 
ATOM     33  C   UNL     1      46.820 130.679  12.081  1.00  0.00     0.041 C 
BRANCH  32  34
ATOM     34  C   UNL     1      47.974 129.524  13.944  1.00  0.00     0.081 C 
ATOM     35  N   UNL     1      49.005 129.288  14.412  1.00  0.00    -0.197 NA
ENDBRANCH  32  34
ENDBRANCH  30  32
ENDBRANCH  29  30
ENDBRANCH  28  29
ENDBRANCH   1  28
TORSDOF 11
ENDMDL
MODEL 9
REMARK VINA RESULT:      -5.1      3.454      7.000
REMARK SMILES C#Cc1ccc(-n2cc(CCCCN(C)[C@@H](C)C#N)[nH+]n2)cc(N=[N+]=[N-])ccc2ccccc12
REMARK SMILES IDX 11 1 10 2 9 3 7 4 21 5 8 6 20 7 6 9 3 10 4 11 34 12 5 13
REMARK SMILES IDX 33 14 29 15 32 16 28 17 30 18 22 19 31 20 27 21 23 22 2 23
REMARK SMILES IDX 1 24 24 25 25 26 26 27 12 28 13 29 14 30 15 31 16 32 17 33
REMARK SMILES IDX 18 34 19 35
REMARK H PARENT 20 8
ROOT
ATOM      1  C   UNL     1      45.365 131.404  17.231  1.00  0.00     0.010 C 
ENDROOT
BRANCH   1   2
ATOM      2  C   UNL     1      43.931 131.549  16.696  1.00  0.00     0.086 C 
BRANCH   2   3
ATOM      3  C   UNL     1      43.598 132.923  16.174  1.00  0.00     0.165 A 
ATOM      4  N   UNL     1      42.636 134.656  15.237  1.00  0.00    -0.102 N 
ATOM      5  N   UNL     1      43.870 134.985  15.588  1.00  0.00     0.093 NA
ATOM      6  C   UNL     1      42.433 133.365  15.575  1.00  0.00     0.281 A 
ATOM      7  N   UNL     1      44.468 133.950  16.155  1.00  0.00    -0.147 N 
ATOM      8  H   UNL     1      45.449 133.951  16.512  1.00  0.00     0.342 HD
BRANCH   4   9
ATOM      9  C   UNL     1      41.689 135.563  14.633  1.00  0.00     0.156 A 
ATOM     10  C   UNL     1      41.696 136.934  17.370  1.00  0.00     0.032 A 
ATOM     11  C   UNL     1      42.010 137.527  16.126  1.00  0.00     0.022 A 
ATOM     12  C   UNL     1      40.792 135.847  17.535  1.00  0.00    -0.003 A 
ATOM     13  C   UNL     1      41.795 136.947  14.865  1.00  0.00     0.056 A 
ATOM     14  C   UNL     1      41.074 134.869  18.515  1.00  0.00     0.010 A 
ATOM     15  C   UNL     1      39.670 135.639  16.676  1.00  0.00    -0.017 A 
ATOM     16  C   UNL     1      40.353 133.675  18.563  1.00  0.00     0.001 A 
ATOM     17  C   UNL     1      39.143 136.677  15.887  1.00  0.00     0.009 A 
ATOM     18  C   UNL     1      39.005 134.399  16.695  1.00  0.00     0.009 A 
ATOM     19  C   UNL     1      40.671 135.061  13.795  1.00  0.00     0.064 A 
ATOM     20  C   UNL     1      39.340 133.431  17.640  1.00  0.00     0.001 A 
ATOM     21  C   UNL     1      38.801 136.545  14.532  1.00  0.00     0.011 A 
ATOM     22  C   UNL     1      39.391 135.649  13.616  1.00  0.00     0.042 A 
BRANCH  10  23
ATOM     23  C   UNL     1      42.341 137.502  18.533  1.00  0.00    -0.070 C 
ATOM     24  C   UNL     1      42.879 137.974  19.503  1.00  0.00     0.010 C 
ENDBRANCH  10  23
BRANCH  22  25
ATOM     25  N   UNL     1      38.625 135.342  12.441  1.00  0.00    -0.061 NA
BRANCH  25  26
ATOM     26  N   UNL     1      38.716 135.994  11.400  1.00  0.00     0.005 N 
ATOM     27  N   UNL     1      38.805 136.645  10.360  1.00  0.00    -0.003 NA
ENDBRANCH  25  26
ENDBRANCH  22  25
ENDBRANCH   4   9
ENDBRANCH   2   3
ENDBRANCH   1   2
BRANCH   1  28
ATOM     28  C   UNL     1      45.407 130.767  18.630  1.00  0.00     0.016 C 
BRANCH  28  29
ATOM     29  C   UNL     1      45.167 131.799  19.739  1.00  0.00     0.085 C 
BRANCH  29  30
ATOM     30  N   UNL     1      44.166 131.312  20.723  1.00  0.00    -0.291 NA
ATOM     31  C   UNL     1      42.795 131.677  20.319  1.00  0.00     0.106 C 
BRANCH  30  32
ATOM     32  C   UNL     1      44.439 131.728  22.123  1.00  0.00     0.157 C 
ATOM     33  C   UNL     1      45.026 130.566  22.931  1.00  0.00     0.041 C 
BRANCH  32  34
ATOM     34  C   UNL     1      45.313 132.917  22.206  1.00  0.00     0.081 C 
ATOM     35  N   UNL     1      45.996 133.849  22.269  1.00  0.00    -0.197 NA
ENDBRANCH  32  34
ENDBRANCH  30  32
ENDBRANCH  29  30
ENDBRANCH  28  29
ENDBRANCH   1  28
TORSDOF 11
ENDMDL


