REMARK SMILES Cc1cc(-n2cc(C[C@@H](C)/N=C(\O)[C@H](C)C#N)nn2)[nH+]c2ccc3ccccc3c12
REMARK SMILES IDX 11 1 12 2 13 3 14 5 15 6 16 7 17 8 9 9 10 10 8 11 7 12 18 13
REMARK SMILES IDX 6 14 19 15 5 16 4 17 3 18 20 19 2 20 21 21 30 22 22 23 29 24
REMARK SMILES IDX 23 25 28 26 24 27 27 28 25 29 26 30 1 32
REMARK H PARENT 13 4 20 31
ROOT
ATOM      1  N   UNL     1       2.141   0.622  -4.841  1.00  0.00    -0.251 NA
ENDROOT
BRANCH   1   2
ATOM      2  C   UNL     1       3.368   0.834  -4.464  1.00  0.00     0.198 C 
BRANCH   2   3
ATOM      3  O   UNL     1       4.410   0.077  -5.001  1.00  0.00    -0.496 OA
ATOM      4  H   UNL     1       5.372   0.223  -4.718  1.00  0.00     0.295 HD
ENDBRANCH   2   3
BRANCH   2   5
ATOM      5  C   UNL     1       3.658   1.895  -3.435  1.00  0.00     0.175 C 
ATOM      6  C   UNL     1       2.930   1.600  -2.120  1.00  0.00     0.034 C 
BRANCH   5   7
ATOM      7  C   UNL     1       3.268   3.215  -3.950  1.00  0.00     0.075 C 
ATOM      8  N   UNL     1       2.962   4.255  -4.356  1.00  0.00    -0.197 NA
ENDBRANCH   5   7
ENDBRANCH   2   5
ENDBRANCH   1   2
BRANCH   1   9
ATOM      9  C   UNL     1       1.736  -0.390  -5.819  1.00  0.00     0.112 C 
ATOM     10  C   UNL     1       1.991   0.125  -7.238  1.00  0.00     0.034 C 
BRANCH   9  11
ATOM     11  C   UNL     1       0.247  -0.719  -5.627  1.00  0.00     0.089 C 
BRANCH  11  12
ATOM     12  C   UNL     1      -0.003  -1.273  -4.257  1.00  0.00     0.111 A 
ATOM     13  N   UNL     1       0.162  -2.564  -3.914  1.00  0.00    -0.112 NA
ATOM     14  C   UNL     1      -0.255  -0.547  -3.115  1.00  0.00     0.260 A 
ATOM     15  N   UNL     1      -0.002  -2.631  -2.600  1.00  0.00     0.032 NA
ATOM     16  N   UNL     1      -0.254  -1.430  -2.098  1.00  0.00    -0.084 N 
BRANCH  16  17
ATOM     17  C   UNL     1      -0.410  -1.158  -0.691  1.00  0.00     0.306 A 
ATOM     18  C   UNL     1      -0.915   0.069  -0.249  1.00  0.00     0.105 A 
ATOM     19  N   UNL     1      -0.115  -2.120   0.224  1.00  0.00    -0.238 N 
ATOM     20  C   UNL     1      -1.066   0.327   1.121  1.00  0.00    -0.031 A 
ATOM     21  C   UNL     1      -0.197  -1.897   1.567  1.00  0.00     0.133 A 
ATOM     22  C   UNL     1      -0.566  -0.617   2.070  1.00  0.00     0.032 A 
ATOM     23  C   UNL     1       0.070  -2.953   2.448  1.00  0.00     0.053 A 
ATOM     24  C   UNL     1      -0.445  -0.386   3.482  1.00  0.00    -0.007 A 
ATOM     25  C   UNL     1       0.003  -2.767   3.821  1.00  0.00     0.013 A 
ATOM     26  C   UNL     1      -0.425   0.905   4.062  1.00  0.00     0.009 A 
ATOM     27  C   UNL     1      -0.224  -1.494   4.349  1.00  0.00    -0.017 A 
ATOM     28  C   UNL     1      -0.362   1.074   5.447  1.00  0.00     0.001 A 
ATOM     29  C   UNL     1      -0.174  -1.311   5.741  1.00  0.00     0.009 A 
ATOM     30  C   UNL     1      -0.263  -0.033   6.286  1.00  0.00     0.001 A 
ATOM     31  H   UNL     1       0.201  -3.058  -0.116  1.00  0.00     0.312 HD
ATOM     32  C   UNL     1      -1.896   1.536   1.480  1.00  0.00     0.045 C 
ENDBRANCH  16  17
ENDBRANCH  11  12
ENDBRANCH   9  11
ENDBRANCH   1   9
TORSDOF 8


