MODEL 1
REMARK VINA RESULT:      -6.0      0.000      0.000
REMARK SMILES C#C[C@@](O)(c1cc(N=[N+]=[N-])cc(SC(C)(C)CNC[C@](C)(O)C=C)ccc2cc1CC2)C(C)(C)C
REMARK SMILES IDX 14 1 15 2 16 3 13 4 12 5 5 6 6 7 29 8 7 9 28 10 30 11 11 12
REMARK SMILES IDX 27 13 31 14 26 15 25 16 3 17 2 18 1 19 4 20 32 22 33 23
REMARK SMILES IDX 34 24 35 25 8 26 9 27 10 28 17 29 18 30 19 32 20 33 21 34
REMARK SMILES IDX 22 35 23 37 24 38
REMARK H PARENT 4 21 18 31 22 36
ROOT
ATOM      1  C   UNL     1      42.811 132.824  15.276  1.00  0.00     0.027 C 
ATOM      2  C   UNL     1      42.367 131.973  16.480  1.00  0.00     0.024 C 
ATOM      3  C   UNL     1      42.697 131.966  13.999  1.00  0.00     0.024 C 
ENDROOT
BRANCH   1   4
ATOM      4  S   UNL     1      41.628 134.248  15.187  1.00  0.00    -0.119 SA
BRANCH   4   5
ATOM      5  C   UNL     1      42.104 135.139  16.681  1.00  0.00     0.008 A 
ATOM      6  C   UNL     1      43.790 134.354  20.586  1.00  0.00    -0.000 A 
ATOM      7  C   UNL     1      42.395 134.379  20.283  1.00  0.00     0.018 A 
ATOM      8  C   UNL     1      44.642 135.321  19.990  1.00  0.00    -0.040 A 
ATOM      9  C   UNL     1      41.856 134.989  19.141  1.00  0.00     0.039 A 
ATOM     10  C   UNL     1      44.609 135.539  18.628  1.00  0.00     0.007 A 
ATOM     11  C   UNL     1      44.807 136.655  20.667  1.00  0.00     0.041 C 
ATOM     12  C   UNL     1      42.099 134.422  17.886  1.00  0.00     0.025 A 
ATOM     13  C   UNL     1      44.208 136.836  18.385  1.00  0.00    -0.047 A 
ATOM     14  C   UNL     1      44.469 137.681  19.580  1.00  0.00     0.040 C 
ATOM     15  C   UNL     1      43.353 137.261  17.352  1.00  0.00     0.005 A 
ATOM     16  C   UNL     1      42.545 136.470  16.510  1.00  0.00     0.015 A 
BRANCH   6  17
ATOM     17  C   UNL     1      44.258 133.556  21.827  1.00  0.00     0.155 C 
BRANCH  17  18
ATOM     18  C   UNL     1      45.640 133.945  22.229  1.00  0.00    -0.066 C 
ATOM     19  C   UNL     1      46.756 134.266  22.559  1.00  0.00     0.007 C 
ENDBRANCH  17  18
BRANCH  17  20
ATOM     20  O   UNL     1      43.416 133.839  22.925  1.00  0.00    -0.373 OA
ATOM     21  H   UNL     1      43.947 134.337  23.602  1.00  0.00     0.213 HD
ENDBRANCH  17  20
BRANCH  17  22
ATOM     22  C   UNL     1      44.218 131.997  21.545  1.00  0.00     0.006 C 
ATOM     23  C   UNL     1      44.978 131.224  22.655  1.00  0.00     0.015 C 
ATOM     24  C   UNL     1      44.871 131.655  20.183  1.00  0.00     0.015 C 
ATOM     25  C   UNL     1      42.763 131.462  21.527  1.00  0.00     0.015 C 
ENDBRANCH  17  22
ENDBRANCH   6  17
BRANCH   9  26
ATOM     26  N   UNL     1      40.917 136.066  19.254  1.00  0.00    -0.061 NA
BRANCH  26  27
ATOM     27  N   UNL     1      39.707 135.890  19.117  1.00  0.00     0.005 N 
ATOM     28  N   UNL     1      38.500 135.709  18.976  1.00  0.00    -0.003 NA
ENDBRANCH  26  27
ENDBRANCH   9  26
ENDBRANCH   4   5
ENDBRANCH   1   4
BRANCH   1  29
ATOM     29  C   UNL     1      44.268 133.316  15.488  1.00  0.00     0.098 C 
BRANCH  29  30
ATOM     30  N   UNL     1      45.111 132.249  16.066  1.00  0.00    -0.312 NA
ATOM     31  H   UNL     1      44.519 131.396  16.180  1.00  0.00     0.122 HD
BRANCH  30  32
ATOM     32  C   UNL     1      46.252 131.905  15.198  1.00  0.00     0.120 C 
BRANCH  32  33
ATOM     33  C   UNL     1      46.293 130.375  14.911  1.00  0.00     0.092 C 
ATOM     34  C   UNL     1      45.125 129.672  15.629  1.00  0.00     0.048 C 
BRANCH  33  35
ATOM     35  O   UNL     1      47.492 129.807  15.396  1.00  0.00    -0.385 OA
ATOM     36  H   UNL     1      47.266 128.968  15.875  1.00  0.00     0.211 HD
ENDBRANCH  33  35
BRANCH  33  37
ATOM     37  C   UNL     1      46.163 130.111  13.415  1.00  0.00     0.001 C 
ATOM     38  C   UNL     1      47.025 130.593  12.514  1.00  0.00     0.007 C 
ENDBRANCH  33  37
ENDBRANCH  32  33
ENDBRANCH  30  32
ENDBRANCH  29  30
ENDBRANCH   1  29
TORSDOF 14
ENDMDL
MODEL 2
REMARK VINA RESULT:      -5.5      1.476      1.788
REMARK SMILES C#C[C@@](O)(c1cc(N=[N+]=[N-])cc(SC(C)(C)CNC[C@](C)(O)C=C)ccc2cc1CC2)C(C)(C)C
REMARK SMILES IDX 14 1 15 2 16 3 13 4 12 5 5 6 6 7 29 8 7 9 28 10 30 11 11 12
REMARK SMILES IDX 27 13 31 14 26 15 25 16 3 17 2 18 1 19 4 20 32 22 33 23
REMARK SMILES IDX 34 24 35 25 8 26 9 27 10 28 17 29 18 30 19 32 20 33 21 34
REMARK SMILES IDX 22 35 23 37 24 38
REMARK H PARENT 4 21 18 31 22 36
ROOT
ATOM      1  C   UNL     1      42.057 134.034  15.194  1.00  0.00     0.027 C 
ATOM      2  C   UNL     1      41.764 133.302  13.870  1.00  0.00     0.024 C 
ATOM      3  C   UNL     1      42.597 135.441  14.868  1.00  0.00     0.024 C 
ENDROOT
BRANCH   1   4
ATOM      4  S   UNL     1      40.433 134.172  16.077  1.00  0.00    -0.119 SA
BRANCH   4   5
ATOM      5  C   UNL     1      40.987 134.905  17.628  1.00  0.00     0.008 A 
ATOM      6  C   UNL     1      43.163 133.801  21.199  1.00  0.00    -0.000 A 
ATOM      7  C   UNL     1      41.747 133.715  21.041  1.00  0.00     0.018 A 
ATOM      8  C   UNL     1      43.850 134.924  20.666  1.00  0.00    -0.040 A 
ATOM      9  C   UNL     1      41.030 134.409  20.055  1.00  0.00     0.039 A 
ATOM     10  C   UNL     1      43.645 135.314  19.359  1.00  0.00     0.007 A 
ATOM     11  C   UNL     1      43.964 136.168  21.506  1.00  0.00     0.041 C 
ATOM     12  C   UNL     1      41.183 134.041  18.715  1.00  0.00     0.025 A 
ATOM     13  C   UNL     1      43.101 136.580  19.342  1.00  0.00    -0.047 A 
ATOM     14  C   UNL     1      43.413 137.285  20.613  1.00  0.00     0.040 C 
ATOM     15  C   UNL     1      42.101 137.043  18.468  1.00  0.00     0.005 A 
ATOM     16  C   UNL     1      41.280 136.287  17.606  1.00  0.00     0.015 A 
BRANCH   6  17
ATOM     17  C   UNL     1      43.839 132.902  22.263  1.00  0.00     0.155 C 
BRANCH  17  18
ATOM     18  C   UNL     1      44.445 133.719  23.353  1.00  0.00    -0.066 C 
ATOM     19  C   UNL     1      44.936 134.372  24.241  1.00  0.00     0.007 C 
ENDBRANCH  17  18
BRANCH  17  20
ATOM     20  O   UNL     1      42.875 132.065  22.865  1.00  0.00    -0.373 OA
ATOM     21  H   UNL     1      42.100 131.990  22.248  1.00  0.00     0.213 HD
ENDBRANCH  17  20
BRANCH  17  22
ATOM     22  C   UNL     1      44.961 131.995  21.607  1.00  0.00     0.006 C 
ATOM     23  C   UNL     1      45.260 130.766  22.505  1.00  0.00     0.015 C 
ATOM     24  C   UNL     1      46.279 132.785  21.413  1.00  0.00     0.015 C 
ATOM     25  C   UNL     1      44.516 131.457  20.223  1.00  0.00     0.015 C 
ENDBRANCH  17  22
ENDBRANCH   6  17
BRANCH   9  26
ATOM     26  N   UNL     1      40.013 135.354  20.410  1.00  0.00    -0.061 NA
BRANCH  26  27
ATOM     27  N   UNL     1      40.113 136.072  21.406  1.00  0.00     0.005 N 
ATOM     28  N   UNL     1      40.218 136.791  22.396  1.00  0.00    -0.003 NA
ENDBRANCH  26  27
ENDBRANCH   9  26
ENDBRANCH   4   5
ENDBRANCH   1   4
BRANCH   1  29
ATOM     29  C   UNL     1      43.083 133.222  16.028  1.00  0.00     0.098 C 
BRANCH  29  30
ATOM     30  N   UNL     1      43.521 132.012  15.303  1.00  0.00    -0.312 NA
ATOM     31  H   UNL     1      44.114 132.315  14.497  1.00  0.00     0.122 HD
BRANCH  30  32
ATOM     32  C   UNL     1      44.321 131.110  16.150  1.00  0.00     0.120 C 
BRANCH  32  33
ATOM     33  C   UNL     1      45.405 130.371  15.310  1.00  0.00     0.092 C 
ATOM     34  C   UNL     1      45.222 128.847  15.434  1.00  0.00     0.048 C 
BRANCH  33  35
ATOM     35  O   UNL     1      46.700 130.682  15.780  1.00  0.00    -0.385 OA
ATOM     36  H   UNL     1      46.840 131.660  15.681  1.00  0.00     0.211 HD
ENDBRANCH  33  35
BRANCH  33  37
ATOM     37  C   UNL     1      45.284 130.748  13.838  1.00  0.00     0.001 C 
ATOM     38  C   UNL     1      46.255 130.519  12.947  1.00  0.00     0.007 C 
ENDBRANCH  33  37
ENDBRANCH  32  33
ENDBRANCH  30  32
ENDBRANCH  29  30
ENDBRANCH   1  29
TORSDOF 14
ENDMDL
MODEL 3
REMARK VINA RESULT:      -5.4      1.606      2.134
REMARK SMILES C#C[C@@](O)(c1cc(N=[N+]=[N-])cc(SC(C)(C)CNC[C@](C)(O)C=C)ccc2cc1CC2)C(C)(C)C
REMARK SMILES IDX 14 1 15 2 16 3 13 4 12 5 5 6 6 7 29 8 7 9 28 10 30 11 11 12
REMARK SMILES IDX 27 13 31 14 26 15 25 16 3 17 2 18 1 19 4 20 32 22 33 23
REMARK SMILES IDX 34 24 35 25 8 26 9 27 10 28 17 29 18 30 19 32 20 33 21 34
REMARK SMILES IDX 22 35 23 37 24 38
REMARK H PARENT 4 21 18 31 22 36
ROOT
ATOM      1  C   UNL     1      41.752 134.391  15.462  1.00  0.00     0.027 C 
ATOM      2  C   UNL     1      41.113 133.366  16.417  1.00  0.00     0.024 C 
ATOM      3  C   UNL     1      41.347 134.034  14.017  1.00  0.00     0.024 C 
ENDROOT
BRANCH   1   4
ATOM      4  S   UNL     1      41.044 136.040  15.926  1.00  0.00    -0.119 SA
BRANCH   4   5
ATOM      5  C   UNL     1      42.010 136.384  17.409  1.00  0.00     0.008 A 
ATOM      6  C   UNL     1      43.543 134.325  20.891  1.00  0.00    -0.000 A 
ATOM      7  C   UNL     1      42.282 134.992  20.820  1.00  0.00     0.018 A 
ATOM      8  C   UNL     1      44.673 134.919  20.270  1.00  0.00    -0.040 A 
ATOM      9  C   UNL     1      41.963 135.952  19.848  1.00  0.00     0.039 A 
ATOM     10  C   UNL     1      44.608 135.351  18.962  1.00  0.00     0.007 A 
ATOM     11  C   UNL     1      45.480 135.925  21.048  1.00  0.00     0.041 C 
ATOM     12  C   UNL     1      41.804 135.551  18.518  1.00  0.00     0.025 A 
ATOM     13  C   UNL     1      44.804 136.715  18.923  1.00  0.00    -0.047 A 
ATOM     14  C   UNL     1      45.529 137.160  20.143  1.00  0.00     0.040 C 
ATOM     15  C   UNL     1      44.132 137.628  18.090  1.00  0.00     0.005 A 
ATOM     16  C   UNL     1      42.978 137.408  17.311  1.00  0.00     0.015 A 
BRANCH   6  17
ATOM     17  C   UNL     1      43.726 133.212  21.950  1.00  0.00     0.155 C 
BRANCH  17  18
ATOM     18  C   UNL     1      44.712 133.615  22.993  1.00  0.00    -0.066 C 
ATOM     19  C   UNL     1      45.517 133.937  23.833  1.00  0.00     0.007 C 
ENDBRANCH  17  18
BRANCH  17  20
ATOM     20  O   UNL     1      42.502 132.975  22.613  1.00  0.00    -0.373 OA
ATOM     21  H   UNL     1      42.697 132.499  23.464  1.00  0.00     0.213 HD
ENDBRANCH  17  20
BRANCH  17  22
ATOM     22  C   UNL     1      44.207 131.861  21.275  1.00  0.00     0.006 C 
ATOM     23  C   UNL     1      43.791 130.642  22.140  1.00  0.00     0.015 C 
ATOM     24  C   UNL     1      45.746 131.834  21.107  1.00  0.00     0.015 C 
ATOM     25  C   UNL     1      43.568 131.670  19.874  1.00  0.00     0.015 C 
ENDBRANCH  17  22
ENDBRANCH   6  17
BRANCH   9  26
ATOM     26  N   UNL     1      41.617 137.292  20.222  1.00  0.00    -0.061 NA
BRANCH  26  27
ATOM     27  N   UNL     1      42.163 137.865  21.165  1.00  0.00     0.005 N 
ATOM     28  N   UNL     1      42.705 138.432  22.111  1.00  0.00    -0.003 NA
ENDBRANCH  26  27
ENDBRANCH   9  26
ENDBRANCH   4   5
ENDBRANCH   1   4
BRANCH   1  29
ATOM     29  C   UNL     1      43.295 134.375  15.627  1.00  0.00     0.098 C 
BRANCH  29  30
ATOM     30  N   UNL     1      43.765 133.062  16.115  1.00  0.00    -0.312 NA
ATOM     31  H   UNL     1      43.198 132.321  15.643  1.00  0.00     0.122 HD
BRANCH  30  32
ATOM     32  C   UNL     1      45.185 132.824  15.803  1.00  0.00     0.120 C 
BRANCH  32  33
ATOM     33  C   UNL     1      45.386 131.422  15.154  1.00  0.00     0.092 C 
ATOM     34  C   UNL     1      46.761 131.352  14.462  1.00  0.00     0.048 C 
BRANCH  33  35
ATOM     35  O   UNL     1      44.403 131.181  14.169  1.00  0.00    -0.385 OA
ATOM     36  H   UNL     1      43.562 130.919  14.628  1.00  0.00     0.211 HD
ENDBRANCH  33  35
BRANCH  33  37
ATOM     37  C   UNL     1      45.331 130.331  16.218  1.00  0.00     0.001 C 
ATOM     38  C   UNL     1      45.839 130.487  17.446  1.00  0.00     0.007 C 
ENDBRANCH  33  37
ENDBRANCH  32  33
ENDBRANCH  30  32
ENDBRANCH  29  30
ENDBRANCH   1  29
TORSDOF 14
ENDMDL
MODEL 4
REMARK VINA RESULT:      -5.3      1.222      1.603
REMARK SMILES C#C[C@@](O)(c1cc(N=[N+]=[N-])cc(SC(C)(C)CNC[C@](C)(O)C=C)ccc2cc1CC2)C(C)(C)C
REMARK SMILES IDX 14 1 15 2 16 3 13 4 12 5 5 6 6 7 29 8 7 9 28 10 30 11 11 12
REMARK SMILES IDX 27 13 31 14 26 15 25 16 3 17 2 18 1 19 4 20 32 22 33 23
REMARK SMILES IDX 34 24 35 25 8 26 9 27 10 28 17 29 18 30 19 32 20 33 21 34
REMARK SMILES IDX 22 35 23 37 24 38
REMARK H PARENT 4 21 18 31 22 36
ROOT
ATOM      1  C   UNL     1      41.956 134.129  15.092  1.00  0.00     0.027 C 
ATOM      2  C   UNL     1      41.503 133.203  13.948  1.00  0.00     0.024 C 
ATOM      3  C   UNL     1      42.347 135.495  14.492  1.00  0.00     0.024 C 
ENDROOT
BRANCH   1   4
ATOM      4  S   UNL     1      40.489 134.327  16.207  1.00  0.00    -0.119 SA
BRANCH   4   5
ATOM      5  C   UNL     1      41.282 135.105  17.627  1.00  0.00     0.008 A 
ATOM      6  C   UNL     1      43.986 134.097  20.849  1.00  0.00    -0.000 A 
ATOM      7  C   UNL     1      42.562 134.020  20.917  1.00  0.00     0.018 A 
ATOM      8  C   UNL     1      44.586 135.195  20.176  1.00  0.00    -0.040 A 
ATOM      9  C   UNL     1      41.703 134.688  20.032  1.00  0.00     0.039 A 
ATOM     10  C   UNL     1      44.181 135.544  18.905  1.00  0.00     0.007 A 
ATOM     11  C   UNL     1      44.837 136.464  20.945  1.00  0.00     0.041 C 
ATOM     12  C   UNL     1      41.643 134.275  18.698  1.00  0.00     0.025 A 
ATOM     13  C   UNL     1      43.647 136.814  18.931  1.00  0.00    -0.047 A 
ATOM     14  C   UNL     1      44.158 137.557  20.113  1.00  0.00     0.040 C 
ATOM     15  C   UNL     1      42.524 137.258  18.209  1.00  0.00     0.005 A 
ATOM     16  C   UNL     1      41.575 136.482  17.512  1.00  0.00     0.015 A 
BRANCH   6  17
ATOM     17  C   UNL     1      44.816 133.227  21.824  1.00  0.00     0.155 C 
BRANCH  17  18
ATOM     18  C   UNL     1      46.255 133.614  21.801  1.00  0.00    -0.066 C 
ATOM     19  C   UNL     1      47.420 133.931  21.791  1.00  0.00     0.007 C 
ENDBRANCH  17  18
BRANCH  17  20
ATOM     20  O   UNL     1      44.360 133.421  23.146  1.00  0.00    -0.373 OA
ATOM     21  H   UNL     1      45.096 133.834  23.670  1.00  0.00     0.213 HD
ENDBRANCH  17  20
BRANCH  17  22
ATOM     22  C   UNL     1      44.685 131.690  21.461  1.00  0.00     0.006 C 
ATOM     23  C   UNL     1      45.298 131.407  20.064  1.00  0.00     0.015 C 
ATOM     24  C   UNL     1      43.203 131.241  21.440  1.00  0.00     0.015 C 
ATOM     25  C   UNL     1      45.441 130.801  22.483  1.00  0.00     0.015 C 
ENDBRANCH  17  22
ENDBRANCH   6  17
BRANCH   9  26
ATOM     26  N   UNL     1      40.759 135.655  20.510  1.00  0.00    -0.061 NA
BRANCH  26  27
ATOM     27  N   UNL     1      39.577 135.370  20.702  1.00  0.00     0.005 N 
ATOM     28  N   UNL     1      38.396 135.093  20.894  1.00  0.00    -0.003 NA
ENDBRANCH  26  27
ENDBRANCH   9  26
ENDBRANCH   4   5
ENDBRANCH   1   4
BRANCH   1  29
ATOM     29  C   UNL     1      43.153 133.489  15.846  1.00  0.00     0.098 C 
BRANCH  29  30
ATOM     30  N   UNL     1      43.175 132.023  15.663  1.00  0.00    -0.312 NA
ATOM     31  H   UNL     1      42.192 131.703  15.506  1.00  0.00     0.122 HD
BRANCH  30  32
ATOM     32  C   UNL     1      43.983 131.617  14.499  1.00  0.00     0.120 C 
BRANCH  32  33
ATOM     33  C   UNL     1      45.418 131.200  14.935  1.00  0.00     0.092 C 
ATOM     34  C   UNL     1      45.382 130.574  16.343  1.00  0.00     0.048 C 
BRANCH  33  35
ATOM     35  O   UNL     1      46.270 132.325  14.993  1.00  0.00    -0.385 OA
ATOM     36  H   UNL     1      47.200 132.003  15.123  1.00  0.00     0.211 HD
ENDBRANCH  33  35
BRANCH  33  37
ATOM     37  C   UNL     1      45.989 130.168  13.969  1.00  0.00     0.001 C 
ATOM     38  C   UNL     1      46.641 130.502  12.850  1.00  0.00     0.007 C 
ENDBRANCH  33  37
ENDBRANCH  32  33
ENDBRANCH  30  32
ENDBRANCH  29  30
ENDBRANCH   1  29
TORSDOF 14
ENDMDL
MODEL 5
REMARK VINA RESULT:      -5.3      1.815      2.857
REMARK SMILES C#C[C@@](O)(c1cc(N=[N+]=[N-])cc(SC(C)(C)CNC[C@](C)(O)C=C)ccc2cc1CC2)C(C)(C)C
REMARK SMILES IDX 14 1 15 2 16 3 13 4 12 5 5 6 6 7 29 8 7 9 28 10 30 11 11 12
REMARK SMILES IDX 27 13 31 14 26 15 25 16 3 17 2 18 1 19 4 20 32 22 33 23
REMARK SMILES IDX 34 24 35 25 8 26 9 27 10 28 17 29 18 30 19 32 20 33 21 34
REMARK SMILES IDX 22 35 23 37 24 38
REMARK H PARENT 4 21 18 31 22 36
ROOT
ATOM      1  C   UNL     1      43.682 133.276  16.704  1.00  0.00     0.027 C 
ATOM      2  C   UNL     1      44.506 134.383  16.019  1.00  0.00     0.024 C 
ATOM      3  C   UNL     1      44.336 132.945  18.060  1.00  0.00     0.024 C 
ENDROOT
BRANCH   1   4
ATOM      4  S   UNL     1      41.991 133.985  16.976  1.00  0.00    -0.119 SA
BRANCH   4   5
ATOM      5  C   UNL     1      42.431 135.523  17.809  1.00  0.00     0.008 A 
ATOM      6  C   UNL     1      44.902 136.906  21.078  1.00  0.00    -0.000 A 
ATOM      7  C   UNL     1      43.530 136.528  21.189  1.00  0.00     0.018 A 
ATOM      8  C   UNL     1      45.325 137.644  19.941  1.00  0.00    -0.040 A 
ATOM      9  C   UNL     1      42.654 136.447  20.096  1.00  0.00     0.039 A 
ATOM     10  C   UNL     1      45.002 137.219  18.670  1.00  0.00     0.007 A 
ATOM     11  C   UNL     1      45.207 139.145  19.970  1.00  0.00     0.041 C 
ATOM     12  C   UNL     1      42.837 135.436  19.148  1.00  0.00     0.025 A 
ATOM     13  C   UNL     1      44.208 138.167  18.061  1.00  0.00    -0.047 A 
ATOM     14  C   UNL     1      44.408 139.491  18.708  1.00  0.00     0.040 C 
ATOM     15  C   UNL     1      43.106 137.914  17.224  1.00  0.00     0.005 A 
ATOM     16  C   UNL     1      42.432 136.693  17.017  1.00  0.00     0.015 A 
BRANCH   6  17
ATOM     17  C   UNL     1      45.783 136.853  22.350  1.00  0.00     0.155 C 
BRANCH  17  18
ATOM     18  C   UNL     1      46.355 138.192  22.667  1.00  0.00    -0.066 C 
ATOM     19  C   UNL     1      46.822 139.274  22.930  1.00  0.00     0.007 C 
ENDBRANCH  17  18
BRANCH  17  20
ATOM     20  O   UNL     1      45.000 136.468  23.460  1.00  0.00    -0.373 OA
ATOM     21  H   UNL     1      44.638 137.291  23.884  1.00  0.00     0.213 HD
ENDBRANCH  17  20
BRANCH  17  22
ATOM     22  C   UNL     1      46.965 135.810  22.177  1.00  0.00     0.006 C 
ATOM     23  C   UNL     1      48.049 136.372  21.219  1.00  0.00     0.015 C 
ATOM     24  C   UNL     1      46.452 134.470  21.595  1.00  0.00     0.015 C 
ATOM     25  C   UNL     1      47.658 135.511  23.531  1.00  0.00     0.015 C 
ENDBRANCH  17  22
ENDBRANCH   6  17
BRANCH   9  26
ATOM     26  N   UNL     1      41.476 137.261  20.034  1.00  0.00    -0.061 NA
BRANCH  26  27
ATOM     27  N   UNL     1      40.419 136.915  20.561  1.00  0.00     0.005 N 
ATOM     28  N   UNL     1      39.360 136.576  21.085  1.00  0.00    -0.003 NA
ENDBRANCH  26  27
ENDBRANCH   9  26
ENDBRANCH   4   5
ENDBRANCH   1   4
BRANCH   1  29
ATOM     29  C   UNL     1      43.626 132.021  15.792  1.00  0.00     0.098 C 
BRANCH  29  30
ATOM     30  N   UNL     1      44.785 131.975  14.878  1.00  0.00    -0.312 NA
ATOM     31  H   UNL     1      44.936 132.938  14.499  1.00  0.00     0.122 HD
BRANCH  30  32
ATOM     32  C   UNL     1      46.020 131.551  15.562  1.00  0.00     0.120 C 
BRANCH  32  33
ATOM     33  C   UNL     1      46.442 130.120  15.114  1.00  0.00     0.092 C 
ATOM     34  C   UNL     1      45.237 129.164  15.198  1.00  0.00     0.048 C 
BRANCH  33  35
ATOM     35  O   UNL     1      47.450 129.608  15.961  1.00  0.00    -0.385 OA
ATOM     36  H   UNL     1      47.319 129.991  16.867  1.00  0.00     0.211 HD
ENDBRANCH  33  35
BRANCH  33  37
ATOM     37  C   UNL     1      46.937 130.138  13.672  1.00  0.00     0.001 C 
ATOM     38  C   UNL     1      47.634 131.156  13.156  1.00  0.00     0.007 C 
ENDBRANCH  33  37
ENDBRANCH  32  33
ENDBRANCH  30  32
ENDBRANCH  29  30
ENDBRANCH   1  29
TORSDOF 14
ENDMDL
MODEL 6
REMARK VINA RESULT:      -5.3      2.636      3.888
REMARK SMILES C#C[C@@](O)(c1cc(N=[N+]=[N-])cc(SC(C)(C)CNC[C@](C)(O)C=C)ccc2cc1CC2)C(C)(C)C
REMARK SMILES IDX 14 1 15 2 16 3 13 4 12 5 5 6 6 7 29 8 7 9 28 10 30 11 11 12
REMARK SMILES IDX 27 13 31 14 26 15 25 16 3 17 2 18 1 19 4 20 32 22 33 23
REMARK SMILES IDX 34 24 35 25 8 26 9 27 10 28 17 29 18 30 19 32 20 33 21 34
REMARK SMILES IDX 22 35 23 37 24 38
REMARK H PARENT 4 21 18 31 22 36
ROOT
ATOM      1  C   UNL     1      43.109 132.779  15.931  1.00  0.00     0.027 C 
ATOM      2  C   UNL     1      42.172 132.165  16.989  1.00  0.00     0.024 C 
ATOM      3  C   UNL     1      42.791 132.139  14.564  1.00  0.00     0.024 C 
ENDROOT
BRANCH   1   4
ATOM      4  S   UNL     1      42.719 134.590  15.885  1.00  0.00    -0.119 SA
BRANCH   4   5
ATOM      5  C   UNL     1      42.828 134.974  17.643  1.00  0.00     0.008 A 
ATOM      6  C   UNL     1      45.152 137.433  20.338  1.00  0.00    -0.000 A 
ATOM      7  C   UNL     1      45.454 136.081  19.993  1.00  0.00     0.018 A 
ATOM      8  C   UNL     1      43.798 137.804  20.555  1.00  0.00    -0.040 A 
ATOM      9  C   UNL     1      44.521 135.192  19.438  1.00  0.00     0.039 A 
ATOM     10  C   UNL     1      42.827 137.480  19.631  1.00  0.00     0.007 A 
ATOM     11  C   UNL     1      43.209 137.619  21.927  1.00  0.00     0.041 C 
ATOM     12  C   UNL     1      44.070 135.405  18.132  1.00  0.00     0.025 A 
ATOM     13  C   UNL     1      41.908 136.634  20.214  1.00  0.00    -0.047 A 
ATOM     14  C   UNL     1      41.944 136.785  21.693  1.00  0.00     0.040 C 
ATOM     15  C   UNL     1      41.287 135.531  19.600  1.00  0.00     0.005 A 
ATOM     16  C   UNL     1      41.625 134.910  18.381  1.00  0.00     0.015 A 
BRANCH   6  17
ATOM     17  C   UNL     1      46.302 138.336  20.846  1.00  0.00     0.155 C 
BRANCH  17  18
ATOM     18  C   UNL     1      47.356 138.503  19.806  1.00  0.00    -0.066 C 
ATOM     19  C   UNL     1      48.208 138.648  18.962  1.00  0.00     0.007 C 
ENDBRANCH  17  18
BRANCH  17  20
ATOM     20  O   UNL     1      45.806 139.625  21.139  1.00  0.00    -0.373 OA
ATOM     21  H   UNL     1      46.021 139.832  22.087  1.00  0.00     0.213 HD
ENDBRANCH  17  20
BRANCH  17  22
ATOM     22  C   UNL     1      46.957 137.733  22.158  1.00  0.00     0.006 C 
ATOM     23  C   UNL     1      48.502 137.689  22.023  1.00  0.00     0.015 C 
ATOM     24  C   UNL     1      46.453 136.294  22.428  1.00  0.00     0.015 C 
ATOM     25  C   UNL     1      46.628 138.598  23.403  1.00  0.00     0.015 C 
ENDBRANCH  17  22
ENDBRANCH   6  17
BRANCH   9  26
ATOM     26  N   UNL     1      44.168 133.978  20.113  1.00  0.00    -0.061 NA
BRANCH  26  27
ATOM     27  N   UNL     1      44.242 133.870  21.337  1.00  0.00     0.005 N 
ATOM     28  N   UNL     1      44.323 133.762  22.559  1.00  0.00    -0.003 NA
ENDBRANCH  26  27
ENDBRANCH   9  26
ENDBRANCH   4   5
ENDBRANCH   1   4
BRANCH   1  29
ATOM     29  C   UNL     1      44.588 132.532  16.331  1.00  0.00     0.098 C 
BRANCH  29  30
ATOM     30  N   UNL     1      45.412 132.204  15.149  1.00  0.00    -0.312 NA
ATOM     31  H   UNL     1      45.835 133.092  14.795  1.00  0.00     0.122 HD
BRANCH  30  32
ATOM     32  C   UNL     1      46.504 131.268  15.469  1.00  0.00     0.120 C 
BRANCH  32  33
ATOM     33  C   UNL     1      46.439 130.004  14.563  1.00  0.00     0.092 C 
ATOM     34  C   UNL     1      45.198 129.163  14.917  1.00  0.00     0.048 C 
BRANCH  33  35
ATOM     35  O   UNL     1      47.574 129.187  14.760  1.00  0.00    -0.385 OA
ATOM     36  H   UNL     1      48.381 129.714  14.521  1.00  0.00     0.211 HD
ENDBRANCH  33  35
BRANCH  33  37
ATOM     37  C   UNL     1      46.340 130.406  13.096  1.00  0.00     0.001 C 
ATOM     38  C   UNL     1      47.383 130.370  12.260  1.00  0.00     0.007 C 
ENDBRANCH  33  37
ENDBRANCH  32  33
ENDBRANCH  30  32
ENDBRANCH  29  30
ENDBRANCH   1  29
TORSDOF 14
ENDMDL
MODEL 7
REMARK VINA RESULT:      -5.3      3.511      6.201
REMARK SMILES C#C[C@@](O)(c1cc(N=[N+]=[N-])cc(SC(C)(C)CNC[C@](C)(O)C=C)ccc2cc1CC2)C(C)(C)C
REMARK SMILES IDX 14 1 15 2 16 3 13 4 12 5 5 6 6 7 29 8 7 9 28 10 30 11 11 12
REMARK SMILES IDX 27 13 31 14 26 15 25 16 3 17 2 18 1 19 4 20 32 22 33 23
REMARK SMILES IDX 34 24 35 25 8 26 9 27 10 28 17 29 18 30 19 32 20 33 21 34
REMARK SMILES IDX 22 35 23 37 24 38
REMARK H PARENT 4 21 18 31 22 36
ROOT
ATOM      1  C   UNL     1      43.814 132.645  17.437  1.00  0.00     0.027 C 
ATOM      2  C   UNL     1      42.396 132.077  17.633  1.00  0.00     0.024 C 
ATOM      3  C   UNL     1      43.870 133.369  16.076  1.00  0.00     0.024 C 
ENDROOT
BRANCH   1   4
ATOM      4  S   UNL     1      44.077 133.863  18.809  1.00  0.00    -0.119 SA
BRANCH   4   5
ATOM      5  C   UNL     1      42.456 134.653  18.835  1.00  0.00     0.008 A 
ATOM      6  C   UNL     1      39.432 136.053  16.078  1.00  0.00    -0.000 A 
ATOM      7  C   UNL     1      40.500 136.845  16.596  1.00  0.00     0.018 A 
ATOM      8  C   UNL     1      38.768 135.140  16.939  1.00  0.00    -0.040 A 
ATOM      9  C   UNL     1      41.231 136.510  17.746  1.00  0.00     0.039 A 
ATOM     10  C   UNL     1      39.491 134.249  17.705  1.00  0.00     0.007 A 
ATOM     11  C   UNL     1      37.619 135.638  17.774  1.00  0.00     0.041 C 
ATOM     12  C   UNL     1      42.090 135.408  17.711  1.00  0.00     0.025 A 
ATOM     13  C   UNL     1      39.270 134.512  19.040  1.00  0.00    -0.047 A 
ATOM     14  C   UNL     1      37.987 135.244  19.209  1.00  0.00     0.040 C 
ATOM     15  C   UNL     1      40.229 134.458  20.067  1.00  0.00     0.005 A 
ATOM     16  C   UNL     1      41.631 134.368  19.946  1.00  0.00     0.015 A 
BRANCH   6  17
ATOM     17  C   UNL     1      38.778 136.485  14.742  1.00  0.00     0.155 C 
BRANCH  17  18
ATOM     18  C   UNL     1      37.584 137.345  14.979  1.00  0.00    -0.066 C 
ATOM     19  C   UNL     1      36.615 138.042  15.162  1.00  0.00     0.007 C 
ENDBRANCH  17  18
BRANCH  17  20
ATOM     20  O   UNL     1      39.693 137.252  13.987  1.00  0.00    -0.373 OA
ATOM     21  H   UNL     1      39.237 137.547  13.155  1.00  0.00     0.213 HD
ENDBRANCH  17  20
BRANCH  17  22
ATOM     22  C   UNL     1      38.348 135.221  13.888  1.00  0.00     0.006 C 
ATOM     23  C   UNL     1      36.984 134.671  14.381  1.00  0.00     0.015 C 
ATOM     24  C   UNL     1      39.396 134.086  13.997  1.00  0.00     0.015 C 
ATOM     25  C   UNL     1      38.184 135.581  12.389  1.00  0.00     0.015 C 
ENDBRANCH  17  22
ENDBRANCH   6  17
BRANCH   9  26
ATOM     26  N   UNL     1      41.252 137.380  18.885  1.00  0.00    -0.061 NA
BRANCH  26  27
ATOM     27  N   UNL     1      40.254 138.005  19.244  1.00  0.00     0.005 N 
ATOM     28  N   UNL     1      39.258 138.625  19.610  1.00  0.00    -0.003 NA
ENDBRANCH  26  27
ENDBRANCH   9  26
ENDBRANCH   4   5
ENDBRANCH   1   4
BRANCH   1  29
ATOM     29  C   UNL     1      44.856 131.496  17.499  1.00  0.00     0.098 C 
BRANCH  29  30
ATOM     30  N   UNL     1      45.804 131.575  16.369  1.00  0.00    -0.312 NA
ATOM     31  H   UNL     1      46.495 132.331  16.580  1.00  0.00     0.122 HD
BRANCH  30  32
ATOM     32  C   UNL     1      46.545 130.316  16.170  1.00  0.00     0.120 C 
BRANCH  32  33
ATOM     33  C   UNL     1      46.073 129.590  14.876  1.00  0.00     0.092 C 
ATOM     34  C   UNL     1      45.002 128.537  15.221  1.00  0.00     0.048 C 
BRANCH  33  35
ATOM     35  O   UNL     1      47.149 128.914  14.261  1.00  0.00    -0.385 OA
ATOM     36  H   UNL     1      46.779 128.174  13.713  1.00  0.00     0.211 HD
ENDBRANCH  33  35
BRANCH  33  37
ATOM     37  C   UNL     1      45.463 130.589  13.899  1.00  0.00     0.001 C 
ATOM     38  C   UNL     1      44.147 130.674  13.673  1.00  0.00     0.007 C 
ENDBRANCH  33  37
ENDBRANCH  32  33
ENDBRANCH  30  32
ENDBRANCH  29  30
ENDBRANCH   1  29
TORSDOF 14
ENDMDL
MODEL 8
REMARK VINA RESULT:      -5.2      3.577      5.638
REMARK SMILES C#C[C@@](O)(c1cc(N=[N+]=[N-])cc(SC(C)(C)CNC[C@](C)(O)C=C)ccc2cc1CC2)C(C)(C)C
REMARK SMILES IDX 14 1 15 2 16 3 13 4 12 5 5 6 6 7 29 8 7 9 28 10 30 11 11 12
REMARK SMILES IDX 27 13 31 14 26 15 25 16 3 17 2 18 1 19 4 20 32 22 33 23
REMARK SMILES IDX 34 24 35 25 8 26 9 27 10 28 17 29 18 30 19 32 20 33 21 34
REMARK SMILES IDX 22 35 23 37 24 38
REMARK H PARENT 4 21 18 31 22 36
ROOT
ATOM      1  C   UNL     1      43.586 132.089  16.737  1.00  0.00     0.027 C 
ATOM      2  C   UNL     1      44.771 131.404  17.444  1.00  0.00     0.024 C 
ATOM      3  C   UNL     1      42.306 131.822  17.555  1.00  0.00     0.024 C 
ENDROOT
BRANCH   1   4
ATOM      4  S   UNL     1      43.966 133.903  16.734  1.00  0.00    -0.119 SA
BRANCH   4   5
ATOM      5  C   UNL     1      42.348 134.556  16.277  1.00  0.00     0.008 A 
ATOM      6  C   UNL     1      39.373 137.320  17.765  1.00  0.00    -0.000 A 
ATOM      7  C   UNL     1      39.406 135.920  18.043  1.00  0.00     0.018 A 
ATOM      8  C   UNL     1      39.693 137.771  16.457  1.00  0.00    -0.040 A 
ATOM      9  C   UNL     1      40.124 134.990  17.277  1.00  0.00     0.039 A 
ATOM     10  C   UNL     1      40.844 137.343  15.830  1.00  0.00     0.007 A 
ATOM     11  C   UNL     1      38.599 137.828  15.425  1.00  0.00     0.041 C 
ATOM     12  C   UNL     1      41.522 135.011  17.314  1.00  0.00     0.025 A 
ATOM     13  C   UNL     1      40.507 136.635  14.696  1.00  0.00    -0.047 A 
ATOM     14  C   UNL     1      39.143 137.017  14.244  1.00  0.00     0.040 C 
ATOM     15  C   UNL     1      41.143 135.473  14.222  1.00  0.00     0.005 A 
ATOM     16  C   UNL     1      42.074 134.654  14.894  1.00  0.00     0.015 A 
BRANCH   6  17
ATOM     17  C   UNL     1      38.625 138.248  18.753  1.00  0.00     0.155 C 
BRANCH  17  18
ATOM     18  C   UNL     1      39.072 138.016  20.156  1.00  0.00    -0.066 C 
ATOM     19  C   UNL     1      39.436 137.820  21.290  1.00  0.00     0.007 C 
ENDBRANCH  17  18
BRANCH  17  20
ATOM     20  O   UNL     1      38.906 139.598  18.449  1.00  0.00    -0.373 OA
ATOM     21  H   UNL     1      38.999 140.095  19.305  1.00  0.00     0.213 HD
ENDBRANCH  17  20
BRANCH  17  22
ATOM     22  C   UNL     1      37.058 138.023  18.663  1.00  0.00     0.006 C 
ATOM     23  C   UNL     1      36.742 136.572  18.213  1.00  0.00     0.015 C 
ATOM     24  C   UNL     1      36.408 138.997  17.649  1.00  0.00     0.015 C 
ATOM     25  C   UNL     1      36.376 138.237  20.039  1.00  0.00     0.015 C 
ENDBRANCH  17  22
ENDBRANCH   6  17
BRANCH   9  26
ATOM     26  N   UNL     1      39.456 133.913  16.609  1.00  0.00    -0.061 NA
BRANCH  26  27
ATOM     27  N   UNL     1      38.436 134.092  15.945  1.00  0.00     0.005 N 
ATOM     28  N   UNL     1      37.413 134.269  15.286  1.00  0.00    -0.003 NA
ENDBRANCH  26  27
ENDBRANCH   9  26
ENDBRANCH   4   5
ENDBRANCH   1   4
BRANCH   1  29
ATOM     29  C   UNL     1      43.447 131.541  15.291  1.00  0.00     0.098 C 
BRANCH  29  30
ATOM     30  N   UNL     1      44.396 130.435  15.048  1.00  0.00    -0.312 NA
ATOM     31  H   UNL     1      43.842 129.560  14.906  1.00  0.00     0.122 HD
BRANCH  30  32
ATOM     32  C   UNL     1      45.220 130.658  13.846  1.00  0.00     0.120 C 
BRANCH  32  33
ATOM     33  C   UNL     1      46.683 131.026  14.234  1.00  0.00     0.092 C 
ATOM     34  C   UNL     1      47.244 129.988  15.225  1.00  0.00     0.048 C 
BRANCH  33  35
ATOM     35  O   UNL     1      46.731 132.287  14.869  1.00  0.00    -0.385 OA
ATOM     36  H   UNL     1      47.291 132.891  14.316  1.00  0.00     0.211 HD
ENDBRANCH  33  35
BRANCH  33  37
ATOM     37  C   UNL     1      47.574 131.035  12.997  1.00  0.00     0.001 C 
ATOM     38  C   UNL     1      47.201 130.503  11.828  1.00  0.00     0.007 C 
ENDBRANCH  33  37
ENDBRANCH  32  33
ENDBRANCH  30  32
ENDBRANCH  29  30
ENDBRANCH   1  29
TORSDOF 14
ENDMDL
MODEL 9
REMARK VINA RESULT:      -5.1      2.579      5.101
REMARK SMILES C#C[C@@](O)(c1cc(N=[N+]=[N-])cc(SC(C)(C)CNC[C@](C)(O)C=C)ccc2cc1CC2)C(C)(C)C
REMARK SMILES IDX 14 1 15 2 16 3 13 4 12 5 5 6 6 7 29 8 7 9 28 10 30 11 11 12
REMARK SMILES IDX 27 13 31 14 26 15 25 16 3 17 2 18 1 19 4 20 32 22 33 23
REMARK SMILES IDX 34 24 35 25 8 26 9 27 10 28 17 29 18 30 19 32 20 33 21 34
REMARK SMILES IDX 22 35 23 37 24 38
REMARK H PARENT 4 21 18 31 22 36
ROOT
ATOM      1  C   UNL     1      44.358 132.508  16.138  1.00  0.00     0.027 C 
ATOM      2  C   UNL     1      45.707 132.034  15.566  1.00  0.00     0.024 C 
ATOM      3  C   UNL     1      44.464 134.012  16.463  1.00  0.00     0.024 C 
ENDROOT
BRANCH   1   4
ATOM      4  S   UNL     1      43.106 132.240  14.798  1.00  0.00    -0.119 SA
BRANCH   4   5
ATOM      5  C   UNL     1      41.862 133.447  15.292  1.00  0.00     0.008 A 
ATOM      6  C   UNL     1      40.244 135.225  18.888  1.00  0.00    -0.000 A 
ATOM      7  C   UNL     1      39.734 134.056  18.249  1.00  0.00     0.018 A 
ATOM      8  C   UNL     1      40.681 136.314  18.087  1.00  0.00    -0.040 A 
ATOM      9  C   UNL     1      40.011 133.711  16.918  1.00  0.00     0.039 A 
ATOM     10  C   UNL     1      41.556 136.108  17.041  1.00  0.00     0.007 A 
ATOM     11  C   UNL     1      39.670 137.339  17.647  1.00  0.00     0.041 C 
ATOM     12  C   UNL     1      41.306 133.312  16.573  1.00  0.00     0.025 A 
ATOM     13  C   UNL     1      40.940 136.455  15.858  1.00  0.00    -0.047 A 
ATOM     14  C   UNL     1      39.822 137.399  16.124  1.00  0.00     0.040 C 
ATOM     15  C   UNL     1      41.058 135.778  14.630  1.00  0.00     0.005 A 
ATOM     16  C   UNL     1      41.612 134.504  14.388  1.00  0.00     0.015 A 
BRANCH   6  17
ATOM     17  C   UNL     1      39.944 135.431  20.393  1.00  0.00     0.155 C 
BRANCH  17  18
ATOM     18  C   UNL     1      38.899 136.474  20.597  1.00  0.00    -0.066 C 
ATOM     19  C   UNL     1      38.056 137.321  20.771  1.00  0.00     0.007 C 
ENDBRANCH  17  18
BRANCH  17  20
ATOM     20  O   UNL     1      39.443 134.234  20.949  1.00  0.00    -0.373 OA
ATOM     21  H   UNL     1      38.777 133.853  20.317  1.00  0.00     0.213 HD
ENDBRANCH  17  20
BRANCH  17  22
ATOM     22  C   UNL     1      41.255 135.848  21.180  1.00  0.00     0.006 C 
ATOM     23  C   UNL     1      41.626 137.323  20.876  1.00  0.00     0.015 C 
ATOM     24  C   UNL     1      42.457 134.955  20.783  1.00  0.00     0.015 C 
ATOM     25  C   UNL     1      41.056 135.730  22.713  1.00  0.00     0.015 C 
ENDBRANCH  17  22
ENDBRANCH   6  17
BRANCH   9  26
ATOM     26  N   UNL     1      38.958 133.584  15.955  1.00  0.00    -0.061 NA
BRANCH  26  27
ATOM     27  N   UNL     1      37.947 134.285  16.001  1.00  0.00     0.005 N 
ATOM     28  N   UNL     1      36.938 134.984  16.055  1.00  0.00    -0.003 NA
ENDBRANCH  26  27
ENDBRANCH   9  26
ENDBRANCH   4   5
ENDBRANCH   1   4
BRANCH   1  29
ATOM     29  C   UNL     1      44.007 131.687  17.408  1.00  0.00     0.098 C 
BRANCH  29  30
ATOM     30  N   UNL     1      44.580 132.309  18.619  1.00  0.00    -0.312 NA
ATOM     31  H   UNL     1      43.792 132.685  19.193  1.00  0.00     0.122 HD
BRANCH  30  32
ATOM     32  C   UNL     1      45.330 131.344  19.443  1.00  0.00     0.120 C 
BRANCH  32  33
ATOM     33  C   UNL     1      45.295 131.748  20.946  1.00  0.00     0.092 C 
ATOM     34  C   UNL     1      45.729 133.217  21.109  1.00  0.00     0.048 C 
BRANCH  33  35
ATOM     35  O   UNL     1      46.191 130.956  21.698  1.00  0.00    -0.385 OA
ATOM     36  H   UNL     1      46.721 130.403  21.067  1.00  0.00     0.211 HD
ENDBRANCH  33  35
BRANCH  33  37
ATOM     37  C   UNL     1      43.884 131.603  21.503  1.00  0.00     0.001 C 
ATOM     38  C   UNL     1      43.492 130.548  22.225  1.00  0.00     0.007 C 
ENDBRANCH  33  37
ENDBRANCH  32  33
ENDBRANCH  30  32
ENDBRANCH  29  30
ENDBRANCH   1  29
TORSDOF 14
ENDMDL


