MODEL 1
REMARK VINA RESULT:      -6.9      0.000      0.000
REMARK SMILES [N-]=[N+]=Nc1c(Cl)c(Cl)c(Cl)c2cccc(OC(=O)[C@@H](N=C=O)c3ncc[n-]3)c12
REMARK SMILES IDX 17 1 18 2 19 3 23 4 25 5 24 6 26 7 27 8 20 9 21 10 22 11
REMARK SMILES IDX 16 12 15 13 14 14 28 15 13 16 4 17 11 18 12 19 5 20 9 21
REMARK SMILES IDX 7 22 6 23 10 24 8 25 3 26 2 27 1 28
REMARK H PARENT
ROOT
ATOM      1  C   UNL     1      44.879 131.755  15.578  1.00  0.00     0.341 C 
ATOM      2  O   UNL     1      45.688 132.684  15.307  1.00  0.00    -0.249 OA
ENDROOT
BRANCH   1   3
ATOM      3  C   UNL     1      44.732 130.590  14.643  1.00  0.00     0.250 C 
BRANCH   3   4
ATOM      4  C   UNL     1      46.060 130.240  14.039  1.00  0.00    -0.046 A 
ATOM      5  C   UNL     1      47.607 129.998  12.609  1.00  0.00    -0.027 A 
ATOM      6  N   UNL     1      46.376 130.517  12.756  1.00  0.00    -0.444 NA
ATOM      7  C   UNL     1      47.998 129.416  13.791  1.00  0.00    -0.027 A 
ATOM      8  N   UNL     1      47.020 129.558  14.701  1.00  0.00    -0.444 NA
ENDBRANCH   3   4
BRANCH   3   9
ATOM      9  N   UNL     1      43.774 130.901  13.584  1.00  0.00    -0.186 NA
BRANCH   9  10
ATOM     10  C   UNL     1      42.744 131.617  13.800  1.00  0.00     0.236 C 
ATOM     11  O   UNL     1      41.741 132.312  14.011  1.00  0.00    -0.211 OA
ENDBRANCH   9  10
ENDBRANCH   3   9
ENDBRANCH   1   3
BRANCH   1  12
ATOM     12  O   UNL     1      44.034 131.842  16.691  1.00  0.00    -0.424 OA
BRANCH  12  13
ATOM     13  C   UNL     1      44.455 131.847  18.030  1.00  0.00     0.139 A 
ATOM     14  C   UNL     1      45.382 130.887  18.467  1.00  0.00     0.048 A 
ATOM     15  C   UNL     1      43.915 132.786  18.957  1.00  0.00     0.037 A 
ATOM     16  C   UNL     1      45.798 130.853  19.790  1.00  0.00     0.005 A 
ATOM     17  C   UNL     1      42.960 133.767  18.569  1.00  0.00     0.069 A 
ATOM     18  C   UNL     1      44.347 132.736  20.316  1.00  0.00     0.006 A 
ATOM     19  C   UNL     1      45.291 131.764  20.708  1.00  0.00     0.010 A 
ATOM     20  C   UNL     1      42.489 134.703  19.519  1.00  0.00     0.071 A 
ATOM     21  C   UNL     1      43.829 133.652  21.258  1.00  0.00     0.069 A 
ATOM     22  C   UNL     1      42.911 134.632  20.855  1.00  0.00     0.079 A 
ATOM     23  Cl  UNL     1      41.438 136.042  19.036  1.00  0.00    -0.082 Cl
ATOM     24  Cl  UNL     1      44.330 133.603  22.957  1.00  0.00    -0.082 Cl
ATOM     25  Cl  UNL     1      42.296 135.797  22.035  1.00  0.00    -0.081 Cl
BRANCH  17  26
ATOM     26  N   UNL     1      42.516 133.826  17.201  1.00  0.00    -0.058 NA
BRANCH  26  27
ATOM     27  N   UNL     1      42.923 134.670  16.401  1.00  0.00     0.005 N 
ATOM     28  N   UNL     1      43.324 135.510  15.597  1.00  0.00    -0.003 NA
ENDBRANCH  26  27
ENDBRANCH  17  26
ENDBRANCH  12  13
ENDBRANCH   1  12
TORSDOF 8
ENDMDL
MODEL 2
REMARK VINA RESULT:      -6.7      2.102      2.919
REMARK SMILES [N-]=[N+]=Nc1c(Cl)c(Cl)c(Cl)c2cccc(OC(=O)[C@@H](N=C=O)c3ncc[n-]3)c12
REMARK SMILES IDX 17 1 18 2 19 3 23 4 25 5 24 6 26 7 27 8 20 9 21 10 22 11
REMARK SMILES IDX 16 12 15 13 14 14 28 15 13 16 4 17 11 18 12 19 5 20 9 21
REMARK SMILES IDX 7 22 6 23 10 24 8 25 3 26 2 27 1 28
REMARK H PARENT
ROOT
ATOM      1  C   UNL     1      45.296 132.126  16.045  1.00  0.00     0.341 C 
ATOM      2  O   UNL     1      45.584 133.191  15.434  1.00  0.00    -0.249 OA
ENDROOT
BRANCH   1   3
ATOM      3  C   UNL     1      46.257 130.971  16.036  1.00  0.00     0.250 C 
BRANCH   3   4
ATOM      4  C   UNL     1      46.628 130.619  14.626  1.00  0.00    -0.046 A 
ATOM      5  C   UNL     1      47.755 129.937  12.963  1.00  0.00    -0.027 A 
ATOM      6  N   UNL     1      47.794 130.020  14.304  1.00  0.00    -0.444 NA
ATOM      7  C   UNL     1      46.583 130.494  12.509  1.00  0.00    -0.027 A 
ATOM      8  N   UNL     1      45.866 130.936  13.556  1.00  0.00    -0.444 NA
ENDBRANCH   3   4
BRANCH   3   9
ATOM      9  N   UNL     1      45.668 129.810  16.697  1.00  0.00    -0.186 NA
BRANCH   9  10
ATOM     10  C   UNL     1      45.251 128.802  16.039  1.00  0.00     0.236 C 
ATOM     11  O   UNL     1      44.847 127.821  15.402  1.00  0.00    -0.211 OA
ENDBRANCH   9  10
ENDBRANCH   3   9
ENDBRANCH   1   3
BRANCH   1  12
ATOM     12  O   UNL     1      44.044 131.961  16.649  1.00  0.00    -0.424 OA
BRANCH  12  13
ATOM     13  C   UNL     1      43.685 132.447  17.915  1.00  0.00     0.139 A 
ATOM     14  C   UNL     1      44.602 132.361  18.975  1.00  0.00     0.048 A 
ATOM     15  C   UNL     1      42.383 132.982  18.145  1.00  0.00     0.037 A 
ATOM     16  C   UNL     1      44.266 132.810  20.244  1.00  0.00     0.005 A 
ATOM     17  C   UNL     1      41.411 133.075  17.109  1.00  0.00     0.069 A 
ATOM     18  C   UNL     1      42.049 133.436  19.456  1.00  0.00     0.006 A 
ATOM     19  C   UNL     1      43.006 133.344  20.487  1.00  0.00     0.010 A 
ATOM     20  C   UNL     1      40.150 133.655  17.381  1.00  0.00     0.071 A 
ATOM     21  C   UNL     1      40.767 133.970  19.715  1.00  0.00     0.069 A 
ATOM     22  C   UNL     1      39.829 134.083  18.678  1.00  0.00     0.079 A 
ATOM     23  Cl  UNL     1      38.983 133.947  16.083  1.00  0.00    -0.082 Cl
ATOM     24  Cl  UNL     1      40.313 134.523  21.336  1.00  0.00    -0.082 Cl
ATOM     25  Cl  UNL     1      38.240 134.785  19.005  1.00  0.00    -0.081 Cl
BRANCH  17  26
ATOM     26  N   UNL     1      41.738 132.619  15.785  1.00  0.00    -0.058 NA
BRANCH  26  27
ATOM     27  N   UNL     1      41.753 133.366  14.804  1.00  0.00     0.005 N 
ATOM     28  N   UNL     1      41.774 134.107  13.823  1.00  0.00    -0.003 NA
ENDBRANCH  26  27
ENDBRANCH  17  26
ENDBRANCH  12  13
ENDBRANCH   1  12
TORSDOF 8
ENDMDL
MODEL 3
REMARK VINA RESULT:      -6.6      2.423      3.993
REMARK SMILES [N-]=[N+]=Nc1c(Cl)c(Cl)c(Cl)c2cccc(OC(=O)[C@@H](N=C=O)c3ncc[n-]3)c12
REMARK SMILES IDX 17 1 18 2 19 3 23 4 25 5 24 6 26 7 27 8 20 9 21 10 22 11
REMARK SMILES IDX 16 12 15 13 14 14 28 15 13 16 4 17 11 18 12 19 5 20 9 21
REMARK SMILES IDX 7 22 6 23 10 24 8 25 3 26 2 27 1 28
REMARK H PARENT
ROOT
ATOM      1  C   UNL     1      45.191 132.086  15.851  1.00  0.00     0.341 C 
ATOM      2  O   UNL     1      45.464 133.269  15.506  1.00  0.00    -0.249 OA
ENDROOT
BRANCH   1   3
ATOM      3  C   UNL     1      46.284 131.062  15.955  1.00  0.00     0.250 C 
BRANCH   3   4
ATOM      4  C   UNL     1      46.778 130.693  14.588  1.00  0.00    -0.046 A 
ATOM      5  C   UNL     1      46.879 130.514  12.478  1.00  0.00    -0.027 A 
ATOM      6  N   UNL     1      46.167 131.099  13.455  1.00  0.00    -0.444 NA
ATOM      7  C   UNL     1      47.887 129.765  13.037  1.00  0.00    -0.027 A 
ATOM      8  N   UNL     1      47.826 129.867  14.375  1.00  0.00    -0.444 NA
ENDBRANCH   3   4
BRANCH   3   9
ATOM      9  N   UNL     1      45.802 129.869  16.646  1.00  0.00    -0.186 NA
BRANCH   9  10
ATOM     10  C   UNL     1      45.321 128.875  16.014  1.00  0.00     0.236 C 
ATOM     11  O   UNL     1      44.851 127.909  15.397  1.00  0.00    -0.211 OA
ENDBRANCH   9  10
ENDBRANCH   3   9
ENDBRANCH   1   3
BRANCH   1  12
ATOM     12  O   UNL     1      43.863 131.683  16.040  1.00  0.00    -0.424 OA
BRANCH  12  13
ATOM     13  C   UNL     1      42.734 132.491  15.835  1.00  0.00     0.139 A 
ATOM     14  C   UNL     1      42.333 132.798  14.524  1.00  0.00     0.048 A 
ATOM     15  C   UNL     1      42.021 133.039  16.942  1.00  0.00     0.037 A 
ATOM     16  C   UNL     1      41.236 133.615  14.291  1.00  0.00     0.005 A 
ATOM     17  C   UNL     1      42.398 132.772  18.288  1.00  0.00     0.069 A 
ATOM     18  C   UNL     1      40.898 133.881  16.687  1.00  0.00     0.006 A 
ATOM     19  C   UNL     1      40.522 134.151  15.355  1.00  0.00     0.010 A 
ATOM     20  C   UNL     1      41.630 133.305  19.350  1.00  0.00     0.071 A 
ATOM     21  C   UNL     1      40.173 134.439  17.763  1.00  0.00     0.069 A 
ATOM     22  C   UNL     1      40.537 134.144  19.085  1.00  0.00     0.079 A 
ATOM     23  Cl  UNL     1      41.961 132.855  21.029  1.00  0.00    -0.082 Cl
ATOM     24  Cl  UNL     1      38.786 135.505  17.481  1.00  0.00    -0.082 Cl
ATOM     25  Cl  UNL     1      39.602 134.819  20.425  1.00  0.00    -0.081 Cl
BRANCH  17  26
ATOM     26  N   UNL     1      43.530 131.926  18.556  1.00  0.00    -0.058 NA
BRANCH  26  27
ATOM     27  N   UNL     1      44.426 132.235  19.344  1.00  0.00     0.005 N 
ATOM     28  N   UNL     1      45.323 132.548  20.125  1.00  0.00    -0.003 NA
ENDBRANCH  26  27
ENDBRANCH  17  26
ENDBRANCH  12  13
ENDBRANCH   1  12
TORSDOF 8
ENDMDL
MODEL 4
REMARK VINA RESULT:      -6.5      2.794      4.758
REMARK SMILES [N-]=[N+]=Nc1c(Cl)c(Cl)c(Cl)c2cccc(OC(=O)[C@@H](N=C=O)c3ncc[n-]3)c12
REMARK SMILES IDX 17 1 18 2 19 3 23 4 25 5 24 6 26 7 27 8 20 9 21 10 22 11
REMARK SMILES IDX 16 12 15 13 14 14 28 15 13 16 4 17 11 18 12 19 5 20 9 21
REMARK SMILES IDX 7 22 6 23 10 24 8 25 3 26 2 27 1 28
REMARK H PARENT
ROOT
ATOM      1  C   UNL     1      44.150 131.643  15.208  1.00  0.00     0.341 C 
ATOM      2  O   UNL     1      43.805 131.107  14.119  1.00  0.00    -0.249 OA
ENDROOT
BRANCH   1   3
ATOM      3  C   UNL     1      45.482 131.314  15.819  1.00  0.00     0.250 C 
BRANCH   3   4
ATOM      4  C   UNL     1      46.432 130.836  14.761  1.00  0.00    -0.046 A 
ATOM      5  C   UNL     1      47.637 129.542  13.591  1.00  0.00    -0.027 A 
ATOM      6  N   UNL     1      46.724 129.531  14.577  1.00  0.00    -0.444 NA
ATOM      7  C   UNL     1      47.883 130.841  13.215  1.00  0.00    -0.027 A 
ATOM      8  N   UNL     1      47.128 131.668  13.957  1.00  0.00    -0.444 NA
ENDBRANCH   3   4
BRANCH   3   9
ATOM      9  N   UNL     1      45.333 130.291  16.850  1.00  0.00    -0.186 NA
BRANCH   9  10
ATOM     10  C   UNL     1      45.620 130.519  18.069  1.00  0.00     0.236 C 
ATOM     11  O   UNL     1      45.901 130.740  19.254  1.00  0.00    -0.211 OA
ENDBRANCH   9  10
ENDBRANCH   3   9
ENDBRANCH   1   3
BRANCH   1  12
ATOM     12  O   UNL     1      43.264 132.466  15.915  1.00  0.00    -0.424 OA
BRANCH  12  13
ATOM     13  C   UNL     1      42.540 133.536  15.367  1.00  0.00     0.139 A 
ATOM     14  C   UNL     1      41.658 133.299  14.301  1.00  0.00     0.048 A 
ATOM     15  C   UNL     1      42.727 134.863  15.853  1.00  0.00     0.037 A 
ATOM     16  C   UNL     1      40.947 134.341  13.723  1.00  0.00     0.005 A 
ATOM     17  C   UNL     1      43.622 135.158  16.919  1.00  0.00     0.069 A 
ATOM     18  C   UNL     1      41.994 135.926  15.245  1.00  0.00     0.006 A 
ATOM     19  C   UNL     1      41.108 135.641  14.187  1.00  0.00     0.010 A 
ATOM     20  C   UNL     1      43.737 136.487  17.391  1.00  0.00     0.071 A 
ATOM     21  C   UNL     1      42.159 137.252  15.704  1.00  0.00     0.069 A 
ATOM     22  C   UNL     1      43.021 137.524  16.775  1.00  0.00     0.079 A 
ATOM     23  Cl  UNL     1      44.704 136.864  18.825  1.00  0.00    -0.082 Cl
ATOM     24  Cl  UNL     1      41.278 138.597  14.958  1.00  0.00    -0.082 Cl
ATOM     25  Cl  UNL     1      43.194 139.183  17.364  1.00  0.00    -0.081 Cl
BRANCH  17  26
ATOM     26  N   UNL     1      44.368 134.094  17.537  1.00  0.00    -0.058 NA
BRANCH  26  27
ATOM     27  N   UNL     1      44.156 133.710  18.689  1.00  0.00     0.005 N 
ATOM     28  N   UNL     1      43.944 133.333  19.840  1.00  0.00    -0.003 NA
ENDBRANCH  26  27
ENDBRANCH  17  26
ENDBRANCH  12  13
ENDBRANCH   1  12
TORSDOF 8
ENDMDL
MODEL 5
REMARK VINA RESULT:      -6.5      1.612      1.945
REMARK SMILES [N-]=[N+]=Nc1c(Cl)c(Cl)c(Cl)c2cccc(OC(=O)[C@@H](N=C=O)c3ncc[n-]3)c12
REMARK SMILES IDX 17 1 18 2 19 3 23 4 25 5 24 6 26 7 27 8 20 9 21 10 22 11
REMARK SMILES IDX 16 12 15 13 14 14 28 15 13 16 4 17 11 18 12 19 5 20 9 21
REMARK SMILES IDX 7 22 6 23 10 24 8 25 3 26 2 27 1 28
REMARK H PARENT
ROOT
ATOM      1  C   UNL     1      44.609 130.559  15.656  1.00  0.00     0.341 C 
ATOM      2  O   UNL     1      44.810 129.314  15.595  1.00  0.00    -0.249 OA
ENDROOT
BRANCH   1   3
ATOM      3  C   UNL     1      45.327 131.483  14.716  1.00  0.00     0.250 C 
BRANCH   3   4
ATOM      4  C   UNL     1      46.448 130.758  14.033  1.00  0.00    -0.046 A 
ATOM      5  C   UNL     1      48.308 129.787  13.722  1.00  0.00    -0.027 A 
ATOM      6  N   UNL     1      47.542 130.318  14.691  1.00  0.00    -0.444 NA
ATOM      7  C   UNL     1      47.671 129.928  12.512  1.00  0.00    -0.027 A 
ATOM      8  N   UNL     1      46.495 130.549  12.699  1.00  0.00    -0.444 NA
ENDBRANCH   3   4
BRANCH   3   9
ATOM      9  N   UNL     1      45.852 132.640  15.437  1.00  0.00    -0.186 NA
BRANCH   9  10
ATOM     10  C   UNL     1      45.165 133.700  15.596  1.00  0.00     0.236 C 
ATOM     11  O   UNL     1      44.500 134.733  15.751  1.00  0.00    -0.211 OA
ENDBRANCH   9  10
ENDBRANCH   3   9
ENDBRANCH   1   3
BRANCH   1  12
ATOM     12  O   UNL     1      43.802 131.106  16.661  1.00  0.00    -0.424 OA
BRANCH  12  13
ATOM     13  C   UNL     1      44.203 131.340  17.986  1.00  0.00     0.139 A 
ATOM     14  C   UNL     1      45.426 130.819  18.440  1.00  0.00     0.048 A 
ATOM     15  C   UNL     1      43.360 132.058  18.884  1.00  0.00     0.037 A 
ATOM     16  C   UNL     1      45.837 131.013  19.751  1.00  0.00     0.005 A 
ATOM     17  C   UNL     1      42.104 132.589  18.478  1.00  0.00     0.069 A 
ATOM     18  C   UNL     1      43.792 132.244  20.230  1.00  0.00     0.006 A 
ATOM     19  C   UNL     1      45.034 131.718  20.640  1.00  0.00     0.010 A 
ATOM     20  C   UNL     1      41.326 133.331  19.397  1.00  0.00     0.071 A 
ATOM     21  C   UNL     1      42.978 132.950  21.144  1.00  0.00     0.069 A 
ATOM     22  C   UNL     1      41.756 133.494  20.723  1.00  0.00     0.079 A 
ATOM     23  Cl  UNL     1      39.846 134.154  18.883  1.00  0.00    -0.082 Cl
ATOM     24  Cl  UNL     1      43.477 133.182  22.828  1.00  0.00    -0.082 Cl
ATOM     25  Cl  UNL     1      40.761 134.407  21.865  1.00  0.00    -0.081 Cl
BRANCH  17  26
ATOM     26  N   UNL     1      41.657 132.405  17.123  1.00  0.00    -0.058 NA
BRANCH  26  27
ATOM     27  N   UNL     1      41.441 133.345  16.355  1.00  0.00     0.005 N 
ATOM     28  N   UNL     1      41.217 134.281  15.589  1.00  0.00    -0.003 NA
ENDBRANCH  26  27
ENDBRANCH  17  26
ENDBRANCH  12  13
ENDBRANCH   1  12
TORSDOF 8
ENDMDL
MODEL 6
REMARK VINA RESULT:      -6.4      2.065      2.909
REMARK SMILES [N-]=[N+]=Nc1c(Cl)c(Cl)c(Cl)c2cccc(OC(=O)[C@@H](N=C=O)c3ncc[n-]3)c12
REMARK SMILES IDX 17 1 18 2 19 3 23 4 25 5 24 6 26 7 27 8 20 9 21 10 22 11
REMARK SMILES IDX 16 12 15 13 14 14 28 15 13 16 4 17 11 18 12 19 5 20 9 21
REMARK SMILES IDX 7 22 6 23 10 24 8 25 3 26 2 27 1 28
REMARK H PARENT
ROOT
ATOM      1  C   UNL     1      45.501 131.875  15.730  1.00  0.00     0.341 C 
ATOM      2  O   UNL     1      46.200 132.790  15.212  1.00  0.00    -0.249 OA
ENDROOT
BRANCH   1   3
ATOM      3  C   UNL     1      45.918 130.440  15.588  1.00  0.00     0.250 C 
BRANCH   3   4
ATOM      4  C   UNL     1      46.725 130.257  14.336  1.00  0.00    -0.046 A 
ATOM      5  C   UNL     1      47.271 130.268  12.287  1.00  0.00    -0.027 A 
ATOM      6  N   UNL     1      46.296 130.665  13.123  1.00  0.00    -0.444 NA
ATOM      7  C   UNL     1      48.250 129.626  13.005  1.00  0.00    -0.027 A 
ATOM      8  N   UNL     1      47.909 129.608  14.305  1.00  0.00    -0.444 NA
ENDBRANCH   3   4
BRANCH   3   9
ATOM      9  N   UNL     1      44.747 129.568  15.552  1.00  0.00    -0.186 NA
BRANCH   9  10
ATOM     10  C   UNL     1      44.845 128.305  15.683  1.00  0.00     0.236 C 
ATOM     11  O   UNL     1      44.943 127.078  15.811  1.00  0.00    -0.211 OA
ENDBRANCH   9  10
ENDBRANCH   3   9
ENDBRANCH   1   3
BRANCH   1  12
ATOM     12  O   UNL     1      44.281 132.169  16.350  1.00  0.00    -0.424 OA
BRANCH  12  13
ATOM     13  C   UNL     1      44.132 132.893  17.543  1.00  0.00     0.139 A 
ATOM     14  C   UNL     1      44.653 132.372  18.738  1.00  0.00     0.048 A 
ATOM     15  C   UNL     1      43.417 134.127  17.559  1.00  0.00     0.037 A 
ATOM     16  C   UNL     1      44.499 133.053  19.937  1.00  0.00     0.005 A 
ATOM     17  C   UNL     1      42.854 134.689  16.379  1.00  0.00     0.069 A 
ATOM     18  C   UNL     1      43.261 134.814  18.799  1.00  0.00     0.006 A 
ATOM     19  C   UNL     1      43.813 134.261  19.973  1.00  0.00     0.010 A 
ATOM     20  C   UNL     1      42.191 135.937  16.442  1.00  0.00     0.071 A 
ATOM     21  C   UNL     1      42.556 136.037  18.847  1.00  0.00     0.069 A 
ATOM     22  C   UNL     1      42.033 136.594  17.672  1.00  0.00     0.079 A 
ATOM     23  Cl  UNL     1      41.634 136.749  14.973  1.00  0.00    -0.082 Cl
ATOM     24  Cl  UNL     1      42.328 136.906  20.375  1.00  0.00    -0.082 Cl
ATOM     25  Cl  UNL     1      41.183 138.144  17.737  1.00  0.00    -0.081 Cl
BRANCH  17  26
ATOM     26  N   UNL     1      43.004 134.003  15.123  1.00  0.00    -0.058 NA
BRANCH  26  27
ATOM     27  N   UNL     1      42.067 133.443  14.550  1.00  0.00     0.005 N 
ATOM     28  N   UNL     1      41.134 132.888  13.972  1.00  0.00    -0.003 NA
ENDBRANCH  26  27
ENDBRANCH  17  26
ENDBRANCH  12  13
ENDBRANCH   1  12
TORSDOF 8
ENDMDL
MODEL 7
REMARK VINA RESULT:      -6.4      1.828      2.403
REMARK SMILES [N-]=[N+]=Nc1c(Cl)c(Cl)c(Cl)c2cccc(OC(=O)[C@@H](N=C=O)c3ncc[n-]3)c12
REMARK SMILES IDX 17 1 18 2 19 3 23 4 25 5 24 6 26 7 27 8 20 9 21 10 22 11
REMARK SMILES IDX 16 12 15 13 14 14 28 15 13 16 4 17 11 18 12 19 5 20 9 21
REMARK SMILES IDX 7 22 6 23 10 24 8 25 3 26 2 27 1 28
REMARK H PARENT
ROOT
ATOM      1  C   UNL     1      45.467 131.783  15.697  1.00  0.00     0.341 C 
ATOM      2  O   UNL     1      46.190 132.734  15.292  1.00  0.00    -0.249 OA
ENDROOT
BRANCH   1   3
ATOM      3  C   UNL     1      45.901 130.362  15.478  1.00  0.00     0.250 C 
BRANCH   3   4
ATOM      4  C   UNL     1      46.669 130.248  14.195  1.00  0.00    -0.046 A 
ATOM      5  C   UNL     1      47.152 130.376  12.134  1.00  0.00    -0.027 A 
ATOM      6  N   UNL     1      46.207 130.729  13.021  1.00  0.00    -0.444 NA
ATOM      7  C   UNL     1      48.148 129.686  12.783  1.00  0.00    -0.027 A 
ATOM      8  N   UNL     1      47.846 129.594  14.089  1.00  0.00    -0.444 NA
ENDBRANCH   3   4
BRANCH   3   9
ATOM      9  N   UNL     1      44.743 129.473  15.443  1.00  0.00    -0.186 NA
BRANCH   9  10
ATOM     10  C   UNL     1      44.849 128.224  15.668  1.00  0.00     0.236 C 
ATOM     11  O   UNL     1      44.953 127.010  15.887  1.00  0.00    -0.211 OA
ENDBRANCH   9  10
ENDBRANCH   3   9
ENDBRANCH   1   3
BRANCH   1  12
ATOM     12  O   UNL     1      44.208 132.028  16.258  1.00  0.00    -0.424 OA
BRANCH  12  13
ATOM     13  C   UNL     1      43.947 132.183  17.629  1.00  0.00     0.139 A 
ATOM     14  C   UNL     1      44.666 131.415  18.560  1.00  0.00     0.048 A 
ATOM     15  C   UNL     1      42.930 133.074  18.078  1.00  0.00     0.037 A 
ATOM     16  C   UNL     1      44.412 131.528  19.919  1.00  0.00     0.005 A 
ATOM     17  C   UNL     1      42.161 133.861  17.175  1.00  0.00     0.069 A 
ATOM     18  C   UNL     1      42.676 133.176  19.478  1.00  0.00     0.006 A 
ATOM     19  C   UNL     1      43.431 132.397  20.379  1.00  0.00     0.010 A 
ATOM     20  C   UNL     1      41.194 134.762  17.677  1.00  0.00     0.071 A 
ATOM     21  C   UNL     1      41.673 134.050  19.955  1.00  0.00     0.069 A 
ATOM     22  C   UNL     1      40.944 134.841  19.055  1.00  0.00     0.079 A 
ATOM     23  Cl  UNL     1      40.345 135.880  16.600  1.00  0.00    -0.082 Cl
ATOM     24  Cl  UNL     1      41.319 134.185  21.686  1.00  0.00    -0.082 Cl
ATOM     25  Cl  UNL     1      39.716 135.958  19.664  1.00  0.00    -0.081 Cl
BRANCH  17  26
ATOM     26  N   UNL     1      42.408 133.764  15.760  1.00  0.00    -0.058 NA
BRANCH  26  27
ATOM     27  N   UNL     1      41.542 133.426  14.951  1.00  0.00     0.005 N 
ATOM     28  N   UNL     1      40.672 133.090  14.149  1.00  0.00    -0.003 NA
ENDBRANCH  26  27
ENDBRANCH  17  26
ENDBRANCH  12  13
ENDBRANCH   1  12
TORSDOF 8
ENDMDL
MODEL 8
REMARK VINA RESULT:      -6.3      1.597      2.000
REMARK SMILES [N-]=[N+]=Nc1c(Cl)c(Cl)c(Cl)c2cccc(OC(=O)[C@@H](N=C=O)c3ncc[n-]3)c12
REMARK SMILES IDX 17 1 18 2 19 3 23 4 25 5 24 6 26 7 27 8 20 9 21 10 22 11
REMARK SMILES IDX 16 12 15 13 14 14 28 15 13 16 4 17 11 18 12 19 5 20 9 21
REMARK SMILES IDX 7 22 6 23 10 24 8 25 3 26 2 27 1 28
REMARK H PARENT
ROOT
ATOM      1  C   UNL     1      44.883 131.085  16.788  1.00  0.00     0.341 C 
ATOM      2  O   UNL     1      45.766 130.184  16.833  1.00  0.00    -0.249 OA
ENDROOT
BRANCH   1   3
ATOM      3  C   UNL     1      44.746 131.941  15.562  1.00  0.00     0.250 C 
BRANCH   3   4
ATOM      4  C   UNL     1      45.666 131.451  14.483  1.00  0.00    -0.046 A 
ATOM      5  C   UNL     1      46.400 130.348  12.827  1.00  0.00    -0.027 A 
ATOM      6  N   UNL     1      45.285 130.554  13.549  1.00  0.00    -0.444 NA
ATOM      7  C   UNL     1      47.422 131.108  13.344  1.00  0.00    -0.027 A 
ATOM      8  N   UNL     1      46.967 131.805  14.399  1.00  0.00    -0.444 NA
ENDBRANCH   3   4
BRANCH   3   9
ATOM      9  N   UNL     1      45.050 133.335  15.875  1.00  0.00    -0.186 NA
BRANCH   9  10
ATOM     10  C   UNL     1      44.345 134.294  15.422  1.00  0.00     0.236 C 
ATOM     11  O   UNL     1      43.661 135.228  14.983  1.00  0.00    -0.211 OA
ENDBRANCH   9  10
ENDBRANCH   3   9
ENDBRANCH   1   3
BRANCH   1  12
ATOM     12  O   UNL     1      44.092 131.371  17.907  1.00  0.00    -0.424 OA
BRANCH  12  13
ATOM     13  C   UNL     1      44.578 131.748  19.168  1.00  0.00     0.139 A 
ATOM     14  C   UNL     1      45.628 131.019  19.751  1.00  0.00     0.048 A 
ATOM     15  C   UNL     1      43.985 132.832  19.881  1.00  0.00     0.037 A 
ATOM     16  C   UNL     1      46.112 131.353  21.007  1.00  0.00     0.005 A 
ATOM     17  C   UNL     1      42.908 133.590  19.343  1.00  0.00     0.069 A 
ATOM     18  C   UNL     1      44.489 133.160  21.175  1.00  0.00     0.006 A 
ATOM     19  C   UNL     1      45.555 132.411  21.715  1.00  0.00     0.010 A 
ATOM     20  C   UNL     1      42.385 134.683  20.074  1.00  0.00     0.071 A 
ATOM     21  C   UNL     1      43.922 134.227  21.906  1.00  0.00     0.069 A 
ATOM     22  C   UNL     1      42.881 134.985  21.351  1.00  0.00     0.079 A 
ATOM     23  Cl  UNL     1      41.168 135.754  19.365  1.00  0.00    -0.082 Cl
ATOM     24  Cl  UNL     1      44.512 134.648  23.523  1.00  0.00    -0.082 Cl
ATOM     25  Cl  UNL     1      42.201 136.341  22.260  1.00  0.00    -0.081 Cl
BRANCH  17  26
ATOM     26  N   UNL     1      42.391 133.265  18.040  1.00  0.00    -0.058 NA
BRANCH  26  27
ATOM     27  N   UNL     1      41.224 132.917  17.851  1.00  0.00     0.005 N 
ATOM     28  N   UNL     1      40.057 132.574  17.666  1.00  0.00    -0.003 NA
ENDBRANCH  26  27
ENDBRANCH  17  26
ENDBRANCH  12  13
ENDBRANCH   1  12
TORSDOF 8
ENDMDL
MODEL 9
REMARK VINA RESULT:      -6.2      2.539      4.544
REMARK SMILES [N-]=[N+]=Nc1c(Cl)c(Cl)c(Cl)c2cccc(OC(=O)[C@@H](N=C=O)c3ncc[n-]3)c12
REMARK SMILES IDX 17 1 18 2 19 3 23 4 25 5 24 6 26 7 27 8 20 9 21 10 22 11
REMARK SMILES IDX 16 12 15 13 14 14 28 15 13 16 4 17 11 18 12 19 5 20 9 21
REMARK SMILES IDX 7 22 6 23 10 24 8 25 3 26 2 27 1 28
REMARK H PARENT
ROOT
ATOM      1  C   UNL     1      44.925 132.636  16.181  1.00  0.00     0.341 C 
ATOM      2  O   UNL     1      45.223 133.740  15.648  1.00  0.00    -0.249 OA
ENDROOT
BRANCH   1   3
ATOM      3  C   UNL     1      45.971 131.569  16.334  1.00  0.00     0.250 C 
BRANCH   3   4
ATOM      4  C   UNL     1      46.308 130.980  14.996  1.00  0.00    -0.046 A 
ATOM      5  C   UNL     1      46.110 130.338  12.985  1.00  0.00    -0.027 A 
ATOM      6  N   UNL     1      45.456 131.008  13.949  1.00  0.00    -0.444 NA
ATOM      7  C   UNL     1      47.324 129.915  13.470  1.00  0.00    -0.027 A 
ATOM      8  N   UNL     1      47.455 130.312  14.747  1.00  0.00    -0.444 NA
ENDBRANCH   3   4
BRANCH   3   9
ATOM      9  N   UNL     1      45.502 130.518  17.233  1.00  0.00    -0.186 NA
BRANCH   9  10
ATOM     10  C   UNL     1      45.645 130.601  18.496  1.00  0.00     0.236 C 
ATOM     11  O   UNL     1      45.781 130.681  19.723  1.00  0.00    -0.211 OA
ENDBRANCH   9  10
ENDBRANCH   3   9
ENDBRANCH   1   3
BRANCH   1  12
ATOM     12  O   UNL     1      43.603 132.346  16.541  1.00  0.00    -0.424 OA
BRANCH  12  13
ATOM     13  C   UNL     1      42.461 132.915  15.957  1.00  0.00     0.139 A 
ATOM     14  C   UNL     1      42.296 132.860  14.564  1.00  0.00     0.048 A 
ATOM     15  C   UNL     1      41.493 133.588  16.760  1.00  0.00     0.037 A 
ATOM     16  C   UNL     1      41.190 133.436  13.957  1.00  0.00     0.005 A 
ATOM     17  C   UNL     1      41.623 133.687  18.174  1.00  0.00     0.069 A 
ATOM     18  C   UNL     1      40.363 134.181  16.122  1.00  0.00     0.006 A 
ATOM     19  C   UNL     1      40.231 134.088  14.722  1.00  0.00     0.010 A 
ATOM     20  C   UNL     1      40.612 134.328  18.929  1.00  0.00     0.071 A 
ATOM     21  C   UNL     1      39.389 134.855  16.891  1.00  0.00     0.069 A 
ATOM     22  C   UNL     1      39.514 134.919  18.286  1.00  0.00     0.079 A 
ATOM     23  Cl  UNL     1      40.651 134.317  20.698  1.00  0.00    -0.082 Cl
ATOM     24  Cl  UNL     1      37.984 135.618  16.127  1.00  0.00    -0.082 Cl
ATOM     25  Cl  UNL     1      38.270 135.734  19.242  1.00  0.00    -0.081 Cl
BRANCH  17  26
ATOM     26  N   UNL     1      42.760 133.095  18.828  1.00  0.00    -0.058 NA
BRANCH  26  27
ATOM     27  N   UNL     1      42.656 132.227  19.697  1.00  0.00     0.005 N 
ATOM     28  N   UNL     1      42.556 131.365  20.569  1.00  0.00    -0.003 NA
ENDBRANCH  26  27
ENDBRANCH  17  26
ENDBRANCH  12  13
ENDBRANCH   1  12
TORSDOF 8
ENDMDL


