MODEL 1
REMARK VINA RESULT:      -8.3      0.000      0.000
REMARK SMILES C#CCO/C(O)=C\[C@H]1CC[C@@H]2C(OC(=O)[C@H](C)C(F)(F)F)=Nc3c(N=[N+]=[N-])cc(Cl)c1c32
REMARK SMILES IDX 8 1 31 2 29 3 30 4 28 5 24 6 23 7 32 8 11 9 12 10 22 11
REMARK SMILES IDX 10 12 9 13 7 14 5 15 4 16 3 17 2 18 1 19 6 20 25 22 26 23
REMARK SMILES IDX 27 24 13 25 14 26 15 27 16 28 17 29 18 30 19 31 20 32 21 33
REMARK H PARENT 6 21
ROOT
ATOM      1  C   UNL     1      42.035 133.202  15.802  1.00  0.00     0.051 C 
ATOM      2  C   UNL     1      42.687 132.943  17.158  1.00  0.00    -0.016 A 
ATOM      3  C   UNL     1      41.976 133.008  18.383  1.00  0.00     0.045 A 
ATOM      4  Cl  UNL     1      40.348 133.668  18.466  1.00  0.00    -0.084 Cl
ATOM      5  C   UNL     1      42.544 132.464  19.557  1.00  0.00     0.033 A 
ATOM      6  C   UNL     1      43.788 131.794  19.511  1.00  0.00     0.065 A 
ATOM      7  C   UNL     1      44.475 131.783  18.297  1.00  0.00     0.081 A 
ATOM      8  C   UNL     1      43.979 132.422  17.196  1.00  0.00    -0.004 A 
ATOM      9  C   UNL     1      44.797 132.065  16.023  1.00  0.00     0.109 C 
ATOM     10  C   UNL     1      45.701 131.040  16.655  1.00  0.00     0.206 C 
ATOM     11  N   UNL     1      45.543 130.919  17.942  1.00  0.00    -0.216 NA
ATOM     12  C   UNL     1      43.865 131.561  14.922  1.00  0.00     0.019 C 
ATOM     13  C   UNL     1      42.866 132.688  14.575  1.00  0.00     0.014 C 
ENDROOT
BRANCH   1  14
ATOM     14  C   UNL     1      41.676 134.662  15.635  1.00  0.00     0.069 C 
BRANCH  14  15
ATOM     15  C   UNL     1      42.531 135.665  15.860  1.00  0.00     0.273 C 
BRANCH  15  16
ATOM     16  O   UNL     1      42.365 136.487  16.981  1.00  0.00    -0.453 OA
BRANCH  16  17
ATOM     17  C   UNL     1      43.123 137.665  17.221  1.00  0.00     0.322 C 
BRANCH  17  18
ATOM     18  C   UNL     1      44.208 137.350  18.150  1.00  0.00    -0.065 C 
ATOM     19  C   UNL     1      45.105 137.084  18.912  1.00  0.00     0.007 C 
ENDBRANCH  17  18
ENDBRANCH  16  17
ENDBRANCH  15  16
BRANCH  15  20
ATOM     20  O   UNL     1      43.576 135.871  14.957  1.00  0.00    -0.481 OA
ATOM     21  H   UNL     1      43.809 136.787  14.598  1.00  0.00     0.296 HD
ENDBRANCH  15  20
ENDBRANCH  14  15
ENDBRANCH   1  14
BRANCH   6  22
ATOM     22  N   UNL     1      44.328 131.096  20.641  1.00  0.00    -0.058 NA
BRANCH  22  23
ATOM     23  N   UNL     1      44.867 131.684  21.579  1.00  0.00     0.005 N 
ATOM     24  N   UNL     1      45.405 132.273  22.516  1.00  0.00    -0.003 NA
ENDBRANCH  22  23
ENDBRANCH   6  22
BRANCH  10  25
ATOM     25  O   UNL     1      46.658 130.325  15.922  1.00  0.00    -0.410 OA
BRANCH  25  26
ATOM     26  C   UNL     1      46.369 129.381  14.928  1.00  0.00     0.324 C 
ATOM     27  O   UNL     1      45.455 128.525  15.089  1.00  0.00    -0.251 OA
BRANCH  26  28
ATOM     28  C   UNL     1      47.175 129.391  13.657  1.00  0.00     0.201 C 
ATOM     29  C   UNL     1      48.675 129.379  13.972  1.00  0.00     0.030 C 
BRANCH  28  30
ATOM     30  C   UNL     1      46.787 130.587  12.770  1.00  0.00     0.401 C 
ATOM     31  F   UNL     1      47.382 130.465  11.527  1.00  0.00    -0.170 F 
ATOM     32  F   UNL     1      47.195 131.778  13.346  1.00  0.00    -0.170 F 
ATOM     33  F   UNL     1      45.415 130.620  12.597  1.00  0.00    -0.170 F 
ENDBRANCH  28  30
ENDBRANCH  26  28
ENDBRANCH  25  26
ENDBRANCH  10  25
TORSDOF 12
ENDMDL
MODEL 2
REMARK VINA RESULT:      -7.8      1.684      2.424
REMARK SMILES C#CCO/C(O)=C\[C@H]1CC[C@@H]2C(OC(=O)[C@H](C)C(F)(F)F)=Nc3c(N=[N+]=[N-])cc(Cl)c1c32
REMARK SMILES IDX 8 1 31 2 29 3 30 4 28 5 24 6 23 7 32 8 11 9 12 10 22 11
REMARK SMILES IDX 10 12 9 13 7 14 5 15 4 16 3 17 2 18 1 19 6 20 25 22 26 23
REMARK SMILES IDX 27 24 13 25 14 26 15 27 16 28 17 29 18 30 19 31 20 32 21 33
REMARK H PARENT 6 21
ROOT
ATOM      1  C   UNL     1      41.977 133.142  15.648  1.00  0.00     0.051 C 
ATOM      2  C   UNL     1      42.598 132.907  17.022  1.00  0.00    -0.016 A 
ATOM      3  C   UNL     1      41.854 132.963  18.227  1.00  0.00     0.045 A 
ATOM      4  Cl  UNL     1      40.210 133.587  18.264  1.00  0.00    -0.084 Cl
ATOM      5  C   UNL     1      42.403 132.441  19.421  1.00  0.00     0.033 A 
ATOM      6  C   UNL     1      43.663 131.799  19.412  1.00  0.00     0.065 A 
ATOM      7  C   UNL     1      44.382 131.795  18.216  1.00  0.00     0.081 A 
ATOM      8  C   UNL     1      43.901 132.416  17.098  1.00  0.00    -0.004 A 
ATOM      9  C   UNL     1      44.757 132.070  15.949  1.00  0.00     0.109 C 
ATOM     10  C   UNL     1      45.667 131.070  16.612  1.00  0.00     0.206 C 
ATOM     11  N   UNL     1      45.478 130.954  17.895  1.00  0.00    -0.216 NA
ATOM     12  C   UNL     1      43.866 131.537  14.828  1.00  0.00     0.019 C 
ATOM     13  C   UNL     1      42.851 132.639  14.447  1.00  0.00     0.014 C 
ENDROOT
BRANCH   1  14
ATOM     14  C   UNL     1      41.589 134.592  15.461  1.00  0.00     0.069 C 
BRANCH  14  15
ATOM     15  C   UNL     1      40.528 134.988  14.749  1.00  0.00     0.273 C 
BRANCH  15  16
ATOM     16  O   UNL     1      39.307 135.228  15.390  1.00  0.00    -0.453 OA
BRANCH  16  17
ATOM     17  C   UNL     1      39.065 136.334  16.250  1.00  0.00     0.322 C 
BRANCH  17  18
ATOM     18  C   UNL     1      37.989 137.148  15.684  1.00  0.00    -0.065 C 
ATOM     19  C   UNL     1      37.106 137.826  15.219  1.00  0.00     0.007 C 
ENDBRANCH  17  18
ENDBRANCH  16  17
ENDBRANCH  15  16
BRANCH  15  20
ATOM     20  O   UNL     1      40.668 135.148  13.369  1.00  0.00    -0.481 OA
ATOM     21  H   UNL     1      39.899 135.428  12.776  1.00  0.00     0.296 HD
ENDBRANCH  15  20
ENDBRANCH  14  15
ENDBRANCH   1  14
BRANCH   6  22
ATOM     22  N   UNL     1      44.189 131.120  20.560  1.00  0.00    -0.058 NA
BRANCH  22  23
ATOM     23  N   UNL     1      44.771 131.719  21.466  1.00  0.00     0.005 N 
ATOM     24  N   UNL     1      45.354 132.317  22.369  1.00  0.00    -0.003 NA
ENDBRANCH  22  23
ENDBRANCH   6  22
BRANCH  10  25
ATOM     25  O   UNL     1      46.659 130.373  15.909  1.00  0.00    -0.410 OA
BRANCH  25  26
ATOM     26  C   UNL     1      46.417 129.387  14.943  1.00  0.00     0.324 C 
ATOM     27  O   UNL     1      45.557 128.483  15.135  1.00  0.00    -0.251 OA
BRANCH  26  28
ATOM     28  C   UNL     1      47.210 129.411  13.664  1.00  0.00     0.201 C 
ATOM     29  C   UNL     1      48.713 129.460  13.964  1.00  0.00     0.030 C 
BRANCH  28  30
ATOM     30  C   UNL     1      46.770 130.581  12.766  1.00  0.00     0.401 C 
ATOM     31  F   UNL     1      45.399 130.545  12.584  1.00  0.00    -0.170 F 
ATOM     32  F   UNL     1      47.388 130.511  11.529  1.00  0.00    -0.170 F 
ATOM     33  F   UNL     1      47.101 131.784  13.364  1.00  0.00    -0.170 F 
ENDBRANCH  28  30
ENDBRANCH  26  28
ENDBRANCH  25  26
ENDBRANCH  10  25
TORSDOF 12
ENDMDL
MODEL 3
REMARK VINA RESULT:      -7.8      0.681      1.157
REMARK SMILES C#CCO/C(O)=C\[C@H]1CC[C@@H]2C(OC(=O)[C@H](C)C(F)(F)F)=Nc3c(N=[N+]=[N-])cc(Cl)c1c32
REMARK SMILES IDX 8 1 31 2 29 3 30 4 28 5 24 6 23 7 32 8 11 9 12 10 22 11
REMARK SMILES IDX 10 12 9 13 7 14 5 15 4 16 3 17 2 18 1 19 6 20 25 22 26 23
REMARK SMILES IDX 27 24 13 25 14 26 15 27 16 28 17 29 18 30 19 31 20 32 21 33
REMARK H PARENT 6 21
ROOT
ATOM      1  C   UNL     1      42.044 133.400  16.119  1.00  0.00     0.051 C 
ATOM      2  C   UNL     1      42.713 133.026  17.439  1.00  0.00    -0.016 A 
ATOM      3  C   UNL     1      42.027 133.018  18.679  1.00  0.00     0.045 A 
ATOM      4  Cl  UNL     1      40.418 133.709  18.843  1.00  0.00    -0.084 Cl
ATOM      5  C   UNL     1      42.601 132.376  19.800  1.00  0.00     0.033 A 
ATOM      6  C   UNL     1      43.827 131.681  19.680  1.00  0.00     0.065 A 
ATOM      7  C   UNL     1      44.491 131.742  18.455  1.00  0.00     0.081 A 
ATOM      8  C   UNL     1      43.992 132.473  17.414  1.00  0.00    -0.004 A 
ATOM      9  C   UNL     1      44.780 132.184  16.202  1.00  0.00     0.109 C 
ATOM     10  C   UNL     1      45.669 131.093  16.739  1.00  0.00     0.206 C 
ATOM     11  N   UNL     1      45.530 130.882  18.017  1.00  0.00    -0.216 NA
ATOM     12  C   UNL     1      43.816 131.784  15.086  1.00  0.00     0.019 C 
ATOM     13  C   UNL     1      42.839 132.958  14.842  1.00  0.00     0.014 C 
ENDROOT
BRANCH   1  14
ATOM     14  C   UNL     1      41.719 134.876  16.066  1.00  0.00     0.069 C 
BRANCH  14  15
ATOM     15  C   UNL     1      42.201 135.772  16.934  1.00  0.00     0.273 C 
BRANCH  15  16
ATOM     16  O   UNL     1      43.566 135.776  17.249  1.00  0.00    -0.453 OA
BRANCH  16  17
ATOM     17  C   UNL     1      44.177 136.724  18.114  1.00  0.00     0.322 C 
BRANCH  17  18
ATOM     18  C   UNL     1      44.578 136.051  19.349  1.00  0.00    -0.065 C 
ATOM     19  C   UNL     1      44.904 135.500  20.372  1.00  0.00     0.007 C 
ENDBRANCH  17  18
ENDBRANCH  16  17
ENDBRANCH  15  16
BRANCH  15  20
ATOM     20  O   UNL     1      41.319 136.685  17.515  1.00  0.00    -0.481 OA
ATOM     21  H   UNL     1      41.225 137.635  17.182  1.00  0.00     0.296 HD
ENDBRANCH  15  20
ENDBRANCH  14  15
ENDBRANCH   1  14
BRANCH   6  22
ATOM     22  N   UNL     1      44.369 130.888  20.745  1.00  0.00    -0.058 NA
BRANCH  22  23
ATOM     23  N   UNL     1      44.666 131.373  21.838  1.00  0.00     0.005 N 
ATOM     24  N   UNL     1      44.961 131.859  22.929  1.00  0.00    -0.003 NA
ENDBRANCH  22  23
ENDBRANCH   6  22
BRANCH  10  25
ATOM     25  O   UNL     1      46.593 130.412  15.937  1.00  0.00    -0.410 OA
BRANCH  25  26
ATOM     26  C   UNL     1      46.268 129.432  14.989  1.00  0.00     0.324 C 
ATOM     27  O   UNL     1      45.357 128.588  15.210  1.00  0.00    -0.251 OA
BRANCH  26  28
ATOM     28  C   UNL     1      47.032 129.392  13.693  1.00  0.00     0.201 C 
ATOM     29  C   UNL     1      48.539 129.299  13.960  1.00  0.00     0.030 C 
BRANCH  28  30
ATOM     30  C   UNL     1      46.683 130.603  12.810  1.00  0.00     0.401 C 
ATOM     31  F   UNL     1      47.223 131.755  13.354  1.00  0.00    -0.170 F 
ATOM     32  F   UNL     1      45.311 130.757  12.707  1.00  0.00    -0.170 F 
ATOM     33  F   UNL     1      47.210 130.429  11.543  1.00  0.00    -0.170 F 
ENDBRANCH  28  30
ENDBRANCH  26  28
ENDBRANCH  25  26
ENDBRANCH  10  25
TORSDOF 12
ENDMDL
MODEL 4
REMARK VINA RESULT:      -7.7      1.619      1.931
REMARK SMILES C#CCO/C(O)=C\[C@H]1CC[C@@H]2C(OC(=O)[C@H](C)C(F)(F)F)=Nc3c(N=[N+]=[N-])cc(Cl)c1c32
REMARK SMILES IDX 8 1 31 2 29 3 30 4 28 5 24 6 23 7 32 8 11 9 12 10 22 11
REMARK SMILES IDX 10 12 9 13 7 14 5 15 4 16 3 17 2 18 1 19 6 20 25 22 26 23
REMARK SMILES IDX 27 24 13 25 14 26 15 27 16 28 17 29 18 30 19 31 20 32 21 33
REMARK H PARENT 6 21
ROOT
ATOM      1  C   UNL     1      41.785 133.190  15.579  1.00  0.00     0.051 C 
ATOM      2  C   UNL     1      42.423 132.966  16.948  1.00  0.00    -0.016 A 
ATOM      3  C   UNL     1      41.686 132.989  18.158  1.00  0.00     0.045 A 
ATOM      4  Cl  UNL     1      40.022 133.556  18.210  1.00  0.00    -0.084 Cl
ATOM      5  C   UNL     1      42.260 132.476  19.343  1.00  0.00     0.033 A 
ATOM      6  C   UNL     1      43.542 131.877  19.321  1.00  0.00     0.065 A 
ATOM      7  C   UNL     1      44.251 131.907  18.121  1.00  0.00     0.081 A 
ATOM      8  C   UNL     1      43.742 132.519  17.010  1.00  0.00    -0.004 A 
ATOM      9  C   UNL     1      44.602 132.211  15.854  1.00  0.00     0.109 C 
ATOM     10  C   UNL     1      45.549 131.237  16.503  1.00  0.00     0.206 C 
ATOM     11  N   UNL     1      45.373 131.105  17.786  1.00  0.00    -0.216 NA
ATOM     12  C   UNL     1      43.721 131.657  14.734  1.00  0.00     0.019 C 
ATOM     13  C   UNL     1      42.667 132.726  14.369  1.00  0.00     0.014 C 
ENDROOT
BRANCH   1  14
ATOM     14  C   UNL     1      41.347 134.628  15.406  1.00  0.00     0.069 C 
BRANCH  14  15
ATOM     15  C   UNL     1      40.227 134.989  14.771  1.00  0.00     0.273 C 
BRANCH  15  16
ATOM     16  O   UNL     1      39.117 135.425  15.505  1.00  0.00    -0.453 OA
BRANCH  16  17
ATOM     17  C   UNL     1      38.905 136.776  15.895  1.00  0.00     0.322 C 
BRANCH  17  18
ATOM     18  C   UNL     1      39.627 137.028  17.142  1.00  0.00    -0.065 C 
ATOM     19  C   UNL     1      40.222 137.244  18.169  1.00  0.00     0.007 C 
ENDBRANCH  17  18
ENDBRANCH  16  17
ENDBRANCH  15  16
BRANCH  15  20
ATOM     20  O   UNL     1      40.192 134.913  13.377  1.00  0.00    -0.481 OA
ATOM     21  H   UNL     1      40.958 135.229  12.798  1.00  0.00     0.296 HD
ENDBRANCH  15  20
ENDBRANCH  14  15
ENDBRANCH   1  14
BRANCH   6  22
ATOM     22  N   UNL     1      44.098 131.208  20.461  1.00  0.00    -0.058 NA
BRANCH  22  23
ATOM     23  N   UNL     1      44.903 131.757  21.215  1.00  0.00     0.005 N 
ATOM     24  N   UNL     1      45.707 132.304  21.968  1.00  0.00    -0.003 NA
ENDBRANCH  22  23
ENDBRANCH   6  22
BRANCH  10  25
ATOM     25  O   UNL     1      46.559 130.579  15.788  1.00  0.00    -0.410 OA
BRANCH  25  26
ATOM     26  C   UNL     1      46.350 129.534  14.878  1.00  0.00     0.324 C 
ATOM     27  O   UNL     1      45.434 128.685  15.060  1.00  0.00    -0.251 OA
BRANCH  26  28
ATOM     28  C   UNL     1      47.247 129.427  13.674  1.00  0.00     0.201 C 
ATOM     29  C   UNL     1      48.720 129.456  14.097  1.00  0.00     0.030 C 
BRANCH  28  30
ATOM     30  C   UNL     1      46.926 130.529  12.649  1.00  0.00     0.401 C 
ATOM     31  F   UNL     1      47.462 131.733  13.068  1.00  0.00    -0.170 F 
ATOM     32  F   UNL     1      45.557 130.677  12.500  1.00  0.00    -0.170 F 
ATOM     33  F   UNL     1      47.478 130.206  11.422  1.00  0.00    -0.170 F 
ENDBRANCH  28  30
ENDBRANCH  26  28
ENDBRANCH  25  26
ENDBRANCH  10  25
TORSDOF 12
ENDMDL
MODEL 5
REMARK VINA RESULT:      -7.7      1.012      1.259
REMARK SMILES C#CCO/C(O)=C\[C@H]1CC[C@@H]2C(OC(=O)[C@H](C)C(F)(F)F)=Nc3c(N=[N+]=[N-])cc(Cl)c1c32
REMARK SMILES IDX 8 1 31 2 29 3 30 4 28 5 24 6 23 7 32 8 11 9 12 10 22 11
REMARK SMILES IDX 10 12 9 13 7 14 5 15 4 16 3 17 2 18 1 19 6 20 25 22 26 23
REMARK SMILES IDX 27 24 13 25 14 26 15 27 16 28 17 29 18 30 19 31 20 32 21 33
REMARK H PARENT 6 21
ROOT
ATOM      1  C   UNL     1      42.252 133.246  16.371  1.00  0.00     0.051 C 
ATOM      2  C   UNL     1      42.986 132.888  17.660  1.00  0.00    -0.016 A 
ATOM      3  C   UNL     1      42.369 132.916  18.935  1.00  0.00     0.045 A 
ATOM      4  Cl  UNL     1      40.782 133.637  19.172  1.00  0.00    -0.084 Cl
ATOM      5  C   UNL     1      42.994 132.288  20.036  1.00  0.00     0.033 A 
ATOM      6  C   UNL     1      44.202 131.572  19.865  1.00  0.00     0.065 A 
ATOM      7  C   UNL     1      44.798 131.597  18.604  1.00  0.00     0.081 A 
ATOM      8  C   UNL     1      44.254 132.314  17.576  1.00  0.00    -0.004 A 
ATOM      9  C   UNL     1      44.969 131.988  16.330  1.00  0.00     0.109 C 
ATOM     10  C   UNL     1      45.870 130.894  16.841  1.00  0.00     0.206 C 
ATOM     11  N   UNL     1      45.799 130.711  18.128  1.00  0.00    -0.216 NA
ATOM     12  C   UNL     1      43.939 131.581  15.276  1.00  0.00     0.019 C 
ATOM     13  C   UNL     1      42.968 132.765  15.062  1.00  0.00     0.014 C 
ENDROOT
BRANCH   1  14
ATOM     14  C   UNL     1      41.946 134.725  16.304  1.00  0.00     0.069 C 
BRANCH  14  15
ATOM     15  C   UNL     1      42.751 135.670  16.802  1.00  0.00     0.273 C 
BRANCH  15  16
ATOM     16  O   UNL     1      42.346 136.418  17.914  1.00  0.00    -0.453 OA
BRANCH  16  17
ATOM     17  C   UNL     1      41.381 137.461  17.861  1.00  0.00     0.322 C 
BRANCH  17  18
ATOM     18  C   UNL     1      41.917 138.639  18.542  1.00  0.00    -0.065 C 
ATOM     19  C   UNL     1      42.355 139.616  19.098  1.00  0.00     0.007 C 
ENDBRANCH  17  18
ENDBRANCH  16  17
ENDBRANCH  15  16
BRANCH  15  20
ATOM     20  O   UNL     1      43.985 135.891  16.188  1.00  0.00    -0.481 OA
ATOM     21  H   UNL     1      44.092 136.505  15.392  1.00  0.00     0.296 HD
ENDBRANCH  15  20
ENDBRANCH  14  15
ENDBRANCH   1  14
BRANCH   6  22
ATOM     22  N   UNL     1      44.789 130.792  20.915  1.00  0.00    -0.058 NA
BRANCH  22  23
ATOM     23  N   UNL     1      44.778 131.161  22.090  1.00  0.00     0.005 N 
ATOM     24  N   UNL     1      44.767 131.529  23.264  1.00  0.00    -0.003 NA
ENDBRANCH  22  23
ENDBRANCH   6  22
BRANCH  10  25
ATOM     25  O   UNL     1      46.739 130.182  16.004  1.00  0.00    -0.410 OA
BRANCH  25  26
ATOM     26  C   UNL     1      46.338 129.343  14.955  1.00  0.00     0.324 C 
ATOM     27  O   UNL     1      45.367 128.549  15.090  1.00  0.00    -0.251 OA
BRANCH  26  28
ATOM     28  C   UNL     1      47.093 129.394  13.653  1.00  0.00     0.201 C 
ATOM     29  C   UNL     1      48.605 129.380  13.909  1.00  0.00     0.030 C 
BRANCH  28  30
ATOM     30  C   UNL     1      46.667 130.614  12.817  1.00  0.00     0.401 C 
ATOM     31  F   UNL     1      47.015 131.781  13.474  1.00  0.00    -0.170 F 
ATOM     32  F   UNL     1      45.298 130.610  12.606  1.00  0.00    -0.170 F 
ATOM     33  F   UNL     1      47.310 130.592  11.592  1.00  0.00    -0.170 F 
ENDBRANCH  28  30
ENDBRANCH  26  28
ENDBRANCH  25  26
ENDBRANCH  10  25
TORSDOF 12
ENDMDL
MODEL 6
REMARK VINA RESULT:      -7.5      1.511      2.135
REMARK SMILES C#CCO/C(O)=C\[C@H]1CC[C@@H]2C(OC(=O)[C@H](C)C(F)(F)F)=Nc3c(N=[N+]=[N-])cc(Cl)c1c32
REMARK SMILES IDX 8 1 31 2 29 3 30 4 28 5 24 6 23 7 32 8 11 9 12 10 22 11
REMARK SMILES IDX 10 12 9 13 7 14 5 15 4 16 3 17 2 18 1 19 6 20 25 22 26 23
REMARK SMILES IDX 27 24 13 25 14 26 15 27 16 28 17 29 18 30 19 31 20 32 21 33
REMARK H PARENT 6 21
ROOT
ATOM      1  C   UNL     1      42.230 133.353  17.840  1.00  0.00     0.051 C 
ATOM      2  C   UNL     1      43.180 132.928  18.957  1.00  0.00    -0.016 A 
ATOM      3  C   UNL     1      42.810 132.921  20.326  1.00  0.00     0.045 A 
ATOM      4  Cl  UNL     1      41.316 133.668  20.878  1.00  0.00    -0.084 Cl
ATOM      5  C   UNL     1      43.609 132.235  21.269  1.00  0.00     0.033 A 
ATOM      6  C   UNL     1      44.742 131.499  20.851  1.00  0.00     0.065 A 
ATOM      7  C   UNL     1      45.095 131.560  19.504  1.00  0.00     0.081 A 
ATOM      8  C   UNL     1      44.392 132.329  18.619  1.00  0.00    -0.004 A 
ATOM      9  C   UNL     1      44.854 132.035  17.251  1.00  0.00     0.109 C 
ATOM     10  C   UNL     1      45.800 130.902  17.548  1.00  0.00     0.206 C 
ATOM     11  N   UNL     1      45.963 130.670  18.819  1.00  0.00    -0.216 NA
ATOM     12  C   UNL     1      43.635 131.694  16.395  1.00  0.00     0.019 C 
ATOM     13  C   UNL     1      42.677 132.907  16.405  1.00  0.00     0.014 C 
ENDROOT
BRANCH   1  14
ATOM     14  C   UNL     1      41.962 134.841  17.882  1.00  0.00     0.069 C 
BRANCH  14  15
ATOM     15  C   UNL     1      42.679 135.741  17.202  1.00  0.00     0.273 C 
BRANCH  15  16
ATOM     16  O   UNL     1      42.077 136.491  16.184  1.00  0.00    -0.453 OA
BRANCH  16  17
ATOM     17  C   UNL     1      42.738 136.883  14.989  1.00  0.00     0.322 C 
BRANCH  17  18
ATOM     18  C   UNL     1      42.520 138.313  14.772  1.00  0.00    -0.065 C 
ATOM     19  C   UNL     1      42.332 139.491  14.595  1.00  0.00     0.007 C 
ENDBRANCH  17  18
ENDBRANCH  16  17
ENDBRANCH  15  16
BRANCH  15  20
ATOM     20  O   UNL     1      44.028 135.907  17.525  1.00  0.00    -0.481 OA
ATOM     21  H   UNL     1      44.346 136.610  18.177  1.00  0.00     0.296 HD
ENDBRANCH  15  20
ENDBRANCH  14  15
ENDBRANCH   1  14
BRANCH   6  22
ATOM     22  N   UNL     1      45.490 130.665  21.747  1.00  0.00    -0.058 NA
BRANCH  22  23
ATOM     23  N   UNL     1      45.080 130.378  22.872  1.00  0.00     0.005 N 
ATOM     24  N   UNL     1      44.669 130.090  23.995  1.00  0.00    -0.003 NA
ENDBRANCH  22  23
ENDBRANCH   6  22
BRANCH  10  25
ATOM     25  O   UNL     1      46.478 130.203  16.540  1.00  0.00    -0.410 OA
BRANCH  25  26
ATOM     26  C   UNL     1      45.873 129.351  15.607  1.00  0.00     0.324 C 
ATOM     27  O   UNL     1      44.959 128.551  15.950  1.00  0.00    -0.251 OA
BRANCH  26  28
ATOM     28  C   UNL     1      46.337 129.393  14.175  1.00  0.00     0.201 C 
ATOM     29  C   UNL     1      47.867 129.327  14.104  1.00  0.00     0.030 C 
BRANCH  28  30
ATOM     30  C   UNL     1      45.786 130.636  13.455  1.00  0.00     0.401 C 
ATOM     31  F   UNL     1      46.132 131.778  14.154  1.00  0.00    -0.170 F 
ATOM     32  F   UNL     1      44.406 130.574  13.354  1.00  0.00    -0.170 F 
ATOM     33  F   UNL     1      46.325 130.721  12.183  1.00  0.00    -0.170 F 
ENDBRANCH  28  30
ENDBRANCH  26  28
ENDBRANCH  25  26
ENDBRANCH  10  25
TORSDOF 12
ENDMDL
MODEL 7
REMARK VINA RESULT:      -7.4      2.017      3.115
REMARK SMILES C#CCO/C(O)=C\[C@H]1CC[C@@H]2C(OC(=O)[C@H](C)C(F)(F)F)=Nc3c(N=[N+]=[N-])cc(Cl)c1c32
REMARK SMILES IDX 8 1 31 2 29 3 30 4 28 5 24 6 23 7 32 8 11 9 12 10 22 11
REMARK SMILES IDX 10 12 9 13 7 14 5 15 4 16 3 17 2 18 1 19 6 20 25 22 26 23
REMARK SMILES IDX 27 24 13 25 14 26 15 27 16 28 17 29 18 30 19 31 20 32 21 33
REMARK H PARENT 6 21
ROOT
ATOM      1  C   UNL     1      41.896 134.206  15.460  1.00  0.00     0.051 C 
ATOM      2  C   UNL     1      42.759 134.042  16.708  1.00  0.00    -0.016 A 
ATOM      3  C   UNL     1      42.433 134.628  17.957  1.00  0.00     0.045 A 
ATOM      4  Cl  UNL     1      41.154 135.826  18.103  1.00  0.00    -0.084 Cl
ATOM      5  C   UNL     1      43.088 134.194  19.132  1.00  0.00     0.033 A 
ATOM      6  C   UNL     1      44.021 133.132  19.086  1.00  0.00     0.065 A 
ATOM      7  C   UNL     1      44.343 132.606  17.835  1.00  0.00     0.081 A 
ATOM      8  C   UNL     1      43.802 133.116  16.689  1.00  0.00    -0.004 A 
ATOM      9  C   UNL     1      44.153 132.239  15.558  1.00  0.00     0.109 C 
ATOM     10  C   UNL     1      44.836 131.128  16.310  1.00  0.00     0.206 C 
ATOM     11  N   UNL     1      44.978 131.362  17.583  1.00  0.00    -0.216 NA
ATOM     12  C   UNL     1      42.866 131.868  14.820  1.00  0.00     0.019 C 
ATOM     13  C   UNL     1      42.198 133.170  14.322  1.00  0.00     0.014 C 
ENDROOT
BRANCH   1  14
ATOM     14  C   UNL     1      41.961 135.621  14.929  1.00  0.00     0.069 C 
BRANCH  14  15
ATOM     15  C   UNL     1      40.882 136.382  14.715  1.00  0.00     0.273 C 
BRANCH  15  16
ATOM     16  O   UNL     1      39.704 135.803  14.227  1.00  0.00    -0.453 OA
BRANCH  16  17
ATOM     17  C   UNL     1      39.556 135.300  12.906  1.00  0.00     0.322 C 
BRANCH  17  18
ATOM     18  C   UNL     1      38.130 135.204  12.592  1.00  0.00    -0.065 C 
ATOM     19  C   UNL     1      36.954 135.119  12.338  1.00  0.00     0.007 C 
ENDBRANCH  17  18
ENDBRANCH  16  17
ENDBRANCH  15  16
BRANCH  15  20
ATOM     20  O   UNL     1      40.963 137.750  14.982  1.00  0.00    -0.481 OA
ATOM     21  H   UNL     1      40.342 138.212  15.633  1.00  0.00     0.296 HD
ENDBRANCH  15  20
ENDBRANCH  14  15
ENDBRANCH   1  14
BRANCH   6  22
ATOM     22  N   UNL     1      44.592 132.558  20.269  1.00  0.00    -0.058 NA
BRANCH  22  23
ATOM     23  N   UNL     1      45.443 133.147  20.938  1.00  0.00     0.005 N 
ATOM     24  N   UNL     1      46.292 133.734  21.606  1.00  0.00    -0.003 NA
ENDBRANCH  22  23
ENDBRANCH   6  22
BRANCH  10  25
ATOM     25  O   UNL     1      45.317 129.975  15.676  1.00  0.00    -0.410 OA
BRANCH  25  26
ATOM     26  C   UNL     1      46.637 129.784  15.246  1.00  0.00     0.324 C 
ATOM     27  O   UNL     1      47.603 129.853  16.056  1.00  0.00    -0.251 OA
BRANCH  26  28
ATOM     28  C   UNL     1      46.895 129.504  13.790  1.00  0.00     0.201 C 
ATOM     29  C   UNL     1      48.380 129.202  13.556  1.00  0.00     0.030 C 
BRANCH  28  30
ATOM     30  C   UNL     1      46.404 130.667  12.910  1.00  0.00     0.401 C 
ATOM     31  F   UNL     1      45.049 130.536  12.668  1.00  0.00    -0.170 F 
ATOM     32  F   UNL     1      47.076 130.685  11.700  1.00  0.00    -0.170 F 
ATOM     33  F   UNL     1      46.618 131.870  13.559  1.00  0.00    -0.170 F 
ENDBRANCH  28  30
ENDBRANCH  26  28
ENDBRANCH  25  26
ENDBRANCH  10  25
TORSDOF 12
ENDMDL
MODEL 8
REMARK VINA RESULT:      -7.1      2.297      3.315
REMARK SMILES C#CCO/C(O)=C\[C@H]1CC[C@@H]2C(OC(=O)[C@H](C)C(F)(F)F)=Nc3c(N=[N+]=[N-])cc(Cl)c1c32
REMARK SMILES IDX 8 1 31 2 29 3 30 4 28 5 24 6 23 7 32 8 11 9 12 10 22 11
REMARK SMILES IDX 10 12 9 13 7 14 5 15 4 16 3 17 2 18 1 19 6 20 25 22 26 23
REMARK SMILES IDX 27 24 13 25 14 26 15 27 16 28 17 29 18 30 19 31 20 32 21 33
REMARK H PARENT 6 21
ROOT
ATOM      1  C   UNL     1      41.400 134.837  15.437  1.00  0.00     0.051 C 
ATOM      2  C   UNL     1      42.389 134.702  16.592  1.00  0.00    -0.016 A 
ATOM      3  C   UNL     1      42.143 135.227  17.885  1.00  0.00     0.045 A 
ATOM      4  Cl  UNL     1      40.802 136.323  18.193  1.00  0.00    -0.084 Cl
ATOM      5  C   UNL     1      42.938 134.811  18.978  1.00  0.00     0.033 A 
ATOM      6  C   UNL     1      43.935 133.824  18.807  1.00  0.00     0.065 A 
ATOM      7  C   UNL     1      44.173 133.358  17.514  1.00  0.00     0.081 A 
ATOM      8  C   UNL     1      43.488 133.858  16.443  1.00  0.00    -0.004 A 
ATOM      9  C   UNL     1      43.790 133.042  15.254  1.00  0.00     0.109 C 
ATOM     10  C   UNL     1      44.620 131.964  15.899  1.00  0.00     0.206 C 
ATOM     11  N   UNL     1      44.867 132.172  17.161  1.00  0.00    -0.216 NA
ATOM     12  C   UNL     1      42.468 132.597  14.628  1.00  0.00     0.019 C 
ATOM     13  C   UNL     1      41.664 133.858  14.241  1.00  0.00     0.014 C 
ENDROOT
BRANCH   1  14
ATOM     14  C   UNL     1      41.312 136.267  14.952  1.00  0.00     0.069 C 
BRANCH  14  15
ATOM     15  C   UNL     1      40.171 136.850  14.568  1.00  0.00     0.273 C 
BRANCH  15  16
ATOM     16  O   UNL     1      39.007 136.673  15.325  1.00  0.00    -0.453 OA
BRANCH  16  17
ATOM     17  C   UNL     1      37.749 136.308  14.772  1.00  0.00     0.322 C 
BRANCH  17  18
ATOM     18  C   UNL     1      37.906 135.067  14.014  1.00  0.00    -0.065 C 
ATOM     19  C   UNL     1      38.029 134.041  13.392  1.00  0.00     0.007 C 
ENDBRANCH  17  18
ENDBRANCH  16  17
ENDBRANCH  15  16
BRANCH  15  20
ATOM     20  O   UNL     1      40.172 137.622  13.405  1.00  0.00    -0.481 OA
ATOM     21  H   UNL     1      39.836 137.268  12.519  1.00  0.00     0.296 HD
ENDBRANCH  15  20
ENDBRANCH  14  15
ENDBRANCH   1  14
BRANCH   6  22
ATOM     22  N   UNL     1      44.658 133.261  19.911  1.00  0.00    -0.058 NA
BRANCH  22  23
ATOM     23  N   UNL     1      44.087 132.795  20.898  1.00  0.00     0.005 N 
ATOM     24  N   UNL     1      43.517 132.329  21.883  1.00  0.00    -0.003 NA
ENDBRANCH  22  23
ENDBRANCH   6  22
BRANCH  10  25
ATOM     25  O   UNL     1      45.119 130.868  15.183  1.00  0.00    -0.410 OA
BRANCH  25  26
ATOM     26  C   UNL     1      46.476 130.538  15.058  1.00  0.00     0.324 C 
ATOM     27  O   UNL     1      47.156 130.186  16.061  1.00  0.00    -0.251 OA
BRANCH  26  28
ATOM     28  C   UNL     1      47.123 130.619  13.701  1.00  0.00     0.201 C 
ATOM     29  C   UNL     1      46.057 130.707  12.603  1.00  0.00     0.030 C 
BRANCH  28  30
ATOM     30  C   UNL     1      48.078 129.434  13.476  1.00  0.00     0.401 C 
ATOM     31  F   UNL     1      49.306 129.702  14.054  1.00  0.00    -0.170 F 
ATOM     32  F   UNL     1      48.261 129.201  12.123  1.00  0.00    -0.170 F 
ATOM     33  F   UNL     1      47.558 128.293  14.061  1.00  0.00    -0.170 F 
ENDBRANCH  28  30
ENDBRANCH  26  28
ENDBRANCH  25  26
ENDBRANCH  10  25
TORSDOF 12
ENDMDL
MODEL 9
REMARK VINA RESULT:      -7.0      1.413      1.835
REMARK SMILES C#CCO/C(O)=C\[C@H]1CC[C@@H]2C(OC(=O)[C@H](C)C(F)(F)F)=Nc3c(N=[N+]=[N-])cc(Cl)c1c32
REMARK SMILES IDX 8 1 31 2 29 3 30 4 28 5 24 6 23 7 32 8 11 9 12 10 22 11
REMARK SMILES IDX 10 12 9 13 7 14 5 15 4 16 3 17 2 18 1 19 6 20 25 22 26 23
REMARK SMILES IDX 27 24 13 25 14 26 15 27 16 28 17 29 18 30 19 31 20 32 21 33
REMARK H PARENT 6 21
ROOT
ATOM      1  C   UNL     1      41.974 133.866  15.985  1.00  0.00     0.051 C 
ATOM      2  C   UNL     1      42.787 133.529  17.232  1.00  0.00    -0.016 A 
ATOM      3  C   UNL     1      42.397 133.919  18.538  1.00  0.00     0.045 A 
ATOM      4  Cl  UNL     1      41.089 135.064  18.803  1.00  0.00    -0.084 Cl
ATOM      5  C   UNL     1      43.011 133.325  19.664  1.00  0.00     0.033 A 
ATOM      6  C   UNL     1      43.966 132.295  19.503  1.00  0.00     0.065 A 
ATOM      7  C   UNL     1      44.351 131.964  18.204  1.00  0.00     0.081 A 
ATOM      8  C   UNL     1      43.848 132.632  17.123  1.00  0.00    -0.004 A 
ATOM      9  C   UNL     1      44.264 131.938  15.891  1.00  0.00     0.109 C 
ATOM     10  C   UNL     1      44.937 130.737  16.500  1.00  0.00     0.206 C 
ATOM     11  N   UNL     1      45.021 130.781  17.799  1.00  0.00    -0.216 NA
ATOM     12  C   UNL     1      43.017 131.663  15.050  1.00  0.00     0.019 C 
ATOM     13  C   UNL     1      42.343 133.014  14.721  1.00  0.00     0.014 C 
ENDROOT
BRANCH   1  14
ATOM     14  C   UNL     1      42.032 135.345  15.672  1.00  0.00     0.069 C 
BRANCH  14  15
ATOM     15  C   UNL     1      40.955 136.083  15.384  1.00  0.00     0.273 C 
BRANCH  15  16
ATOM     16  O   UNL     1      40.467 137.003  16.320  1.00  0.00    -0.453 OA
BRANCH  16  17
ATOM     17  C   UNL     1      41.205 138.121  16.794  1.00  0.00     0.322 C 
BRANCH  17  18
ATOM     18  C   UNL     1      41.654 138.913  15.649  1.00  0.00    -0.065 C 
ATOM     19  C   UNL     1      42.029 139.571  14.710  1.00  0.00     0.007 C 
ENDBRANCH  17  18
ENDBRANCH  16  17
ENDBRANCH  15  16
BRANCH  15  20
ATOM     20  O   UNL     1      40.336 135.910  14.144  1.00  0.00    -0.481 OA
ATOM     21  H   UNL     1      40.750 135.359  13.404  1.00  0.00     0.296 HD
ENDBRANCH  15  20
ENDBRANCH  14  15
ENDBRANCH   1  14
BRANCH   6  22
ATOM     22  N   UNL     1      44.499 131.559  20.612  1.00  0.00    -0.058 NA
BRANCH  22  23
ATOM     23  N   UNL     1      44.597 132.050  21.737  1.00  0.00     0.005 N 
ATOM     24  N   UNL     1      44.696 132.541  22.861  1.00  0.00    -0.003 NA
ENDBRANCH  22  23
ENDBRANCH   6  22
BRANCH  10  25
ATOM     25  O   UNL     1      45.468 129.697  15.725  1.00  0.00    -0.410 OA
BRANCH  25  26
ATOM     26  C   UNL     1      46.741 129.699  15.139  1.00  0.00     0.324 C 
ATOM     27  O   UNL     1      47.774 129.933  15.826  1.00  0.00    -0.251 OA
BRANCH  26  28
ATOM     28  C   UNL     1      46.865 129.426  13.664  1.00  0.00     0.201 C 
ATOM     29  C   UNL     1      48.295 128.999  13.315  1.00  0.00     0.030 C 
BRANCH  28  30
ATOM     30  C   UNL     1      46.417 130.646  12.840  1.00  0.00     0.401 C 
ATOM     31  F   UNL     1      45.038 130.660  12.729  1.00  0.00    -0.170 F 
ATOM     32  F   UNL     1      46.967 130.609  11.569  1.00  0.00    -0.170 F 
ATOM     33  F   UNL     1      46.817 131.812  13.468  1.00  0.00    -0.170 F 
ENDBRANCH  28  30
ENDBRANCH  26  28
ENDBRANCH  25  26
ENDBRANCH  10  25
TORSDOF 12
ENDMDL


