MODEL 1
REMARK VINA RESULT:      -8.0      0.000      0.000
REMARK SMILES Cc1n[nH+]n(C/C(O)=N\c2cccc(C#N)c2C)c1-c1cc2ccccc2c2ccccc12
REMARK SMILES IDX 7 1 8 2 9 4 10 5 11 6 17 7 12 8 14 9 13 10 18 11 15 12 16 13
REMARK SMILES IDX 6 14 5 15 19 16 4 17 2 18 3 19 1 21 20 22 21 23 33 24 22 25
REMARK SMILES IDX 32 26 28 27 23 28 27 29 31 30 29 31 24 32 26 33 30 34 25 35
REMARK H PARENT 8 3 4 20
ROOT
ATOM      1  C   UNL     1      42.527 133.053  14.737  1.00  0.00     0.212 C 
ENDROOT
BRANCH   1   2
ATOM      2  O   UNL     1      41.505 133.187  13.800  1.00  0.00    -0.495 OA
ATOM      3  H   UNL     1      41.488 133.955  13.141  1.00  0.00     0.295 HD
ENDBRANCH   1   2
BRANCH   1   4
ATOM      4  N   UNL     1      42.844 131.849  15.122  1.00  0.00    -0.216 NA
BRANCH   4   5
ATOM      5  C   UNL     1      44.102 131.368  15.629  1.00  0.00     0.071 A 
ATOM      6  C   UNL     1      44.345 131.333  17.013  1.00  0.00     0.029 A 
ATOM      7  C   UNL     1      45.037 130.784  14.743  1.00  0.00    -0.007 A 
ATOM      8  C   UNL     1      45.541 130.817  17.510  1.00  0.00     0.004 A 
ATOM      9  C   UNL     1      46.232 130.230  15.263  1.00  0.00     0.057 A 
ATOM     10  C   UNL     1      46.483 130.274  16.639  1.00  0.00     0.020 A 
ATOM     11  C   UNL     1      44.711 130.679  13.270  1.00  0.00     0.048 C 
BRANCH   9  12
ATOM     12  C   UNL     1      47.213 129.604  14.408  1.00  0.00     0.099 C 
ATOM     13  N   UNL     1      48.000 129.105  13.723  1.00  0.00    -0.192 NA
ENDBRANCH   9  12
ENDBRANCH   4   5
ENDBRANCH   1   4
BRANCH   1  14
ATOM     14  C   UNL     1      43.234 134.302  15.213  1.00  0.00     0.289 C 
BRANCH  14  15
ATOM     15  N   UNL     1      42.272 135.239  15.795  1.00  0.00    -0.119 N 
ATOM     16  C   UNL     1      42.111 135.570  17.094  1.00  0.00     0.137 A 
ATOM     17  N   UNL     1      41.412 135.961  15.092  1.00  0.00    -0.016 N 
ATOM     18  C   UNL     1      41.084 136.499  17.137  1.00  0.00     0.137 A 
ATOM     19  N   UNL     1      40.676 136.738  15.874  1.00  0.00     0.020 NA
ATOM     20  H   UNL     1      41.316 135.925  14.054  1.00  0.00     0.526 HD
ATOM     21  C   UNL     1      40.511 137.171  18.343  1.00  0.00     0.076 C 
BRANCH  16  22
ATOM     22  C   UNL     1      42.833 134.978  18.244  1.00  0.00     0.014 A 
ATOM     23  C   UNL     1      42.384 133.750  18.729  1.00  0.00     0.020 A 
ATOM     24  C   UNL     1      43.905 135.639  18.888  1.00  0.00    -0.008 A 
ATOM     25  C   UNL     1      42.985 133.145  19.834  1.00  0.00    -0.017 A 
ATOM     26  C   UNL     1      44.408 136.858  18.382  1.00  0.00     0.009 A 
ATOM     27  C   UNL     1      44.507 135.062  20.049  1.00  0.00    -0.010 A 
ATOM     28  C   UNL     1      42.525 131.888  20.260  1.00  0.00     0.009 A 
ATOM     29  C   UNL     1      44.048 133.793  20.520  1.00  0.00    -0.010 A 
ATOM     30  C   UNL     1      45.444 137.526  19.027  1.00  0.00     0.001 A 
ATOM     31  C   UNL     1      45.552 135.776  20.686  1.00  0.00     0.009 A 
ATOM     32  C   UNL     1      43.109 131.257  21.354  1.00  0.00     0.001 A 
ATOM     33  C   UNL     1      44.618 133.127  21.634  1.00  0.00     0.009 A 
ATOM     34  C   UNL     1      46.006 136.993  20.179  1.00  0.00     0.001 A 
ATOM     35  C   UNL     1      44.152 131.874  22.039  1.00  0.00     0.001 A 
ENDBRANCH  16  22
ENDBRANCH  14  15
ENDBRANCH   1  14
TORSDOF 7
ENDMDL
MODEL 2
REMARK VINA RESULT:      -7.9      2.431      5.578
REMARK SMILES Cc1n[nH+]n(C/C(O)=N\c2cccc(C#N)c2C)c1-c1cc2ccccc2c2ccccc12
REMARK SMILES IDX 7 1 8 2 9 4 10 5 11 6 17 7 12 8 14 9 13 10 18 11 15 12 16 13
REMARK SMILES IDX 6 14 5 15 19 16 4 17 2 18 3 19 1 21 20 22 21 23 33 24 22 25
REMARK SMILES IDX 32 26 28 27 23 28 27 29 31 30 29 31 24 32 26 33 30 34 25 35
REMARK H PARENT 8 3 4 20
ROOT
ATOM      1  C   UNL     1      45.047 132.407  15.599  1.00  0.00     0.212 C 
ENDROOT
BRANCH   1   2
ATOM      2  O   UNL     1      46.273 132.156  14.988  1.00  0.00    -0.495 OA
ATOM      3  H   UNL     1      46.461 131.280  14.519  1.00  0.00     0.295 HD
ENDBRANCH   1   2
BRANCH   1   4
ATOM      4  N   UNL     1      44.548 133.607  15.490  1.00  0.00    -0.216 NA
BRANCH   4   5
ATOM      5  C   UNL     1      43.231 133.998  15.064  1.00  0.00     0.071 A 
ATOM      6  C   UNL     1      42.254 133.026  14.789  1.00  0.00     0.029 A 
ATOM      7  C   UNL     1      42.869 135.365  15.073  1.00  0.00    -0.007 A 
ATOM      8  C   UNL     1      40.961 133.402  14.430  1.00  0.00     0.004 A 
ATOM      9  C   UNL     1      41.542 135.734  14.741  1.00  0.00     0.057 A 
ATOM     10  C   UNL     1      40.608 134.750  14.399  1.00  0.00     0.020 A 
ATOM     11  C   UNL     1      43.873 136.405  15.519  1.00  0.00     0.048 C 
BRANCH   9  12
ATOM     12  C   UNL     1      41.113 137.112  14.752  1.00  0.00     0.099 C 
ATOM     13  N   UNL     1      40.768 138.216  14.758  1.00  0.00    -0.192 NA
ENDBRANCH   9  12
ENDBRANCH   4   5
ENDBRANCH   1   4
BRANCH   1  14
ATOM     14  C   UNL     1      44.351 131.268  16.308  1.00  0.00     0.289 C 
BRANCH  14  15
ATOM     15  N   UNL     1      44.698 131.267  17.729  1.00  0.00    -0.119 N 
ATOM     16  C   UNL     1      44.090 131.928  18.738  1.00  0.00     0.137 A 
ATOM     17  N   UNL     1      45.678 130.550  18.260  1.00  0.00    -0.016 N 
ATOM     18  C   UNL     1      44.779 131.600  19.894  1.00  0.00     0.137 A 
ATOM     19  N   UNL     1      45.755 130.727  19.571  1.00  0.00     0.020 NA
ATOM     20  H   UNL     1      46.316 129.927  17.719  1.00  0.00     0.526 HD
ATOM     21  C   UNL     1      44.510 132.079  21.284  1.00  0.00     0.076 C 
BRANCH  16  22
ATOM     22  C   UNL     1      42.966 132.884  18.605  1.00  0.00     0.014 A 
ATOM     23  C   UNL     1      41.716 132.372  18.259  1.00  0.00     0.020 A 
ATOM     24  C   UNL     1      43.136 134.280  18.758  1.00  0.00    -0.008 A 
ATOM     25  C   UNL     1      40.616 133.211  18.075  1.00  0.00    -0.017 A 
ATOM     26  C   UNL     1      44.381 134.815  19.157  1.00  0.00     0.009 A 
ATOM     27  C   UNL     1      42.036 135.163  18.529  1.00  0.00    -0.010 A 
ATOM     28  C   UNL     1      39.367 132.644  17.769  1.00  0.00     0.009 A 
ATOM     29  C   UNL     1      40.757 134.620  18.196  1.00  0.00    -0.010 A 
ATOM     30  C   UNL     1      44.561 136.189  19.281  1.00  0.00     0.001 A 
ATOM     31  C   UNL     1      42.259 136.557  18.655  1.00  0.00     0.009 A 
ATOM     32  C   UNL     1      38.251 133.454  17.587  1.00  0.00     0.001 A 
ATOM     33  C   UNL     1      39.601 135.418  17.999  1.00  0.00     0.009 A 
ATOM     34  C   UNL     1      43.508 137.056  19.021  1.00  0.00     0.001 A 
ATOM     35  C   UNL     1      38.367 134.836  17.702  1.00  0.00     0.001 A 
ENDBRANCH  16  22
ENDBRANCH  14  15
ENDBRANCH   1  14
TORSDOF 7
ENDMDL
MODEL 3
REMARK VINA RESULT:      -7.7      0.677      2.773
REMARK SMILES Cc1n[nH+]n(C/C(O)=N\c2cccc(C#N)c2C)c1-c1cc2ccccc2c2ccccc12
REMARK SMILES IDX 7 1 8 2 9 4 10 5 11 6 17 7 12 8 14 9 13 10 18 11 15 12 16 13
REMARK SMILES IDX 6 14 5 15 19 16 4 17 2 18 3 19 1 21 20 22 21 23 33 24 22 25
REMARK SMILES IDX 32 26 28 27 23 28 27 29 31 30 29 31 24 32 26 33 30 34 25 35
REMARK H PARENT 8 3 4 20
ROOT
ATOM      1  C   UNL     1      42.400 132.860  14.740  1.00  0.00     0.212 C 
ENDROOT
BRANCH   1   2
ATOM      2  O   UNL     1      41.230 132.975  13.994  1.00  0.00    -0.495 OA
ATOM      3  H   UNL     1      40.920 132.235  13.378  1.00  0.00     0.295 HD
ENDBRANCH   1   2
BRANCH   1   4
ATOM      4  N   UNL     1      42.845 131.660  14.992  1.00  0.00    -0.216 NA
BRANCH   4   5
ATOM      5  C   UNL     1      44.122 131.268  15.525  1.00  0.00     0.071 A 
ATOM      6  C   UNL     1      44.348 131.280  16.912  1.00  0.00     0.029 A 
ATOM      7  C   UNL     1      45.102 130.721  14.664  1.00  0.00    -0.007 A 
ATOM      8  C   UNL     1      45.566 130.848  17.436  1.00  0.00     0.004 A 
ATOM      9  C   UNL     1      46.321 130.252  15.212  1.00  0.00     0.057 A 
ATOM     10  C   UNL     1      46.551 130.343  16.589  1.00  0.00     0.020 A 
ATOM     11  C   UNL     1      44.803 130.563  13.190  1.00  0.00     0.048 C 
BRANCH   9  12
ATOM     12  C   UNL     1      47.349 129.667  14.383  1.00  0.00     0.099 C 
ATOM     13  N   UNL     1      48.174 129.198  13.722  1.00  0.00    -0.192 NA
ENDBRANCH   9  12
ENDBRANCH   4   5
ENDBRANCH   1   4
BRANCH   1  14
ATOM     14  C   UNL     1      43.105 134.126  15.172  1.00  0.00     0.289 C 
BRANCH  14  15
ATOM     15  N   UNL     1      42.133 135.113  15.642  1.00  0.00    -0.119 N 
ATOM     16  C   UNL     1      42.069 135.713  16.850  1.00  0.00     0.137 A 
ATOM     17  N   UNL     1      41.156 135.614  14.899  1.00  0.00    -0.016 N 
ATOM     18  C   UNL     1      40.982 136.571  16.805  1.00  0.00     0.137 A 
ATOM     19  N   UNL     1      40.439 136.502  15.572  1.00  0.00     0.020 NA
ATOM     20  H   UNL     1      40.966 135.344  13.909  1.00  0.00     0.526 HD
ATOM     21  C   UNL     1      40.475 137.459  17.895  1.00  0.00     0.076 C 
BRANCH  16  22
ATOM     22  C   UNL     1      42.941 135.430  18.014  1.00  0.00     0.014 A 
ATOM     23  C   UNL     1      43.911 136.377  18.342  1.00  0.00     0.020 A 
ATOM     24  C   UNL     1      42.857 134.225  18.749  1.00  0.00    -0.008 A 
ATOM     25  C   UNL     1      44.798 136.167  19.400  1.00  0.00    -0.017 A 
ATOM     26  C   UNL     1      41.849 133.276  18.466  1.00  0.00     0.009 A 
ATOM     27  C   UNL     1      43.784 133.967  19.806  1.00  0.00    -0.010 A 
ATOM     28  C   UNL     1      45.730 137.168  19.719  1.00  0.00     0.009 A 
ATOM     29  C   UNL     1      44.758 134.957  20.143  1.00  0.00    -0.010 A 
ATOM     30  C   UNL     1      41.780 132.077  19.167  1.00  0.00     0.001 A 
ATOM     31  C   UNL     1      43.689 132.730  20.492  1.00  0.00     0.009 A 
ATOM     32  C   UNL     1      46.622 136.991  20.772  1.00  0.00     0.001 A 
ATOM     33  C   UNL     1      45.684 134.804  21.206  1.00  0.00     0.009 A 
ATOM     34  C   UNL     1      42.701 131.801  20.167  1.00  0.00     0.001 A 
ATOM     35  C   UNL     1      46.599 135.813  21.513  1.00  0.00     0.001 A 
ENDBRANCH  16  22
ENDBRANCH  14  15
ENDBRANCH   1  14
TORSDOF 7
ENDMDL
MODEL 4
REMARK VINA RESULT:      -7.5      2.481      6.160
REMARK SMILES Cc1n[nH+]n(C/C(O)=N\c2cccc(C#N)c2C)c1-c1cc2ccccc2c2ccccc12
REMARK SMILES IDX 7 1 8 2 9 4 10 5 11 6 17 7 12 8 14 9 13 10 18 11 15 12 16 13
REMARK SMILES IDX 6 14 5 15 19 16 4 17 2 18 3 19 1 21 20 22 21 23 33 24 22 25
REMARK SMILES IDX 32 26 28 27 23 28 27 29 31 30 29 31 24 32 26 33 30 34 25 35
REMARK H PARENT 8 3 4 20
ROOT
ATOM      1  C   UNL     1      43.284 137.451  17.283  1.00  0.00     0.212 C 
ENDROOT
BRANCH   1   2
ATOM      2  O   UNL     1      42.764 138.437  16.447  1.00  0.00    -0.495 OA
ATOM      3  H   UNL     1      43.338 138.902  15.756  1.00  0.00     0.295 HD
ENDBRANCH   1   2
BRANCH   1   4
ATOM      4  N   UNL     1      43.598 137.791  18.502  1.00  0.00    -0.216 NA
BRANCH   4   5
ATOM      5  C   UNL     1      44.745 137.401  19.277  1.00  0.00     0.071 A 
ATOM      6  C   UNL     1      45.995 138.002  19.052  1.00  0.00     0.029 A 
ATOM      7  C   UNL     1      44.582 136.523  20.374  1.00  0.00    -0.007 A 
ATOM      8  C   UNL     1      47.096 137.667  19.838  1.00  0.00     0.004 A 
ATOM      9  C   UNL     1      45.700 136.217  21.189  1.00  0.00     0.057 A 
ATOM     10  C   UNL     1      46.951 136.773  20.897  1.00  0.00     0.020 A 
ATOM     11  C   UNL     1      43.208 135.994  20.715  1.00  0.00     0.048 C 
BRANCH   9  12
ATOM     12  C   UNL     1      45.589 135.342  22.332  1.00  0.00     0.099 C 
ATOM     13  N   UNL     1      45.497 134.642  23.248  1.00  0.00    -0.192 NA
ENDBRANCH   9  12
ENDBRANCH   4   5
ENDBRANCH   1   4
BRANCH   1  14
ATOM     14  C   UNL     1      43.410 136.045  16.743  1.00  0.00     0.289 C 
BRANCH  14  15
ATOM     15  N   UNL     1      42.225 135.260  17.089  1.00  0.00    -0.119 N 
ATOM     16  C   UNL     1      42.124 133.921  17.237  1.00  0.00     0.137 A 
ATOM     17  N   UNL     1      41.037 135.779  17.361  1.00  0.00    -0.016 N 
ATOM     18  C   UNL     1      40.805 133.662  17.575  1.00  0.00     0.137 A 
ATOM     19  N   UNL     1      40.152 134.839  17.661  1.00  0.00     0.020 NA
ATOM     20  H   UNL     1      40.816 136.799  17.339  1.00  0.00     0.526 HD
ATOM     21  C   UNL     1      40.174 132.333  17.836  1.00  0.00     0.076 C 
BRANCH  16  22
ATOM     22  C   UNL     1      43.198 132.930  16.992  1.00  0.00     0.014 A 
ATOM     23  C   UNL     1      43.388 132.492  15.682  1.00  0.00     0.020 A 
ATOM     24  C   UNL     1      43.979 132.385  18.038  1.00  0.00    -0.008 A 
ATOM     25  C   UNL     1      44.352 131.530  15.375  1.00  0.00    -0.017 A 
ATOM     26  C   UNL     1      43.837 132.852  19.363  1.00  0.00     0.009 A 
ATOM     27  C   UNL     1      44.940 131.365  17.754  1.00  0.00    -0.010 A 
ATOM     28  C   UNL     1      44.536 131.151  14.035  1.00  0.00     0.009 A 
ATOM     29  C   UNL     1      45.137 130.943  16.403  1.00  0.00    -0.010 A 
ATOM     30  C   UNL     1      44.583 132.299  20.399  1.00  0.00     0.001 A 
ATOM     31  C   UNL     1      45.674 130.818  18.836  1.00  0.00     0.009 A 
ATOM     32  C   UNL     1      45.494 130.200  13.696  1.00  0.00     0.001 A 
ATOM     33  C   UNL     1      46.100 129.973  16.027  1.00  0.00     0.009 A 
ATOM     34  C   UNL     1      45.489 131.280  20.138  1.00  0.00     0.001 A 
ATOM     35  C   UNL     1      46.273 129.613  14.688  1.00  0.00     0.001 A 
ENDBRANCH  16  22
ENDBRANCH  14  15
ENDBRANCH   1  14
TORSDOF 7
ENDMDL
MODEL 5
REMARK VINA RESULT:      -7.4      2.968      5.278
REMARK SMILES Cc1n[nH+]n(C/C(O)=N\c2cccc(C#N)c2C)c1-c1cc2ccccc2c2ccccc12
REMARK SMILES IDX 7 1 8 2 9 4 10 5 11 6 17 7 12 8 14 9 13 10 18 11 15 12 16 13
REMARK SMILES IDX 6 14 5 15 19 16 4 17 2 18 3 19 1 21 20 22 21 23 33 24 22 25
REMARK SMILES IDX 32 26 28 27 23 28 27 29 31 30 29 31 24 32 26 33 30 34 25 35
REMARK H PARENT 8 3 4 20
ROOT
ATOM      1  C   UNL     1      38.862 134.010  18.746  1.00  0.00     0.212 C 
ENDROOT
BRANCH   1   2
ATOM      2  O   UNL     1      37.744 134.033  19.577  1.00  0.00    -0.495 OA
ATOM      3  H   UNL     1      37.128 134.835  19.613  1.00  0.00     0.295 HD
ENDBRANCH   1   2
BRANCH   1   4
ATOM      4  N   UNL     1      39.992 134.436  19.236  1.00  0.00    -0.216 NA
BRANCH   4   5
ATOM      5  C   UNL     1      41.245 133.738  19.346  1.00  0.00     0.071 A 
ATOM      6  C   UNL     1      41.458 132.543  18.639  1.00  0.00     0.029 A 
ATOM      7  C   UNL     1      42.321 134.336  20.043  1.00  0.00    -0.007 A 
ATOM      8  C   UNL     1      42.690 131.893  18.700  1.00  0.00     0.004 A 
ATOM      9  C   UNL     1      43.578 133.685  20.068  1.00  0.00     0.057 A 
ATOM     10  C   UNL     1      43.743 132.457  19.416  1.00  0.00     0.020 A 
ATOM     11  C   UNL     1      42.142 135.698  20.676  1.00  0.00     0.048 C 
BRANCH   9  12
ATOM     12  C   UNL     1      44.716 134.258  20.747  1.00  0.00     0.099 C 
ATOM     13  N   UNL     1      45.629 134.715  21.291  1.00  0.00    -0.192 NA
ENDBRANCH   9  12
ENDBRANCH   4   5
ENDBRANCH   1   4
BRANCH   1  14
ATOM     14  C   UNL     1      38.707 133.452  17.350  1.00  0.00     0.289 C 
BRANCH  14  15
ATOM     15  N   UNL     1      38.638 134.540  16.373  1.00  0.00    -0.119 N 
ATOM     16  C   UNL     1      39.639 135.059  15.629  1.00  0.00     0.137 A 
ATOM     17  N   UNL     1      37.524 135.172  16.034  1.00  0.00    -0.016 N 
ATOM     18  C   UNL     1      39.074 136.059  14.854  1.00  0.00     0.137 A 
ATOM     19  N   UNL     1      37.751 136.098  15.114  1.00  0.00     0.020 NA
ATOM     20  H   UNL     1      36.583 134.974  16.439  1.00  0.00     0.526 HD
ATOM     21  C   UNL     1      39.761 136.947  13.868  1.00  0.00     0.076 C 
BRANCH  16  22
ATOM     22  C   UNL     1      41.071 134.684  15.706  1.00  0.00     0.014 A 
ATOM     23  C   UNL     1      41.456 133.476  15.127  1.00  0.00     0.020 A 
ATOM     24  C   UNL     1      42.026 135.474  16.387  1.00  0.00    -0.008 A 
ATOM     25  C   UNL     1      42.778 133.033  15.191  1.00  0.00    -0.017 A 
ATOM     26  C   UNL     1      41.667 136.725  16.936  1.00  0.00     0.009 A 
ATOM     27  C   UNL     1      43.375 135.019  16.506  1.00  0.00    -0.010 A 
ATOM     28  C   UNL     1      43.127 131.829  14.556  1.00  0.00     0.009 A 
ATOM     29  C   UNL     1      43.758 133.789  15.889  1.00  0.00    -0.010 A 
ATOM     30  C   UNL     1      42.595 137.493  17.632  1.00  0.00     0.001 A 
ATOM     31  C   UNL     1      44.291 135.823  17.231  1.00  0.00     0.009 A 
ATOM     32  C   UNL     1      44.438 131.365  14.596  1.00  0.00     0.001 A 
ATOM     33  C   UNL     1      45.084 133.286  15.917  1.00  0.00     0.009 A 
ATOM     34  C   UNL     1      43.897 137.039  17.787  1.00  0.00     0.001 A 
ATOM     35  C   UNL     1      45.413 132.091  15.274  1.00  0.00     0.001 A 
ENDBRANCH  16  22
ENDBRANCH  14  15
ENDBRANCH   1  14
TORSDOF 7
ENDMDL
MODEL 6
REMARK VINA RESULT:      -7.2      2.261      6.151
REMARK SMILES Cc1n[nH+]n(C/C(O)=N\c2cccc(C#N)c2C)c1-c1cc2ccccc2c2ccccc12
REMARK SMILES IDX 7 1 8 2 9 4 10 5 11 6 17 7 12 8 14 9 13 10 18 11 15 12 16 13
REMARK SMILES IDX 6 14 5 15 19 16 4 17 2 18 3 19 1 21 20 22 21 23 33 24 22 25
REMARK SMILES IDX 32 26 28 27 23 28 27 29 31 30 29 31 24 32 26 33 30 34 25 35
REMARK H PARENT 8 3 4 20
ROOT
ATOM      1  C   UNL     1      43.642 132.801  15.233  1.00  0.00     0.212 C 
ENDROOT
BRANCH   1   2
ATOM      2  O   UNL     1      42.970 131.591  15.391  1.00  0.00    -0.495 OA
ATOM      3  H   UNL     1      42.592 131.309  16.286  1.00  0.00     0.295 HD
ENDBRANCH   1   2
BRANCH   1   4
ATOM      4  N   UNL     1      43.110 133.694  14.446  1.00  0.00    -0.216 NA
BRANCH   4   5
ATOM      5  C   UNL     1      42.523 134.961  14.791  1.00  0.00     0.071 A 
ATOM      6  C   UNL     1      43.338 136.071  15.071  1.00  0.00     0.029 A 
ATOM      7  C   UNL     1      41.122 135.132  14.695  1.00  0.00    -0.007 A 
ATOM      8  C   UNL     1      42.772 137.314  15.351  1.00  0.00     0.004 A 
ATOM      9  C   UNL     1      40.561 136.408  14.946  1.00  0.00     0.057 A 
ATOM     10  C   UNL     1      41.390 137.481  15.297  1.00  0.00     0.020 A 
ATOM     11  C   UNL     1      40.254 133.980  14.242  1.00  0.00     0.048 C 
BRANCH   9  12
ATOM     12  C   UNL     1      39.141 136.646  14.845  1.00  0.00     0.099 C 
ATOM     13  N   UNL     1      38.002 136.835  14.762  1.00  0.00    -0.192 NA
ENDBRANCH   9  12
ENDBRANCH   4   5
ENDBRANCH   1   4
BRANCH   1  14
ATOM     14  C   UNL     1      44.917 133.021  16.015  1.00  0.00     0.289 C 
BRANCH  14  15
ATOM     15  N   UNL     1      44.803 132.431  17.349  1.00  0.00    -0.119 N 
ATOM     16  C   UNL     1      44.138 132.912  18.421  1.00  0.00     0.137 A 
ATOM     17  N   UNL     1      45.325 131.265  17.698  1.00  0.00    -0.016 N 
ATOM     18  C   UNL     1      44.320 131.993  19.442  1.00  0.00     0.137 A 
ATOM     19  N   UNL     1      45.051 130.967  18.960  1.00  0.00     0.020 NA
ATOM     20  H   UNL     1      45.888 130.654  17.067  1.00  0.00     0.526 HD
ATOM     21  C   UNL     1      43.796 132.065  20.839  1.00  0.00     0.076 C 
BRANCH  16  22
ATOM     22  C   UNL     1      43.434 134.214  18.502  1.00  0.00     0.014 A 
ATOM     23  C   UNL     1      44.194 135.344  18.802  1.00  0.00     0.020 A 
ATOM     24  C   UNL     1      42.033 134.329  18.345  1.00  0.00    -0.008 A 
ATOM     25  C   UNL     1      43.600 136.600  18.935  1.00  0.00    -0.017 A 
ATOM     26  C   UNL     1      41.252 133.207  17.992  1.00  0.00     0.009 A 
ATOM     27  C   UNL     1      41.396 135.597  18.524  1.00  0.00    -0.010 A 
ATOM     28  C   UNL     1      44.412 137.716  19.197  1.00  0.00     0.009 A 
ATOM     29  C   UNL     1      42.192 136.748  18.810  1.00  0.00    -0.010 A 
ATOM     30  C   UNL     1      39.871 133.309  17.864  1.00  0.00     0.001 A 
ATOM     31  C   UNL     1      39.986 135.661  18.396  1.00  0.00     0.009 A 
ATOM     32  C   UNL     1      43.850 138.982  19.328  1.00  0.00     0.001 A 
ATOM     33  C   UNL     1      41.650 138.050  18.955  1.00  0.00     0.009 A 
ATOM     34  C   UNL     1      39.240 134.527  18.076  1.00  0.00     0.001 A 
ATOM     35  C   UNL     1      42.474 139.149  19.207  1.00  0.00     0.001 A 
ENDBRANCH  16  22
ENDBRANCH  14  15
ENDBRANCH   1  14
TORSDOF 7
ENDMDL
MODEL 7
REMARK VINA RESULT:      -6.9      2.535      5.487
REMARK SMILES Cc1n[nH+]n(C/C(O)=N\c2cccc(C#N)c2C)c1-c1cc2ccccc2c2ccccc12
REMARK SMILES IDX 7 1 8 2 9 4 10 5 11 6 17 7 12 8 14 9 13 10 18 11 15 12 16 13
REMARK SMILES IDX 6 14 5 15 19 16 4 17 2 18 3 19 1 21 20 22 21 23 33 24 22 25
REMARK SMILES IDX 32 26 28 27 23 28 27 29 31 30 29 31 24 32 26 33 30 34 25 35
REMARK H PARENT 8 3 4 20
ROOT
ATOM      1  C   UNL     1      39.605 135.650  19.453  1.00  0.00     0.212 C 
ENDROOT
BRANCH   1   2
ATOM      2  O   UNL     1      38.664 136.078  20.385  1.00  0.00    -0.495 OA
ATOM      3  H   UNL     1      38.896 136.755  21.101  1.00  0.00     0.295 HD
ENDBRANCH   1   2
BRANCH   1   4
ATOM      4  N   UNL     1      39.402 135.953  18.201  1.00  0.00    -0.216 NA
BRANCH   4   5
ATOM      5  C   UNL     1      40.327 135.898  17.101  1.00  0.00     0.071 A 
ATOM      6  C   UNL     1      41.265 136.926  16.907  1.00  0.00     0.029 A 
ATOM      7  C   UNL     1      40.398 134.732  16.303  1.00  0.00    -0.007 A 
ATOM      8  C   UNL     1      42.199 136.850  15.876  1.00  0.00     0.004 A 
ATOM      9  C   UNL     1      41.375 134.650  15.281  1.00  0.00     0.057 A 
ATOM     10  C   UNL     1      42.250 135.720  15.061  1.00  0.00     0.020 A 
ATOM     11  C   UNL     1      39.494 133.559  16.606  1.00  0.00     0.048 C 
BRANCH   9  12
ATOM     12  C   UNL     1      41.505 133.477  14.449  1.00  0.00     0.099 C 
ATOM     13  N   UNL     1      41.612 132.537  13.784  1.00  0.00    -0.192 NA
ENDBRANCH   9  12
ENDBRANCH   4   5
ENDBRANCH   1   4
BRANCH   1  14
ATOM     14  C   UNL     1      40.822 134.905  19.951  1.00  0.00     0.289 C 
BRANCH  14  15
ATOM     15  N   UNL     1      41.938 135.830  20.150  1.00  0.00    -0.119 N 
ATOM     16  C   UNL     1      43.241 135.645  19.848  1.00  0.00     0.137 A 
ATOM     17  N   UNL     1      41.816 137.055  20.640  1.00  0.00    -0.016 N 
ATOM     18  C   UNL     1      43.899 136.807  20.216  1.00  0.00     0.137 A 
ATOM     19  N   UNL     1      42.985 137.677  20.693  1.00  0.00     0.020 NA
ATOM     20  H   UNL     1      40.917 137.482  20.953  1.00  0.00     0.526 HD
ATOM     21  C   UNL     1      45.359 137.105  20.100  1.00  0.00     0.076 C 
BRANCH  16  22
ATOM     22  C   UNL     1      43.847 134.402  19.313  1.00  0.00     0.014 A 
ATOM     23  C   UNL     1      43.992 134.295  17.930  1.00  0.00     0.020 A 
ATOM     24  C   UNL     1      44.219 133.322  20.146  1.00  0.00    -0.008 A 
ATOM     25  C   UNL     1      44.516 133.141  17.346  1.00  0.00    -0.017 A 
ATOM     26  C   UNL     1      44.129 133.429  21.551  1.00  0.00     0.009 A 
ATOM     27  C   UNL     1      44.715 132.112  19.567  1.00  0.00    -0.010 A 
ATOM     28  C   UNL     1      44.682 133.096  15.951  1.00  0.00     0.009 A 
ATOM     29  C   UNL     1      44.877 132.027  18.150  1.00  0.00    -0.010 A 
ATOM     30  C   UNL     1      44.467 132.360  22.373  1.00  0.00     0.001 A 
ATOM     31  C   UNL     1      45.040 131.039  20.435  1.00  0.00     0.009 A 
ATOM     32  C   UNL     1      45.209 131.963  15.340  1.00  0.00     0.001 A 
ATOM     33  C   UNL     1      45.406 130.884  17.497  1.00  0.00     0.009 A 
ATOM     34  C   UNL     1      44.911 131.167  21.817  1.00  0.00     0.001 A 
ATOM     35  C   UNL     1      45.570 130.861  16.110  1.00  0.00     0.001 A 
ENDBRANCH  16  22
ENDBRANCH  14  15
ENDBRANCH   1  14
TORSDOF 7
ENDMDL
MODEL 8
REMARK VINA RESULT:      -6.8      1.325      1.433
REMARK SMILES Cc1n[nH+]n(C/C(O)=N\c2cccc(C#N)c2C)c1-c1cc2ccccc2c2ccccc12
REMARK SMILES IDX 7 1 8 2 9 4 10 5 11 6 17 7 12 8 14 9 13 10 18 11 15 12 16 13
REMARK SMILES IDX 6 14 5 15 19 16 4 17 2 18 3 19 1 21 20 22 21 23 33 24 22 25
REMARK SMILES IDX 32 26 28 27 23 28 27 29 31 30 29 31 24 32 26 33 30 34 25 35
REMARK H PARENT 8 3 4 20
ROOT
ATOM      1  C   UNL     1      43.531 133.819  15.444  1.00  0.00     0.212 C 
ENDROOT
BRANCH   1   2
ATOM      2  O   UNL     1      43.303 134.948  14.662  1.00  0.00    -0.495 OA
ATOM      3  H   UNL     1      42.367 135.281  14.473  1.00  0.00     0.295 HD
ENDBRANCH   1   2
BRANCH   1   4
ATOM      4  N   UNL     1      44.759 133.564  15.801  1.00  0.00    -0.216 NA
BRANCH   4   5
ATOM      5  C   UNL     1      45.332 132.315  16.225  1.00  0.00     0.071 A 
ATOM      6  C   UNL     1      45.025 131.783  17.489  1.00  0.00     0.029 A 
ATOM      7  C   UNL     1      46.082 131.542  15.308  1.00  0.00    -0.007 A 
ATOM      8  C   UNL     1      45.533 130.546  17.881  1.00  0.00     0.004 A 
ATOM      9  C   UNL     1      46.564 130.270  15.706  1.00  0.00     0.057 A 
ATOM     10  C   UNL     1      46.306 129.796  16.997  1.00  0.00     0.020 A 
ATOM     11  C   UNL     1      46.285 132.040  13.895  1.00  0.00     0.048 C 
BRANCH   9  12
ATOM     12  C   UNL     1      47.319 129.430  14.806  1.00  0.00     0.099 C 
ATOM     13  N   UNL     1      47.923 128.759  14.083  1.00  0.00    -0.192 NA
ENDBRANCH   9  12
ENDBRANCH   4   5
ENDBRANCH   1   4
BRANCH   1  14
ATOM     14  C   UNL     1      42.343 132.986  15.867  1.00  0.00     0.289 C 
BRANCH  14  15
ATOM     15  N   UNL     1      41.344 133.826  16.529  1.00  0.00    -0.119 N 
ATOM     16  C   UNL     1      41.342 134.273  17.803  1.00  0.00     0.137 A 
ATOM     17  N   UNL     1      40.272 134.325  15.932  1.00  0.00    -0.016 N 
ATOM     18  C   UNL     1      40.193 135.034  17.950  1.00  0.00     0.137 A 
ATOM     19  N   UNL     1      39.552 135.064  16.764  1.00  0.00     0.020 NA
ATOM     20  H   UNL     1      40.017 134.158  14.934  1.00  0.00     0.526 HD
ATOM     21  C   UNL     1      39.719 135.743  19.177  1.00  0.00     0.076 C 
BRANCH  16  22
ATOM     22  C   UNL     1      42.331 133.931  18.852  1.00  0.00     0.014 A 
ATOM     23  C   UNL     1      42.160 132.728  19.537  1.00  0.00     0.020 A 
ATOM     24  C   UNL     1      43.387 134.800  19.211  1.00  0.00    -0.008 A 
ATOM     25  C   UNL     1      43.025 132.352  20.566  1.00  0.00    -0.017 A 
ATOM     26  C   UNL     1      43.609 135.998  18.497  1.00  0.00     0.009 A 
ATOM     27  C   UNL     1      44.257 134.459  20.292  1.00  0.00    -0.010 A 
ATOM     28  C   UNL     1      42.837 131.112  21.198  1.00  0.00     0.009 A 
ATOM     29  C   UNL     1      44.081 133.213  20.969  1.00  0.00    -0.010 A 
ATOM     30  C   UNL     1      44.628 136.870  18.864  1.00  0.00     0.001 A 
ATOM     31  C   UNL     1      45.279 135.377  20.644  1.00  0.00     0.009 A 
ATOM     32  C   UNL     1      43.687 130.706  22.222  1.00  0.00     0.001 A 
ATOM     33  C   UNL     1      44.926 132.774  22.020  1.00  0.00     0.009 A 
ATOM     34  C   UNL     1      45.452 136.566  19.938  1.00  0.00     0.001 A 
ATOM     35  C   UNL     1      44.728 131.534  22.632  1.00  0.00     0.001 A 
ENDBRANCH  16  22
ENDBRANCH  14  15
ENDBRANCH   1  14
TORSDOF 7
ENDMDL
MODEL 9
REMARK VINA RESULT:      -6.8      2.554      5.809
REMARK SMILES Cc1n[nH+]n(C/C(O)=N\c2cccc(C#N)c2C)c1-c1cc2ccccc2c2ccccc12
REMARK SMILES IDX 7 1 8 2 9 4 10 5 11 6 17 7 12 8 14 9 13 10 18 11 15 12 16 13
REMARK SMILES IDX 6 14 5 15 19 16 4 17 2 18 3 19 1 21 20 22 21 23 33 24 22 25
REMARK SMILES IDX 32 26 28 27 23 28 27 29 31 30 29 31 24 32 26 33 30 34 25 35
REMARK H PARENT 8 3 4 20
ROOT
ATOM      1  C   UNL     1      42.384 132.994  14.987  1.00  0.00     0.212 C 
ENDROOT
BRANCH   1   2
ATOM      2  O   UNL     1      41.239 133.003  14.195  1.00  0.00    -0.495 OA
ATOM      3  H   UNL     1      41.066 133.739  13.523  1.00  0.00     0.295 HD
ENDBRANCH   1   2
BRANCH   1   4
ATOM      4  N   UNL     1      42.677 131.892  15.620  1.00  0.00    -0.216 NA
BRANCH   4   5
ATOM      5  C   UNL     1      43.971 131.384  15.988  1.00  0.00     0.071 A 
ATOM      6  C   UNL     1      44.347 131.307  17.340  1.00  0.00     0.029 A 
ATOM      7  C   UNL     1      44.807 130.814  15.000  1.00  0.00    -0.007 A 
ATOM      8  C   UNL     1      45.578 130.764  17.704  1.00  0.00     0.004 A 
ATOM      9  C   UNL     1      46.040 130.233  15.385  1.00  0.00     0.057 A 
ATOM     10  C   UNL     1      46.424 130.235  16.731  1.00  0.00     0.020 A 
ATOM     11  C   UNL     1      44.338 130.755  13.563  1.00  0.00     0.048 C 
BRANCH   9  12
ATOM     12  C   UNL     1      46.924 129.620  14.422  1.00  0.00     0.099 C 
ATOM     13  N   UNL     1      47.634 129.131  13.651  1.00  0.00    -0.192 NA
ENDBRANCH   9  12
ENDBRANCH   4   5
ENDBRANCH   1   4
BRANCH   1  14
ATOM     14  C   UNL     1      43.237 134.241  15.031  1.00  0.00     0.289 C 
BRANCH  14  15
ATOM     15  N   UNL     1      43.180 134.850  16.360  1.00  0.00    -0.119 N 
ATOM     16  C   UNL     1      42.225 135.658  16.869  1.00  0.00     0.137 A 
ATOM     17  N   UNL     1      44.078 134.650  17.313  1.00  0.00    -0.016 N 
ATOM     18  C   UNL     1      42.617 135.963  18.162  1.00  0.00     0.137 A 
ATOM     19  N   UNL     1      43.768 135.309  18.421  1.00  0.00     0.020 NA
ATOM     20  H   UNL     1      44.929 134.054  17.211  1.00  0.00     0.526 HD
ATOM     21  C   UNL     1      41.909 136.834  19.148  1.00  0.00     0.076 C 
BRANCH  16  22
ATOM     22  C   UNL     1      41.045 136.181  16.142  1.00  0.00     0.014 A 
ATOM     23  C   UNL     1      41.219 137.323  15.359  1.00  0.00     0.020 A 
ATOM     24  C   UNL     1      39.760 135.603  16.266  1.00  0.00    -0.008 A 
ATOM     25  C   UNL     1      40.148 137.901  14.676  1.00  0.00    -0.017 A 
ATOM     26  C   UNL     1      39.572 134.418  17.012  1.00  0.00     0.009 A 
ATOM     27  C   UNL     1      38.640 136.204  15.613  1.00  0.00    -0.010 A 
ATOM     28  C   UNL     1      40.382 139.025  13.867  1.00  0.00     0.009 A 
ATOM     29  C   UNL     1      38.840 137.361  14.798  1.00  0.00    -0.010 A 
ATOM     30  C   UNL     1      38.306 133.861  17.160  1.00  0.00     0.001 A 
ATOM     31  C   UNL     1      37.363 135.615  15.796  1.00  0.00     0.009 A 
ATOM     32  C   UNL     1      39.336 139.620  13.167  1.00  0.00     0.001 A 
ATOM     33  C   UNL     1      37.794 137.993  14.078  1.00  0.00     0.009 A 
ATOM     34  C   UNL     1      37.206 134.462  16.563  1.00  0.00     0.001 A 
ATOM     35  C   UNL     1      38.047 139.106  13.273  1.00  0.00     0.001 A 
ENDBRANCH  16  22
ENDBRANCH  14  15
ENDBRANCH   1  14
TORSDOF 7
ENDMDL


