MODEL 1
REMARK VINA RESULT:      -6.7      0.000      0.000
REMARK SMILES C#C/C(O)=N/[C@H](c1c(C)nnn1-c1c2ccccc2c(C(=O)N=[N+]=[N-])c2ccccc12)C(C)C
REMARK SMILES IDX 7 1 8 2 9 3 10 4 11 5 12 6 6 7 5 8 3 9 2 10 1 11 4 12 32 14
REMARK SMILES IDX 33 15 34 16 13 17 14 18 31 19 15 20 19 21 30 22 26 23 16 24
REMARK SMILES IDX 18 25 20 26 29 27 27 28 17 29 28 30 21 31 22 32 23 33 24 34
REMARK SMILES IDX 25 35
REMARK H PARENT 4 13
ROOT
ATOM      1  C   UNL     1      42.180 135.348  19.352  1.00  0.00     0.092 A 
ATOM      2  C   UNL     1      41.289 135.670  20.369  1.00  0.00     0.086 A 
ATOM      3  C   UNL     1      41.056 137.000  21.013  1.00  0.00     0.071 C 
ATOM      4  N   UNL     1      40.583 134.563  20.675  1.00  0.00    -0.135 NA
ATOM      5  N   UNL     1      41.027 133.589  19.894  1.00  0.00    -0.062 NA
ATOM      6  N   UNL     1      41.984 134.038  19.098  1.00  0.00    -0.214 N 
ENDROOT
BRANCH   1   7
ATOM      7  C   UNL     1      43.219 136.216  18.667  1.00  0.00     0.163 C 
BRANCH   7   8
ATOM      8  N   UNL     1      42.739 137.597  18.562  1.00  0.00    -0.234 NA
BRANCH   8   9
ATOM      9  C   UNL     1      42.079 138.085  17.556  1.00  0.00     0.261 C 
BRANCH   9  10
ATOM     10  C   UNL     1      42.430 137.673  16.225  1.00  0.00    -0.012 C 
ATOM     11  C   UNL     1      42.724 137.326  15.109  1.00  0.00     0.015 C 
ENDBRANCH   9  10
BRANCH   9  12
ATOM     12  O   UNL     1      41.045 139.000  17.750  1.00  0.00    -0.487 OA
ATOM     13  H   UNL     1      41.225 139.924  18.125  1.00  0.00     0.296 HD
ENDBRANCH   9  12
ENDBRANCH   8   9
ENDBRANCH   7   8
BRANCH   7  14
ATOM     14  C   UNL     1      44.587 136.141  19.401  1.00  0.00     0.014 C 
ATOM     15  C   UNL     1      44.442 135.938  20.917  1.00  0.00     0.010 C 
ATOM     16  C   UNL     1      45.451 137.377  19.112  1.00  0.00     0.010 C 
ENDBRANCH   7  14
ENDBRANCH   1   7
BRANCH   6  17
ATOM     17  C   UNL     1      42.680 133.218  18.145  1.00  0.00     0.082 A 
ATOM     18  C   UNL     1      42.316 133.257  16.781  1.00  0.00     0.009 A 
ATOM     19  C   UNL     1      43.741 132.391  18.571  1.00  0.00     0.009 A 
ATOM     20  C   UNL     1      41.230 134.049  16.349  1.00  0.00     0.011 A 
ATOM     21  C   UNL     1      43.039 132.491  15.830  1.00  0.00    -0.005 A 
ATOM     22  C   UNL     1      44.110 132.339  19.933  1.00  0.00     0.011 A 
ATOM     23  C   UNL     1      44.469 131.622  17.625  1.00  0.00    -0.005 A 
ATOM     24  C   UNL     1      40.872 134.094  15.003  1.00  0.00     0.001 A 
ATOM     25  C   UNL     1      42.649 132.548  14.471  1.00  0.00     0.009 A 
ATOM     26  C   UNL     1      44.122 131.680  16.251  1.00  0.00     0.040 A 
ATOM     27  C   UNL     1      45.173 131.543  20.354  1.00  0.00     0.001 A 
ATOM     28  C   UNL     1      45.548 130.829  18.078  1.00  0.00     0.009 A 
ATOM     29  C   UNL     1      41.579 133.347  14.067  1.00  0.00     0.001 A 
ATOM     30  C   UNL     1      45.890 130.791  19.430  1.00  0.00     0.001 A 
BRANCH  26  31
ATOM     31  C   UNL     1      44.906 130.908  15.254  1.00  0.00     0.250 C 
ATOM     32  O   UNL     1      44.620 129.700  15.045  1.00  0.00    -0.287 OA
BRANCH  31  33
ATOM     33  N   UNL     1      45.983 131.509  14.529  1.00  0.00    -0.017 NA
BRANCH  33  34
ATOM     34  N   UNL     1      46.392 131.032  13.470  1.00  0.00     0.009 N 
ATOM     35  N   UNL     1      46.803 130.556  12.413  1.00  0.00    -0.003 NA
ENDBRANCH  33  34
ENDBRANCH  31  33
ENDBRANCH  26  31
ENDBRANCH   6  17
TORSDOF 10
ENDMDL
MODEL 2
REMARK VINA RESULT:      -6.5      1.335      3.607
REMARK SMILES C#C/C(O)=N/[C@H](c1c(C)nnn1-c1c2ccccc2c(C(=O)N=[N+]=[N-])c2ccccc12)C(C)C
REMARK SMILES IDX 7 1 8 2 9 3 10 4 11 5 12 6 6 7 5 8 3 9 2 10 1 11 4 12 32 14
REMARK SMILES IDX 33 15 34 16 13 17 14 18 31 19 15 20 19 21 30 22 26 23 16 24
REMARK SMILES IDX 18 25 20 26 29 27 27 28 17 29 28 30 21 31 22 32 23 33 24 34
REMARK SMILES IDX 25 35
REMARK H PARENT 4 13
ROOT
ATOM      1  C   UNL     1      42.680 135.308  20.494  1.00  0.00     0.092 A 
ATOM      2  C   UNL     1      41.648 135.505  21.404  1.00  0.00     0.086 A 
ATOM      3  C   UNL     1      41.557 136.519  22.500  1.00  0.00     0.071 C 
ATOM      4  N   UNL     1      40.656 134.640  21.109  1.00  0.00    -0.135 NA
ATOM      5  N   UNL     1      41.061 133.923  20.070  1.00  0.00    -0.062 NA
ATOM      6  N   UNL     1      42.269 134.305  19.690  1.00  0.00    -0.214 N 
ENDROOT
BRANCH   1   7
ATOM      7  C   UNL     1      44.029 135.994  20.401  1.00  0.00     0.163 C 
BRANCH   7   8
ATOM      8  N   UNL     1      43.858 137.411  20.065  1.00  0.00    -0.234 NA
BRANCH   8   9
ATOM      9  C   UNL     1      44.292 137.981  18.983  1.00  0.00     0.261 C 
BRANCH   9  10
ATOM     10  C   UNL     1      45.678 138.351  18.897  1.00  0.00    -0.012 C 
ATOM     11  C   UNL     1      46.841 138.660  18.825  1.00  0.00     0.015 C 
ENDBRANCH   9  10
BRANCH   9  12
ATOM     12  O   UNL     1      43.437 138.240  17.913  1.00  0.00    -0.487 OA
ATOM     13  H   UNL     1      42.434 138.286  18.042  1.00  0.00     0.296 HD
ENDBRANCH   9  12
ENDBRANCH   8   9
ENDBRANCH   7   8
BRANCH   7  14
ATOM     14  C   UNL     1      44.845 135.813  21.711  1.00  0.00     0.014 C 
ATOM     15  C   UNL     1      45.130 137.142  22.427  1.00  0.00     0.010 C 
ATOM     16  C   UNL     1      46.157 135.055  21.461  1.00  0.00     0.010 C 
ENDBRANCH   7  14
ENDBRANCH   1   7
BRANCH   6  17
ATOM     17  C   UNL     1      42.990 133.707  18.601  1.00  0.00     0.082 A 
ATOM     18  C   UNL     1      43.914 132.669  18.850  1.00  0.00     0.009 A 
ATOM     19  C   UNL     1      42.757 134.145  17.280  1.00  0.00     0.009 A 
ATOM     20  C   UNL     1      44.185 132.250  20.171  1.00  0.00     0.011 A 
ATOM     21  C   UNL     1      44.585 132.039  17.769  1.00  0.00    -0.005 A 
ATOM     22  C   UNL     1      41.840 135.187  17.018  1.00  0.00     0.011 A 
ATOM     23  C   UNL     1      43.425 133.519  16.194  1.00  0.00    -0.005 A 
ATOM     24  C   UNL     1      45.093 131.221  20.420  1.00  0.00     0.001 A 
ATOM     25  C   UNL     1      45.507 131.004  18.052  1.00  0.00     0.009 A 
ATOM     26  C   UNL     1      44.333 132.458  16.440  1.00  0.00     0.040 A 
ATOM     27  C   UNL     1      41.589 135.604  15.713  1.00  0.00     0.001 A 
ATOM     28  C   UNL     1      43.145 133.957  14.879  1.00  0.00     0.009 A 
ATOM     29  C   UNL     1      45.750 130.600  19.364  1.00  0.00     0.001 A 
ATOM     30  C   UNL     1      42.239 134.992  14.647  1.00  0.00     0.001 A 
BRANCH  26  31
ATOM     31  C   UNL     1      45.003 131.775  15.304  1.00  0.00     0.250 C 
ATOM     32  O   UNL     1      44.432 130.803  14.744  1.00  0.00    -0.287 OA
BRANCH  31  33
ATOM     33  N   UNL     1      46.287 132.197  14.837  1.00  0.00    -0.017 NA
BRANCH  33  34
ATOM     34  N   UNL     1      47.000 131.459  14.156  1.00  0.00     0.009 N 
ATOM     35  N   UNL     1      47.710 130.722  13.473  1.00  0.00    -0.003 NA
ENDBRANCH  33  34
ENDBRANCH  31  33
ENDBRANCH  26  31
ENDBRANCH   6  17
TORSDOF 10
ENDMDL
MODEL 3
REMARK VINA RESULT:      -6.4      1.396      2.284
REMARK SMILES C#C/C(O)=N/[C@H](c1c(C)nnn1-c1c2ccccc2c(C(=O)N=[N+]=[N-])c2ccccc12)C(C)C
REMARK SMILES IDX 7 1 8 2 9 3 10 4 11 5 12 6 6 7 5 8 3 9 2 10 1 11 4 12 32 14
REMARK SMILES IDX 33 15 34 16 13 17 14 18 31 19 15 20 19 21 30 22 26 23 16 24
REMARK SMILES IDX 18 25 20 26 29 27 27 28 17 29 28 30 21 31 22 32 23 33 24 34
REMARK SMILES IDX 25 35
REMARK H PARENT 4 13
ROOT
ATOM      1  C   UNL     1      41.875 135.293  19.511  1.00  0.00     0.092 A 
ATOM      2  C   UNL     1      40.858 135.559  20.419  1.00  0.00     0.086 A 
ATOM      3  C   UNL     1      40.579 136.831  21.155  1.00  0.00     0.071 C 
ATOM      4  N   UNL     1      40.077 134.462  20.509  1.00  0.00    -0.135 NA
ATOM      5  N   UNL     1      40.597 133.548  19.703  1.00  0.00    -0.062 NA
ATOM      6  N   UNL     1      41.674 134.024  19.100  1.00  0.00    -0.214 N 
ENDROOT
BRANCH   1   7
ATOM      7  C   UNL     1      43.032 136.171  19.072  1.00  0.00     0.163 C 
BRANCH   7   8
ATOM      8  N   UNL     1      44.306 135.582  19.493  1.00  0.00    -0.234 NA
BRANCH   8   9
ATOM      9  C   UNL     1      45.093 136.071  20.403  1.00  0.00     0.261 C 
BRANCH   9  10
ATOM     10  C   UNL     1      46.032 137.095  20.037  1.00  0.00    -0.012 C 
ATOM     11  C   UNL     1      46.820 137.954  19.728  1.00  0.00     0.015 C 
ENDBRANCH   9  10
BRANCH   9  12
ATOM     12  O   UNL     1      45.041 135.615  21.719  1.00  0.00    -0.487 OA
ATOM     13  H   UNL     1      45.153 136.251  22.500  1.00  0.00     0.296 HD
ENDBRANCH   9  12
ENDBRANCH   8   9
ENDBRANCH   7   8
BRANCH   7  14
ATOM     14  C   UNL     1      42.998 136.423  17.539  1.00  0.00     0.014 C 
ATOM     15  C   UNL     1      44.306 136.025  16.839  1.00  0.00     0.010 C 
ATOM     16  C   UNL     1      42.646 137.881  17.213  1.00  0.00     0.010 C 
ENDBRANCH   7  14
ENDBRANCH   1   7
BRANCH   6  17
ATOM     17  C   UNL     1      42.473 133.267  18.177  1.00  0.00     0.082 A 
ATOM     18  C   UNL     1      42.194 133.320  16.794  1.00  0.00     0.009 A 
ATOM     19  C   UNL     1      43.549 132.488  18.653  1.00  0.00     0.009 A 
ATOM     20  C   UNL     1      41.096 134.063  16.309  1.00  0.00     0.011 A 
ATOM     21  C   UNL     1      43.018 132.618  15.874  1.00  0.00    -0.005 A 
ATOM     22  C   UNL     1      43.834 132.422  20.034  1.00  0.00     0.011 A 
ATOM     23  C   UNL     1      44.377 131.783  17.739  1.00  0.00    -0.005 A 
ATOM     24  C   UNL     1      40.822 134.122  14.944  1.00  0.00     0.001 A 
ATOM     25  C   UNL     1      42.711 132.688  14.495  1.00  0.00     0.009 A 
ATOM     26  C   UNL     1      44.115 131.856  16.347  1.00  0.00     0.040 A 
ATOM     27  C   UNL     1      44.911 131.674  20.505  1.00  0.00     0.001 A 
ATOM     28  C   UNL     1      45.468 131.038  18.244  1.00  0.00     0.009 A 
ATOM     29  C   UNL     1      41.627 133.438  14.040  1.00  0.00     0.001 A 
ATOM     30  C   UNL     1      45.725 130.984  19.614  1.00  0.00     0.001 A 
BRANCH  26  31
ATOM     31  C   UNL     1      45.002 131.152  15.386  1.00  0.00     0.250 C 
ATOM     32  O   UNL     1      44.751 129.959  15.075  1.00  0.00    -0.287 OA
BRANCH  31  33
ATOM     33  N   UNL     1      46.138 131.803  14.811  1.00  0.00    -0.017 NA
BRANCH  33  34
ATOM     34  N   UNL     1      46.917 131.203  14.069  1.00  0.00     0.009 N 
ATOM     35  N   UNL     1      47.693 130.603  13.327  1.00  0.00    -0.003 NA
ENDBRANCH  33  34
ENDBRANCH  31  33
ENDBRANCH  26  31
ENDBRANCH   6  17
TORSDOF 10
ENDMDL
MODEL 4
REMARK VINA RESULT:      -6.2      1.422      2.583
REMARK SMILES C#C/C(O)=N/[C@H](c1c(C)nnn1-c1c2ccccc2c(C(=O)N=[N+]=[N-])c2ccccc12)C(C)C
REMARK SMILES IDX 7 1 8 2 9 3 10 4 11 5 12 6 6 7 5 8 3 9 2 10 1 11 4 12 32 14
REMARK SMILES IDX 33 15 34 16 13 17 14 18 31 19 15 20 19 21 30 22 26 23 16 24
REMARK SMILES IDX 18 25 20 26 29 27 27 28 17 29 28 30 21 31 22 32 23 33 24 34
REMARK SMILES IDX 25 35
REMARK H PARENT 4 13
ROOT
ATOM      1  C   UNL     1      41.937 135.203  19.763  1.00  0.00     0.092 A 
ATOM      2  C   UNL     1      40.926 135.426  20.689  1.00  0.00     0.086 A 
ATOM      3  C   UNL     1      40.653 136.661  21.487  1.00  0.00     0.071 C 
ATOM      4  N   UNL     1      40.145 134.327  20.732  1.00  0.00    -0.135 NA
ATOM      5  N   UNL     1      40.659 133.451  19.879  1.00  0.00    -0.062 NA
ATOM      6  N   UNL     1      41.732 133.955  19.293  1.00  0.00    -0.214 N 
ENDROOT
BRANCH   1   7
ATOM      7  C   UNL     1      43.091 136.101  19.358  1.00  0.00     0.163 C 
BRANCH   7   8
ATOM      8  N   UNL     1      44.370 135.468  19.693  1.00  0.00    -0.234 NA
BRANCH   8   9
ATOM      9  C   UNL     1      45.146 135.820  20.673  1.00  0.00     0.261 C 
BRANCH   9  10
ATOM     10  C   UNL     1      45.042 135.131  21.929  1.00  0.00    -0.012 C 
ATOM     11  C   UNL     1      44.953 134.552  22.983  1.00  0.00     0.015 C 
ENDBRANCH   9  10
BRANCH   9  12
ATOM     12  O   UNL     1      46.069 136.854  20.523  1.00  0.00    -0.487 OA
ATOM     13  H   UNL     1      46.279 137.243  19.612  1.00  0.00     0.296 HD
ENDBRANCH   9  12
ENDBRANCH   8   9
ENDBRANCH   7   8
BRANCH   7  14
ATOM     14  C   UNL     1      43.016 136.472  17.851  1.00  0.00     0.014 C 
ATOM     15  C   UNL     1      44.323 136.181  17.098  1.00  0.00     0.010 C 
ATOM     16  C   UNL     1      42.603 137.937  17.649  1.00  0.00     0.010 C 
ENDBRANCH   7  14
ENDBRANCH   1   7
BRANCH   6  17
ATOM     17  C   UNL     1      42.525 133.243  18.329  1.00  0.00     0.082 A 
ATOM     18  C   UNL     1      42.251 133.379  16.951  1.00  0.00     0.009 A 
ATOM     19  C   UNL     1      43.590 132.425  18.762  1.00  0.00     0.009 A 
ATOM     20  C   UNL     1      41.163 134.163  16.507  1.00  0.00     0.011 A 
ATOM     21  C   UNL     1      43.068 132.721  15.994  1.00  0.00    -0.005 A 
ATOM     22  C   UNL     1      43.870 132.276  20.138  1.00  0.00     0.011 A 
ATOM     23  C   UNL     1      44.412 131.763  17.810  1.00  0.00    -0.005 A 
ATOM     24  C   UNL     1      40.894 134.303  15.147  1.00  0.00     0.001 A 
ATOM     25  C   UNL     1      42.766 132.874  14.621  1.00  0.00     0.009 A 
ATOM     26  C   UNL     1      44.155 131.920  16.425  1.00  0.00     0.040 A 
ATOM     27  C   UNL     1      44.936 131.489  20.567  1.00  0.00     0.001 A 
ATOM     28  C   UNL     1      45.492 130.977  18.274  1.00  0.00     0.009 A 
ATOM     29  C   UNL     1      41.693 133.662  14.207  1.00  0.00     0.001 A 
ATOM     30  C   UNL     1      45.744 130.842  19.639  1.00  0.00     0.001 A 
BRANCH  26  31
ATOM     31  C   UNL     1      45.036 131.261  15.427  1.00  0.00     0.250 C 
ATOM     32  O   UNL     1      44.747 130.107  15.015  1.00  0.00    -0.287 OA
BRANCH  31  33
ATOM     33  N   UNL     1      46.207 131.911  14.928  1.00  0.00    -0.017 NA
BRANCH  33  34
ATOM     34  N   UNL     1      46.896 131.406  14.040  1.00  0.00     0.009 N 
ATOM     35  N   UNL     1      47.582 130.901  13.153  1.00  0.00    -0.003 NA
ENDBRANCH  33  34
ENDBRANCH  31  33
ENDBRANCH  26  31
ENDBRANCH   6  17
TORSDOF 10
ENDMDL
MODEL 5
REMARK VINA RESULT:      -6.1      1.001      1.063
REMARK SMILES C#C/C(O)=N/[C@H](c1c(C)nnn1-c1c2ccccc2c(C(=O)N=[N+]=[N-])c2ccccc12)C(C)C
REMARK SMILES IDX 7 1 8 2 9 3 10 4 11 5 12 6 6 7 5 8 3 9 2 10 1 11 4 12 32 14
REMARK SMILES IDX 33 15 34 16 13 17 14 18 31 19 15 20 19 21 30 22 26 23 16 24
REMARK SMILES IDX 18 25 20 26 29 27 27 28 17 29 28 30 21 31 22 32 23 33 24 34
REMARK SMILES IDX 25 35
REMARK H PARENT 4 13
ROOT
ATOM      1  C   UNL     1      41.801 135.335  19.818  1.00  0.00     0.092 A 
ATOM      2  C   UNL     1      40.707 135.638  20.622  1.00  0.00     0.086 A 
ATOM      3  C   UNL     1      40.426 136.902  21.369  1.00  0.00     0.071 C 
ATOM      4  N   UNL     1      39.858 134.590  20.587  1.00  0.00    -0.135 NA
ATOM      5  N   UNL     1      40.408 133.669  19.809  1.00  0.00    -0.062 NA
ATOM      6  N   UNL     1      41.571 134.094  19.343  1.00  0.00    -0.214 N 
ENDROOT
BRANCH   1   7
ATOM      7  C   UNL     1      43.048 136.152  19.538  1.00  0.00     0.163 C 
BRANCH   7   8
ATOM      8  N   UNL     1      42.684 137.498  19.086  1.00  0.00    -0.234 NA
BRANCH   8   9
ATOM      9  C   UNL     1      42.783 137.931  17.866  1.00  0.00     0.261 C 
BRANCH   9  10
ATOM     10  C   UNL     1      41.648 137.823  16.993  1.00  0.00    -0.012 C 
ATOM     11  C   UNL     1      40.696 137.733  16.259  1.00  0.00     0.015 C 
ENDBRANCH   9  10
BRANCH   9  12
ATOM     12  O   UNL     1      43.970 138.490  17.396  1.00  0.00    -0.487 OA
ATOM     13  H   UNL     1      44.806 137.929  17.280  1.00  0.00     0.296 HD
ENDBRANCH   9  12
ENDBRANCH   8   9
ENDBRANCH   7   8
BRANCH   7  14
ATOM     14  C   UNL     1      43.981 136.200  20.779  1.00  0.00     0.014 C 
ATOM     15  C   UNL     1      44.107 137.609  21.379  1.00  0.00     0.010 C 
ATOM     16  C   UNL     1      45.372 135.634  20.463  1.00  0.00     0.010 C 
ENDBRANCH   7  14
ENDBRANCH   1   7
BRANCH   6  17
ATOM     17  C   UNL     1      42.419 133.316  18.483  1.00  0.00     0.082 A 
ATOM     18  C   UNL     1      42.226 133.345  17.085  1.00  0.00     0.009 A 
ATOM     19  C   UNL     1      43.459 132.541  19.038  1.00  0.00     0.009 A 
ATOM     20  C   UNL     1      41.164 134.085  16.521  1.00  0.00     0.011 A 
ATOM     21  C   UNL     1      43.099 132.622  16.230  1.00  0.00    -0.005 A 
ATOM     22  C   UNL     1      43.659 132.498  20.435  1.00  0.00     0.011 A 
ATOM     23  C   UNL     1      44.337 131.814  18.189  1.00  0.00    -0.005 A 
ATOM     24  C   UNL     1      40.973 134.121  15.141  1.00  0.00     0.001 A 
ATOM     25  C   UNL     1      42.877 132.668  14.834  1.00  0.00     0.009 A 
ATOM     26  C   UNL     1      44.160 131.863  16.783  1.00  0.00     0.040 A 
ATOM     27  C   UNL     1      44.701 131.753  20.984  1.00  0.00     0.001 A 
ATOM     28  C   UNL     1      45.390 131.073  18.772  1.00  0.00     0.009 A 
ATOM     29  C   UNL     1      41.827 133.416  14.300  1.00  0.00     0.001 A 
ATOM     30  C   UNL     1      45.563 131.043  20.156  1.00  0.00     0.001 A 
BRANCH  26  31
ATOM     31  C   UNL     1      45.099 131.137  15.890  1.00  0.00     0.250 C 
ATOM     32  O   UNL     1      44.858 129.941  15.582  1.00  0.00    -0.287 OA
BRANCH  31  33
ATOM     33  N   UNL     1      46.275 131.770  15.377  1.00  0.00    -0.017 NA
BRANCH  33  34
ATOM     34  N   UNL     1      46.770 131.434  14.300  1.00  0.00     0.009 N 
ATOM     35  N   UNL     1      47.266 131.099  13.226  1.00  0.00    -0.003 NA
ENDBRANCH  33  34
ENDBRANCH  31  33
ENDBRANCH  26  31
ENDBRANCH   6  17
TORSDOF 10
ENDMDL
MODEL 6
REMARK VINA RESULT:      -6.1      1.130      1.201
REMARK SMILES C#C/C(O)=N/[C@H](c1c(C)nnn1-c1c2ccccc2c(C(=O)N=[N+]=[N-])c2ccccc12)C(C)C
REMARK SMILES IDX 7 1 8 2 9 3 10 4 11 5 12 6 6 7 5 8 3 9 2 10 1 11 4 12 32 14
REMARK SMILES IDX 33 15 34 16 13 17 14 18 31 19 15 20 19 21 30 22 26 23 16 24
REMARK SMILES IDX 18 25 20 26 29 27 27 28 17 29 28 30 21 31 22 32 23 33 24 34
REMARK SMILES IDX 25 35
REMARK H PARENT 4 13
ROOT
ATOM      1  C   UNL     1      41.989 135.292  20.085  1.00  0.00     0.092 A 
ATOM      2  C   UNL     1      40.922 135.480  20.957  1.00  0.00     0.086 A 
ATOM      3  C   UNL     1      40.678 136.621  21.892  1.00  0.00     0.071 C 
ATOM      4  N   UNL     1      40.059 134.457  20.791  1.00  0.00    -0.135 NA
ATOM      5  N   UNL     1      40.575 133.658  19.868  1.00  0.00    -0.062 NA
ATOM      6  N   UNL     1      41.730 134.138  19.437  1.00  0.00    -0.214 N 
ENDROOT
BRANCH   1   7
ATOM      7  C   UNL     1      43.238 136.130  19.893  1.00  0.00     0.163 C 
BRANCH   7   8
ATOM      8  N   UNL     1      42.878 137.515  19.572  1.00  0.00    -0.234 NA
BRANCH   8   9
ATOM      9  C   UNL     1      42.087 137.877  18.608  1.00  0.00     0.261 C 
BRANCH   9  10
ATOM     10  C   UNL     1      42.553 137.791  17.252  1.00  0.00    -0.012 C 
ATOM     11  C   UNL     1      42.945 137.716  16.114  1.00  0.00     0.015 C 
ENDBRANCH   9  10
BRANCH   9  12
ATOM     12  O   UNL     1      40.802 138.350  18.871  1.00  0.00    -0.487 OA
ATOM     13  H   UNL     1      40.567 139.327  18.750  1.00  0.00     0.296 HD
ENDBRANCH   9  12
ENDBRANCH   8   9
ENDBRANCH   7   8
BRANCH   7  14
ATOM     14  C   UNL     1      44.164 136.057  21.139  1.00  0.00     0.014 C 
ATOM     15  C   UNL     1      44.339 137.415  21.835  1.00  0.00     0.010 C 
ATOM     16  C   UNL     1      45.534 135.459  20.792  1.00  0.00     0.010 C 
ENDBRANCH   7  14
ENDBRANCH   1   7
BRANCH   6  17
ATOM     17  C   UNL     1      42.544 133.490  18.446  1.00  0.00     0.082 A 
ATOM     18  C   UNL     1      42.315 133.733  17.075  1.00  0.00     0.009 A 
ATOM     19  C   UNL     1      43.585 132.627  18.848  1.00  0.00     0.009 A 
ATOM     20  C   UNL     1      41.251 134.563  16.659  1.00  0.00     0.011 A 
ATOM     21  C   UNL     1      43.155 133.138  16.096  1.00  0.00    -0.005 A 
ATOM     22  C   UNL     1      43.820 132.370  20.217  1.00  0.00     0.011 A 
ATOM     23  C   UNL     1      44.429 132.028  17.875  1.00  0.00    -0.005 A 
ATOM     24  C   UNL     1      41.027 134.810  15.306  1.00  0.00     0.001 A 
ATOM     25  C   UNL     1      42.899 133.399  14.730  1.00  0.00     0.009 A 
ATOM     26  C   UNL     1      44.218 132.292  16.498  1.00  0.00     0.040 A 
ATOM     27  C   UNL     1      44.863 131.538  20.618  1.00  0.00     0.001 A 
ATOM     28  C   UNL     1      45.485 131.194  18.310  1.00  0.00     0.009 A 
ATOM     29  C   UNL     1      41.848 134.231  14.345  1.00  0.00     0.001 A 
ATOM     30  C   UNL     1      45.693 130.952  19.668  1.00  0.00     0.001 A 
BRANCH  26  31
ATOM     31  C   UNL     1      45.123 131.699  15.480  1.00  0.00     0.250 C 
ATOM     32  O   UNL     1      46.097 132.372  15.053  1.00  0.00    -0.287 OA
BRANCH  31  33
ATOM     33  N   UNL     1      44.906 130.380  14.973  1.00  0.00    -0.017 NA
BRANCH  33  34
ATOM     34  N   UNL     1      45.821 129.722  14.477  1.00  0.00     0.009 N 
ATOM     35  N   UNL     1      46.736 129.066  13.981  1.00  0.00    -0.003 NA
ENDBRANCH  33  34
ENDBRANCH  31  33
ENDBRANCH  26  31
ENDBRANCH   6  17
TORSDOF 10
ENDMDL
MODEL 7
REMARK VINA RESULT:      -5.9      1.284      1.466
REMARK SMILES C#C/C(O)=N/[C@H](c1c(C)nnn1-c1c2ccccc2c(C(=O)N=[N+]=[N-])c2ccccc12)C(C)C
REMARK SMILES IDX 7 1 8 2 9 3 10 4 11 5 12 6 6 7 5 8 3 9 2 10 1 11 4 12 32 14
REMARK SMILES IDX 33 15 34 16 13 17 14 18 31 19 15 20 19 21 30 22 26 23 16 24
REMARK SMILES IDX 18 25 20 26 29 27 27 28 17 29 28 30 21 31 22 32 23 33 24 34
REMARK SMILES IDX 25 35
REMARK H PARENT 4 13
ROOT
ATOM      1  C   UNL     1      42.821 135.140  20.163  1.00  0.00     0.092 A 
ATOM      2  C   UNL     1      41.922 135.339  21.204  1.00  0.00     0.086 A 
ATOM      3  C   UNL     1      41.927 136.415  22.242  1.00  0.00     0.071 C 
ATOM      4  N   UNL     1      40.955 134.403  21.109  1.00  0.00    -0.135 NA
ATOM      5  N   UNL     1      41.250 133.644  20.063  1.00  0.00    -0.062 NA
ATOM      6  N   UNL     1      42.363 134.066  19.487  1.00  0.00    -0.214 N 
ENDROOT
BRANCH   1   7
ATOM      7  C   UNL     1      44.096 135.892  19.832  1.00  0.00     0.163 C 
BRANCH   7   8
ATOM      8  N   UNL     1      43.819 137.323  19.683  1.00  0.00    -0.234 NA
BRANCH   8   9
ATOM      9  C   UNL     1      44.258 138.074  18.719  1.00  0.00     0.261 C 
BRANCH   9  10
ATOM     10  C   UNL     1      43.478 138.195  17.518  1.00  0.00    -0.012 C 
ATOM     11  C   UNL     1      42.824 138.296  16.510  1.00  0.00     0.015 C 
ENDBRANCH   9  10
BRANCH   9  12
ATOM     12  O   UNL     1      45.469 138.756  18.831  1.00  0.00    -0.487 OA
ATOM     13  H   UNL     1      45.503 139.717  19.148  1.00  0.00     0.296 HD
ENDBRANCH   9  12
ENDBRANCH   8   9
ENDBRANCH   7   8
BRANCH   7  14
ATOM     14  C   UNL     1      45.197 135.632  20.898  1.00  0.00     0.014 C 
ATOM     15  C   UNL     1      44.931 134.372  21.736  1.00  0.00     0.010 C 
ATOM     16  C   UNL     1      45.393 136.847  21.815  1.00  0.00     0.010 C 
ENDBRANCH   7  14
ENDBRANCH   1   7
BRANCH   6  17
ATOM     17  C   UNL     1      42.955 133.439  18.337  1.00  0.00     0.082 A 
ATOM     18  C   UNL     1      42.573 133.842  17.039  1.00  0.00     0.009 A 
ATOM     19  C   UNL     1      43.933 132.437  18.509  1.00  0.00     0.009 A 
ATOM     20  C   UNL     1      41.568 134.815  16.854  1.00  0.00     0.011 A 
ATOM     21  C   UNL     1      43.198 133.264  15.902  1.00  0.00    -0.005 A 
ATOM     22  C   UNL     1      44.318 132.021  19.802  1.00  0.00     0.011 A 
ATOM     23  C   UNL     1      44.562 131.854  17.376  1.00  0.00    -0.005 A 
ATOM     24  C   UNL     1      41.193 135.219  15.574  1.00  0.00     0.001 A 
ATOM     25  C   UNL     1      42.792 133.686  14.615  1.00  0.00     0.009 A 
ATOM     26  C   UNL     1      44.199 132.276  16.072  1.00  0.00     0.040 A 
ATOM     27  C   UNL     1      45.302 131.049  19.976  1.00  0.00     0.001 A 
ATOM     28  C   UNL     1      45.562 130.875  17.581  1.00  0.00     0.009 A 
ATOM     29  C   UNL     1      41.803 134.657  14.458  1.00  0.00     0.001 A 
ATOM     30  C   UNL     1      45.921 130.478  18.869  1.00  0.00     0.001 A 
BRANCH  26  31
ATOM     31  C   UNL     1      44.883 131.697  14.887  1.00  0.00     0.250 C 
ATOM     32  O   UNL     1      44.250 130.914  14.132  1.00  0.00    -0.287 OA
BRANCH  31  33
ATOM     33  N   UNL     1      46.246 132.010  14.590  1.00  0.00    -0.017 NA
BRANCH  33  34
ATOM     34  N   UNL     1      47.018 131.162  14.139  1.00  0.00     0.009 N 
ATOM     35  N   UNL     1      47.789 130.318  13.686  1.00  0.00    -0.003 NA
ENDBRANCH  33  34
ENDBRANCH  31  33
ENDBRANCH  26  31
ENDBRANCH   6  17
TORSDOF 10
ENDMDL
MODEL 8
REMARK VINA RESULT:      -5.9      2.425      6.176
REMARK SMILES C#C/C(O)=N/[C@H](c1c(C)nnn1-c1c2ccccc2c(C(=O)N=[N+]=[N-])c2ccccc12)C(C)C
REMARK SMILES IDX 7 1 8 2 9 3 10 4 11 5 12 6 6 7 5 8 3 9 2 10 1 11 4 12 32 14
REMARK SMILES IDX 33 15 34 16 13 17 14 18 31 19 15 20 19 21 30 22 26 23 16 24
REMARK SMILES IDX 18 25 20 26 29 27 27 28 17 29 28 30 21 31 22 32 23 33 24 34
REMARK SMILES IDX 25 35
REMARK H PARENT 4 13
ROOT
ATOM      1  C   UNL     1      44.029 133.091  17.419  1.00  0.00     0.092 A 
ATOM      2  C   UNL     1      44.967 132.118  17.097  1.00  0.00     0.086 A 
ATOM      3  C   UNL     1      45.323 130.883  17.862  1.00  0.00     0.071 C 
ATOM      4  N   UNL     1      45.504 132.431  15.900  1.00  0.00    -0.135 NA
ATOM      5  N   UNL     1      44.936 133.561  15.503  1.00  0.00    -0.062 NA
ATOM      6  N   UNL     1      44.054 133.973  16.399  1.00  0.00    -0.214 N 
ENDROOT
BRANCH   1   7
ATOM      7  C   UNL     1      43.168 133.230  18.660  1.00  0.00     0.163 C 
BRANCH   7   8
ATOM      8  N   UNL     1      41.771 132.910  18.349  1.00  0.00    -0.234 NA
BRANCH   8   9
ATOM      9  C   UNL     1      40.765 133.713  18.513  1.00  0.00     0.261 C 
BRANCH   9  10
ATOM     10  C   UNL     1      39.676 133.668  17.576  1.00  0.00    -0.012 C 
ATOM     11  C   UNL     1      38.763 133.630  16.790  1.00  0.00     0.015 C 
ENDBRANCH   9  10
BRANCH   9  12
ATOM     12  O   UNL     1      40.729 134.616  19.574  1.00  0.00    -0.487 OA
ATOM     13  H   UNL     1      39.877 135.103  19.822  1.00  0.00     0.296 HD
ENDBRANCH   9  12
ENDBRANCH   8   9
ENDBRANCH   7   8
BRANCH   7  14
ATOM     14  C   UNL     1      43.709 132.352  19.823  1.00  0.00     0.014 C 
ATOM     15  C   UNL     1      42.601 131.571  20.548  1.00  0.00     0.010 C 
ATOM     16  C   UNL     1      44.518 133.181  20.829  1.00  0.00     0.010 C 
ENDBRANCH   7  14
ENDBRANCH   1   7
BRANCH   6  17
ATOM     17  C   UNL     1      43.284 135.179  16.265  1.00  0.00     0.082 A 
ATOM     18  C   UNL     1      42.184 135.220  15.381  1.00  0.00     0.009 A 
ATOM     19  C   UNL     1      43.617 136.314  17.035  1.00  0.00     0.009 A 
ATOM     20  C   UNL     1      41.866 134.105  14.577  1.00  0.00     0.011 A 
ATOM     21  C   UNL     1      41.388 136.392  15.290  1.00  0.00    -0.005 A 
ATOM     22  C   UNL     1      44.719 136.287  17.918  1.00  0.00     0.011 A 
ATOM     23  C   UNL     1      42.825 137.490  16.949  1.00  0.00    -0.005 A 
ATOM     24  C   UNL     1      40.777 134.140  13.707  1.00  0.00     0.001 A 
ATOM     25  C   UNL     1      40.294 136.404  14.393  1.00  0.00     0.009 A 
ATOM     26  C   UNL     1      41.704 137.524  16.082  1.00  0.00     0.040 A 
ATOM     27  C   UNL     1      45.035 137.397  18.698  1.00  0.00     0.001 A 
ATOM     28  C   UNL     1      43.164 138.599  17.758  1.00  0.00     0.009 A 
ATOM     29  C   UNL     1      39.994 135.285  13.617  1.00  0.00     0.001 A 
ATOM     30  C   UNL     1      44.260 138.549  18.618  1.00  0.00     0.001 A 
BRANCH  26  31
ATOM     31  C   UNL     1      40.850 138.738  16.018  1.00  0.00     0.250 C 
ATOM     32  O   UNL     1      41.099 139.623  15.159  1.00  0.00    -0.287 OA
BRANCH  31  33
ATOM     33  N   UNL     1      39.754 138.922  16.918  1.00  0.00    -0.017 NA
BRANCH  33  34
ATOM     34  N   UNL     1      39.427 138.050  17.723  1.00  0.00     0.009 N 
ATOM     35  N   UNL     1      39.104 137.177  18.528  1.00  0.00    -0.003 NA
ENDBRANCH  33  34
ENDBRANCH  31  33
ENDBRANCH  26  31
ENDBRANCH   6  17
TORSDOF 10
ENDMDL
MODEL 9
REMARK VINA RESULT:      -5.8      1.439      3.450
REMARK SMILES C#C/C(O)=N/[C@H](c1c(C)nnn1-c1c2ccccc2c(C(=O)N=[N+]=[N-])c2ccccc12)C(C)C
REMARK SMILES IDX 7 1 8 2 9 3 10 4 11 5 12 6 6 7 5 8 3 9 2 10 1 11 4 12 32 14
REMARK SMILES IDX 33 15 34 16 13 17 14 18 31 19 15 20 19 21 30 22 26 23 16 24
REMARK SMILES IDX 18 25 20 26 29 27 27 28 17 29 28 30 21 31 22 32 23 33 24 34
REMARK SMILES IDX 25 35
REMARK H PARENT 4 13
ROOT
ATOM      1  C   UNL     1      42.059 135.749  20.287  1.00  0.00     0.092 A 
ATOM      2  C   UNL     1      41.028 135.865  21.212  1.00  0.00     0.086 A 
ATOM      3  C   UNL     1      40.730 137.005  22.132  1.00  0.00     0.071 C 
ATOM      4  N   UNL     1      40.255 134.763  21.119  1.00  0.00    -0.135 NA
ATOM      5  N   UNL     1      40.792 133.988  20.188  1.00  0.00    -0.062 NA
ATOM      6  N   UNL     1      41.873 134.558  19.681  1.00  0.00    -0.214 N 
ENDROOT
BRANCH   1   7
ATOM      7  C   UNL     1      43.213 136.692  20.005  1.00  0.00     0.163 C 
BRANCH   7   8
ATOM      8  N   UNL     1      42.719 138.057  19.806  1.00  0.00    -0.234 NA
BRANCH   8   9
ATOM      9  C   UNL     1      41.990 138.451  18.806  1.00  0.00     0.261 C 
BRANCH   9  10
ATOM     10  C   UNL     1      42.635 138.831  17.580  1.00  0.00    -0.012 C 
ATOM     11  C   UNL     1      43.176 139.149  16.550  1.00  0.00     0.015 C 
ENDBRANCH   9  10
BRANCH   9  12
ATOM     12  O   UNL     1      40.601 138.513  18.908  1.00  0.00    -0.487 OA
ATOM     13  H   UNL     1      40.127 138.289  19.774  1.00  0.00     0.296 HD
ENDBRANCH   9  12
ENDBRANCH   8   9
ENDBRANCH   7   8
BRANCH   7  14
ATOM     14  C   UNL     1      44.279 136.630  21.134  1.00  0.00     0.014 C 
ATOM     15  C   UNL     1      44.713 138.021  21.623  1.00  0.00     0.010 C 
ATOM     16  C   UNL     1      45.507 135.812  20.709  1.00  0.00     0.010 C 
ENDBRANCH   7  14
ENDBRANCH   1   7
BRANCH   6  17
ATOM     17  C   UNL     1      42.689 133.959  18.662  1.00  0.00     0.082 A 
ATOM     18  C   UNL     1      43.641 132.976  19.008  1.00  0.00     0.009 A 
ATOM     19  C   UNL     1      42.521 134.338  17.314  1.00  0.00     0.009 A 
ATOM     20  C   UNL     1      43.846 132.616  20.357  1.00  0.00     0.011 A 
ATOM     21  C   UNL     1      44.409 132.341  17.996  1.00  0.00    -0.005 A 
ATOM     22  C   UNL     1      41.576 135.325  16.956  1.00  0.00     0.011 A 
ATOM     23  C   UNL     1      43.286 133.708  16.296  1.00  0.00    -0.005 A 
ATOM     24  C   UNL     1      44.782 131.642  20.702  1.00  0.00     0.001 A 
ATOM     25  C   UNL     1      45.358 131.362  18.374  1.00  0.00     0.009 A 
ATOM     26  C   UNL     1      44.224 132.702  16.638  1.00  0.00     0.040 A 
ATOM     27  C   UNL     1      41.390 135.685  15.623  1.00  0.00     0.001 A 
ATOM     28  C   UNL     1      43.071 134.087  14.950  1.00  0.00     0.009 A 
ATOM     29  C   UNL     1      45.534 131.017  19.713  1.00  0.00     0.001 A 
ATOM     30  C   UNL     1      42.135 135.068  14.623  1.00  0.00     0.001 A 
BRANCH  26  31
ATOM     31  C   UNL     1      44.997 132.013  15.573  1.00  0.00     0.250 C 
ATOM     32  O   UNL     1      46.069 132.525  15.159  1.00  0.00    -0.287 OA
BRANCH  31  33
ATOM     33  N   UNL     1      44.543 130.781  15.005  1.00  0.00    -0.017 NA
BRANCH  33  34
ATOM     34  N   UNL     1      45.328 129.879  14.712  1.00  0.00     0.009 N 
ATOM     35  N   UNL     1      46.111 128.976  14.421  1.00  0.00    -0.003 NA
ENDBRANCH  33  34
ENDBRANCH  31  33
ENDBRANCH  26  31
ENDBRANCH   6  17
TORSDOF 10
ENDMDL


