REMARK SMILES Cc1nnn(Cc2nc3cc4ccccc4cc3[n-]2)c1-c1nnc([C@@H]2C[C@@H]2C)o1
REMARK SMILES IDX 1 1 2 2 3 3 4 4 5 5 20 6 21 7 22 8 29 9 23 10 24 11 25 12
REMARK SMILES IDX 26 13 27 14 28 15 6 16 7 17 8 18 19 19 9 20 18 21 10 22
REMARK SMILES IDX 17 23 11 24 16 25 12 26 15 27 13 28 14 29
REMARK H PARENT
ROOT
ATOM      1  C   UNL     1       2.022  -1.371   5.380  1.00  0.00     0.071 C 
ATOM      2  C   UNL     1       0.646  -1.383   4.797  1.00  0.00     0.093 A 
ATOM      3  N   UNL     1      -0.449  -0.934   5.442  1.00  0.00    -0.135 NA
ATOM      4  N   UNL     1      -1.477  -1.113   4.624  1.00  0.00    -0.066 NA
ATOM      5  N   UNL     1      -1.080  -1.659   3.484  1.00  0.00    -0.236 N 
ATOM      6  C   UNL     1       0.256  -1.843   3.551  1.00  0.00     0.149 A 
ENDROOT
BRANCH   6   7
ATOM      7  C   UNL     1       1.114  -2.403   2.489  1.00  0.00     0.267 A 
ATOM      8  N   UNL     1       2.398  -2.777   2.663  1.00  0.00    -0.106 NA
ATOM      9  O   UNL     1       0.735  -2.590   1.248  1.00  0.00    -0.419 OA
ATOM     10  N   UNL     1       2.826  -3.209   1.487  1.00  0.00    -0.112 NA
ATOM     11  C   UNL     1       1.789  -3.075   0.639  1.00  0.00     0.220 A 
BRANCH  11  12
ATOM     12  C   UNL     1       1.822  -3.437  -0.815  1.00  0.00     0.081 C 
ATOM     13  C   UNL     1       3.138  -3.150  -1.534  1.00  0.00     0.017 C 
ATOM     14  C   UNL     1       1.917  -2.279  -1.812  1.00  0.00    -0.001 C 
ATOM     15  C   UNL     1       2.008  -0.847  -1.267  1.00  0.00     0.008 C 
ENDBRANCH  11  12
ENDBRANCH   6   7
BRANCH   5  16
ATOM     16  C   UNL     1      -1.992  -2.013   2.397  1.00  0.00     0.173 C 
BRANCH  16  17
ATOM     17  C   UNL     1      -1.879  -1.037   1.270  1.00  0.00    -0.060 A 
ATOM     18  N   UNL     1      -1.831  -1.429  -0.031  1.00  0.00    -0.438 NA
ATOM     19  N   UNL     1      -1.875   0.310   1.456  1.00  0.00    -0.438 NA
ATOM     20  C   UNL     1      -1.777  -0.259  -0.683  1.00  0.00    -0.038 A 
ATOM     21  C   UNL     1      -1.801   0.775   0.201  1.00  0.00    -0.038 A 
ATOM     22  C   UNL     1      -1.708  -0.059  -2.058  1.00  0.00     0.012 A 
ATOM     23  C   UNL     1      -1.763   2.105  -0.212  1.00  0.00     0.012 A 
ATOM     24  C   UNL     1      -1.665   1.271  -2.529  1.00  0.00    -0.018 A 
ATOM     25  C   UNL     1      -1.693   2.361  -1.599  1.00  0.00    -0.018 A 
ATOM     26  C   UNL     1      -1.595   1.538  -3.904  1.00  0.00     0.009 A 
ATOM     27  C   UNL     1      -1.657   3.678  -2.079  1.00  0.00     0.009 A 
ATOM     28  C   UNL     1      -1.558   2.860  -4.361  1.00  0.00     0.001 A 
ATOM     29  C   UNL     1      -1.593   3.923  -3.455  1.00  0.00     0.001 A 
ENDBRANCH  16  17
ENDBRANCH   5  16
TORSDOF 4


