REMARK SMILES C#CCO/C([O-])=C\[C@H]1CC[C@@H]2C(=O)Nc3c(N=[N+]=[N-])cc(Cl)c1c32
REMARK SMILES IDX 5 1 6 2 4 3 3 4 2 5 1 6 7 7 8 8 23 9 9 10 21 11 24 12 10 13
REMARK SMILES IDX 20 14 15 15 11 16 16 17 14 18 12 19 22 20 13 22 17 23 18 24
REMARK SMILES IDX 19 25
REMARK H PARENT 14 21
ROOT
ATOM      1  C   UNL     1      -0.811  -0.639  -2.442  1.00  0.00     0.049 C 
ATOM      2  O   UNL     1      -1.429  -1.252  -3.528  1.00  0.00    -0.547 OA
ENDROOT
BRANCH   1   3
ATOM      3  O   UNL     1      -1.573   0.062  -1.504  1.00  0.00    -0.601 OA
BRANCH   3   4
ATOM      4  C   UNL     1      -2.987   0.168  -1.589  1.00  0.00     0.160 C 
BRANCH   4   5
ATOM      5  C   UNL     1      -3.478   0.921  -0.435  1.00  0.00    -0.095 C 
ATOM      6  C   UNL     1      -3.876   1.541   0.519  1.00  0.00     0.005 C 
ENDBRANCH   4   5
ENDBRANCH   3   4
ENDBRANCH   1   3
BRANCH   1   7
ATOM      7  C   UNL     1       0.515  -0.734  -2.304  1.00  0.00     0.005 C 
BRANCH   7   8
ATOM      8  C   UNL     1       1.281  -0.108  -1.159  1.00  0.00     0.045 C 
ATOM      9  C   UNL     1       0.760  -0.596   0.191  1.00  0.00    -0.016 A 
ATOM     10  C   UNL     1       1.333   1.450  -1.316  1.00  0.00     0.014 C 
ATOM     11  C   UNL     1       0.923  -1.930   0.641  1.00  0.00     0.045 A 
ATOM     12  C   UNL     1       0.269   0.337   1.106  1.00  0.00    -0.006 A 
ATOM     13  C   UNL     1       1.402   2.212   0.024  1.00  0.00     0.019 C 
ATOM     14  C   UNL     1       0.669  -2.259   1.990  1.00  0.00     0.033 A 
ATOM     15  C   UNL     1       0.132   0.041   2.444  1.00  0.00     0.055 A 
ATOM     16  C   UNL     1       0.199   1.802   0.871  1.00  0.00     0.111 C 
ATOM     17  C   UNL     1       0.312  -1.258   2.921  1.00  0.00     0.063 A 
ATOM     18  N   UNL     1       0.054   1.221   3.228  1.00  0.00    -0.325 N 
ATOM     19  C   UNL     1       0.191   2.287   2.290  1.00  0.00     0.232 C 
ATOM     20  Cl  UNL     1       1.526  -3.193  -0.426  1.00  0.00    -0.084 Cl
ATOM     21  H   UNL     1       0.082   1.294   4.269  1.00  0.00     0.169 HD
ATOM     22  O   UNL     1       0.255   3.497   2.631  1.00  0.00    -0.274 OA
BRANCH  17  23
ATOM     23  N   UNL     1       0.174  -1.529   4.322  1.00  0.00    -0.059 NA
BRANCH  23  24
ATOM     24  N   UNL     1       0.338  -2.656   4.792  1.00  0.00     0.005 N 
ATOM     25  N   UNL     1       0.501  -3.781   5.262  1.00  0.00    -0.003 NA
ENDBRANCH  23  24
ENDBRANCH  17  23
ENDBRANCH   7   8
ENDBRANCH   1   7
TORSDOF 7


