MODEL 1
REMARK VINA RESULT:      -7.7      0.000      0.000
REMARK SMILES Cc1n[nH+]n([C@@H]2O[C@@]2(O)Nc2cccc(C#N)c2C)c1-c1cc2ccccc2c2c1C[N+](C)(C)C2
REMARK SMILES IDX 6 1 7 2 8 3 5 4 2 5 3 6 20 7 4 8 1 9 21 11 22 12 30 13 23 14
REMARK SMILES IDX 29 15 31 16 24 17 28 18 35 19 32 20 25 21 27 22 26 23 33 24
REMARK SMILES IDX 34 25 9 26 10 28 11 30 12 31 18 32 13 33 15 34 14 35 19 36
REMARK SMILES IDX 16 37 17 38
REMARK H PARENT 4 10 9 27 10 29
ROOT
ATOM      1  C   UNL     1      42.664 134.303  15.853  1.00  0.00     0.368 C 
ATOM      2  O   UNL     1      42.484 134.475  14.462  1.00  0.00    -0.292 OA
ATOM      3  C   UNL     1      42.035 133.260  15.014  1.00  0.00     0.302 C 
ENDROOT
BRANCH   1   4
ATOM      4  N   UNL     1      41.735 135.140  16.613  1.00  0.00    -0.091 N 
ATOM      5  C   UNL     1      40.717 136.254  18.196  1.00  0.00     0.137 A 
ATOM      6  N   UNL     1      40.151 136.592  17.019  1.00  0.00     0.020 NA
ATOM      7  C   UNL     1      41.721 135.336  17.943  1.00  0.00     0.140 A 
ATOM      8  N   UNL     1      40.792 135.903  16.086  1.00  0.00    -0.014 N 
ATOM      9  C   UNL     1      40.334 136.859  19.507  1.00  0.00     0.076 C 
ATOM     10  H   UNL     1      40.582 135.973  15.065  1.00  0.00     0.526 HD
BRANCH   7  11
ATOM     11  C   UNL     1      42.671 134.754  18.905  1.00  0.00     0.016 A 
ATOM     12  C   UNL     1      42.516 133.423  19.330  1.00  0.00     0.019 A 
ATOM     13  C   UNL     1      43.737 135.505  19.422  1.00  0.00     0.025 A 
ATOM     14  C   UNL     1      43.425 132.857  20.248  1.00  0.00    -0.017 A 
ATOM     15  C   UNL     1      44.617 134.969  20.316  1.00  0.00     0.024 A 
ATOM     16  C   UNL     1      44.022 136.943  19.206  1.00  0.00     0.301 C 
ATOM     17  C   UNL     1      43.272 131.529  20.678  1.00  0.00     0.009 A 
ATOM     18  C   UNL     1      44.498 133.638  20.753  1.00  0.00    -0.009 A 
ATOM     19  C   UNL     1      45.592 135.996  20.760  1.00  0.00     0.301 C 
ATOM     20  N   UNL     1      45.226 137.256  20.039  1.00  0.00    -0.321 N 
ATOM     21  C   UNL     1      44.164 130.984  21.605  1.00  0.00     0.001 A 
ATOM     22  C   UNL     1      45.387 133.077  21.683  1.00  0.00     0.009 A 
ATOM     23  C   UNL     1      45.215 131.756  22.107  1.00  0.00     0.001 A 
ATOM     24  C   UNL     1      44.914 138.333  21.009  1.00  0.00     0.334 C 
ATOM     25  C   UNL     1      46.347 137.696  19.176  1.00  0.00     0.334 C 
ENDBRANCH   7  11
ENDBRANCH   1   4
BRANCH   3  26
ATOM     26  O   UNL     1      40.641 133.136  14.959  1.00  0.00    -0.345 OA
ATOM     27  H   UNL     1      40.347 133.767  14.252  1.00  0.00     0.216 HD
ENDBRANCH   3  26
BRANCH   3  28
ATOM     28  N   UNL     1      42.841 132.130  14.559  1.00  0.00    -0.330 N 
ATOM     29  H   UNL     1      42.570 131.694  13.649  1.00  0.00     0.166 HD
BRANCH  28  30
ATOM     30  C   UNL     1      43.962 131.614  15.307  1.00  0.00     0.042 A 
ATOM     31  C   UNL     1      43.988 131.736  16.708  1.00  0.00     0.026 A 
ATOM     32  C   UNL     1      45.043 130.968  14.646  1.00  0.00    -0.010 A 
ATOM     33  C   UNL     1      45.061 131.246  17.445  1.00  0.00     0.004 A 
ATOM     34  C   UNL     1      46.127 130.473  15.414  1.00  0.00     0.057 A 
ATOM     35  C   UNL     1      46.131 130.630  16.802  1.00  0.00     0.020 A 
ATOM     36  C   UNL     1      45.018 130.816  13.141  1.00  0.00     0.048 C 
BRANCH  34  37
ATOM     37  C   UNL     1      47.252 129.797  14.808  1.00  0.00     0.099 C 
ATOM     38  N   UNL     1      48.153 129.257  14.323  1.00  0.00    -0.192 NA
ENDBRANCH  34  37
ENDBRANCH  28  30
ENDBRANCH   3  28
TORSDOF 6
ENDMDL
MODEL 2
REMARK VINA RESULT:      -7.7      2.456      3.249
REMARK SMILES Cc1n[nH+]n([C@@H]2O[C@@]2(O)Nc2cccc(C#N)c2C)c1-c1cc2ccccc2c2c1C[N+](C)(C)C2
REMARK SMILES IDX 6 1 7 2 8 3 5 4 2 5 3 6 20 7 4 8 1 9 21 11 22 12 30 13 23 14
REMARK SMILES IDX 29 15 31 16 24 17 28 18 35 19 32 20 25 21 27 22 26 23 33 24
REMARK SMILES IDX 34 25 9 26 10 28 11 30 12 31 18 32 13 33 15 34 14 35 19 36
REMARK SMILES IDX 16 37 17 38
REMARK H PARENT 4 10 9 27 10 29
ROOT
ATOM      1  C   UNL     1      41.621 134.525  15.206  1.00  0.00     0.368 C 
ATOM      2  O   UNL     1      41.852 134.566  13.812  1.00  0.00    -0.292 OA
ATOM      3  C   UNL     1      42.187 133.370  14.476  1.00  0.00     0.302 C 
ENDROOT
BRANCH   1   4
ATOM      4  N   UNL     1      40.191 134.438  15.503  1.00  0.00    -0.091 N 
ATOM      5  C   UNL     1      38.251 134.336  16.508  1.00  0.00     0.137 A 
ATOM      6  N   UNL     1      38.028 134.500  15.187  1.00  0.00     0.020 NA
ATOM      7  C   UNL     1      39.620 134.298  16.712  1.00  0.00     0.140 A 
ATOM      8  N   UNL     1      39.220 134.560  14.613  1.00  0.00    -0.014 N 
ATOM      9  C   UNL     1      37.168 134.288  17.535  1.00  0.00     0.076 C 
ATOM     10  H   UNL     1      39.365 134.703  13.588  1.00  0.00     0.526 HD
BRANCH   7  11
ATOM     11  C   UNL     1      40.336 134.228  17.996  1.00  0.00     0.016 A 
ATOM     12  C   UNL     1      40.959 133.030  18.389  1.00  0.00     0.019 A 
ATOM     13  C   UNL     1      40.410 135.336  18.851  1.00  0.00     0.025 A 
ATOM     14  C   UNL     1      41.651 132.956  19.615  1.00  0.00    -0.017 A 
ATOM     15  C   UNL     1      41.071 135.272  20.044  1.00  0.00     0.024 A 
ATOM     16  C   UNL     1      39.738 136.648  18.696  1.00  0.00     0.301 C 
ATOM     17  C   UNL     1      42.271 131.760  20.014  1.00  0.00     0.009 A 
ATOM     18  C   UNL     1      41.713 134.094  20.461  1.00  0.00    -0.009 A 
ATOM     19  C   UNL     1      40.925 136.550  20.784  1.00  0.00     0.301 C 
ATOM     20  N   UNL     1      40.088 137.439  19.918  1.00  0.00    -0.321 N 
ATOM     21  C   UNL     1      42.936 131.690  21.241  1.00  0.00     0.001 A 
ATOM     22  C   UNL     1      42.386 134.008  21.692  1.00  0.00     0.009 A 
ATOM     23  C   UNL     1      42.990 132.809  22.077  1.00  0.00     0.001 A 
ATOM     24  C   UNL     1      38.857 137.848  20.635  1.00  0.00     0.334 C 
ATOM     25  C   UNL     1      40.852 138.653  19.542  1.00  0.00     0.334 C 
ENDBRANCH   7  11
ENDBRANCH   1   4
BRANCH   3  26
ATOM     26  O   UNL     1      41.368 132.302  14.090  1.00  0.00    -0.345 OA
ATOM     27  H   UNL     1      41.808 131.906  13.292  1.00  0.00     0.216 HD
ENDBRANCH   3  26
BRANCH   3  28
ATOM     28  N   UNL     1      43.631 133.152  14.498  1.00  0.00    -0.330 N 
ATOM     29  H   UNL     1      44.226 133.889  14.057  1.00  0.00     0.166 HD
BRANCH  28  30
ATOM     30  C   UNL     1      44.240 131.985  15.089  1.00  0.00     0.042 A 
ATOM     31  C   UNL     1      44.478 130.842  14.304  1.00  0.00     0.026 A 
ATOM     32  C   UNL     1      44.618 131.976  16.460  1.00  0.00    -0.010 A 
ATOM     33  C   UNL     1      45.062 129.708  14.856  1.00  0.00     0.004 A 
ATOM     34  C   UNL     1      45.215 130.812  17.005  1.00  0.00     0.057 A 
ATOM     35  C   UNL     1      45.416 129.686  16.202  1.00  0.00     0.020 A 
ATOM     36  C   UNL     1      44.383 133.205  17.311  1.00  0.00     0.048 C 
BRANCH  34  37
ATOM     37  C   UNL     1      45.633 130.738  18.387  1.00  0.00     0.099 C 
ATOM     38  N   UNL     1      45.968 130.679  19.493  1.00  0.00    -0.192 NA
ENDBRANCH  34  37
ENDBRANCH  28  30
ENDBRANCH   3  28
TORSDOF 6
ENDMDL
MODEL 3
REMARK VINA RESULT:      -7.6      3.206      4.926
REMARK SMILES Cc1n[nH+]n([C@@H]2O[C@@]2(O)Nc2cccc(C#N)c2C)c1-c1cc2ccccc2c2c1C[N+](C)(C)C2
REMARK SMILES IDX 6 1 7 2 8 3 5 4 2 5 3 6 20 7 4 8 1 9 21 11 22 12 30 13 23 14
REMARK SMILES IDX 29 15 31 16 24 17 28 18 35 19 32 20 25 21 27 22 26 23 33 24
REMARK SMILES IDX 34 25 9 26 10 28 11 30 12 31 18 32 13 33 15 34 14 35 19 36
REMARK SMILES IDX 16 37 17 38
REMARK H PARENT 4 10 9 27 10 29
ROOT
ATOM      1  C   UNL     1      42.819 131.865  20.486  1.00  0.00     0.368 C 
ATOM      2  O   UNL     1      43.706 130.996  21.163  1.00  0.00    -0.292 OA
ATOM      3  C   UNL     1      44.286 132.031  20.404  1.00  0.00     0.302 C 
ENDROOT
BRANCH   1   4
ATOM      4  N   UNL     1      42.139 132.759  21.422  1.00  0.00    -0.091 N 
ATOM      5  C   UNL     1      40.920 134.340  22.317  1.00  0.00     0.137 A 
ATOM      6  N   UNL     1      41.322 133.515  23.305  1.00  0.00     0.020 NA
ATOM      7  C   UNL     1      41.434 133.864  21.123  1.00  0.00     0.140 A 
ATOM      8  N   UNL     1      42.052 132.571  22.729  1.00  0.00    -0.014 N 
ATOM      9  C   UNL     1      40.012 135.508  22.525  1.00  0.00     0.076 C 
ATOM     10  H   UNL     1      42.487 131.775  23.247  1.00  0.00     0.526 HD
BRANCH   7  11
ATOM     11  C   UNL     1      41.187 134.382  19.767  1.00  0.00     0.016 A 
ATOM     12  C   UNL     1      40.224 133.771  18.945  1.00  0.00     0.019 A 
ATOM     13  C   UNL     1      41.900 135.480  19.265  1.00  0.00     0.025 A 
ATOM     14  C   UNL     1      39.978 134.264  17.647  1.00  0.00    -0.017 A 
ATOM     15  C   UNL     1      41.675 135.960  18.007  1.00  0.00     0.024 A 
ATOM     16  C   UNL     1      43.028 136.198  19.904  1.00  0.00     0.301 C 
ATOM     17  C   UNL     1      39.021 133.654  16.820  1.00  0.00     0.009 A 
ATOM     18  C   UNL     1      40.713 135.379  17.164  1.00  0.00    -0.009 A 
ATOM     19  C   UNL     1      42.617 137.065  17.700  1.00  0.00     0.301 C 
ATOM     20  N   UNL     1      43.472 137.233  18.918  1.00  0.00    -0.321 N 
ATOM     21  C   UNL     1      38.800 134.136  15.527  1.00  0.00     0.001 A 
ATOM     22  C   UNL     1      40.480 135.852  15.862  1.00  0.00     0.009 A 
ATOM     23  C   UNL     1      39.529 135.228  15.050  1.00  0.00     0.001 A 
ATOM     24  C   UNL     1      44.901 137.037  18.575  1.00  0.00     0.334 C 
ATOM     25  C   UNL     1      43.295 138.591  19.485  1.00  0.00     0.334 C 
ENDBRANCH   7  11
ENDBRANCH   1   4
BRANCH   3  26
ATOM     26  O   UNL     1      44.942 132.973  21.206  1.00  0.00    -0.345 OA
ATOM     27  H   UNL     1      45.910 132.846  21.027  1.00  0.00     0.216 HD
ENDBRANCH   3  26
BRANCH   3  28
ATOM     28  N   UNL     1      44.998 131.512  19.239  1.00  0.00    -0.330 N 
ATOM     29  H   UNL     1      45.671 130.730  19.407  1.00  0.00     0.166 HD
BRANCH  28  30
ATOM     30  C   UNL     1      44.806 132.031  17.906  1.00  0.00     0.042 A 
ATOM     31  C   UNL     1      44.223 133.298  17.723  1.00  0.00     0.026 A 
ATOM     32  C   UNL     1      45.212 131.281  16.767  1.00  0.00    -0.010 A 
ATOM     33  C   UNL     1      44.030 133.814  16.446  1.00  0.00     0.004 A 
ATOM     34  C   UNL     1      45.008 131.824  15.474  1.00  0.00     0.057 A 
ATOM     35  C   UNL     1      44.406 133.077  15.327  1.00  0.00     0.020 A 
ATOM     36  C   UNL     1      45.854 129.924  16.953  1.00  0.00     0.048 C 
BRANCH  34  37
ATOM     37  C   UNL     1      45.405 131.122  14.275  1.00  0.00     0.099 C 
ATOM     38  N   UNL     1      45.724 130.559  13.315  1.00  0.00    -0.192 NA
ENDBRANCH  34  37
ENDBRANCH  28  30
ENDBRANCH   3  28
TORSDOF 6
ENDMDL
MODEL 4
REMARK VINA RESULT:      -7.4      1.317      1.523
REMARK SMILES Cc1n[nH+]n([C@@H]2O[C@@]2(O)Nc2cccc(C#N)c2C)c1-c1cc2ccccc2c2c1C[N+](C)(C)C2
REMARK SMILES IDX 6 1 7 2 8 3 5 4 2 5 3 6 20 7 4 8 1 9 21 11 22 12 30 13 23 14
REMARK SMILES IDX 29 15 31 16 24 17 28 18 35 19 32 20 25 21 27 22 26 23 33 24
REMARK SMILES IDX 34 25 9 26 10 28 11 30 12 31 18 32 13 33 15 34 14 35 19 36
REMARK SMILES IDX 16 37 17 38
REMARK H PARENT 4 10 9 27 10 29
ROOT
ATOM      1  C   UNL     1      41.147 135.532  15.874  1.00  0.00     0.368 C 
ATOM      2  O   UNL     1      40.457 135.368  14.651  1.00  0.00    -0.292 OA
ATOM      3  C   UNL     1      40.947 134.199  15.265  1.00  0.00     0.302 C 
ENDROOT
BRANCH   1   4
ATOM      4  N   UNL     1      40.225 135.870  16.959  1.00  0.00    -0.091 N 
ATOM      5  C   UNL     1      39.318 136.228  18.916  1.00  0.00     0.137 A 
ATOM      6  N   UNL     1      38.477 136.703  17.975  1.00  0.00     0.020 NA
ATOM      7  C   UNL     1      40.427 135.701  18.278  1.00  0.00     0.140 A 
ATOM      8  N   UNL     1      39.057 136.473  16.807  1.00  0.00    -0.014 N 
ATOM      9  C   UNL     1      39.076 136.349  20.386  1.00  0.00     0.076 C 
ATOM     10  H   UNL     1      38.645 136.751  15.887  1.00  0.00     0.526 HD
BRANCH   7  11
ATOM     11  C   UNL     1      41.646 135.156  18.896  1.00  0.00     0.016 A 
ATOM     12  C   UNL     1      41.741 133.781  19.171  1.00  0.00     0.019 A 
ATOM     13  C   UNL     1      42.729 135.984  19.227  1.00  0.00     0.025 A 
ATOM     14  C   UNL     1      42.908 133.249  19.758  1.00  0.00    -0.017 A 
ATOM     15  C   UNL     1      43.859 135.481  19.803  1.00  0.00     0.024 A 
ATOM     16  C   UNL     1      42.802 137.461  19.135  1.00  0.00     0.301 C 
ATOM     17  C   UNL     1      43.005 131.877  20.039  1.00  0.00     0.009 A 
ATOM     18  C   UNL     1      43.990 134.110  20.081  1.00  0.00    -0.009 A 
ATOM     19  C   UNL     1      44.806 136.577  20.123  1.00  0.00     0.301 C 
ATOM     20  N   UNL     1      44.142 137.844  19.682  1.00  0.00    -0.321 N 
ATOM     21  C   UNL     1      44.157 131.364  20.642  1.00  0.00     0.001 A 
ATOM     22  C   UNL     1      45.142 133.579  20.686  1.00  0.00     0.009 A 
ATOM     23  C   UNL     1      45.219 132.212  20.966  1.00  0.00     0.001 A 
ATOM     24  C   UNL     1      43.984 138.770  20.828  1.00  0.00     0.334 C 
ATOM     25  C   UNL     1      44.953 138.509  18.633  1.00  0.00     0.334 C 
ENDBRANCH   7  11
ENDBRANCH   1   4
BRANCH   3  26
ATOM     26  O   UNL     1      39.916 133.362  15.710  1.00  0.00    -0.345 OA
ATOM     27  H   UNL     1      39.200 133.439  15.026  1.00  0.00     0.216 HD
ENDBRANCH   3  26
BRANCH   3  28
ATOM     28  N   UNL     1      42.032 133.598  14.495  1.00  0.00    -0.330 N 
ATOM     29  H   UNL     1      41.936 133.614  13.454  1.00  0.00     0.166 HD
BRANCH  28  30
ATOM     30  C   UNL     1      43.193 132.999  15.108  1.00  0.00     0.042 A 
ATOM     31  C   UNL     1      43.815 133.631  16.200  1.00  0.00     0.026 A 
ATOM     32  C   UNL     1      43.715 131.766  14.628  1.00  0.00    -0.010 A 
ATOM     33  C   UNL     1      44.936 133.069  16.802  1.00  0.00     0.004 A 
ATOM     34  C   UNL     1      44.857 131.208  15.256  1.00  0.00     0.057 A 
ATOM     35  C   UNL     1      45.463 131.873  16.326  1.00  0.00     0.020 A 
ATOM     36  C   UNL     1      43.044 131.070  13.465  1.00  0.00     0.048 C 
BRANCH  34  37
ATOM     37  C   UNL     1      45.433 129.954  14.828  1.00  0.00     0.099 C 
ATOM     38  N   UNL     1      45.894 128.949  14.485  1.00  0.00    -0.192 NA
ENDBRANCH  34  37
ENDBRANCH  28  30
ENDBRANCH   3  28
TORSDOF 6
ENDMDL
MODEL 5
REMARK VINA RESULT:      -7.4      2.878      5.647
REMARK SMILES Cc1n[nH+]n([C@@H]2O[C@@]2(O)Nc2cccc(C#N)c2C)c1-c1cc2ccccc2c2c1C[N+](C)(C)C2
REMARK SMILES IDX 6 1 7 2 8 3 5 4 2 5 3 6 20 7 4 8 1 9 21 11 22 12 30 13 23 14
REMARK SMILES IDX 29 15 31 16 24 17 28 18 35 19 32 20 25 21 27 22 26 23 33 24
REMARK SMILES IDX 34 25 9 26 10 28 11 30 12 31 18 32 13 33 15 34 14 35 19 36
REMARK SMILES IDX 16 37 17 38
REMARK H PARENT 4 10 9 27 10 29
ROOT
ATOM      1  C   UNL     1      39.149 133.306  17.612  1.00  0.00     0.368 C 
ATOM      2  O   UNL     1      38.129 133.616  18.540  1.00  0.00    -0.292 OA
ATOM      3  C   UNL     1      39.392 134.194  18.770  1.00  0.00     0.302 C 
ENDROOT
BRANCH   1   4
ATOM      4  N   UNL     1      38.926 133.987  16.336  1.00  0.00    -0.091 N 
ATOM      5  C   UNL     1      39.168 134.870  14.350  1.00  0.00     0.137 A 
ATOM      6  N   UNL     1      37.853 134.877  14.651  1.00  0.00     0.020 NA
ATOM      7  C   UNL     1      39.851 134.305  15.414  1.00  0.00     0.140 A 
ATOM      8  N   UNL     1      37.744 134.335  15.855  1.00  0.00    -0.014 N 
ATOM      9  C   UNL     1      39.726 135.333  13.043  1.00  0.00     0.076 C 
ATOM     10  H   UNL     1      36.833 134.190  16.347  1.00  0.00     0.526 HD
BRANCH   7  11
ATOM     11  C   UNL     1      41.289 134.003  15.501  1.00  0.00     0.016 A 
ATOM     12  C   UNL     1      41.792 132.810  14.955  1.00  0.00     0.019 A 
ATOM     13  C   UNL     1      42.182 134.883  16.130  1.00  0.00     0.025 A 
ATOM     14  C   UNL     1      43.169 132.515  15.031  1.00  0.00    -0.017 A 
ATOM     15  C   UNL     1      43.515 134.604  16.216  1.00  0.00     0.024 A 
ATOM     16  C   UNL     1      41.860 136.127  16.868  1.00  0.00     0.301 C 
ATOM     17  C   UNL     1      43.675 131.322  14.490  1.00  0.00     0.009 A 
ATOM     18  C   UNL     1      44.051 133.425  15.670  1.00  0.00    -0.009 A 
ATOM     19  C   UNL     1      44.213 135.654  16.997  1.00  0.00     0.301 C 
ATOM     20  N   UNL     1      43.162 136.641  17.401  1.00  0.00    -0.321 N 
ATOM     21  C   UNL     1      45.038 131.029  14.590  1.00  0.00     0.001 A 
ATOM     22  C   UNL     1      45.419 133.117  15.762  1.00  0.00     0.009 A 
ATOM     23  C   UNL     1      45.904 131.921  15.226  1.00  0.00     0.001 A 
ATOM     24  C   UNL     1      43.103 136.755  18.878  1.00  0.00     0.334 C 
ATOM     25  C   UNL     1      43.462 137.974  16.827  1.00  0.00     0.334 C 
ENDBRANCH   7  11
ENDBRANCH   1   4
BRANCH   3  26
ATOM     26  O   UNL     1      39.373 135.586  18.615  1.00  0.00    -0.345 OA
ATOM     27  H   UNL     1      40.297 135.835  18.349  1.00  0.00     0.216 HD
ENDBRANCH   3  26
BRANCH   3  28
ATOM     28  N   UNL     1      40.027 133.648  19.965  1.00  0.00    -0.330 N 
ATOM     29  H   UNL     1      39.393 133.332  20.734  1.00  0.00     0.166 HD
BRANCH  28  30
ATOM     30  C   UNL     1      41.459 133.537  20.114  1.00  0.00     0.042 A 
ATOM     31  C   UNL     1      42.206 132.795  19.181  1.00  0.00     0.026 A 
ATOM     32  C   UNL     1      42.131 134.181  21.189  1.00  0.00    -0.010 A 
ATOM     33  C   UNL     1      43.586 132.676  19.309  1.00  0.00     0.004 A 
ATOM     34  C   UNL     1      43.538 134.050  21.302  1.00  0.00     0.057 A 
ATOM     35  C   UNL     1      44.247 133.287  20.370  1.00  0.00     0.020 A 
ATOM     36  C   UNL     1      41.339 134.994  22.189  1.00  0.00     0.048 C 
BRANCH  34  37
ATOM     37  C   UNL     1      44.286 134.685  22.363  1.00  0.00     0.099 C 
ATOM     38  N   UNL     1      44.884 135.195  23.213  1.00  0.00    -0.192 NA
ENDBRANCH  34  37
ENDBRANCH  28  30
ENDBRANCH   3  28
TORSDOF 6
ENDMDL
MODEL 6
REMARK VINA RESULT:      -7.3      2.739      6.864
REMARK SMILES Cc1n[nH+]n([C@@H]2O[C@@]2(O)Nc2cccc(C#N)c2C)c1-c1cc2ccccc2c2c1C[N+](C)(C)C2
REMARK SMILES IDX 6 1 7 2 8 3 5 4 2 5 3 6 20 7 4 8 1 9 21 11 22 12 30 13 23 14
REMARK SMILES IDX 29 15 31 16 24 17 28 18 35 19 32 20 25 21 27 22 26 23 33 24
REMARK SMILES IDX 34 25 9 26 10 28 11 30 12 31 18 32 13 33 15 34 14 35 19 36
REMARK SMILES IDX 16 37 17 38
REMARK H PARENT 4 10 9 27 10 29
ROOT
ATOM      1  C   UNL     1      44.516 136.784  18.070  1.00  0.00     0.368 C 
ATOM      2  O   UNL     1      44.713 136.710  19.468  1.00  0.00    -0.292 OA
ATOM      3  C   UNL     1      44.595 137.998  18.911  1.00  0.00     0.302 C 
ENDROOT
BRANCH   1   4
ATOM      4  N   UNL     1      43.164 136.362  17.705  1.00  0.00    -0.091 N 
ATOM      5  C   UNL     1      41.393 135.191  17.179  1.00  0.00     0.137 A 
ATOM      6  N   UNL     1      41.000 136.463  17.397  1.00  0.00     0.020 NA
ATOM      7  C   UNL     1      42.761 135.122  17.374  1.00  0.00     0.140 A 
ATOM      8  N   UNL     1      42.094 137.141  17.715  1.00  0.00    -0.014 N 
ATOM      9  C   UNL     1      40.453 134.074  16.861  1.00  0.00     0.076 C 
ATOM     10  H   UNL     1      42.099 138.157  17.957  1.00  0.00     0.526 HD
BRANCH   7  11
ATOM     11  C   UNL     1      43.616 133.924  17.339  1.00  0.00     0.016 A 
ATOM     12  C   UNL     1      44.226 133.531  16.136  1.00  0.00     0.019 A 
ATOM     13  C   UNL     1      43.835 133.151  18.489  1.00  0.00     0.025 A 
ATOM     14  C   UNL     1      45.050 132.387  16.095  1.00  0.00    -0.017 A 
ATOM     15  C   UNL     1      44.624 132.038  18.458  1.00  0.00     0.024 A 
ATOM     16  C   UNL     1      43.208 133.311  19.822  1.00  0.00     0.301 C 
ATOM     17  C   UNL     1      45.659 131.987  14.894  1.00  0.00     0.009 A 
ATOM     18  C   UNL     1      45.258 131.624  17.274  1.00  0.00    -0.009 A 
ATOM     19  C   UNL     1      44.619 131.366  19.780  1.00  0.00     0.301 C 
ATOM     20  N   UNL     1      43.729 132.186  20.662  1.00  0.00    -0.321 N 
ATOM     21  C   UNL     1      46.456 130.840  14.859  1.00  0.00     0.001 A 
ATOM     22  C   UNL     1      46.062 130.473  17.223  1.00  0.00     0.009 A 
ATOM     23  C   UNL     1      46.653 130.085  16.018  1.00  0.00     0.001 A 
ATOM     24  C   UNL     1      42.607 131.362  21.171  1.00  0.00     0.334 C 
ATOM     25  C   UNL     1      44.497 132.718  21.813  1.00  0.00     0.334 C 
ENDBRANCH   7  11
ENDBRANCH   1   4
BRANCH   3  26
ATOM     26  O   UNL     1      43.429 138.651  19.328  1.00  0.00    -0.345 OA
ATOM     27  H   UNL     1      43.246 138.308  20.242  1.00  0.00     0.216 HD
ENDBRANCH   3  26
BRANCH   3  28
ATOM     28  N   UNL     1      45.854 138.734  18.981  1.00  0.00    -0.330 N 
ATOM     29  H   UNL     1      46.234 139.107  18.081  1.00  0.00     0.166 HD
BRANCH  28  30
ATOM     30  C   UNL     1      46.569 138.953  20.216  1.00  0.00     0.042 A 
ATOM     31  C   UNL     1      45.858 139.180  21.408  1.00  0.00     0.026 A 
ATOM     32  C   UNL     1      47.991 138.931  20.248  1.00  0.00    -0.010 A 
ATOM     33  C   UNL     1      46.529 139.394  22.607  1.00  0.00     0.004 A 
ATOM     34  C   UNL     1      48.657 139.149  21.480  1.00  0.00     0.057 A 
ATOM     35  C   UNL     1      47.920 139.393  22.642  1.00  0.00     0.020 A 
ATOM     36  C   UNL     1      48.766 138.671  18.975  1.00  0.00     0.048 C 
BRANCH  34  37
ATOM     37  C   UNL     1      50.099 139.129  21.587  1.00  0.00     0.099 C 
ATOM     38  N   UNL     1      51.253 139.114  21.672  1.00  0.00    -0.192 NA
ENDBRANCH  34  37
ENDBRANCH  28  30
ENDBRANCH   3  28
TORSDOF 6
ENDMDL
MODEL 7
REMARK VINA RESULT:      -7.2      1.860      6.295
REMARK SMILES Cc1n[nH+]n([C@@H]2O[C@@]2(O)Nc2cccc(C#N)c2C)c1-c1cc2ccccc2c2c1C[N+](C)(C)C2
REMARK SMILES IDX 6 1 7 2 8 3 5 4 2 5 3 6 20 7 4 8 1 9 21 11 22 12 30 13 23 14
REMARK SMILES IDX 29 15 31 16 24 17 28 18 35 19 32 20 25 21 27 22 26 23 33 24
REMARK SMILES IDX 34 25 9 26 10 28 11 30 12 31 18 32 13 33 15 34 14 35 19 36
REMARK SMILES IDX 16 37 17 38
REMARK H PARENT 4 10 9 27 10 29
ROOT
ATOM      1  C   UNL     1      41.167 133.343  15.473  1.00  0.00     0.368 C 
ATOM      2  O   UNL     1      40.268 133.266  14.385  1.00  0.00    -0.292 OA
ATOM      3  C   UNL     1      40.787 134.539  14.690  1.00  0.00     0.302 C 
ENDROOT
BRANCH   1   4
ATOM      4  N   UNL     1      42.462 132.756  15.131  1.00  0.00    -0.091 N 
ATOM      5  C   UNL     1      44.566 132.157  15.119  1.00  0.00     0.137 A 
ATOM      6  N   UNL     1      43.927 131.452  14.163  1.00  0.00     0.020 NA
ATOM      7  C   UNL     1      43.642 132.983  15.736  1.00  0.00     0.140 A 
ATOM      8  N   UNL     1      42.660 131.836  14.200  1.00  0.00    -0.014 N 
ATOM      9  C   UNL     1      46.009 131.978  15.461  1.00  0.00     0.076 C 
ATOM     10  H   UNL     1      41.915 131.446  13.581  1.00  0.00     0.526 HD
BRANCH   7  11
ATOM     11  C   UNL     1      43.855 133.865  16.895  1.00  0.00     0.016 A 
ATOM     12  C   UNL     1      44.059 135.242  16.703  1.00  0.00     0.019 A 
ATOM     13  C   UNL     1      43.867 133.359  18.203  1.00  0.00     0.025 A 
ATOM     14  C   UNL     1      44.260 136.095  17.808  1.00  0.00    -0.017 A 
ATOM     15  C   UNL     1      44.069 134.175  19.279  1.00  0.00     0.024 A 
ATOM     16  C   UNL     1      43.791 131.942  18.628  1.00  0.00     0.301 C 
ATOM     17  C   UNL     1      44.468 137.471  17.621  1.00  0.00     0.009 A 
ATOM     18  C   UNL     1      44.264 135.557  19.122  1.00  0.00    -0.009 A 
ATOM     19  C   UNL     1      44.116 133.377  20.529  1.00  0.00     0.301 C 
ATOM     20  N   UNL     1      43.921 131.950  20.120  1.00  0.00    -0.321 N 
ATOM     21  C   UNL     1      44.688 138.304  18.721  1.00  0.00     0.001 A 
ATOM     22  C   UNL     1      44.486 136.407  20.218  1.00  0.00     0.009 A 
ATOM     23  C   UNL     1      44.700 137.773  20.014  1.00  0.00     0.001 A 
ATOM     24  C   UNL     1      45.082 131.130  20.539  1.00  0.00     0.334 C 
ATOM     25  C   UNL     1      42.693 131.401  20.745  1.00  0.00     0.334 C 
ENDBRANCH   7  11
ENDBRANCH   1   4
BRANCH   3  26
ATOM     26  O   UNL     1      41.628 135.025  13.681  1.00  0.00    -0.345 OA
ATOM     27  H   UNL     1      41.217 134.726  12.828  1.00  0.00     0.216 HD
ENDBRANCH   3  26
BRANCH   3  28
ATOM     28  N   UNL     1      39.756 135.433  15.210  1.00  0.00    -0.330 N 
ATOM     29  H   UNL     1      39.038 135.770  14.529  1.00  0.00     0.166 HD
BRANCH  28  30
ATOM     30  C   UNL     1      39.701 135.852  16.590  1.00  0.00     0.042 A 
ATOM     31  C   UNL     1      38.985 135.087  17.528  1.00  0.00     0.026 A 
ATOM     32  C   UNL     1      40.375 137.028  17.021  1.00  0.00    -0.010 A 
ATOM     33  C   UNL     1      38.920 135.476  18.862  1.00  0.00     0.004 A 
ATOM     34  C   UNL     1      40.300 137.408  18.384  1.00  0.00     0.057 A 
ATOM     35  C   UNL     1      39.561 136.636  19.286  1.00  0.00     0.020 A 
ATOM     36  C   UNL     1      41.162 137.849  16.023  1.00  0.00     0.048 C 
BRANCH  34  37
ATOM     37  C   UNL     1      40.968 138.584  18.892  1.00  0.00     0.099 C 
ATOM     38  N   UNL     1      41.503 139.526  19.298  1.00  0.00    -0.192 NA
ENDBRANCH  34  37
ENDBRANCH  28  30
ENDBRANCH   3  28
TORSDOF 6
ENDMDL
MODEL 8
REMARK VINA RESULT:      -7.2      1.523      3.679
REMARK SMILES Cc1n[nH+]n([C@@H]2O[C@@]2(O)Nc2cccc(C#N)c2C)c1-c1cc2ccccc2c2c1C[N+](C)(C)C2
REMARK SMILES IDX 6 1 7 2 8 3 5 4 2 5 3 6 20 7 4 8 1 9 21 11 22 12 30 13 23 14
REMARK SMILES IDX 29 15 31 16 24 17 28 18 35 19 32 20 25 21 27 22 26 23 33 24
REMARK SMILES IDX 34 25 9 26 10 28 11 30 12 31 18 32 13 33 15 34 14 35 19 36
REMARK SMILES IDX 16 37 17 38
REMARK H PARENT 4 10 9 27 10 29
ROOT
ATOM      1  C   UNL     1      43.261 133.968  17.142  1.00  0.00     0.368 C 
ATOM      2  O   UNL     1      42.813 133.457  15.903  1.00  0.00    -0.292 OA
ATOM      3  C   UNL     1      42.768 132.580  17.004  1.00  0.00     0.302 C 
ENDROOT
BRANCH   1   4
ATOM      4  N   UNL     1      42.302 134.922  17.698  1.00  0.00    -0.091 N 
ATOM      5  C   UNL     1      41.358 136.569  18.784  1.00  0.00     0.137 A 
ATOM      6  N   UNL     1      40.439 136.040  17.951  1.00  0.00     0.020 NA
ATOM      7  C   UNL     1      42.539 135.865  18.626  1.00  0.00     0.140 A 
ATOM      8  N   UNL     1      41.043 135.051  17.309  1.00  0.00    -0.014 N 
ATOM      9  C   UNL     1      41.108 137.760  19.650  1.00  0.00     0.076 C 
ATOM     10  H   UNL     1      40.581 134.463  16.579  1.00  0.00     0.526 HD
BRANCH   7  11
ATOM     11  C   UNL     1      43.841 136.139  19.256  1.00  0.00     0.016 A 
ATOM     12  C   UNL     1      44.684 137.130  18.726  1.00  0.00     0.019 A 
ATOM     13  C   UNL     1      44.271 135.423  20.383  1.00  0.00     0.025 A 
ATOM     14  C   UNL     1      45.931 137.402  19.326  1.00  0.00    -0.017 A 
ATOM     15  C   UNL     1      45.479 135.673  20.966  1.00  0.00     0.024 A 
ATOM     16  C   UNL     1      43.605 134.269  21.032  1.00  0.00     0.301 C 
ATOM     17  C   UNL     1      46.779 138.389  18.797  1.00  0.00     0.009 A 
ATOM     18  C   UNL     1      46.341 136.664  20.468  1.00  0.00    -0.009 A 
ATOM     19  C   UNL     1      45.719 134.724  22.081  1.00  0.00     0.301 C 
ATOM     20  N   UNL     1      44.516 133.835  22.139  1.00  0.00    -0.321 N 
ATOM     21  C   UNL     1      48.022 138.635  19.386  1.00  0.00     0.001 A 
ATOM     22  C   UNL     1      47.593 136.924  21.049  1.00  0.00     0.009 A 
ATOM     23  C   UNL     1      48.428 137.904  20.505  1.00  0.00     0.001 A 
ATOM     24  C   UNL     1      44.911 132.419  21.954  1.00  0.00     0.334 C 
ATOM     25  C   UNL     1      43.836 133.979  23.449  1.00  0.00     0.334 C 
ENDBRANCH   7  11
ENDBRANCH   1   4
BRANCH   3  26
ATOM     26  O   UNL     1      41.455 132.253  17.368  1.00  0.00    -0.345 OA
ATOM     27  H   UNL     1      40.874 132.825  16.802  1.00  0.00     0.216 HD
ENDBRANCH   3  26
BRANCH   3  28
ATOM     28  N   UNL     1      43.731 131.492  16.868  1.00  0.00    -0.330 N 
ATOM     29  H   UNL     1      43.993 130.982  17.742  1.00  0.00     0.166 HD
BRANCH  28  30
ATOM     30  C   UNL     1      44.317 131.115  15.604  1.00  0.00     0.042 A 
ATOM     31  C   UNL     1      43.589 131.285  14.413  1.00  0.00     0.026 A 
ATOM     32  C   UNL     1      45.634 130.580  15.543  1.00  0.00    -0.010 A 
ATOM     33  C   UNL     1      44.136 130.925  13.187  1.00  0.00     0.004 A 
ATOM     34  C   UNL     1      46.176 130.221  14.284  1.00  0.00     0.057 A 
ATOM     35  C   UNL     1      45.416 130.384  13.122  1.00  0.00     0.020 A 
ATOM     36  C   UNL     1      46.433 130.407  16.816  1.00  0.00     0.048 C 
BRANCH  34  37
ATOM     37  C   UNL     1      47.511 129.683  14.147  1.00  0.00     0.099 C 
ATOM     38  N   UNL     1      48.579 129.253  14.037  1.00  0.00    -0.192 NA
ENDBRANCH  34  37
ENDBRANCH  28  30
ENDBRANCH   3  28
TORSDOF 6
ENDMDL
MODEL 9
REMARK VINA RESULT:      -7.1      2.483      5.913
REMARK SMILES Cc1n[nH+]n([C@@H]2O[C@@]2(O)Nc2cccc(C#N)c2C)c1-c1cc2ccccc2c2c1C[N+](C)(C)C2
REMARK SMILES IDX 6 1 7 2 8 3 5 4 2 5 3 6 20 7 4 8 1 9 21 11 22 12 30 13 23 14
REMARK SMILES IDX 29 15 31 16 24 17 28 18 35 19 32 20 25 21 27 22 26 23 33 24
REMARK SMILES IDX 34 25 9 26 10 28 11 30 12 31 18 32 13 33 15 34 14 35 19 36
REMARK SMILES IDX 16 37 17 38
REMARK H PARENT 4 10 9 27 10 29
ROOT
ATOM      1  C   UNL     1      43.508 132.440  15.890  1.00  0.00     0.368 C 
ATOM      2  O   UNL     1      44.563 132.863  15.050  1.00  0.00    -0.292 OA
ATOM      3  C   UNL     1      43.713 133.866  15.554  1.00  0.00     0.302 C 
ENDROOT
BRANCH   1   4
ATOM      4  N   UNL     1      44.010 132.027  17.201  1.00  0.00    -0.091 N 
ATOM      5  C   UNL     1      44.261 131.677  19.345  1.00  0.00     0.137 A 
ATOM      6  N   UNL     1      45.200 130.960  18.694  1.00  0.00     0.020 NA
ATOM      7  C   UNL     1      43.504 132.352  18.404  1.00  0.00     0.140 A 
ATOM      8  N   UNL     1      45.018 131.194  17.402  1.00  0.00    -0.014 N 
ATOM      9  C   UNL     1      44.069 131.645  20.826  1.00  0.00     0.076 C 
ATOM     10  H   UNL     1      45.591 130.757  16.646  1.00  0.00     0.526 HD
BRANCH   7  11
ATOM     11  C   UNL     1      42.311 133.182  18.636  1.00  0.00     0.016 A 
ATOM     12  C   UNL     1      41.058 132.764  18.154  1.00  0.00     0.019 A 
ATOM     13  C   UNL     1      42.393 134.399  19.329  1.00  0.00     0.025 A 
ATOM     14  C   UNL     1      39.909 133.552  18.376  1.00  0.00    -0.017 A 
ATOM     15  C   UNL     1      41.288 135.172  19.542  1.00  0.00     0.024 A 
ATOM     16  C   UNL     1      43.612 135.083  19.818  1.00  0.00     0.301 C 
ATOM     17  C   UNL     1      38.657 133.140  17.892  1.00  0.00     0.009 A 
ATOM     18  C   UNL     1      40.020 134.778  19.083  1.00  0.00    -0.009 A 
ATOM     19  C   UNL     1      41.666 136.435  20.222  1.00  0.00     0.301 C 
ATOM     20  N   UNL     1      43.150 136.375  20.417  1.00  0.00    -0.321 N 
ATOM     21  C   UNL     1      37.528 133.938  18.098  1.00  0.00     0.001 A 
ATOM     22  C   UNL     1      38.876 135.569  19.283  1.00  0.00     0.009 A 
ATOM     23  C   UNL     1      37.639 135.148  18.788  1.00  0.00     0.001 A 
ATOM     24  C   UNL     1      43.805 137.519  19.740  1.00  0.00     0.334 C 
ATOM     25  C   UNL     1      43.478 136.418  21.862  1.00  0.00     0.334 C 
ENDBRANCH   7  11
ENDBRANCH   1   4
BRANCH   3  26
ATOM     26  O   UNL     1      44.373 134.720  16.448  1.00  0.00    -0.345 OA
ATOM     27  H   UNL     1      44.220 135.637  16.098  1.00  0.00     0.216 HD
ENDBRANCH   3  26
BRANCH   3  28
ATOM     28  N   UNL     1      42.907 134.472  14.499  1.00  0.00    -0.330 N 
ATOM     29  H   UNL     1      43.400 134.717  13.610  1.00  0.00     0.166 HD
BRANCH  28  30
ATOM     30  C   UNL     1      41.495 134.737  14.642  1.00  0.00     0.042 A 
ATOM     31  C   UNL     1      40.554 133.823  14.134  1.00  0.00     0.026 A 
ATOM     32  C   UNL     1      41.037 135.909  15.304  1.00  0.00    -0.010 A 
ATOM     33  C   UNL     1      39.190 134.062  14.261  1.00  0.00     0.004 A 
ATOM     34  C   UNL     1      39.643 136.135  15.426  1.00  0.00     0.057 A 
ATOM     35  C   UNL     1      38.736 135.216  14.890  1.00  0.00     0.020 A 
ATOM     36  C   UNL     1      42.040 136.891  15.868  1.00  0.00     0.048 C 
BRANCH  34  37
ATOM     37  C   UNL     1      39.109 137.299  16.095  1.00  0.00     0.099 C 
ATOM     38  N   UNL     1      38.682 138.232  16.630  1.00  0.00    -0.192 NA
ENDBRANCH  34  37
ENDBRANCH  28  30
ENDBRANCH   3  28
TORSDOF 6
ENDMDL


