REMARK SMILES C[C@](O)(C#CCOC(=O)Nc1cc(Cl)cc(OCc2nnn[nH]2)c1)c1ccc2ccccc2c1
REMARK SMILES IDX 7 1 6 2 5 3 4 4 2 5 1 6 3 7 25 9 26 10 34 11 27 12 33 13
REMARK SMILES IDX 28 14 32 15 29 16 31 17 30 18 8 19 10 20 9 21 11 23 12 24
REMARK SMILES IDX 24 25 13 26 16 27 15 28 14 29 17 30 18 31 19 32 20 33 23 34
REMARK SMILES IDX 21 35 22 36
REMARK H PARENT 3 8 10 22 23 37
ROOT
ATOM      1  O   UNL     1      -1.333   0.208   3.425  1.00  0.00    -0.436 OA
ENDROOT
BRANCH   1   2
ATOM      2  C   UNL     1      -1.302  -0.994   4.191  1.00  0.00     0.324 C 
BRANCH   2   3
ATOM      3  C   UNL     1      -0.869  -2.117   3.354  1.00  0.00    -0.058 C 
BRANCH   3   4
ATOM      4  C   UNL     1      -0.521  -3.032   2.651  1.00  0.00    -0.060 C 
BRANCH   4   5
ATOM      5  C   UNL     1      -0.099  -4.146   1.776  1.00  0.00     0.148 C 
ATOM      6  C   UNL     1      -1.057  -4.251   0.576  1.00  0.00     0.062 C 
BRANCH   5   7
ATOM      7  O   UNL     1      -0.142  -5.342   2.520  1.00  0.00    -0.374 OA
ATOM      8  H   UNL     1      -1.077  -5.486   2.829  1.00  0.00     0.213 HD
ENDBRANCH   5   7
BRANCH   5   9
ATOM      9  C   UNL     1       1.319  -3.893   1.266  1.00  0.00    -0.004 A 
ATOM     10  C   UNL     1       1.666  -2.637   0.723  1.00  0.00     0.008 A 
ATOM     11  C   UNL     1       2.284  -4.922   1.253  1.00  0.00     0.016 A 
ATOM     12  C   UNL     1       2.947  -2.400   0.222  1.00  0.00     0.009 A 
ATOM     13  C   UNL     1       3.574  -4.690   0.751  1.00  0.00    -0.018 A 
ATOM     14  C   UNL     1       3.909  -3.417   0.235  1.00  0.00    -0.018 A 
ATOM     15  C   UNL     1       4.537  -5.713   0.755  1.00  0.00     0.009 A 
ATOM     16  C   UNL     1       5.201  -3.187  -0.266  1.00  0.00     0.009 A 
ATOM     17  C   UNL     1       5.819  -5.471   0.255  1.00  0.00     0.001 A 
ATOM     18  C   UNL     1       6.150  -4.213  -0.254  1.00  0.00     0.001 A 
ENDBRANCH   5   9
ENDBRANCH   4   5
ENDBRANCH   3   4
ENDBRANCH   2   3
ENDBRANCH   1   2
BRANCH   1  19
ATOM     19  C   UNL     1      -2.244   0.432   2.386  1.00  0.00     0.412 C 
ATOM     20  N   UNL     1      -2.159   1.649   1.634  1.00  0.00    -0.291 N 
ATOM     21  O   UNL     1      -3.147  -0.414   2.136  1.00  0.00    -0.224 OA
ATOM     22  H   UNL     1      -1.609   2.435   2.049  1.00  0.00     0.173 HD
BRANCH  20  23
ATOM     23  C   UNL     1      -2.840   1.873   0.387  1.00  0.00     0.049 A 
ATOM     24  C   UNL     1      -3.032   0.832  -0.538  1.00  0.00     0.047 A 
ATOM     25  C   UNL     1      -3.270   3.168   0.061  1.00  0.00     0.072 A 
ATOM     26  C   UNL     1      -3.676   1.077  -1.754  1.00  0.00     0.046 A 
ATOM     27  C   UNL     1      -3.925   3.419  -1.161  1.00  0.00     0.123 A 
ATOM     28  C   UNL     1      -4.124   2.365  -2.060  1.00  0.00     0.067 A 
ATOM     29  Cl  UNL     1      -3.915  -0.229  -2.899  1.00  0.00    -0.084 Cl
BRANCH  27  30
ATOM     30  O   UNL     1      -4.394   4.692  -1.517  1.00  0.00    -0.485 OA
BRANCH  30  31
ATOM     31  C   UNL     1      -4.288   5.849  -0.693  1.00  0.00     0.308 C 
BRANCH  31  32
ATOM     32  C   UNL     1      -4.933   7.003  -1.385  1.00  0.00     0.186 A 
ATOM     33  N   UNL     1      -6.246   7.293  -1.322  1.00  0.00    -0.110 NA
ATOM     34  N   UNL     1      -4.310   7.836  -2.232  1.00  0.00    -0.240 N 
ATOM     35  N   UNL     1      -6.403   8.331  -2.132  1.00  0.00    -0.024 NA
ATOM     36  N   UNL     1      -5.241   8.658  -2.681  1.00  0.00    -0.048 NA
ATOM     37  H   UNL     1      -3.303   7.848  -2.506  1.00  0.00     0.194 HD
ENDBRANCH  31  32
ENDBRANCH  30  31
ENDBRANCH  27  30
ENDBRANCH  20  23
ENDBRANCH   1  19
TORSDOF 11


