REMARK SMILES Cc1[nH+]nn([C@@H]2O[C@@]2(O)Nc2cccc(C#N)c2C)c1-c1cc2ccccc2c2c1C[N+](C)(C)C2
REMARK SMILES IDX 6 1 7 2 8 3 5 4 2 5 3 6 20 7 4 8 1 9 21 11 22 12 30 13 23 14
REMARK SMILES IDX 29 15 31 16 24 17 28 18 35 19 32 20 25 21 27 22 26 23 33 24
REMARK SMILES IDX 34 25 9 26 10 28 11 30 12 31 18 32 13 33 15 34 14 35 19 36
REMARK SMILES IDX 16 37 17 38
REMARK H PARENT 3 10 9 27 10 29
ROOT
ATOM      1  C   UNL     1      -0.156   3.000  -1.478  1.00  0.00     0.428 C 
ATOM      2  O   UNL     1       0.012   3.375  -2.830  1.00  0.00    -0.275 OA
ATOM      3  C   UNL     1       0.135   2.005  -2.525  1.00  0.00     0.323 C 
ENDROOT
BRANCH   1   4
ATOM      4  N   UNL     1      -1.553   3.053  -1.062  1.00  0.00    -0.092 N 
ATOM      5  C   UNL     1      -3.459   2.700  -0.038  1.00  0.00     0.170 A 
ATOM      6  N   UNL     1      -3.570   3.801  -0.808  1.00  0.00    -0.147 N 
ATOM      7  C   UNL     1      -2.172   2.214  -0.204  1.00  0.00     0.204 A 
ATOM      8  N   UNL     1      -2.406   4.004  -1.409  1.00  0.00     0.091 NA
ATOM      9  C   UNL     1      -4.525   2.211   0.888  1.00  0.00     0.100 C 
ATOM     10  H   UNL     1      -4.403   4.423  -0.899  1.00  0.00     0.342 HD
BRANCH   7  11
ATOM     11  C   UNL     1      -1.528   1.073   0.477  1.00  0.00     0.038 A 
ATOM     12  C   UNL     1      -0.375   1.287   1.255  1.00  0.00     0.022 A 
ATOM     13  C   UNL     1      -1.986  -0.245   0.314  1.00  0.00     0.027 A 
ATOM     14  C   UNL     1       0.294   0.205   1.859  1.00  0.00    -0.017 A 
ATOM     15  C   UNL     1      -1.349  -1.300   0.905  1.00  0.00     0.024 A 
ATOM     16  C   UNL     1      -3.109  -0.727  -0.528  1.00  0.00     0.301 C 
ATOM     17  C   UNL     1       1.462   0.418   2.606  1.00  0.00     0.009 A 
ATOM     18  C   UNL     1      -0.203  -1.114   1.696  1.00  0.00    -0.009 A 
ATOM     19  C   UNL     1      -2.009  -2.576   0.532  1.00  0.00     0.301 C 
ATOM     20  N   UNL     1      -3.054  -2.222  -0.479  1.00  0.00    -0.321 N 
ATOM     21  C   UNL     1       2.132  -0.663   3.185  1.00  0.00     0.001 A 
ATOM     22  C   UNL     1       0.472  -2.190   2.296  1.00  0.00     0.009 A 
ATOM     23  C   UNL     1       1.637  -1.960   3.035  1.00  0.00     0.001 A 
ATOM     24  C   UNL     1      -2.682  -2.764  -1.809  1.00  0.00     0.334 C 
ATOM     25  C   UNL     1      -4.369  -2.782  -0.086  1.00  0.00     0.334 C 
ENDBRANCH   7  11
ENDBRANCH   1   4
BRANCH   3  26
ATOM     26  O   UNL     1      -0.897   1.246  -3.091  1.00  0.00    -0.343 OA
ATOM     27  H   UNL     1      -0.679   1.176  -4.056  1.00  0.00     0.216 HD
ENDBRANCH   3  26
BRANCH   3  28
ATOM     28  N   UNL     1       1.505   1.512  -2.637  1.00  0.00    -0.328 N 
ATOM     29  H   UNL     1       2.181   2.081  -3.195  1.00  0.00     0.166 HD
BRANCH  28  30
ATOM     30  C   UNL     1       1.986   0.419  -1.834  1.00  0.00     0.043 A 
ATOM     31  C   UNL     1       1.177  -0.715  -1.646  1.00  0.00     0.026 A 
ATOM     32  C   UNL     1       3.284   0.452  -1.264  1.00  0.00    -0.010 A 
ATOM     33  C   UNL     1       1.652  -1.816  -0.939  1.00  0.00     0.004 A 
ATOM     34  C   UNL     1       3.754  -0.679  -0.549  1.00  0.00     0.057 A 
ATOM     35  C   UNL     1       2.930  -1.799  -0.390  1.00  0.00     0.020 A 
ATOM     36  C   UNL     1       4.154   1.677  -1.446  1.00  0.00     0.048 C 
BRANCH  34  37
ATOM     37  C   UNL     1       5.085  -0.731   0.010  1.00  0.00     0.099 C 
ATOM     38  N   UNL     1       6.152  -0.775   0.455  1.00  0.00    -0.192 NA
ENDBRANCH  34  37
ENDBRANCH  28  30
ENDBRANCH   3  28
TORSDOF 6


