REMARK SMILES C#Cc1ccc(-n2cc(CCCCN(C)[C@@H](C)C#N)n[nH+]2)cc(N=C=O)ccc2ccccc12
REMARK SMILES IDX 11 1 10 2 9 3 7 4 8 5 21 6 20 7 6 9 3 10 4 11 34 12 5 13
REMARK SMILES IDX 33 14 29 15 32 16 28 17 30 18 22 19 31 20 27 21 23 22 2 23
REMARK SMILES IDX 1 24 24 25 25 26 26 27 12 28 13 29 14 30 15 31 16 32 17 33
REMARK SMILES IDX 18 34 19 35
REMARK H PARENT 21 8
ROOT
ATOM      1  C   UNL     1       1.511   3.518   0.099  1.00  0.00     0.008 C 
ENDROOT
BRANCH   1   2
ATOM      2  C   UNL     1       0.312   4.298   0.657  1.00  0.00     0.065 C 
BRANCH   2   3
ATOM      3  C   UNL     1      -0.952   3.493   0.628  1.00  0.00     0.132 A 
ATOM      4  N   UNL     1      -2.582   2.143   1.159  1.00  0.00    -0.104 N 
ATOM      5  C   UNL     1      -1.442   2.682   1.630  1.00  0.00     0.190 A 
ATOM      6  N   UNL     1      -2.767   2.610  -0.069  1.00  0.00    -0.012 N 
ATOM      7  N   UNL     1      -1.791   3.431  -0.425  1.00  0.00     0.020 NA
ATOM      8  H   UNL     1      -3.579   2.380  -0.681  1.00  0.00     0.527 HD
BRANCH   4   9
ATOM      9  C   UNL     1      -3.456   1.218   1.837  1.00  0.00     0.109 A 
ATOM     10  C   UNL     1      -2.571  -0.724  -0.334  1.00  0.00     0.032 A 
ATOM     11  C   UNL     1      -3.899  -0.337  -0.041  1.00  0.00     0.020 A 
ATOM     12  C   UNL     1      -1.522  -0.793   0.629  1.00  0.00    -0.003 A 
ATOM     13  C   UNL     1      -4.306   0.382   1.093  1.00  0.00     0.034 A 
ATOM     14  C   UNL     1      -0.211  -0.440   0.237  1.00  0.00     0.010 A 
ATOM     15  C   UNL     1      -1.755  -1.089   2.008  1.00  0.00    -0.017 A 
ATOM     16  C   UNL     1       0.796  -0.253   1.184  1.00  0.00     0.001 A 
ATOM     17  C   UNL     1      -2.932  -1.725   2.439  1.00  0.00     0.011 A 
ATOM     18  C   UNL     1      -0.747  -0.821   2.953  1.00  0.00     0.009 A 
ATOM     19  C   UNL     1      -3.456   1.166   3.244  1.00  0.00     0.061 A 
ATOM     20  C   UNL     1       0.520  -0.406   2.540  1.00  0.00     0.001 A 
ATOM     21  C   UNL     1      -3.704  -1.301   3.533  1.00  0.00     0.030 A 
ATOM     22  C   UNL     1      -3.779   0.022   4.022  1.00  0.00     0.079 A 
BRANCH  10  23
ATOM     23  C   UNL     1      -2.291  -1.062  -1.712  1.00  0.00    -0.070 C 
ATOM     24  C   UNL     1      -2.054  -1.339  -2.860  1.00  0.00     0.010 C 
ENDBRANCH  10  23
BRANCH  22  25
ATOM     25  N   UNL     1      -4.217   0.171   5.382  1.00  0.00    -0.168 NA
BRANCH  25  26
ATOM     26  C   UNL     1      -4.346   1.291   5.975  1.00  0.00     0.240 C 
ATOM     27  O   UNL     1      -4.471   2.379   6.551  1.00  0.00    -0.211 OA
ENDBRANCH  25  26
ENDBRANCH  22  25
ENDBRANCH   4   9
ENDBRANCH   2   3
ENDBRANCH   1   2
BRANCH   1  28
ATOM     28  C   UNL     1       1.350   3.172  -1.393  1.00  0.00     0.016 C 
BRANCH  28  29
ATOM     29  C   UNL     1       2.680   2.748  -2.024  1.00  0.00     0.085 C 
BRANCH  29  30
ATOM     30  N   UNL     1       3.184   1.507  -1.391  1.00  0.00    -0.291 NA
ATOM     31  C   UNL     1       2.751   0.308  -2.143  1.00  0.00     0.106 C 
BRANCH  30  32
ATOM     32  C   UNL     1       4.649   1.557  -1.140  1.00  0.00     0.157 C 
ATOM     33  C   UNL     1       5.101   0.426  -0.208  1.00  0.00     0.041 C 
BRANCH  32  34
ATOM     34  C   UNL     1       5.435   1.542  -2.393  1.00  0.00     0.081 C 
ATOM     35  N   UNL     1       6.044   1.524  -3.377  1.00  0.00    -0.197 NA
ENDBRANCH  32  34
ENDBRANCH  30  32
ENDBRANCH  29  30
ENDBRANCH  28  29
ENDBRANCH   1  28
TORSDOF 11


