REMARK SMILES C[C@H](Cl)[C@@H]1[C@H](C)N(C(=O)OCC(F)F)NN1c1ccc2c3c(ccc(N)c13)CC2
REMARK SMILES IDX 8 1 9 2 7 3 4 4 5 5 16 6 15 7 6 8 2 10 1 11 3 12 17 13 18 14
REMARK SMILES IDX 27 15 19 16 25 17 21 18 20 19 24 20 22 21 29 22 23 23 28 24
REMARK SMILES IDX 26 25 10 28 11 29 12 30 13 31 14 32
REMARK H PARENT 15 9 26 26 26 27
ROOT
ATOM      1  C   UNL     1       1.522  -3.117  -0.586  1.00  0.00     0.426 C 
ATOM      2  O   UNL     1       2.582  -3.719  -0.909  1.00  0.00    -0.223 OA
ENDROOT
BRANCH   1   3
ATOM      3  N   UNL     1       1.423  -1.696  -0.748  1.00  0.00    -0.220 N 
ATOM      4  C   UNL     1       2.052   0.543  -0.895  1.00  0.00     0.144 C 
ATOM      5  C   UNL     1       2.435  -0.870  -1.389  1.00  0.00     0.131 C 
ATOM      6  N   UNL     1       0.639   0.362  -0.519  1.00  0.00    -0.283 N 
ATOM      7  N   UNL     1       0.270  -0.988  -0.383  1.00  0.00    -0.139 NA
ATOM      8  C   UNL     1       2.311  -1.085  -2.911  1.00  0.00     0.035 C 
ATOM      9  H   UNL     1       0.094  -1.163   0.632  1.00  0.00     0.175 HD
BRANCH   4  10
ATOM     10  C   UNL     1       2.373   1.719  -1.872  1.00  0.00     0.104 C 
ATOM     11  C   UNL     1       3.886   1.842  -2.111  1.00  0.00     0.027 C 
ATOM     12  Cl  UNL     1       1.866   3.307  -1.220  1.00  0.00    -0.121 Cl
ENDBRANCH   4  10
BRANCH   6  13
ATOM     13  C   UNL     1      -0.393   1.348  -0.630  1.00  0.00     0.064 A 
ATOM     14  C   UNL     1      -1.164   1.361  -1.820  1.00  0.00     0.028 A 
ATOM     15  C   UNL     1      -0.671   2.299   0.402  1.00  0.00     0.030 A 
ATOM     16  C   UNL     1      -2.173   2.316  -2.024  1.00  0.00     0.006 A 
ATOM     17  C   UNL     1      -0.002   2.443   1.658  1.00  0.00     0.042 A 
ATOM     18  C   UNL     1      -1.678   3.234   0.123  1.00  0.00    -0.008 A 
ATOM     19  C   UNL     1      -2.406   3.256  -1.026  1.00  0.00    -0.039 A 
ATOM     20  C   UNL     1      -0.346   3.525   2.508  1.00  0.00     0.026 A 
ATOM     21  C   UNL     1      -2.022   4.257   0.951  1.00  0.00    -0.039 A 
ATOM     22  C   UNL     1      -3.378   4.394  -1.017  1.00  0.00     0.041 C 
ATOM     23  C   UNL     1      -1.359   4.435   2.159  1.00  0.00     0.006 A 
ATOM     24  C   UNL     1      -3.110   5.087   0.346  1.00  0.00     0.041 C 
BRANCH  17  25
ATOM     25  N   UNL     1       1.000   1.528   2.115  1.00  0.00    -0.398 N 
ATOM     26  H   UNL     1       0.966   0.515   1.887  1.00  0.00     0.156 HD
ATOM     27  H   UNL     1       1.652   1.808   2.882  1.00  0.00     0.156 HD
ENDBRANCH  17  25
ENDBRANCH   6  13
ENDBRANCH   1   3
BRANCH   1  28
ATOM     28  O   UNL     1       0.438  -3.827  -0.061  1.00  0.00    -0.442 OA
BRANCH  28  29
ATOM     29  C   UNL     1       0.464  -5.237   0.132  1.00  0.00     0.308 C 
BRANCH  29  30
ATOM     30  C   UNL     1      -0.864  -5.698   0.716  1.00  0.00     0.379 C 
ATOM     31  F   UNL     1      -1.075  -5.094   1.942  1.00  0.00    -0.207 F 
ATOM     32  F   UNL     1      -0.849  -7.071   0.881  1.00  0.00    -0.207 F 
ENDBRANCH  29  30
ENDBRANCH  28  29
ENDBRANCH   1  28
TORSDOF 7


