REMARK SMILES C#C/C(N=[N+]=[N-])=N/[C@H](c1c(C)nnn1-c1c2ccccc2c(C(=O)N=[N+]=[N-])c2ccccc12)C(C)C
REMARK SMILES IDX 9 1 10 2 11 3 12 4 13 5 14 6 8 7 7 8 3 9 2 10 1 11 4 12 5 13
REMARK SMILES IDX 6 14 34 15 35 16 36 17 15 18 16 19 33 20 17 21 21 22 32 23
REMARK SMILES IDX 28 24 18 25 20 26 22 27 31 28 29 29 19 30 30 31 23 32 24 33
REMARK SMILES IDX 25 34 26 35 27 36
REMARK H PARENT
ROOT
ATOM      1  C   UNL     1      -1.190   1.333  -1.149  1.00  0.00     0.092 A 
ATOM      2  C   UNL     1      -2.445   1.889  -1.320  1.00  0.00     0.086 A 
ATOM      3  C   UNL     1      -2.772   3.254  -1.831  1.00  0.00     0.071 C 
ATOM      4  N   UNL     1      -3.367   0.990  -0.922  1.00  0.00    -0.135 NA
ATOM      5  N   UNL     1      -2.707  -0.087  -0.521  1.00  0.00    -0.062 NA
ATOM      6  N   UNL     1      -1.402   0.093  -0.652  1.00  0.00    -0.214 N 
ENDROOT
BRANCH   1   7
ATOM      7  C   UNL     1       0.144   1.974  -1.496  1.00  0.00     0.160 C 
BRANCH   7   8
ATOM      8  N   UNL     1       1.078   1.841  -0.375  1.00  0.00    -0.265 NA
BRANCH   8   9
ATOM      9  C   UNL     1       1.012   2.519   0.731  1.00  0.00     0.172 C 
BRANCH   9  10
ATOM     10  C   UNL     1       2.015   2.289   1.740  1.00  0.00    -0.049 C 
ATOM     11  C   UNL     1       2.853   2.092   2.584  1.00  0.00     0.011 C 
ENDBRANCH   9  10
BRANCH   9  12
ATOM     12  N   UNL     1      -0.043   3.467   0.947  1.00  0.00    -0.032 NA
BRANCH  12  13
ATOM     13  N   UNL     1      -0.147   4.090   2.004  1.00  0.00     0.008 N 
ATOM     14  N   UNL     1      -0.252   4.713   3.059  1.00  0.00    -0.003 NA
ENDBRANCH  12  13
ENDBRANCH   9  12
ENDBRANCH   8   9
ENDBRANCH   7   8
BRANCH   7  15
ATOM     15  C   UNL     1       0.776   1.369  -2.776  1.00  0.00     0.014 C 
ATOM     16  C   UNL     1       2.115   2.051  -3.103  1.00  0.00     0.010 C 
ATOM     17  C   UNL     1      -0.160   1.488  -3.990  1.00  0.00     0.010 C 
ENDBRANCH   7  15
ENDBRANCH   1   7
BRANCH   6  18
ATOM     18  C   UNL     1      -0.428  -0.885  -0.252  1.00  0.00     0.082 A 
ATOM     19  C   UNL     1       0.047  -0.900   1.077  1.00  0.00     0.009 A 
ATOM     20  C   UNL     1       0.025  -1.850  -1.174  1.00  0.00     0.009 A 
ATOM     21  C   UNL     1      -0.492  -0.023   2.043  1.00  0.00     0.011 A 
ATOM     22  C   UNL     1       1.076  -1.803   1.455  1.00  0.00    -0.005 A 
ATOM     23  C   UNL     1      -0.539  -1.930  -2.465  1.00  0.00     0.011 A 
ATOM     24  C   UNL     1       1.051  -2.761  -0.805  1.00  0.00    -0.005 A 
ATOM     25  C   UNL     1      -0.003  -0.011   3.347  1.00  0.00     0.001 A 
ATOM     26  C   UNL     1       1.573  -1.749   2.779  1.00  0.00     0.009 A 
ATOM     27  C   UNL     1       1.593  -2.722   0.505  1.00  0.00     0.040 A 
ATOM     28  C   UNL     1      -0.082  -2.869  -3.386  1.00  0.00     0.001 A 
ATOM     29  C   UNL     1       1.490  -3.710  -1.758  1.00  0.00     0.009 A 
ATOM     30  C   UNL     1       1.033  -0.864   3.711  1.00  0.00     0.001 A 
ATOM     31  C   UNL     1       0.931  -3.755  -3.035  1.00  0.00     0.001 A 
BRANCH  27  32
ATOM     32  C   UNL     1       2.675  -3.658   0.888  1.00  0.00     0.250 C 
ATOM     33  O   UNL     1       3.820  -3.536   0.372  1.00  0.00    -0.287 OA
BRANCH  32  34
ATOM     34  N   UNL     1       2.411  -4.700   1.831  1.00  0.00    -0.017 NA
BRANCH  34  35
ATOM     35  N   UNL     1       3.291  -5.493   2.168  1.00  0.00     0.009 N 
ATOM     36  N   UNL     1       4.168  -6.286   2.506  1.00  0.00    -0.003 NA
ENDBRANCH  34  35
ENDBRANCH  32  34
ENDBRANCH  27  32
ENDBRANCH   6  18
TORSDOF 11


