MODEL 1
REMARK VINA RESULT:      -6.0      0.000      0.000
REMARK SMILES C[N+]1(C)Cc2cc3ccc(-n4cc(CCn5cc(C[NH3+])c[nH+]5)n[nH+]4)cc3cc2C1
REMARK SMILES IDX 15 1 14 2 13 3 11 4 12 5 24 6 23 7 10 9 2 10 4 11 29 12 5 13
REMARK SMILES IDX 28 14 6 15 27 16 7 17 26 18 8 19 25 20 9 21 1 22 3 23 16 24
REMARK SMILES IDX 17 25 22 26 18 27 21 28 19 30 20 31
REMARK H PARENT 24 8 22 29 20 32 20 33 20 34
ROOT
ATOM      1  C   UNL     1      38.517 136.981  13.299  1.00  0.00     0.196 C 
ENDROOT
BRANCH   1   2
ATOM      2  C   UNL     1      38.314 135.753  14.194  1.00  0.00     0.092 C 
BRANCH   2   3
ATOM      3  C   UNL     1      39.598 135.013  14.405  1.00  0.00     0.134 A 
ATOM      4  N   UNL     1      41.210 133.892  15.360  1.00  0.00    -0.104 N 
ATOM      5  C   UNL     1      40.180 134.719  15.621  1.00  0.00     0.190 A 
ATOM      6  N   UNL     1      41.247 133.702  14.048  1.00  0.00    -0.012 N 
ATOM      7  N   UNL     1      40.273 134.360  13.437  1.00  0.00     0.020 NA
ATOM      8  H   UNL     1      41.944 133.110  13.545  1.00  0.00     0.527 HD
BRANCH   4   9
ATOM      9  C   UNL     1      42.067 133.251  16.324  1.00  0.00     0.107 A 
ATOM     10  N   UNL     1      44.166 131.187  22.846  1.00  0.00    -0.321 N 
ATOM     11  C   UNL     1      45.057 130.991  21.659  1.00  0.00     0.301 C 
ATOM     12  C   UNL     1      43.017 132.030  22.383  1.00  0.00     0.301 C 
ATOM     13  C   UNL     1      44.300 131.514  20.501  1.00  0.00     0.016 A 
ATOM     14  C   UNL     1      43.142 132.101  20.912  1.00  0.00     0.016 A 
ATOM     15  C   UNL     1      44.664 131.479  19.154  1.00  0.00     0.018 A 
ATOM     16  C   UNL     1      42.262 132.695  20.006  1.00  0.00     0.019 A 
ATOM     17  C   UNL     1      43.801 132.063  18.207  1.00  0.00    -0.018 A 
ATOM     18  C   UNL     1      42.588 132.673  18.636  1.00  0.00    -0.016 A 
ATOM     19  C   UNL     1      44.127 132.057  16.846  1.00  0.00     0.011 A 
ATOM     20  C   UNL     1      41.734 133.257  17.690  1.00  0.00     0.041 A 
ATOM     21  C   UNL     1      43.270 132.647  15.915  1.00  0.00     0.033 A 
ATOM     22  C   UNL     1      44.896 131.859  23.944  1.00  0.00     0.334 C 
ATOM     23  C   UNL     1      43.670 129.877  23.331  1.00  0.00     0.334 C 
ENDBRANCH   4   9
ENDBRANCH   2   3
ENDBRANCH   1   2
BRANCH   1  24
ATOM     24  N   UNL     1      38.264 136.653  11.895  1.00  0.00    -0.162 N 
ATOM     25  C   UNL     1      38.536 137.446  10.840  1.00  0.00     0.166 A 
ATOM     26  N   UNL     1      37.895 135.458  11.462  1.00  0.00    -0.130 N 
ATOM     27  C   UNL     1      38.314 136.714   9.689  1.00  0.00     0.094 A 
ATOM     28  C   UNL     1      37.919 135.459  10.117  1.00  0.00     0.344 A 
ATOM     29  H   UNL     1      37.678 134.641  12.074  1.00  0.00     0.488 HD
BRANCH  27  30
ATOM     30  C   UNL     1      38.627 137.131   8.284  1.00  0.00     0.303 C 
BRANCH  30  31
ATOM     31  N   UNL     1      37.557 136.722   7.375  1.00  0.00    -0.354 N 
ATOM     32  H   UNL     1      37.516 135.679   7.320  1.00  0.00     0.344 HD
ATOM     33  H   UNL     1      37.753 137.103   6.422  1.00  0.00     0.344 HD
ATOM     34  H   UNL     1      36.637 137.096   7.708  1.00  0.00     0.344 HD
ENDBRANCH  30  31
ENDBRANCH  27  30
ENDBRANCH   1  24
TORSDOF 6
ENDMDL
MODEL 2
REMARK VINA RESULT:      -5.6      5.207      7.717
REMARK SMILES C[N+]1(C)Cc2cc3ccc(-n4cc(CCn5cc(C[NH3+])c[nH+]5)n[nH+]4)cc3cc2C1
REMARK SMILES IDX 15 1 14 2 13 3 11 4 12 5 24 6 23 7 10 9 2 10 4 11 29 12 5 13
REMARK SMILES IDX 28 14 6 15 27 16 7 17 26 18 8 19 25 20 9 21 1 22 3 23 16 24
REMARK SMILES IDX 17 25 22 26 18 27 21 28 19 30 20 31
REMARK H PARENT 24 8 22 29 20 32 20 33 20 34
ROOT
ATOM      1  C   UNL     1      38.091 138.941  18.226  1.00  0.00     0.196 C 
ENDROOT
BRANCH   1   2
ATOM      2  C   UNL     1      37.318 137.638  17.989  1.00  0.00     0.092 C 
BRANCH   2   3
ATOM      3  C   UNL     1      38.159 136.629  17.271  1.00  0.00     0.134 A 
ATOM      4  N   UNL     1      39.874 135.438  16.635  1.00  0.00    -0.104 N 
ATOM      5  C   UNL     1      39.537 136.602  17.220  1.00  0.00     0.190 A 
ATOM      6  N   UNL     1      38.750 134.796  16.345  1.00  0.00    -0.012 N 
ATOM      7  N   UNL     1      37.687 135.488  16.728  1.00  0.00     0.020 NA
ATOM      8  H   UNL     1      38.693 133.865  15.878  1.00  0.00     0.527 HD
BRANCH   4   9
ATOM      9  C   UNL     1      41.206 134.926  16.437  1.00  0.00     0.107 A 
ATOM     10  N   UNL     1      46.163 130.397  13.962  1.00  0.00    -0.321 N 
ATOM     11  C   UNL     1      46.531 131.478  14.931  1.00  0.00     0.301 C 
ATOM     12  C   UNL     1      44.667 130.387  13.883  1.00  0.00     0.301 C 
ATOM     13  C   UNL     1      45.277 132.213  15.204  1.00  0.00     0.016 A 
ATOM     14  C   UNL     1      44.220 131.595  14.608  1.00  0.00     0.016 A 
ATOM     15  C   UNL     1      45.110 133.364  15.976  1.00  0.00     0.018 A 
ATOM     16  C   UNL     1      42.919 132.083  14.738  1.00  0.00     0.019 A 
ATOM     17  C   UNL     1      43.813 133.891  16.128  1.00  0.00    -0.018 A 
ATOM     18  C   UNL     1      42.709 133.247  15.502  1.00  0.00    -0.016 A 
ATOM     19  C   UNL     1      43.597 135.040  16.898  1.00  0.00     0.011 A 
ATOM     20  C   UNL     1      41.419 133.773  15.660  1.00  0.00     0.041 A 
ATOM     21  C   UNL     1      42.306 135.550  17.052  1.00  0.00     0.033 A 
ATOM     22  C   UNL     1      46.669 129.085  14.425  1.00  0.00     0.334 C 
ATOM     23  C   UNL     1      46.740 130.691  12.629  1.00  0.00     0.334 C 
ENDBRANCH   4   9
ENDBRANCH   2   3
ENDBRANCH   1   2
BRANCH   1  24
ATOM     24  N   UNL     1      38.717 138.945  19.548  1.00  0.00    -0.162 N 
ATOM     25  C   UNL     1      38.167 138.467  20.682  1.00  0.00     0.166 A 
ATOM     26  N   UNL     1      39.983 139.260  19.774  1.00  0.00    -0.130 N 
ATOM     27  C   UNL     1      39.134 138.496  21.669  1.00  0.00     0.094 A 
ATOM     28  C   UNL     1      40.273 138.994  21.060  1.00  0.00     0.344 A 
ATOM     29  H   UNL     1      40.652 139.606  19.050  1.00  0.00     0.488 HD
BRANCH  27  30
ATOM     30  C   UNL     1      39.026 137.925  23.050  1.00  0.00     0.303 C 
BRANCH  30  31
ATOM     31  N   UNL     1      40.341 137.869  23.688  1.00  0.00    -0.354 N 
ATOM     32  H   UNL     1      40.778 136.934  23.523  1.00  0.00     0.344 HD
ATOM     33  H   UNL     1      40.229 138.011  24.718  1.00  0.00     0.344 HD
ATOM     34  H   UNL     1      40.960 138.622  23.307  1.00  0.00     0.344 HD
ENDBRANCH  30  31
ENDBRANCH  27  30
ENDBRANCH   1  24
TORSDOF 6
ENDMDL
MODEL 3
REMARK VINA RESULT:      -5.5      5.002      8.691
REMARK SMILES C[N+]1(C)Cc2cc3ccc(-n4cc(CCn5cc(C[NH3+])c[nH+]5)n[nH+]4)cc3cc2C1
REMARK SMILES IDX 15 1 14 2 13 3 11 4 12 5 24 6 23 7 10 9 2 10 4 11 29 12 5 13
REMARK SMILES IDX 28 14 6 15 27 16 7 17 26 18 8 19 25 20 9 21 1 22 3 23 16 24
REMARK SMILES IDX 17 25 22 26 18 27 21 28 19 30 20 31
REMARK H PARENT 24 8 22 29 20 32 20 33 20 34
ROOT
ATOM      1  C   UNL     1      38.902 135.516  21.543  1.00  0.00     0.196 C 
ENDROOT
BRANCH   1   2
ATOM      2  C   UNL     1      38.303 134.400  20.678  1.00  0.00     0.092 C 
BRANCH   2   3
ATOM      3  C   UNL     1      39.042 134.258  19.384  1.00  0.00     0.134 A 
ATOM      4  N   UNL     1      40.641 133.908  17.940  1.00  0.00    -0.104 N 
ATOM      5  C   UNL     1      40.412 134.238  19.225  1.00  0.00     0.190 A 
ATOM      6  N   UNL     1      39.463 133.742  17.354  1.00  0.00    -0.012 N 
ATOM      7  N   UNL     1      38.468 133.936  18.207  1.00  0.00     0.020 NA
ATOM      8  H   UNL     1      39.320 133.487  16.352  1.00  0.00     0.527 HD
BRANCH   4   9
ATOM      9  C   UNL     1      41.923 133.684  17.322  1.00  0.00     0.107 A 
ATOM     10  N   UNL     1      46.771 130.133  13.437  1.00  0.00    -0.321 N 
ATOM     11  C   UNL     1      47.158 131.357  14.208  1.00  0.00     0.301 C 
ATOM     12  C   UNL     1      45.375 129.787  13.857  1.00  0.00     0.301 C 
ATOM     13  C   UNL     1      45.918 131.822  14.866  1.00  0.00     0.016 A 
ATOM     14  C   UNL     1      44.906 130.933  14.665  1.00  0.00     0.016 A 
ATOM     15  C   UNL     1      45.734 132.978  15.627  1.00  0.00     0.018 A 
ATOM     16  C   UNL     1      43.637 131.134  15.209  1.00  0.00     0.019 A 
ATOM     17  C   UNL     1      44.466 133.220  16.190  1.00  0.00    -0.018 A 
ATOM     18  C   UNL     1      43.407 132.293  15.976  1.00  0.00    -0.016 A 
ATOM     19  C   UNL     1      44.237 134.363  16.965  1.00  0.00     0.011 A 
ATOM     20  C   UNL     1      42.148 132.536  16.541  1.00  0.00     0.041 A 
ATOM     21  C   UNL     1      42.979 134.591  17.527  1.00  0.00     0.033 A 
ATOM     22  C   UNL     1      47.696 129.015  13.732  1.00  0.00     0.334 C 
ATOM     23  C   UNL     1      46.808 130.415  11.983  1.00  0.00     0.334 C 
ENDBRANCH   4   9
ENDBRANCH   2   3
ENDBRANCH   1   2
BRANCH   1  24
ATOM     24  N   UNL     1      40.160 135.087  22.154  1.00  0.00    -0.162 N 
ATOM     25  C   UNL     1      40.358 133.933  22.822  1.00  0.00     0.166 A 
ATOM     26  N   UNL     1      41.321 135.698  21.980  1.00  0.00    -0.130 N 
ATOM     27  C   UNL     1      41.709 133.823  23.089  1.00  0.00     0.094 A 
ATOM     28  C   UNL     1      42.291 134.950  22.536  1.00  0.00     0.344 A 
ATOM     29  H   UNL     1      41.456 136.587  21.448  1.00  0.00     0.488 HD
BRANCH  27  30
ATOM     30  C   UNL     1      42.416 132.640  23.677  1.00  0.00     0.303 C 
BRANCH  30  31
ATOM     31  N   UNL     1      41.634 131.420  23.476  1.00  0.00    -0.354 N 
ATOM     32  H   UNL     1      40.619 131.659  23.386  1.00  0.00     0.344 HD
ATOM     33  H   UNL     1      41.760 130.792  24.301  1.00  0.00     0.344 HD
ATOM     34  H   UNL     1      41.958 130.920  22.615  1.00  0.00     0.344 HD
ENDBRANCH  30  31
ENDBRANCH  27  30
ENDBRANCH   1  24
TORSDOF 6
ENDMDL
MODEL 4
REMARK VINA RESULT:      -5.5      5.011      7.609
REMARK SMILES C[N+]1(C)Cc2cc3ccc(-n4cc(CCn5cc(C[NH3+])c[nH+]5)n[nH+]4)cc3cc2C1
REMARK SMILES IDX 15 1 14 2 13 3 11 4 12 5 24 6 23 7 10 9 2 10 4 11 29 12 5 13
REMARK SMILES IDX 28 14 6 15 27 16 7 17 26 18 8 19 25 20 9 21 1 22 3 23 16 24
REMARK SMILES IDX 17 25 22 26 18 27 21 28 19 30 20 31
REMARK H PARENT 24 8 22 29 20 32 20 33 20 34
ROOT
ATOM      1  C   UNL     1      37.360 136.536  19.755  1.00  0.00     0.196 C 
ENDROOT
BRANCH   1   2
ATOM      2  C   UNL     1      37.564 136.348  18.247  1.00  0.00     0.092 C 
BRANCH   2   3
ATOM      3  C   UNL     1      38.411 135.149  17.957  1.00  0.00     0.134 A 
ATOM      4  N   UNL     1      40.153 133.869  17.652  1.00  0.00    -0.104 N 
ATOM      5  C   UNL     1      39.757 135.155  17.653  1.00  0.00     0.190 A 
ATOM      6  N   UNL     1      39.093 133.124  17.937  1.00  0.00    -0.012 N 
ATOM      7  N   UNL     1      38.018 133.872  18.140  1.00  0.00     0.020 NA
ATOM      8  H   UNL     1      39.089 132.083  18.001  1.00  0.00     0.527 HD
BRANCH   4   9
ATOM      9  C   UNL     1      41.495 133.379  17.466  1.00  0.00     0.107 A 
ATOM     10  N   UNL     1      46.910 130.353  13.899  1.00  0.00    -0.321 N 
ATOM     11  C   UNL     1      47.034 130.660  15.359  1.00  0.00     0.301 C 
ATOM     12  C   UNL     1      45.476 130.588  13.534  1.00  0.00     0.301 C 
ATOM     13  C   UNL     1      45.750 131.282  15.747  1.00  0.00     0.016 A 
ATOM     14  C   UNL     1      44.867 131.243  14.711  1.00  0.00     0.016 A 
ATOM     15  C   UNL     1      45.400 131.827  16.984  1.00  0.00     0.018 A 
ATOM     16  C   UNL     1      43.571 131.746  14.835  1.00  0.00     0.019 A 
ATOM     17  C   UNL     1      44.103 132.349  17.148  1.00  0.00    -0.018 A 
ATOM     18  C   UNL     1      43.182 132.312  16.064  1.00  0.00    -0.016 A 
ATOM     19  C   UNL     1      43.706 132.900  18.373  1.00  0.00     0.011 A 
ATOM     20  C   UNL     1      41.890 132.830  16.234  1.00  0.00     0.041 A 
ATOM     21  C   UNL     1      42.415 133.407  18.530  1.00  0.00     0.033 A 
ATOM     22  C   UNL     1      47.295 128.950  13.625  1.00  0.00     0.334 C 
ATOM     23  C   UNL     1      47.788 131.254  13.114  1.00  0.00     0.334 C 
ENDBRANCH   4   9
ENDBRANCH   2   3
ENDBRANCH   1   2
BRANCH   1  24
ATOM     24  N   UNL     1      38.489 137.251  20.351  1.00  0.00    -0.162 N 
ATOM     25  C   UNL     1      39.528 136.685  20.996  1.00  0.00     0.166 A 
ATOM     26  N   UNL     1      38.729 138.542  20.181  1.00  0.00    -0.130 N 
ATOM     27  C   UNL     1      40.459 137.673  21.252  1.00  0.00     0.094 A 
ATOM     28  C   UNL     1      39.928 138.833  20.717  1.00  0.00     0.344 A 
ATOM     29  H   UNL     1      38.107 139.204  19.665  1.00  0.00     0.488 HD
BRANCH  27  30
ATOM     30  C   UNL     1      41.836 137.488  21.814  1.00  0.00     0.303 C 
BRANCH  30  31
ATOM     31  N   UNL     1      42.134 136.067  21.989  1.00  0.00    -0.354 N 
ATOM     32  H   UNL     1      42.438 135.885  22.973  1.00  0.00     0.344 HD
ATOM     33  H   UNL     1      42.908 135.796  21.342  1.00  0.00     0.344 HD
ATOM     34  H   UNL     1      41.288 135.490  21.767  1.00  0.00     0.344 HD
ENDBRANCH  30  31
ENDBRANCH  27  30
ENDBRANCH   1  24
TORSDOF 6
ENDMDL
MODEL 5
REMARK VINA RESULT:      -5.4      3.984     10.250
REMARK SMILES C[N+]1(C)Cc2cc3ccc(-n4cc(CCn5cc(C[NH3+])c[nH+]5)n[nH+]4)cc3cc2C1
REMARK SMILES IDX 15 1 14 2 13 3 11 4 12 5 24 6 23 7 10 9 2 10 4 11 29 12 5 13
REMARK SMILES IDX 28 14 6 15 27 16 7 17 26 18 8 19 25 20 9 21 1 22 3 23 16 24
REMARK SMILES IDX 17 25 22 26 18 27 21 28 19 30 20 31
REMARK H PARENT 24 8 22 29 20 32 20 33 20 34
ROOT
ATOM      1  C   UNL     1      47.748 134.140  21.937  1.00  0.00     0.196 C 
ENDROOT
BRANCH   1   2
ATOM      2  C   UNL     1      46.373 133.604  22.352  1.00  0.00     0.092 C 
BRANCH   2   3
ATOM      3  C   UNL     1      45.628 133.048  21.179  1.00  0.00     0.134 A 
ATOM      4  N   UNL     1      44.576 132.908  19.271  1.00  0.00    -0.104 N 
ATOM      5  C   UNL     1      44.927 133.775  20.238  1.00  0.00     0.190 A 
ATOM      6  N   UNL     1      45.041 131.715  19.616  1.00  0.00    -0.012 N 
ATOM      7  N   UNL     1      45.696 131.766  20.767  1.00  0.00     0.020 NA
ATOM      8  H   UNL     1      44.918 130.838  19.063  1.00  0.00     0.527 HD
BRANCH   4   9
ATOM      9  C   UNL     1      43.900 133.219  18.037  1.00  0.00     0.107 A 
ATOM     10  N   UNL     1      38.442 135.375  13.944  1.00  0.00    -0.321 N 
ATOM     11  C   UNL     1      39.675 134.791  13.327  1.00  0.00     0.301 C 
ATOM     12  C   UNL     1      38.565 135.169  15.423  1.00  0.00     0.301 C 
ATOM     13  C   UNL     1      40.577 134.480  14.457  1.00  0.00     0.016 A 
ATOM     14  C   UNL     1      39.948 134.696  15.645  1.00  0.00     0.016 A 
ATOM     15  C   UNL     1      41.886 134.000  14.400  1.00  0.00     0.018 A 
ATOM     16  C   UNL     1      40.582 134.449  16.864  1.00  0.00     0.019 A 
ATOM     17  C   UNL     1      42.563 133.742  15.608  1.00  0.00    -0.018 A 
ATOM     18  C   UNL     1      41.907 133.972  16.850  1.00  0.00    -0.016 A 
ATOM     19  C   UNL     1      43.875 133.255  15.600  1.00  0.00     0.011 A 
ATOM     20  C   UNL     1      42.583 133.711  18.050  1.00  0.00     0.041 A 
ATOM     21  C   UNL     1      44.535 132.993  16.802  1.00  0.00     0.033 A 
ATOM     22  C   UNL     1      37.229 134.705  13.423  1.00  0.00     0.334 C 
ATOM     23  C   UNL     1      38.358 136.823  13.639  1.00  0.00     0.334 C 
ENDBRANCH   4   9
ENDBRANCH   2   3
ENDBRANCH   1   2
BRANCH   1  24
ATOM     24  N   UNL     1      47.732 135.599  21.832  1.00  0.00    -0.162 N 
ATOM     25  C   UNL     1      48.433 136.334  20.945  1.00  0.00     0.166 A 
ATOM     26  N   UNL     1      46.888 136.385  22.482  1.00  0.00    -0.130 N 
ATOM     27  C   UNL     1      48.014 137.646  21.054  1.00  0.00     0.094 A 
ATOM     28  C   UNL     1      47.031 137.643  22.028  1.00  0.00     0.344 A 
ATOM     29  H   UNL     1      46.191 136.060  23.189  1.00  0.00     0.488 HD
BRANCH  27  30
ATOM     30  C   UNL     1      48.403 138.790  20.168  1.00  0.00     0.303 C 
BRANCH  30  31
ATOM     31  N   UNL     1      49.764 138.612  19.664  1.00  0.00    -0.354 N 
ATOM     32  H   UNL     1      50.164 139.538  19.386  1.00  0.00     0.344 HD
ATOM     33  H   UNL     1      49.741 137.990  18.825  1.00  0.00     0.344 HD
ATOM     34  H   UNL     1      50.367 138.171  20.398  1.00  0.00     0.344 HD
ENDBRANCH  30  31
ENDBRANCH  27  30
ENDBRANCH   1  24
TORSDOF 6
ENDMDL
MODEL 6
REMARK VINA RESULT:      -5.3      5.234      7.110
REMARK SMILES C[N+]1(C)Cc2cc3ccc(-n4cc(CCn5cc(C[NH3+])c[nH+]5)n[nH+]4)cc3cc2C1
REMARK SMILES IDX 15 1 14 2 13 3 11 4 12 5 24 6 23 7 10 9 2 10 4 11 29 12 5 13
REMARK SMILES IDX 28 14 6 15 27 16 7 17 26 18 8 19 25 20 9 21 1 22 3 23 16 24
REMARK SMILES IDX 17 25 22 26 18 27 21 28 19 30 20 31
REMARK H PARENT 24 8 22 29 20 32 20 33 20 34
ROOT
ATOM      1  C   UNL     1      36.375 135.095  19.078  1.00  0.00     0.196 C 
ENDROOT
BRANCH   1   2
ATOM      2  C   UNL     1      36.797 134.183  17.921  1.00  0.00     0.092 C 
BRANCH   2   3
ATOM      3  C   UNL     1      38.103 134.619  17.331  1.00  0.00     0.134 A 
ATOM      4  N   UNL     1      40.171 134.592  16.632  1.00  0.00    -0.104 N 
ATOM      5  C   UNL     1      39.314 133.971  17.465  1.00  0.00     0.190 A 
ATOM      6  N   UNL     1      39.506 135.569  16.030  1.00  0.00    -0.012 N 
ATOM      7  N   UNL     1      38.241 135.606  16.424  1.00  0.00     0.020 NA
ATOM      8  H   UNL     1      39.910 136.230  15.331  1.00  0.00     0.527 HD
BRANCH   4   9
ATOM      9  C   UNL     1      41.537 134.220  16.365  1.00  0.00     0.107 A 
ATOM     10  N   UNL     1      46.801 130.258  13.573  1.00  0.00    -0.321 N 
ATOM     11  C   UNL     1      47.104 131.351  14.551  1.00  0.00     0.301 C 
ATOM     12  C   UNL     1      45.311 130.101  13.556  1.00  0.00     0.301 C 
ATOM     13  C   UNL     1      45.797 131.952  14.895  1.00  0.00     0.016 A 
ATOM     14  C   UNL     1      44.780 131.244  14.329  1.00  0.00     0.016 A 
ATOM     15  C   UNL     1      45.551 133.064  15.702  1.00  0.00     0.018 A 
ATOM     16  C   UNL     1      43.445 131.597  14.526  1.00  0.00     0.019 A 
ATOM     17  C   UNL     1      44.217 133.456  15.922  1.00  0.00    -0.018 A 
ATOM     18  C   UNL     1      43.155 132.719  15.327  1.00  0.00    -0.016 A 
ATOM     19  C   UNL     1      43.922 134.562  16.728  1.00  0.00     0.011 A 
ATOM     20  C   UNL     1      41.827 133.110  15.552  1.00  0.00     0.041 A 
ATOM     21  C   UNL     1      42.596 134.938  16.949  1.00  0.00     0.033 A 
ATOM     22  C   UNL     1      47.454 128.994  13.981  1.00  0.00     0.334 C 
ATOM     23  C   UNL     1      47.286 130.635  12.224  1.00  0.00     0.334 C 
ENDBRANCH   4   9
ENDBRANCH   2   3
ENDBRANCH   1   2
BRANCH   1  24
ATOM     24  N   UNL     1      37.261 136.255  19.181  1.00  0.00    -0.162 N 
ATOM     25  C   UNL     1      38.429 136.298  19.852  1.00  0.00     0.166 A 
ATOM     26  N   UNL     1      37.119 137.368  18.478  1.00  0.00    -0.130 N 
ATOM     27  C   UNL     1      39.042 137.502  19.564  1.00  0.00     0.094 A 
ATOM     28  C   UNL     1      38.193 138.152  18.686  1.00  0.00     0.344 A 
ATOM     29  H   UNL     1      36.326 137.569  17.829  1.00  0.00     0.488 HD
BRANCH  27  30
ATOM     30  C   UNL     1      40.423 137.926  19.963  1.00  0.00     0.303 C 
BRANCH  30  31
ATOM     31  N   UNL     1      40.368 138.913  21.041  1.00  0.00    -0.354 N 
ATOM     32  H   UNL     1      40.865 138.546  21.885  1.00  0.00     0.344 HD
ATOM     33  H   UNL     1      39.370 139.094  21.290  1.00  0.00     0.344 HD
ATOM     34  H   UNL     1      40.810 139.811  20.732  1.00  0.00     0.344 HD
ENDBRANCH  30  31
ENDBRANCH  27  30
ENDBRANCH   1  24
TORSDOF 6
ENDMDL
MODEL 7
REMARK VINA RESULT:      -5.3      5.168      9.367
REMARK SMILES C[N+]1(C)Cc2cc3ccc(-n4cc(CCn5cc(C[NH3+])c[nH+]5)n[nH+]4)cc3cc2C1
REMARK SMILES IDX 15 1 14 2 13 3 11 4 12 5 24 6 23 7 10 9 2 10 4 11 29 12 5 13
REMARK SMILES IDX 28 14 6 15 27 16 7 17 26 18 8 19 25 20 9 21 1 22 3 23 16 24
REMARK SMILES IDX 17 25 22 26 18 27 21 28 19 30 20 31
REMARK H PARENT 24 8 22 29 20 32 20 33 20 34
ROOT
ATOM      1  C   UNL     1      41.461 136.765  22.035  1.00  0.00     0.196 C 
ENDROOT
BRANCH   1   2
ATOM      2  C   UNL     1      41.596 137.947  21.069  1.00  0.00     0.092 C 
BRANCH   2   3
ATOM      3  C   UNL     1      41.739 137.480  19.653  1.00  0.00     0.134 A 
ATOM      4  N   UNL     1      42.034 136.188  17.918  1.00  0.00    -0.104 N 
ATOM      5  C   UNL     1      42.268 136.274  19.241  1.00  0.00     0.190 A 
ATOM      6  N   UNL     1      41.397 137.293  17.553  1.00  0.00    -0.012 N 
ATOM      7  N   UNL     1      41.191 138.096  18.586  1.00  0.00     0.020 NA
ATOM      8  H   UNL     1      41.088 137.515  16.581  1.00  0.00     0.527 HD
BRANCH   4   9
ATOM      9  C   UNL     1      42.333 135.070  17.060  1.00  0.00     0.107 A 
ATOM     10  N   UNL     1      46.532 130.312  13.754  1.00  0.00    -0.321 N 
ATOM     11  C   UNL     1      45.074 130.402  13.426  1.00  0.00     0.301 C 
ATOM     12  C   UNL     1      46.844 131.482  14.636  1.00  0.00     0.301 C 
ATOM     13  C   UNL     1      44.533 131.466  14.299  1.00  0.00     0.016 A 
ATOM     14  C   UNL     1      45.537 132.078  14.987  1.00  0.00     0.016 A 
ATOM     15  C   UNL     1      43.204 131.870  14.435  1.00  0.00     0.018 A 
ATOM     16  C   UNL     1      45.286 133.136  15.861  1.00  0.00     0.019 A 
ATOM     17  C   UNL     1      42.908 132.932  15.311  1.00  0.00    -0.018 A 
ATOM     18  C   UNL     1      43.957 133.568  16.033  1.00  0.00    -0.016 A 
ATOM     19  C   UNL     1      41.590 133.375  15.475  1.00  0.00     0.011 A 
ATOM     20  C   UNL     1      43.658 134.627  16.902  1.00  0.00     0.041 A 
ATOM     21  C   UNL     1      41.306 134.435  16.339  1.00  0.00     0.033 A 
ATOM     22  C   UNL     1      47.349 130.355  12.521  1.00  0.00     0.334 C 
ATOM     23  C   UNL     1      46.813 129.046  14.473  1.00  0.00     0.334 C 
ENDBRANCH   4   9
ENDBRANCH   2   3
ENDBRANCH   1   2
BRANCH   1  24
ATOM     24  N   UNL     1      42.721 136.513  22.734  1.00  0.00    -0.162 N 
ATOM     25  C   UNL     1      43.923 137.024  22.401  1.00  0.00     0.166 A 
ATOM     26  N   UNL     1      42.818 135.888  23.897  1.00  0.00    -0.130 N 
ATOM     27  C   UNL     1      44.818 136.691  23.399  1.00  0.00     0.094 A 
ATOM     28  C   UNL     1      44.087 135.981  24.334  1.00  0.00     0.344 A 
ATOM     29  H   UNL     1      42.021 135.447  24.408  1.00  0.00     0.488 HD
BRANCH  27  30
ATOM     30  C   UNL     1      46.232 137.168  23.534  1.00  0.00     0.303 C 
BRANCH  30  31
ATOM     31  N   UNL     1      46.958 136.361  24.514  1.00  0.00    -0.354 N 
ATOM     32  H   UNL     1      47.242 136.957  25.325  1.00  0.00     0.344 HD
ATOM     33  H   UNL     1      47.817 135.968  24.067  1.00  0.00     0.344 HD
ATOM     34  H   UNL     1      46.356 135.571  24.848  1.00  0.00     0.344 HD
ENDBRANCH  30  31
ENDBRANCH  27  30
ENDBRANCH   1  24
TORSDOF 6
ENDMDL
MODEL 8
REMARK VINA RESULT:      -5.2      6.084      8.615
REMARK SMILES C[N+]1(C)Cc2cc3ccc(-n4cc(CCn5cc(C[NH3+])c[nH+]5)n[nH+]4)cc3cc2C1
REMARK SMILES IDX 15 1 14 2 13 3 11 4 12 5 24 6 23 7 10 9 2 10 4 11 29 12 5 13
REMARK SMILES IDX 28 14 6 15 27 16 7 17 26 18 8 19 25 20 9 21 1 22 3 23 16 24
REMARK SMILES IDX 17 25 22 26 18 27 21 28 19 30 20 31
REMARK H PARENT 24 8 22 29 20 32 20 33 20 34
ROOT
ATOM      1  C   UNL     1      39.878 137.401  22.979  1.00  0.00     0.196 C 
ENDROOT
BRANCH   1   2
ATOM      2  C   UNL     1      40.519 136.473  24.017  1.00  0.00     0.092 C 
BRANCH   2   3
ATOM      3  C   UNL     1      40.889 135.153  23.414  1.00  0.00     0.134 A 
ATOM      4  N   UNL     1      41.973 133.610  22.315  1.00  0.00    -0.104 N 
ATOM      5  C   UNL     1      41.825 134.944  22.422  1.00  0.00     0.190 A 
ATOM      6  N   UNL     1      41.162 133.045  23.198  1.00  0.00    -0.012 N 
ATOM      7  N   UNL     1      40.495 133.956  23.893  1.00  0.00     0.020 NA
ATOM      8  H   UNL     1      41.052 132.018  23.344  1.00  0.00     0.527 HD
BRANCH   4   9
ATOM      9  C   UNL     1      42.904 132.912  21.466  1.00  0.00     0.107 A 
ATOM     10  N   UNL     1      45.707 130.722  15.256  1.00  0.00    -0.321 N 
ATOM     11  C   UNL     1      46.204 130.169  16.556  1.00  0.00     0.301 C 
ATOM     12  C   UNL     1      44.488 131.532  15.575  1.00  0.00     0.301 C 
ATOM     13  C   UNL     1      45.417 130.851  17.607  1.00  0.00     0.016 A 
ATOM     14  C   UNL     1      44.445 131.626  17.050  1.00  0.00     0.016 A 
ATOM     15  C   UNL     1      45.565 130.746  18.991  1.00  0.00     0.018 A 
ATOM     16  C   UNL     1      43.551 132.353  17.836  1.00  0.00     0.019 A 
ATOM     17  C   UNL     1      44.685 131.469  19.819  1.00  0.00    -0.018 A 
ATOM     18  C   UNL     1      43.672 132.282  19.238  1.00  0.00    -0.016 A 
ATOM     19  C   UNL     1      44.792 131.390  21.213  1.00  0.00     0.011 A 
ATOM     20  C   UNL     1      42.795 132.996  20.066  1.00  0.00     0.041 A 
ATOM     21  C   UNL     1      43.908 132.102  22.027  1.00  0.00     0.033 A 
ATOM     22  C   UNL     1      45.375 129.628  14.315  1.00  0.00     0.334 C 
ATOM     23  C   UNL     1      46.743 131.585  14.642  1.00  0.00     0.334 C 
ENDBRANCH   4   9
ENDBRANCH   2   3
ENDBRANCH   1   2
BRANCH   1  24
ATOM     24  N   UNL     1      40.899 138.057  22.162  1.00  0.00    -0.162 N 
ATOM     25  C   UNL     1      41.988 138.701  22.629  1.00  0.00     0.166 A 
ATOM     26  N   UNL     1      40.982 137.953  20.846  1.00  0.00    -0.130 N 
ATOM     27  C   UNL     1      42.785 139.026  21.549  1.00  0.00     0.094 A 
ATOM     28  C   UNL     1      42.126 138.532  20.437  1.00  0.00     0.344 A 
ATOM     29  H   UNL     1      40.294 137.453  20.240  1.00  0.00     0.488 HD
BRANCH  27  30
ATOM     30  C   UNL     1      44.164 139.612  21.593  1.00  0.00     0.303 C 
BRANCH  30  31
ATOM     31  N   UNL     1      45.086 138.823  20.777  1.00  0.00    -0.354 N 
ATOM     32  H   UNL     1      45.081 137.827  21.097  1.00  0.00     0.344 HD
ATOM     33  H   UNL     1      46.052 139.207  20.883  1.00  0.00     0.344 HD
ATOM     34  H   UNL     1      44.809 138.872  19.769  1.00  0.00     0.344 HD
ENDBRANCH  30  31
ENDBRANCH  27  30
ENDBRANCH   1  24
TORSDOF 6
ENDMDL
MODEL 9
REMARK VINA RESULT:      -5.1      4.896      7.496
REMARK SMILES C[N+]1(C)Cc2cc3ccc(-n4cc(CCn5cc(C[NH3+])c[nH+]5)n[nH+]4)cc3cc2C1
REMARK SMILES IDX 15 1 14 2 13 3 11 4 12 5 24 6 23 7 10 9 2 10 4 11 29 12 5 13
REMARK SMILES IDX 28 14 6 15 27 16 7 17 26 18 8 19 25 20 9 21 1 22 3 23 16 24
REMARK SMILES IDX 17 25 22 26 18 27 21 28 19 30 20 31
REMARK H PARENT 24 8 22 29 20 32 20 33 20 34
ROOT
ATOM      1  C   UNL     1      38.311 139.041  18.088  1.00  0.00     0.196 C 
ENDROOT
BRANCH   1   2
ATOM      2  C   UNL     1      37.669 137.975  17.192  1.00  0.00     0.092 C 
BRANCH   2   3
ATOM      3  C   UNL     1      38.368 136.658  17.325  1.00  0.00     0.134 A 
ATOM      4  N   UNL     1      39.945 135.151  17.424  1.00  0.00    -0.104 N 
ATOM      5  C   UNL     1      39.673 136.387  16.966  1.00  0.00     0.190 A 
ATOM      6  N   UNL     1      38.853 134.699  18.026  1.00  0.00    -0.012 N 
ATOM      7  N   UNL     1      37.877 135.596  17.994  1.00  0.00     0.020 NA
ATOM      8  H   UNL     1      38.758 133.762  18.475  1.00  0.00     0.527 HD
BRANCH   4   9
ATOM      9  C   UNL     1      41.210 134.467  17.361  1.00  0.00     0.107 A 
ATOM     10  N   UNL     1      46.377 130.557  14.324  1.00  0.00    -0.321 N 
ATOM     11  C   UNL     1      46.434 130.899  15.780  1.00  0.00     0.301 C 
ATOM     12  C   UNL     1      45.025 130.982  13.838  1.00  0.00     0.301 C 
ATOM     13  C   UNL     1      45.229 131.714  16.046  1.00  0.00     0.016 A 
ATOM     14  C   UNL     1      44.431 131.763  14.944  1.00  0.00     0.016 A 
ATOM     15  C   UNL     1      44.871 132.350  17.236  1.00  0.00     0.018 A 
ATOM     16  C   UNL     1      43.218 132.452  14.949  1.00  0.00     0.019 A 
ATOM     17  C   UNL     1      43.656 133.060  17.281  1.00  0.00    -0.018 A 
ATOM     18  C   UNL     1      42.824 133.115  16.128  1.00  0.00    -0.016 A 
ATOM     19  C   UNL     1      43.252 133.709  18.455  1.00  0.00     0.011 A 
ATOM     20  C   UNL     1      41.613 133.819  16.179  1.00  0.00     0.041 A 
ATOM     21  C   UNL     1      42.041 134.402  18.494  1.00  0.00     0.033 A 
ATOM     22  C   UNL     1      46.572 129.104  14.119  1.00  0.00     0.334 C 
ATOM     23  C   UNL     1      47.434 131.291  13.588  1.00  0.00     0.334 C 
ENDBRANCH   4   9
ENDBRANCH   2   3
ENDBRANCH   1   2
BRANCH   1  24
ATOM     24  N   UNL     1      38.417 138.569  19.469  1.00  0.00    -0.162 N 
ATOM     25  C   UNL     1      39.449 138.802  20.304  1.00  0.00     0.166 A 
ATOM     26  N   UNL     1      37.430 137.998  20.141  1.00  0.00    -0.130 N 
ATOM     27  C   UNL     1      39.094 138.343  21.558  1.00  0.00     0.094 A 
ATOM     28  C   UNL     1      37.809 137.848  21.423  1.00  0.00     0.344 A 
ATOM     29  H   UNL     1      36.495 137.758  19.742  1.00  0.00     0.488 HD
BRANCH  27  30
ATOM     30  C   UNL     1      39.862 138.523  22.832  1.00  0.00     0.303 C 
BRANCH  30  31
ATOM     31  N   UNL     1      40.891 139.549  22.673  1.00  0.00    -0.354 N 
ATOM     32  H   UNL     1      41.719 139.319  23.269  1.00  0.00     0.344 HD
ATOM     33  H   UNL     1      40.505 140.473  22.973  1.00  0.00     0.344 HD
ATOM     34  H   UNL     1      41.185 139.614  21.670  1.00  0.00     0.344 HD
ENDBRANCH  30  31
ENDBRANCH  27  30
ENDBRANCH   1  24
TORSDOF 6
ENDMDL


