MODEL 1
REMARK VINA RESULT:      -6.8      0.000      0.000
REMARK SMILES C[C@@H](C#N)N(C)CCCCc1cn(-c2cc(N)c3c4c(cccc24)C(=O)[N-]3)nn1
REMARK SMILES IDX 8 1 7 2 5 3 6 4 2 5 1 6 3 7 4 8 9 9 10 10 11 11 12 12 29 13
REMARK SMILES IDX 13 14 28 15 14 16 15 17 24 18 16 19 23 20 19 21 18 22 22 23
REMARK SMILES IDX 20 24 27 25 21 26 25 27 26 28 17 29
REMARK H PARENT 17 30 17 31
ROOT
ATOM      1  C   UNL     1      45.573 130.245  16.731  1.00  0.00     0.016 C 
ENDROOT
BRANCH   1   2
ATOM      2  C   UNL     1      46.882 130.122  15.941  1.00  0.00     0.085 C 
BRANCH   2   3
ATOM      3  N   UNL     1      46.611 129.676  14.549  1.00  0.00    -0.291 NA
ATOM      4  C   UNL     1      47.810 129.005  14.002  1.00  0.00     0.106 C 
BRANCH   3   5
ATOM      5  C   UNL     1      46.155 130.805  13.691  1.00  0.00     0.157 C 
ATOM      6  C   UNL     1      46.707 130.725  12.255  1.00  0.00     0.041 C 
BRANCH   5   7
ATOM      7  C   UNL     1      44.683 130.794  13.592  1.00  0.00     0.081 C 
ATOM      8  N   UNL     1      43.528 130.785  13.516  1.00  0.00    -0.197 NA
ENDBRANCH   5   7
ENDBRANCH   3   5
ENDBRANCH   2   3
ENDBRANCH   1   2
BRANCH   1   9
ATOM      9  C   UNL     1      45.338 131.684  17.219  1.00  0.00     0.008 C 
BRANCH   9  10
ATOM     10  C   UNL     1      43.847 132.045  17.264  1.00  0.00     0.060 C 
BRANCH  10  11
ATOM     11  C   UNL     1      43.541 133.228  16.398  1.00  0.00     0.083 A 
ATOM     12  C   UNL     1      42.335 133.884  16.295  1.00  0.00     0.140 A 
ATOM     13  N   UNL     1      44.401 133.772  15.514  1.00  0.00    -0.135 NA
ATOM     14  N   UNL     1      42.499 134.817  15.341  1.00  0.00    -0.220 N 
ATOM     15  N   UNL     1      43.743 134.742  14.894  1.00  0.00    -0.062 NA
BRANCH  14  16
ATOM     16  C   UNL     1      41.527 135.783  14.908  1.00  0.00     0.076 A 
ATOM     17  C   UNL     1      41.832 137.174  15.005  1.00  0.00     0.053 A 
ATOM     18  C   UNL     1      40.273 135.390  14.368  1.00  0.00     0.007 A 
ATOM     19  C   UNL     1      40.922 138.162  14.555  1.00  0.00     0.019 A 
ATOM     20  C   UNL     1      39.778 134.067  14.267  1.00  0.00     0.011 A 
ATOM     21  C   UNL     1      39.428 136.401  13.934  1.00  0.00    -0.020 A 
ATOM     22  C   UNL     1      39.709 137.734  14.010  1.00  0.00    -0.102 A 
ATOM     23  C   UNL     1      38.488 133.831  13.723  1.00  0.00     0.001 A 
ATOM     24  C   UNL     1      38.191 136.193  13.415  1.00  0.00     0.006 A 
ATOM     25  N   UNL     1      38.627 138.531  13.512  1.00  0.00    -0.620 NA
ATOM     26  C   UNL     1      37.678 134.905  13.288  1.00  0.00     0.011 A 
ATOM     27  C   UNL     1      37.670 137.526  13.138  1.00  0.00     0.086 C 
ATOM     28  O   UNL     1      36.541 137.783  12.647  1.00  0.00    -0.315 OA
BRANCH  19  29
ATOM     29  N   UNL     1      41.239 139.552  14.655  1.00  0.00    -0.400 N 
ATOM     30  H   UNL     1      40.762 140.252  14.044  1.00  0.00     0.156 HD
ATOM     31  H   UNL     1      41.951 139.892  15.339  1.00  0.00     0.156 HD
ENDBRANCH  19  29
ENDBRANCH  14  16
ENDBRANCH  10  11
ENDBRANCH   9  10
ENDBRANCH   1   9
TORSDOF 9
ENDMDL
MODEL 2
REMARK VINA RESULT:      -6.6      0.950      1.319
REMARK SMILES C[C@@H](C#N)N(C)CCCCc1cn(-c2cc(N)c3c4c(cccc24)C(=O)[N-]3)nn1
REMARK SMILES IDX 8 1 7 2 5 3 6 4 2 5 1 6 3 7 4 8 9 9 10 10 11 11 12 12 29 13
REMARK SMILES IDX 13 14 28 15 14 16 15 17 24 18 16 19 23 20 19 21 18 22 22 23
REMARK SMILES IDX 20 24 27 25 21 26 25 27 26 28 17 29
REMARK H PARENT 17 30 17 31
ROOT
ATOM      1  C   UNL     1      45.898 130.636  17.657  1.00  0.00     0.016 C 
ENDROOT
BRANCH   1   2
ATOM      2  C   UNL     1      46.329 130.319  16.219  1.00  0.00     0.085 C 
BRANCH   2   3
ATOM      3  N   UNL     1      45.184 129.781  15.439  1.00  0.00    -0.291 NA
ATOM      4  C   UNL     1      45.064 128.326  15.676  1.00  0.00     0.106 C 
BRANCH   3   5
ATOM      5  C   UNL     1      45.305 130.109  13.990  1.00  0.00     0.157 C 
ATOM      6  C   UNL     1      44.088 130.882  13.450  1.00  0.00     0.041 C 
BRANCH   5   7
ATOM      7  C   UNL     1      46.492 130.955  13.768  1.00  0.00     0.081 C 
ATOM      8  N   UNL     1      47.425 131.619  13.593  1.00  0.00    -0.197 NA
ENDBRANCH   5   7
ENDBRANCH   3   5
ENDBRANCH   2   3
ENDBRANCH   1   2
BRANCH   1   9
ATOM      9  C   UNL     1      44.495 131.261  17.704  1.00  0.00     0.008 C 
BRANCH   9  10
ATOM     10  C   UNL     1      44.539 132.761  18.023  1.00  0.00     0.060 C 
BRANCH  10  11
ATOM     11  C   UNL     1      44.025 133.583  16.880  1.00  0.00     0.083 A 
ATOM     12  C   UNL     1      42.919 134.403  16.887  1.00  0.00     0.140 A 
ATOM     13  N   UNL     1      44.537 133.563  15.634  1.00  0.00    -0.135 NA
ATOM     14  N   UNL     1      42.791 134.863  15.630  1.00  0.00    -0.220 N 
ATOM     15  N   UNL     1      43.773 134.359  14.899  1.00  0.00    -0.062 NA
BRANCH  14  16
ATOM     16  C   UNL     1      41.805 135.793  15.152  1.00  0.00     0.076 A 
ATOM     17  C   UNL     1      42.089 137.191  15.179  1.00  0.00     0.053 A 
ATOM     18  C   UNL     1      40.555 135.356  14.635  1.00  0.00     0.007 A 
ATOM     19  C   UNL     1      41.164 138.143  14.683  1.00  0.00     0.019 A 
ATOM     20  C   UNL     1      40.079 134.023  14.602  1.00  0.00     0.011 A 
ATOM     21  C   UNL     1      39.695 136.332  14.154  1.00  0.00    -0.020 A 
ATOM     22  C   UNL     1      39.957 137.671  14.163  1.00  0.00    -0.102 A 
ATOM     23  C   UNL     1      38.791 133.742  14.073  1.00  0.00     0.001 A 
ATOM     24  C   UNL     1      38.460 136.081  13.649  1.00  0.00     0.006 A 
ATOM     25  N   UNL     1      38.863 138.427  13.629  1.00  0.00    -0.620 NA
ATOM     26  C   UNL     1      37.965 134.780  13.588  1.00  0.00     0.011 A 
ATOM     27  C   UNL     1      37.920 137.391  13.307  1.00  0.00     0.086 C 
ATOM     28  O   UNL     1      36.786 137.607  12.808  1.00  0.00    -0.315 OA
BRANCH  19  29
ATOM     29  N   UNL     1      41.462 139.540  14.714  1.00  0.00    -0.400 N 
ATOM     30  H   UNL     1      41.803 140.031  13.857  1.00  0.00     0.156 HD
ATOM     31  H   UNL     1      41.344 140.094  15.590  1.00  0.00     0.156 HD
ENDBRANCH  19  29
ENDBRANCH  14  16
ENDBRANCH  10  11
ENDBRANCH   9  10
ENDBRANCH   1   9
TORSDOF 9
ENDMDL
MODEL 3
REMARK VINA RESULT:      -6.2      4.472      7.080
REMARK SMILES C[C@@H](C#N)N(C)CCCCc1cn(-c2cc(N)c3c4c(cccc24)C(=O)[N-]3)nn1
REMARK SMILES IDX 8 1 7 2 5 3 6 4 2 5 1 6 3 7 4 8 9 9 10 10 11 11 12 12 29 13
REMARK SMILES IDX 13 14 28 15 14 16 15 17 24 18 16 19 23 20 19 21 18 22 22 23
REMARK SMILES IDX 20 24 27 25 21 26 25 27 26 28 17 29
REMARK H PARENT 17 30 17 31
ROOT
ATOM      1  C   UNL     1      43.923 130.964  13.852  1.00  0.00     0.016 C 
ENDROOT
BRANCH   1   2
ATOM      2  C   UNL     1      44.398 130.337  15.169  1.00  0.00     0.085 C 
BRANCH   2   3
ATOM      3  N   UNL     1      45.769 129.781  15.017  1.00  0.00    -0.291 NA
ATOM      4  C   UNL     1      46.503 129.917  16.293  1.00  0.00     0.106 C 
BRANCH   3   5
ATOM      5  C   UNL     1      46.493 130.413  13.878  1.00  0.00     0.157 C 
ATOM      6  C   UNL     1      47.050 131.806  14.225  1.00  0.00     0.041 C 
BRANCH   5   7
ATOM      7  C   UNL     1      47.639 129.571  13.487  1.00  0.00     0.081 C 
ATOM      8  N   UNL     1      48.538 128.909  13.180  1.00  0.00    -0.197 NA
ENDBRANCH   5   7
ENDBRANCH   3   5
ENDBRANCH   2   3
ENDBRANCH   1   2
BRANCH   1   9
ATOM      9  C   UNL     1      42.478 131.478  13.957  1.00  0.00     0.008 C 
BRANCH   9  10
ATOM     10  C   UNL     1      42.412 133.007  14.055  1.00  0.00     0.060 C 
BRANCH  10  11
ATOM     11  C   UNL     1      43.096 133.511  15.289  1.00  0.00     0.083 A 
ATOM     12  C   UNL     1      42.726 133.268  16.593  1.00  0.00     0.140 A 
ATOM     13  N   UNL     1      44.141 134.361  15.291  1.00  0.00    -0.135 NA
ATOM     14  N   UNL     1      43.567 133.987  17.358  1.00  0.00    -0.220 N 
ATOM     15  N   UNL     1      44.412 134.624  16.562  1.00  0.00    -0.062 NA
BRANCH  14  16
ATOM     16  C   UNL     1      43.604 134.023  18.794  1.00  0.00     0.076 A 
ATOM     17  C   UNL     1      42.954 135.088  19.484  1.00  0.00     0.053 A 
ATOM     18  C   UNL     1      44.259 133.013  19.549  1.00  0.00     0.007 A 
ATOM     19  C   UNL     1      42.929 135.145  20.900  1.00  0.00     0.019 A 
ATOM     20  C   UNL     1      45.013 131.931  19.032  1.00  0.00     0.011 A 
ATOM     21  C   UNL     1      44.193 133.115  20.931  1.00  0.00    -0.020 A 
ATOM     22  C   UNL     1      43.565 134.122  21.606  1.00  0.00    -0.102 A 
ATOM     23  C   UNL     1      45.633 131.010  19.917  1.00  0.00     0.001 A 
ATOM     24  C   UNL     1      44.782 132.246  21.791  1.00  0.00     0.006 A 
ATOM     25  N   UNL     1      43.698 133.970  23.024  1.00  0.00    -0.620 NA
ATOM     26  C   UNL     1      45.519 131.163  21.318  1.00  0.00     0.011 A 
ATOM     27  C   UNL     1      44.477 132.765  23.119  1.00  0.00     0.086 C 
ATOM     28  O   UNL     1      44.843 132.251  24.207  1.00  0.00    -0.315 OA
BRANCH  19  29
ATOM     29  N   UNL     1      42.272 136.217  21.580  1.00  0.00    -0.400 N 
ATOM     30  H   UNL     1      42.372 136.332  22.614  1.00  0.00     0.156 HD
ATOM     31  H   UNL     1      41.682 136.901  21.058  1.00  0.00     0.156 HD
ENDBRANCH  19  29
ENDBRANCH  14  16
ENDBRANCH  10  11
ENDBRANCH   9  10
ENDBRANCH   1   9
TORSDOF 9
ENDMDL
MODEL 4
REMARK VINA RESULT:      -5.8      2.529      3.838
REMARK SMILES C[C@@H](C#N)N(C)CCCCc1cn(-c2cc(N)c3c4c(cccc24)C(=O)[N-]3)nn1
REMARK SMILES IDX 8 1 7 2 5 3 6 4 2 5 1 6 3 7 4 8 9 9 10 10 11 11 12 12 29 13
REMARK SMILES IDX 13 14 28 15 14 16 15 17 24 18 16 19 23 20 19 21 18 22 22 23
REMARK SMILES IDX 20 24 27 25 21 26 25 27 26 28 17 29
REMARK H PARENT 17 30 17 31
ROOT
ATOM      1  C   UNL     1      46.155 131.461  16.269  1.00  0.00     0.016 C 
ENDROOT
BRANCH   1   2
ATOM      2  C   UNL     1      45.146 130.928  17.295  1.00  0.00     0.085 C 
BRANCH   2   3
ATOM      3  N   UNL     1      45.146 131.776  18.515  1.00  0.00    -0.291 NA
ATOM      4  C   UNL     1      45.151 130.915  19.717  1.00  0.00     0.106 C 
BRANCH   3   5
ATOM      5  C   UNL     1      44.007 132.737  18.514  1.00  0.00     0.157 C 
ATOM      6  C   UNL     1      42.644 132.048  18.713  1.00  0.00     0.041 C 
BRANCH   5   7
ATOM      7  C   UNL     1      44.170 133.706  19.615  1.00  0.00     0.081 C 
ATOM      8  N   UNL     1      44.300 134.465  20.479  1.00  0.00    -0.197 NA
ENDBRANCH   5   7
ENDBRANCH   3   5
ENDBRANCH   2   3
ENDBRANCH   1   2
BRANCH   1   9
ATOM      9  C   UNL     1      45.468 131.876  14.958  1.00  0.00     0.008 C 
BRANCH   9  10
ATOM     10  C   UNL     1      44.128 131.158  14.754  1.00  0.00     0.060 C 
BRANCH  10  11
ATOM     11  C   UNL     1      43.005 132.131  14.564  1.00  0.00     0.083 A 
ATOM     12  C   UNL     1      42.866 133.359  15.172  1.00  0.00     0.140 A 
ATOM     13  N   UNL     1      41.906 131.895  13.820  1.00  0.00    -0.135 NA
ATOM     14  N   UNL     1      41.674 133.838  14.775  1.00  0.00    -0.220 N 
ATOM     15  N   UNL     1      41.121 132.954  13.959  1.00  0.00    -0.062 NA
BRANCH  14  16
ATOM     16  C   UNL     1      41.106 135.113  15.113  1.00  0.00     0.076 A 
ATOM     17  C   UNL     1      41.718 136.305  14.623  1.00  0.00     0.053 A 
ATOM     18  C   UNL     1      39.935 135.221  15.912  1.00  0.00     0.007 A 
ATOM     19  C   UNL     1      41.171 137.583  14.897  1.00  0.00     0.019 A 
ATOM     20  C   UNL     1      39.245 134.155  16.540  1.00  0.00     0.011 A 
ATOM     21  C   UNL     1      39.440 136.496  16.138  1.00  0.00    -0.020 A 
ATOM     22  C   UNL     1      40.007 137.644  15.667  1.00  0.00    -0.102 A 
ATOM     23  C   UNL     1      38.097 134.422  17.332  1.00  0.00     0.001 A 
ATOM     24  C   UNL     1      38.345 136.769  16.894  1.00  0.00     0.006 A 
ATOM     25  N   UNL     1      39.284 138.805  16.094  1.00  0.00    -0.620 NA
ATOM     26  C   UNL     1      37.634 135.745  17.515  1.00  0.00     0.011 A 
ATOM     27  C   UNL     1      38.228 138.222  16.875  1.00  0.00     0.086 C 
ATOM     28  O   UNL     1      37.339 138.892  17.461  1.00  0.00    -0.315 OA
BRANCH  19  29
ATOM     29  N   UNL     1      41.792 138.770  14.398  1.00  0.00    -0.400 N 
ATOM     30  H   UNL     1      41.345 139.703  14.537  1.00  0.00     0.156 HD
ATOM     31  H   UNL     1      42.701 138.725  13.886  1.00  0.00     0.156 HD
ENDBRANCH  19  29
ENDBRANCH  14  16
ENDBRANCH  10  11
ENDBRANCH   9  10
ENDBRANCH   1   9
TORSDOF 9
ENDMDL
MODEL 5
REMARK VINA RESULT:      -5.8      2.562      3.364
REMARK SMILES C[C@@H](C#N)N(C)CCCCc1cn(-c2cc(N)c3c4c(cccc24)C(=O)[N-]3)nn1
REMARK SMILES IDX 8 1 7 2 5 3 6 4 2 5 1 6 3 7 4 8 9 9 10 10 11 11 12 12 29 13
REMARK SMILES IDX 13 14 28 15 14 16 15 17 24 18 16 19 23 20 19 21 18 22 22 23
REMARK SMILES IDX 20 24 27 25 21 26 25 27 26 28 17 29
REMARK H PARENT 17 30 17 31
ROOT
ATOM      1  C   UNL     1      46.424 130.606  17.412  1.00  0.00     0.016 C 
ENDROOT
BRANCH   1   2
ATOM      2  C   UNL     1      46.377 130.191  15.935  1.00  0.00     0.085 C 
BRANCH   2   3
ATOM      3  N   UNL     1      46.556 131.376  15.055  1.00  0.00    -0.291 NA
ATOM      4  C   UNL     1      45.774 132.512  15.589  1.00  0.00     0.106 C 
BRANCH   3   5
ATOM      5  C   UNL     1      46.208 131.066  13.640  1.00  0.00     0.157 C 
ATOM      6  C   UNL     1      46.927 129.812  13.110  1.00  0.00     0.041 C 
BRANCH   5   7
ATOM      7  C   UNL     1      44.758 130.818  13.527  1.00  0.00     0.081 C 
ATOM      8  N   UNL     1      43.620 130.623  13.437  1.00  0.00    -0.197 NA
ENDBRANCH   5   7
ENDBRANCH   3   5
ENDBRANCH   2   3
ENDBRANCH   1   2
BRANCH   1   9
ATOM      9  C   UNL     1      45.059 130.425  18.095  1.00  0.00     0.008 C 
BRANCH   9  10
ATOM     10  C   UNL     1      44.865 131.394  19.268  1.00  0.00     0.060 C 
BRANCH  10  11
ATOM     11  C   UNL     1      43.802 132.409  18.974  1.00  0.00     0.083 A 
ATOM     12  C   UNL     1      42.621 132.193  18.299  1.00  0.00     0.140 A 
ATOM     13  N   UNL     1      43.897 133.721  19.262  1.00  0.00    -0.135 NA
ATOM     14  N   UNL     1      42.028 133.395  18.194  1.00  0.00    -0.220 N 
ATOM     15  N   UNL     1      42.800 134.294  18.786  1.00  0.00    -0.062 NA
BRANCH  14  16
ATOM     16  C   UNL     1      40.747 133.673  17.605  1.00  0.00     0.076 A 
ATOM     17  C   UNL     1      39.579 133.644  18.423  1.00  0.00     0.053 A 
ATOM     18  C   UNL     1      40.613 133.993  16.227  1.00  0.00     0.007 A 
ATOM     19  C   UNL     1      38.300 133.950  17.896  1.00  0.00     0.019 A 
ATOM     20  C   UNL     1      41.648 133.995  15.260  1.00  0.00     0.011 A 
ATOM     21  C   UNL     1      39.339 134.293  15.770  1.00  0.00    -0.020 A 
ATOM     22  C   UNL     1      38.214 134.281  16.542  1.00  0.00    -0.102 A 
ATOM     23  C   UNL     1      41.355 134.315  13.908  1.00  0.00     0.001 A 
ATOM     24  C   UNL     1      39.041 134.599  14.481  1.00  0.00     0.006 A 
ATOM     25  N   UNL     1      37.045 134.602  15.778  1.00  0.00    -0.620 NA
ATOM     26  C   UNL     1      40.035 134.623  13.506  1.00  0.00     0.011 A 
ATOM     27  C   UNL     1      37.597 134.801  14.466  1.00  0.00     0.086 C 
ATOM     28  O   UNL     1      36.911 135.101  13.455  1.00  0.00    -0.315 OA
BRANCH  19  29
ATOM     29  N   UNL     1      37.137 133.920  18.726  1.00  0.00    -0.400 N 
ATOM     30  H   UNL     1      36.185 133.827  18.306  1.00  0.00     0.156 HD
ATOM     31  H   UNL     1      37.218 133.991  19.765  1.00  0.00     0.156 HD
ENDBRANCH  19  29
ENDBRANCH  14  16
ENDBRANCH  10  11
ENDBRANCH   9  10
ENDBRANCH   1   9
TORSDOF 9
ENDMDL
MODEL 6
REMARK VINA RESULT:      -5.8      3.815      9.027
REMARK SMILES C[C@@H](C#N)N(C)CCCCc1cn(-c2cc(N)c3c4c(cccc24)C(=O)[N-]3)nn1
REMARK SMILES IDX 8 1 7 2 5 3 6 4 2 5 1 6 3 7 4 8 9 9 10 10 11 11 12 12 29 13
REMARK SMILES IDX 13 14 28 15 14 16 15 17 24 18 16 19 23 20 19 21 18 22 22 23
REMARK SMILES IDX 20 24 27 25 21 26 25 27 26 28 17 29
REMARK H PARENT 17 30 17 31
ROOT
ATOM      1  C   UNL     1      40.496 136.763  15.963  1.00  0.00     0.016 C 
ENDROOT
BRANCH   1   2
ATOM      2  C   UNL     1      39.677 137.188  17.189  1.00  0.00     0.085 C 
BRANCH   2   3
ATOM      3  N   UNL     1      39.395 138.647  17.147  1.00  0.00    -0.291 NA
ATOM      4  C   UNL     1      40.136 139.262  16.025  1.00  0.00     0.106 C 
BRANCH   3   5
ATOM      5  C   UNL     1      39.700 139.301  18.451  1.00  0.00     0.157 C 
ATOM      6  C   UNL     1      38.657 138.980  19.538  1.00  0.00     0.041 C 
BRANCH   5   7
ATOM      7  C   UNL     1      41.007 138.835  18.950  1.00  0.00     0.081 C 
ATOM      8  N   UNL     1      42.034 138.469  19.341  1.00  0.00    -0.197 NA
ENDBRANCH   5   7
ENDBRANCH   3   5
ENDBRANCH   2   3
ENDBRANCH   1   2
BRANCH   1   9
ATOM      9  C   UNL     1      39.882 135.538  15.267  1.00  0.00     0.008 C 
BRANCH   9  10
ATOM     10  C   UNL     1      39.225 134.574  16.263  1.00  0.00     0.060 C 
BRANCH  10  11
ATOM     11  C   UNL     1      40.217 133.602  16.825  1.00  0.00     0.083 A 
ATOM     12  C   UNL     1      41.490 133.361  16.359  1.00  0.00     0.140 A 
ATOM     13  N   UNL     1      39.962 132.747  17.834  1.00  0.00    -0.135 NA
ATOM     14  N   UNL     1      41.976 132.356  17.107  1.00  0.00    -0.220 N 
ATOM     15  N   UNL     1      41.052 132.010  17.991  1.00  0.00    -0.062 NA
BRANCH  14  16
ATOM     16  C   UNL     1      43.291 131.782  17.025  1.00  0.00     0.076 A 
ATOM     17  C   UNL     1      44.057 131.614  18.217  1.00  0.00     0.053 A 
ATOM     18  C   UNL     1      43.845 131.359  15.787  1.00  0.00     0.007 A 
ATOM     19  C   UNL     1      45.342 131.017  18.191  1.00  0.00     0.019 A 
ATOM     20  C   UNL     1      43.260 131.517  14.507  1.00  0.00     0.011 A 
ATOM     21  C   UNL     1      45.101 130.772  15.825  1.00  0.00    -0.020 A 
ATOM     22  C   UNL     1      45.841 130.595  16.957  1.00  0.00    -0.102 A 
ATOM     23  C   UNL     1      43.949 131.062  13.351  1.00  0.00     0.001 A 
ATOM     24  C   UNL     1      45.774 130.335  14.729  1.00  0.00     0.006 A 
ATOM     25  N   UNL     1      47.109 129.991  16.670  1.00  0.00    -0.620 NA
ATOM     26  C   UNL     1      45.224 130.462  13.456  1.00  0.00     0.011 A 
ATOM     27  C   UNL     1      47.043 129.834  15.243  1.00  0.00     0.086 C 
ATOM     28  O   UNL     1      47.968 129.338  14.550  1.00  0.00    -0.315 OA
BRANCH  19  29
ATOM     29  N   UNL     1      46.099 130.852  19.392  1.00  0.00    -0.400 N 
ATOM     30  H   UNL     1      45.793 130.175  20.126  1.00  0.00     0.156 HD
ATOM     31  H   UNL     1      46.969 131.405  19.557  1.00  0.00     0.156 HD
ENDBRANCH  19  29
ENDBRANCH  14  16
ENDBRANCH  10  11
ENDBRANCH   9  10
ENDBRANCH   1   9
TORSDOF 9
ENDMDL
MODEL 7
REMARK VINA RESULT:      -5.6      1.573      2.275
REMARK SMILES C[C@@H](C#N)N(C)CCCCc1cn(-c2cc(N)c3c4c(cccc24)C(=O)[N-]3)nn1
REMARK SMILES IDX 8 1 7 2 5 3 6 4 2 5 1 6 3 7 4 8 9 9 10 10 11 11 12 12 29 13
REMARK SMILES IDX 13 14 28 15 14 16 15 17 24 18 16 19 23 20 19 21 18 22 22 23
REMARK SMILES IDX 20 24 27 25 21 26 25 27 26 28 17 29
REMARK H PARENT 17 30 17 31
ROOT
ATOM      1  C   UNL     1      44.234 132.801  16.635  1.00  0.00     0.016 C 
ENDROOT
BRANCH   1   2
ATOM      2  C   UNL     1      45.427 132.352  15.780  1.00  0.00     0.085 C 
BRANCH   2   3
ATOM      3  N   UNL     1      44.962 131.846  14.462  1.00  0.00    -0.291 NA
ATOM      4  C   UNL     1      43.485 131.774  14.453  1.00  0.00     0.106 C 
BRANCH   3   5
ATOM      5  C   UNL     1      45.593 130.539  14.124  1.00  0.00     0.157 C 
ATOM      6  C   UNL     1      46.464 130.608  12.856  1.00  0.00     0.041 C 
BRANCH   5   7
ATOM      7  C   UNL     1      46.467 130.106  15.230  1.00  0.00     0.081 C 
ATOM      8  N   UNL     1      47.153 129.765  16.098  1.00  0.00    -0.197 NA
ENDBRANCH   5   7
ENDBRANCH   3   5
ENDBRANCH   2   3
ENDBRANCH   1   2
BRANCH   1   9
ATOM      9  C   UNL     1      44.072 131.925  17.888  1.00  0.00     0.008 C 
BRANCH   9  10
ATOM     10  C   UNL     1      42.692 132.090  18.537  1.00  0.00     0.060 C 
BRANCH  10  11
ATOM     11  C   UNL     1      42.075 133.411  18.190  1.00  0.00     0.083 A 
ATOM     12  C   UNL     1      41.648 133.820  16.947  1.00  0.00     0.140 A 
ATOM     13  N   UNL     1      41.929 134.436  19.052  1.00  0.00    -0.135 NA
ATOM     14  N   UNL     1      41.252 135.097  17.091  1.00  0.00    -0.220 N 
ATOM     15  N   UNL     1      41.417 135.443  18.359  1.00  0.00    -0.062 NA
BRANCH  14  16
ATOM     16  C   UNL     1      40.683 135.940  16.076  1.00  0.00     0.076 A 
ATOM     17  C   UNL     1      41.436 137.046  15.582  1.00  0.00     0.053 A 
ATOM     18  C   UNL     1      39.393 135.691  15.535  1.00  0.00     0.007 A 
ATOM     19  C   UNL     1      40.934 137.882  14.554  1.00  0.00     0.019 A 
ATOM     20  C   UNL     1      38.484 134.690  15.956  1.00  0.00     0.011 A 
ATOM     21  C   UNL     1      38.958 136.535  14.525  1.00  0.00    -0.020 A 
ATOM     22  C   UNL     1      39.671 137.590  14.034  1.00  0.00    -0.102 A 
ATOM     23  C   UNL     1      37.212 134.578  15.333  1.00  0.00     0.001 A 
ATOM     24  C   UNL     1      37.746 136.443  13.920  1.00  0.00     0.006 A 
ATOM     25  N   UNL     1      38.944 138.292  13.018  1.00  0.00    -0.620 NA
ATOM     26  C   UNL     1      36.832 135.463  14.299  1.00  0.00     0.011 A 
ATOM     27  C   UNL     1      37.719 137.542  12.962  1.00  0.00     0.086 C 
ATOM     28  O   UNL     1      36.764 137.817  12.191  1.00  0.00    -0.315 OA
BRANCH  19  29
ATOM     29  N   UNL     1      41.698 138.986  14.066  1.00  0.00    -0.400 N 
ATOM     30  H   UNL     1      42.473 139.392  14.638  1.00  0.00     0.156 HD
ATOM     31  H   UNL     1      41.496 139.408  13.133  1.00  0.00     0.156 HD
ENDBRANCH  19  29
ENDBRANCH  14  16
ENDBRANCH  10  11
ENDBRANCH   9  10
ENDBRANCH   1   9
TORSDOF 9
ENDMDL
MODEL 8
REMARK VINA RESULT:      -5.6      6.500      9.265
REMARK SMILES C[C@@H](C#N)N(C)CCCCc1cn(-c2cc(N)c3c4c(cccc24)C(=O)[N-]3)nn1
REMARK SMILES IDX 8 1 7 2 5 3 6 4 2 5 1 6 3 7 4 8 9 9 10 10 11 11 12 12 29 13
REMARK SMILES IDX 13 14 28 15 14 16 15 17 24 18 16 19 23 20 19 21 18 22 22 23
REMARK SMILES IDX 20 24 27 25 21 26 25 27 26 28 17 29
REMARK H PARENT 17 30 17 31
ROOT
ATOM      1  C   UNL     1      43.054 134.818  16.047  1.00  0.00     0.016 C 
ENDROOT
BRANCH   1   2
ATOM      2  C   UNL     1      44.462 134.305  15.715  1.00  0.00     0.085 C 
BRANCH   2   3
ATOM      3  N   UNL     1      44.405 132.895  15.246  1.00  0.00    -0.291 NA
ATOM      4  C   UNL     1      43.083 132.318  15.570  1.00  0.00     0.106 C 
BRANCH   3   5
ATOM      5  C   UNL     1      45.526 132.087  15.803  1.00  0.00     0.157 C 
ATOM      6  C   UNL     1      45.051 130.771  16.446  1.00  0.00     0.041 C 
BRANCH   5   7
ATOM      7  C   UNL     1      46.468 131.730  14.725  1.00  0.00     0.081 C 
ATOM      8  N   UNL     1      47.206 131.451  13.878  1.00  0.00    -0.197 NA
ENDBRANCH   5   7
ENDBRANCH   3   5
ENDBRANCH   2   3
ENDBRANCH   1   2
BRANCH   1   9
ATOM      9  C   UNL     1      43.055 136.325  16.349  1.00  0.00     0.008 C 
BRANCH   9  10
ATOM     10  C   UNL     1      42.226 136.668  17.593  1.00  0.00     0.060 C 
BRANCH  10  11
ATOM     11  C   UNL     1      43.080 136.744  18.822  1.00  0.00     0.083 A 
ATOM     12  C   UNL     1      44.436 136.516  18.897  1.00  0.00     0.140 A 
ATOM     13  N   UNL     1      42.613 136.966  20.065  1.00  0.00    -0.135 NA
ATOM     14  N   UNL     1      44.756 136.607  20.200  1.00  0.00    -0.220 N 
ATOM     15  N   UNL     1      43.655 136.888  20.881  1.00  0.00    -0.062 NA
BRANCH  14  16
ATOM     16  C   UNL     1      46.069 136.489  20.773  1.00  0.00     0.076 A 
ATOM     17  C   UNL     1      46.346 135.419  21.674  1.00  0.00     0.053 A 
ATOM     18  C   UNL     1      47.108 137.403  20.451  1.00  0.00     0.007 A 
ATOM     19  C   UNL     1      47.635 135.238  22.233  1.00  0.00     0.019 A 
ATOM     20  C   UNL     1      46.991 138.558  19.639  1.00  0.00     0.011 A 
ATOM     21  C   UNL     1      48.352 137.170  21.019  1.00  0.00    -0.020 A 
ATOM     22  C   UNL     1      48.635 136.145  21.874  1.00  0.00    -0.102 A 
ATOM     23  C   UNL     1      48.120 139.394  19.427  1.00  0.00     0.001 A 
ATOM     24  C   UNL     1      49.440 137.960  20.829  1.00  0.00     0.006 A 
ATOM     25  N   UNL     1      49.997 136.188  22.318  1.00  0.00    -0.620 NA
ATOM     26  C   UNL     1      49.365 139.096  20.027  1.00  0.00     0.011 A 
ATOM     27  C   UNL     1      50.491 137.355  21.637  1.00  0.00     0.086 C 
ATOM     28  O   UNL     1      51.669 137.782  21.745  1.00  0.00    -0.315 OA
BRANCH  19  29
ATOM     29  N   UNL     1      47.901 134.161  23.133  1.00  0.00    -0.400 N 
ATOM     30  H   UNL     1      47.118 133.605  23.544  1.00  0.00     0.156 HD
ATOM     31  H   UNL     1      48.880 133.911  23.395  1.00  0.00     0.156 HD
ENDBRANCH  19  29
ENDBRANCH  14  16
ENDBRANCH  10  11
ENDBRANCH   9  10
ENDBRANCH   1   9
TORSDOF 9
ENDMDL
MODEL 9
REMARK VINA RESULT:      -5.5      4.610      7.073
REMARK SMILES C[C@@H](C#N)N(C)CCCCc1cn(-c2cc(N)c3c4c(cccc24)C(=O)[N-]3)nn1
REMARK SMILES IDX 8 1 7 2 5 3 6 4 2 5 1 6 3 7 4 8 9 9 10 10 11 11 12 12 29 13
REMARK SMILES IDX 13 14 28 15 14 16 15 17 24 18 16 19 23 20 19 21 18 22 22 23
REMARK SMILES IDX 20 24 27 25 21 26 25 27 26 28 17 29
REMARK H PARENT 17 30 17 31
ROOT
ATOM      1  C   UNL     1      43.721 132.157  14.707  1.00  0.00     0.016 C 
ENDROOT
BRANCH   1   2
ATOM      2  C   UNL     1      44.273 130.810  14.223  1.00  0.00     0.085 C 
BRANCH   2   3
ATOM      3  N   UNL     1      45.758 130.799  14.293  1.00  0.00    -0.291 NA
ATOM      4  C   UNL     1      46.312 130.408  12.979  1.00  0.00     0.106 C 
BRANCH   3   5
ATOM      5  C   UNL     1      46.248 129.925  15.396  1.00  0.00     0.157 C 
ATOM      6  C   UNL     1      46.170 130.605  16.776  1.00  0.00     0.041 C 
BRANCH   5   7
ATOM      7  C   UNL     1      45.427 128.702  15.466  1.00  0.00     0.081 C 
ATOM      8  N   UNL     1      44.781 127.743  15.520  1.00  0.00    -0.197 NA
ENDBRANCH   5   7
ENDBRANCH   3   5
ENDBRANCH   2   3
ENDBRANCH   1   2
BRANCH   1   9
ATOM      9  C   UNL     1      42.317 132.432  14.145  1.00  0.00     0.008 C 
BRANCH   9  10
ATOM     10  C   UNL     1      41.655 133.647  14.805  1.00  0.00     0.060 C 
BRANCH  10  11
ATOM     11  C   UNL     1      42.597 134.351  15.733  1.00  0.00     0.083 A 
ATOM     12  C   UNL     1      42.671 134.204  17.100  1.00  0.00     0.140 A 
ATOM     13  N   UNL     1      43.463 135.313  15.359  1.00  0.00    -0.135 NA
ATOM     14  N   UNL     1      43.590 135.090  17.521  1.00  0.00    -0.220 N 
ATOM     15  N   UNL     1      44.060 135.736  16.464  1.00  0.00    -0.062 NA
BRANCH  14  16
ATOM     16  C   UNL     1      44.048 135.279  18.870  1.00  0.00     0.076 A 
ATOM     17  C   UNL     1      44.075 136.593  19.423  1.00  0.00     0.053 A 
ATOM     18  C   UNL     1      44.460 134.185  19.678  1.00  0.00     0.007 A 
ATOM     19  C   UNL     1      44.481 136.824  20.760  1.00  0.00     0.019 A 
ATOM     20  C   UNL     1      44.567 132.832  19.271  1.00  0.00     0.011 A 
ATOM     21  C   UNL     1      44.836 134.470  20.982  1.00  0.00    -0.020 A 
ATOM     22  C   UNL     1      44.857 135.720  21.528  1.00  0.00    -0.102 A 
ATOM     23  C   UNL     1      45.019 131.848  20.190  1.00  0.00     0.001 A 
ATOM     24  C   UNL     1      45.273 133.542  21.872  1.00  0.00     0.006 A 
ATOM     25  N   UNL     1      45.323 135.696  22.883  1.00  0.00    -0.620 NA
ATOM     26  C   UNL     1      45.378 132.201  21.511  1.00  0.00     0.011 A 
ATOM     27  C   UNL     1      45.582 134.296  23.081  1.00  0.00     0.086 C 
ATOM     28  O   UNL     1      46.022 133.810  24.154  1.00  0.00    -0.315 OA
BRANCH  19  29
ATOM     29  N   UNL     1      44.503 138.146  21.304  1.00  0.00    -0.400 N 
ATOM     30  H   UNL     1      43.820 138.429  22.042  1.00  0.00     0.156 HD
ATOM     31  H   UNL     1      45.198 138.850  20.973  1.00  0.00     0.156 HD
ENDBRANCH  19  29
ENDBRANCH  14  16
ENDBRANCH  10  11
ENDBRANCH   9  10
ENDBRANCH   1   9
TORSDOF 9
ENDMDL


