MODEL 1
REMARK VINA RESULT:      -5.9      0.000      0.000
REMARK SMILES C#C/C(N)=[NH+]\[C@H](c1c(C)nnn1-c1c2ccccc2c(C=O)c2ccccc12)C(C)C
REMARK SMILES IDX 6 1 5 2 3 4 4 5 2 8 1 9 7 10 8 11 12 12 10 13 11 14 9 15
REMARK SMILES IDX 13 16 14 17 28 18 15 19 19 20 27 21 23 22 16 23 18 24 20 25
REMARK SMILES IDX 26 26 24 27 17 28 25 29 21 30 22 31 29 32 30 33 31 34
REMARK H PARENT 5 3 4 6 4 7
ROOT
ATOM      1  C   UNL     1      43.032 133.382  18.730  1.00  0.00     0.227 C 
ENDROOT
BRANCH   1   2
ATOM      2  N   UNL     1      41.693 132.833  18.450  1.00  0.00    -0.258 N 
ATOM      3  H   UNL     1      41.605 131.796  18.347  1.00  0.00     0.306 HD
BRANCH   2   4
ATOM      4  C   UNL     1      40.615 133.557  18.296  1.00  0.00     0.319 C 
ATOM      5  N   UNL     1      39.455 132.983  17.686  1.00  0.00    -0.280 N 
ATOM      6  H   UNL     1      38.593 133.555  17.542  1.00  0.00     0.302 HD
ATOM      7  H   UNL     1      39.456 131.993  17.355  1.00  0.00     0.302 HD
BRANCH   4   8
ATOM      8  C   UNL     1      40.564 134.944  18.699  1.00  0.00     0.017 C 
ATOM      9  C   UNL     1      40.524 136.101  19.030  1.00  0.00     0.018 C 
ENDBRANCH   4   8
ENDBRANCH   2   4
ENDBRANCH   1   2
BRANCH   1  10
ATOM     10  C   UNL     1      43.903 133.275  17.488  1.00  0.00     0.112 A 
ATOM     11  C   UNL     1      44.822 132.281  17.198  1.00  0.00     0.088 A 
ATOM     12  N   UNL     1      43.898 134.095  16.413  1.00  0.00    -0.212 N 
ATOM     13  N   UNL     1      45.337 132.522  15.976  1.00  0.00    -0.135 NA
ATOM     14  N   UNL     1      44.764 133.629  15.526  1.00  0.00    -0.062 NA
ATOM     15  C   UNL     1      45.177 131.092  18.032  1.00  0.00     0.071 C 
BRANCH  12  16
ATOM     16  C   UNL     1      43.140 135.300  16.217  1.00  0.00     0.083 A 
ATOM     17  C   UNL     1      42.012 135.290  15.372  1.00  0.00     0.009 A 
ATOM     18  C   UNL     1      43.509 136.482  16.890  1.00  0.00     0.009 A 
ATOM     19  C   UNL     1      41.567 134.085  14.786  1.00  0.00     0.011 A 
ATOM     20  C   UNL     1      41.321 136.500  15.091  1.00  0.00    -0.005 A 
ATOM     21  C   UNL     1      44.558 136.472  17.833  1.00  0.00     0.011 A 
ATOM     22  C   UNL     1      42.814 137.695  16.631  1.00  0.00    -0.005 A 
ATOM     23  C   UNL     1      40.482 134.076  13.913  1.00  0.00     0.001 A 
ATOM     24  C   UNL     1      40.236 136.462  14.182  1.00  0.00     0.009 A 
ATOM     25  C   UNL     1      41.742 137.712  15.698  1.00  0.00     0.030 A 
ATOM     26  C   UNL     1      44.925 137.635  18.504  1.00  0.00     0.001 A 
ATOM     27  C   UNL     1      43.193 138.856  17.348  1.00  0.00     0.009 A 
ATOM     28  C   UNL     1      39.825 135.262  13.604  1.00  0.00     0.001 A 
ATOM     29  C   UNL     1      44.244 138.822  18.264  1.00  0.00     0.001 A 
BRANCH  25  30
ATOM     30  C   UNL     1      41.052 138.982  15.363  1.00  0.00     0.261 C 
ATOM     31  O   UNL     1      41.356 139.625  14.323  1.00  0.00    -0.298 OA
ENDBRANCH  25  30
ENDBRANCH  12  16
ENDBRANCH   1  10
BRANCH   1  32
ATOM     32  C   UNL     1      43.669 132.674  19.960  1.00  0.00     0.034 C 
ATOM     33  C   UNL     1      42.616 131.856  20.728  1.00  0.00     0.012 C 
ATOM     34  C   UNL     1      44.328 133.672  20.926  1.00  0.00     0.012 C 
ENDBRANCH   1  32
TORSDOF 7
ENDMDL
MODEL 2
REMARK VINA RESULT:      -5.8      2.509      5.534
REMARK SMILES C#C/C(N)=[NH+]\[C@H](c1c(C)nnn1-c1c2ccccc2c(C=O)c2ccccc12)C(C)C
REMARK SMILES IDX 6 1 5 2 3 4 4 5 2 8 1 9 7 10 8 11 12 12 10 13 11 14 9 15
REMARK SMILES IDX 13 16 14 17 28 18 15 19 19 20 27 21 23 22 16 23 18 24 20 25
REMARK SMILES IDX 26 26 24 27 17 28 25 29 21 30 22 31 29 32 30 33 31 34
REMARK H PARENT 5 3 4 6 4 7
ROOT
ATOM      1  C   UNL     1      44.035 133.373  17.548  1.00  0.00     0.227 C 
ENDROOT
BRANCH   1   2
ATOM      2  N   UNL     1      44.161 131.910  17.415  1.00  0.00    -0.258 N 
ATOM      3  H   UNL     1      43.308 131.331  17.588  1.00  0.00     0.306 HD
BRANCH   2   4
ATOM      4  C   UNL     1      45.274 131.289  17.120  1.00  0.00     0.319 C 
ATOM      5  N   UNL     1      45.902 130.456  18.099  1.00  0.00    -0.280 N 
ATOM      6  H   UNL     1      46.800 129.968  17.883  1.00  0.00     0.302 HD
ATOM      7  H   UNL     1      45.490 130.340  19.051  1.00  0.00     0.302 HD
BRANCH   4   8
ATOM      8  C   UNL     1      45.913 131.440  15.834  1.00  0.00     0.017 C 
ATOM      9  C   UNL     1      46.451 131.568  14.763  1.00  0.00     0.018 C 
ENDBRANCH   4   8
ENDBRANCH   2   4
ENDBRANCH   1   2
BRANCH   1  10
ATOM     10  C   UNL     1      43.035 133.706  18.645  1.00  0.00     0.112 A 
ATOM     11  C   UNL     1      41.874 133.016  18.952  1.00  0.00     0.088 A 
ATOM     12  N   UNL     1      43.125 134.697  19.559  1.00  0.00    -0.212 N 
ATOM     13  N   UNL     1      41.305 133.599  20.026  1.00  0.00    -0.135 NA
ATOM     14  N   UNL     1      42.081 134.617  20.369  1.00  0.00    -0.062 NA
ATOM     15  C   UNL     1      41.330 131.797  18.280  1.00  0.00     0.071 C 
BRANCH  12  16
ATOM     16  C   UNL     1      44.131 135.718  19.667  1.00  0.00     0.083 A 
ATOM     17  C   UNL     1      43.949 136.954  19.015  1.00  0.00     0.009 A 
ATOM     18  C   UNL     1      45.285 135.493  20.445  1.00  0.00     0.009 A 
ATOM     19  C   UNL     1      42.746 137.232  18.330  1.00  0.00     0.011 A 
ATOM     20  C   UNL     1      44.985 137.928  19.030  1.00  0.00    -0.005 A 
ATOM     21  C   UNL     1      45.418 134.309  21.202  1.00  0.00     0.011 A 
ATOM     22  C   UNL     1      46.320 136.466  20.482  1.00  0.00    -0.005 A 
ATOM     23  C   UNL     1      42.578 138.433  17.644  1.00  0.00     0.001 A 
ATOM     24  C   UNL     1      44.793 139.128  18.304  1.00  0.00     0.009 A 
ATOM     25  C   UNL     1      46.187 137.670  19.740  1.00  0.00     0.030 A 
ATOM     26  C   UNL     1      46.553 134.081  21.975  1.00  0.00     0.001 A 
ATOM     27  C   UNL     1      47.451 136.217  21.298  1.00  0.00     0.009 A 
ATOM     28  C   UNL     1      43.602 139.374  17.623  1.00  0.00     0.001 A 
ATOM     29  C   UNL     1      47.564 135.033  22.026  1.00  0.00     0.001 A 
BRANCH  25  30
ATOM     30  C   UNL     1      47.287 138.665  19.711  1.00  0.00     0.261 C 
ATOM     31  O   UNL     1      48.247 138.540  18.905  1.00  0.00    -0.298 OA
ENDBRANCH  25  30
ENDBRANCH  12  16
ENDBRANCH   1  10
BRANCH   1  32
ATOM     32  C   UNL     1      43.650 134.016  16.185  1.00  0.00     0.034 C 
ATOM     33  C   UNL     1      44.537 135.236  15.883  1.00  0.00     0.012 C 
ATOM     34  C   UNL     1      42.174 134.449  16.145  1.00  0.00     0.012 C 
ENDBRANCH   1  32
TORSDOF 7
ENDMDL
MODEL 3
REMARK VINA RESULT:      -5.8      2.768      5.867
REMARK SMILES C#C/C(N)=[NH+]\[C@H](c1c(C)nnn1-c1c2ccccc2c(C=O)c2ccccc12)C(C)C
REMARK SMILES IDX 6 1 5 2 3 4 4 5 2 8 1 9 7 10 8 11 12 12 10 13 11 14 9 15
REMARK SMILES IDX 13 16 14 17 28 18 15 19 19 20 27 21 23 22 16 23 18 24 20 25
REMARK SMILES IDX 26 26 24 27 17 28 25 29 21 30 22 31 29 32 30 33 31 34
REMARK H PARENT 5 3 4 6 4 7
ROOT
ATOM      1  C   UNL     1      42.080 135.586  16.632  1.00  0.00     0.227 C 
ENDROOT
BRANCH   1   2
ATOM      2  N   UNL     1      41.471 136.414  15.576  1.00  0.00    -0.258 N 
ATOM      3  H   UNL     1      40.778 135.958  14.939  1.00  0.00     0.306 HD
BRANCH   2   4
ATOM      4  C   UNL     1      41.758 137.673  15.367  1.00  0.00     0.319 C 
ATOM      5  N   UNL     1      42.853 138.019  14.513  1.00  0.00    -0.280 N 
ATOM      6  H   UNL     1      43.103 139.020  14.351  1.00  0.00     0.302 HD
ATOM      7  H   UNL     1      43.433 137.281  14.056  1.00  0.00     0.302 HD
BRANCH   4   8
ATOM      8  C   UNL     1      41.017 138.739  16.000  1.00  0.00     0.017 C 
ATOM      9  C   UNL     1      40.398 139.625  16.532  1.00  0.00     0.018 C 
ENDBRANCH   4   8
ENDBRANCH   2   4
ENDBRANCH   1   2
BRANCH   1  10
ATOM     10  C   UNL     1      41.087 134.532  17.098  1.00  0.00     0.112 A 
ATOM     11  C   UNL     1      39.732 134.707  17.325  1.00  0.00     0.088 A 
ATOM     12  N   UNL     1      41.330 133.221  17.317  1.00  0.00    -0.212 N 
ATOM     13  N   UNL     1      39.202 133.515  17.668  1.00  0.00    -0.135 NA
ATOM     14  N   UNL     1      40.193 132.635  17.661  1.00  0.00    -0.062 NA
ATOM     15  C   UNL     1      38.934 135.961  17.174  1.00  0.00     0.071 C 
BRANCH  12  16
ATOM     16  C   UNL     1      42.585 132.525  17.247  1.00  0.00     0.083 A 
ATOM     17  C   UNL     1      43.056 132.049  16.006  1.00  0.00     0.009 A 
ATOM     18  C   UNL     1      43.356 132.341  18.412  1.00  0.00     0.009 A 
ATOM     19  C   UNL     1      42.348 132.329  14.817  1.00  0.00     0.011 A 
ATOM     20  C   UNL     1      44.243 131.270  15.945  1.00  0.00    -0.005 A 
ATOM     21  C   UNL     1      42.955 132.922  19.635  1.00  0.00     0.011 A 
ATOM     22  C   UNL     1      44.555 131.578  18.361  1.00  0.00    -0.005 A 
ATOM     23  C   UNL     1      42.782 131.824  13.594  1.00  0.00     0.001 A 
ATOM     24  C   UNL     1      44.645 130.751  14.691  1.00  0.00     0.009 A 
ATOM     25  C   UNL     1      44.978 131.007  17.131  1.00  0.00     0.030 A 
ATOM     26  C   UNL     1      43.714 132.747  20.789  1.00  0.00     0.001 A 
ATOM     27  C   UNL     1      45.318 131.441  19.546  1.00  0.00     0.009 A 
ATOM     28  C   UNL     1      43.921 131.029  13.532  1.00  0.00     0.001 A 
ATOM     29  C   UNL     1      44.892 132.013  20.744  1.00  0.00     0.001 A 
BRANCH  25  30
ATOM     30  C   UNL     1      46.188 130.151  17.072  1.00  0.00     0.261 C 
ATOM     31  O   UNL     1      47.028 130.287  16.143  1.00  0.00    -0.298 OA
ENDBRANCH  25  30
ENDBRANCH  12  16
ENDBRANCH   1  10
BRANCH   1  32
ATOM     32  C   UNL     1      42.588 136.476  17.803  1.00  0.00     0.034 C 
ATOM     33  C   UNL     1      44.074 136.206  18.093  1.00  0.00     0.012 C 
ATOM     34  C   UNL     1      41.779 136.254  19.091  1.00  0.00     0.012 C 
ENDBRANCH   1  32
TORSDOF 7
ENDMDL
MODEL 4
REMARK VINA RESULT:      -5.8      2.403      5.229
REMARK SMILES C#C/C(N)=[NH+]\[C@H](c1c(C)nnn1-c1c2ccccc2c(C=O)c2ccccc12)C(C)C
REMARK SMILES IDX 6 1 5 2 3 4 4 5 2 8 1 9 7 10 8 11 12 12 10 13 11 14 9 15
REMARK SMILES IDX 13 16 14 17 28 18 15 19 19 20 27 21 23 22 16 23 18 24 20 25
REMARK SMILES IDX 26 26 24 27 17 28 25 29 21 30 22 31 29 32 30 33 31 34
REMARK H PARENT 5 3 4 6 4 7
ROOT
ATOM      1  C   UNL     1      43.385 132.086  16.819  1.00  0.00     0.227 C 
ENDROOT
BRANCH   1   2
ATOM      2  N   UNL     1      44.817 132.319  16.558  1.00  0.00    -0.258 N 
ATOM      3  H   UNL     1      45.161 133.306  16.585  1.00  0.00     0.306 HD
BRANCH   2   4
ATOM      4  C   UNL     1      45.678 131.378  16.271  1.00  0.00     0.319 C 
ATOM      5  N   UNL     1      45.921 130.327  17.211  1.00  0.00    -0.280 N 
ATOM      6  H   UNL     1      46.619 129.579  17.002  1.00  0.00     0.302 HD
ATOM      7  H   UNL     1      45.425 130.301  18.130  1.00  0.00     0.302 HD
BRANCH   4   8
ATOM      8  C   UNL     1      46.424 131.379  15.034  1.00  0.00     0.017 C 
ATOM      9  C   UNL     1      47.048 131.374  14.003  1.00  0.00     0.018 C 
ENDBRANCH   4   8
ENDBRANCH   2   4
ENDBRANCH   1   2
BRANCH   1  10
ATOM     10  C   UNL     1      42.549 132.751  15.735  1.00  0.00     0.112 A 
ATOM     11  C   UNL     1      42.455 132.373  14.407  1.00  0.00     0.088 A 
ATOM     12  N   UNL     1      41.701 133.793  15.882  1.00  0.00    -0.212 N 
ATOM     13  N   UNL     1      41.565 133.183  13.798  1.00  0.00    -0.135 NA
ATOM     14  N   UNL     1      41.129 134.036  14.713  1.00  0.00    -0.062 NA
ATOM     15  C   UNL     1      43.150 131.238  13.727  1.00  0.00     0.071 C 
BRANCH  12  16
ATOM     16  C   UNL     1      41.445 134.572  17.063  1.00  0.00     0.083 A 
ATOM     17  C   UNL     1      42.382 135.538  17.483  1.00  0.00     0.009 A 
ATOM     18  C   UNL     1      40.248 134.388  17.783  1.00  0.00     0.009 A 
ATOM     19  C   UNL     1      43.528 135.810  16.704  1.00  0.00     0.011 A 
ATOM     20  C   UNL     1      42.186 136.237  18.705  1.00  0.00    -0.005 A 
ATOM     21  C   UNL     1      39.249 133.515  17.302  1.00  0.00     0.011 A 
ATOM     22  C   UNL     1      40.032 135.094  18.999  1.00  0.00    -0.005 A 
ATOM     23  C   UNL     1      44.481 136.730  17.137  1.00  0.00     0.001 A 
ATOM     24  C   UNL     1      43.184 137.147  19.129  1.00  0.00     0.009 A 
ATOM     25  C   UNL     1      41.023 135.991  19.481  1.00  0.00     0.030 A 
ATOM     26  C   UNL     1      38.063 133.331  18.007  1.00  0.00     0.001 A 
ATOM     27  C   UNL     1      38.805 134.906  19.679  1.00  0.00     0.009 A 
ATOM     28  C   UNL     1      44.314 137.389  18.350  1.00  0.00     0.001 A 
ATOM     29  C   UNL     1      37.840 134.026  19.189  1.00  0.00     0.001 A 
BRANCH  25  30
ATOM     30  C   UNL     1      40.846 136.683  20.781  1.00  0.00     0.261 C 
ATOM     31  O   UNL     1      40.207 137.767  20.852  1.00  0.00    -0.298 OA
ENDBRANCH  25  30
ENDBRANCH  12  16
ENDBRANCH   1  10
BRANCH   1  32
ATOM     32  C   UNL     1      43.001 132.577  18.244  1.00  0.00     0.034 C 
ATOM     33  C   UNL     1      44.256 132.924  19.062  1.00  0.00     0.012 C 
ATOM     34  C   UNL     1      42.176 131.531  19.014  1.00  0.00     0.012 C 
ENDBRANCH   1  32
TORSDOF 7
ENDMDL
MODEL 5
REMARK VINA RESULT:      -5.7      2.883      6.123
REMARK SMILES C#C/C(N)=[NH+]\[C@H](c1c(C)nnn1-c1c2ccccc2c(C=O)c2ccccc12)C(C)C
REMARK SMILES IDX 6 1 5 2 3 4 4 5 2 8 1 9 7 10 8 11 12 12 10 13 11 14 9 15
REMARK SMILES IDX 13 16 14 17 28 18 15 19 19 20 27 21 23 22 16 23 18 24 20 25
REMARK SMILES IDX 26 26 24 27 17 28 25 29 21 30 22 31 29 32 30 33 31 34
REMARK H PARENT 5 3 4 6 4 7
ROOT
ATOM      1  C   UNL     1      41.005 135.112  15.673  1.00  0.00     0.227 C 
ENDROOT
BRANCH   1   2
ATOM      2  N   UNL     1      39.661 135.711  15.759  1.00  0.00    -0.258 N 
ATOM      3  H   UNL     1      39.551 136.704  15.454  1.00  0.00     0.306 HD
BRANCH   2   4
ATOM      4  C   UNL     1      38.604 135.090  16.216  1.00  0.00     0.319 C 
ATOM      5  N   UNL     1      37.321 135.357  15.643  1.00  0.00    -0.280 N 
ATOM      6  H   UNL     1      36.466 134.881  16.010  1.00  0.00     0.302 HD
ATOM      7  H   UNL     1      37.211 136.047  14.867  1.00  0.00     0.302 HD
BRANCH   4   8
ATOM      8  C   UNL     1      38.685 134.153  17.313  1.00  0.00     0.017 C 
ATOM      9  C   UNL     1      38.757 133.374  18.228  1.00  0.00     0.018 C 
ENDBRANCH   4   8
ENDBRANCH   2   4
ENDBRANCH   1   2
BRANCH   1  10
ATOM     10  C   UNL     1      42.035 136.076  16.241  1.00  0.00     0.112 A 
ATOM     11  C   UNL     1      42.275 137.377  15.832  1.00  0.00     0.088 A 
ATOM     12  N   UNL     1      42.863 135.863  17.288  1.00  0.00    -0.212 N 
ATOM     13  N   UNL     1      43.224 137.905  16.630  1.00  0.00    -0.135 NA
ATOM     14  N   UNL     1      43.566 136.965  17.499  1.00  0.00    -0.062 NA
ATOM     15  C   UNL     1      41.589 138.133  14.740  1.00  0.00     0.071 C 
BRANCH  12  16
ATOM     16  C   UNL     1      43.032 134.661  18.058  1.00  0.00     0.083 A 
ATOM     17  C   UNL     1      42.350 134.511  19.283  1.00  0.00     0.009 A 
ATOM     18  C   UNL     1      43.856 133.624  17.576  1.00  0.00     0.009 A 
ATOM     19  C   UNL     1      41.434 135.492  19.717  1.00  0.00     0.011 A 
ATOM     20  C   UNL     1      42.593 133.373  20.099  1.00  0.00    -0.005 A 
ATOM     21  C   UNL     1      44.442 133.712  16.295  1.00  0.00     0.011 A 
ATOM     22  C   UNL     1      44.093 132.472  18.376  1.00  0.00    -0.005 A 
ATOM     23  C   UNL     1      40.792 135.374  20.948  1.00  0.00     0.001 A 
ATOM     24  C   UNL     1      41.944 133.292  21.355  1.00  0.00     0.009 A 
ATOM     25  C   UNL     1      43.491 132.365  19.658  1.00  0.00     0.030 A 
ATOM     26  C   UNL     1      45.254 132.690  15.812  1.00  0.00     0.001 A 
ATOM     27  C   UNL     1      44.903 131.438  17.846  1.00  0.00     0.009 A 
ATOM     28  C   UNL     1      41.054 134.281  21.768  1.00  0.00     0.001 A 
ATOM     29  C   UNL     1      45.482 131.556  16.583  1.00  0.00     0.001 A 
BRANCH  25  30
ATOM     30  C   UNL     1      43.783 131.204  20.535  1.00  0.00     0.261 C 
ATOM     31  O   UNL     1      44.773 131.219  21.314  1.00  0.00    -0.298 OA
ENDBRANCH  25  30
ENDBRANCH  12  16
ENDBRANCH   1  10
BRANCH   1  32
ATOM     32  C   UNL     1      41.329 134.701  14.208  1.00  0.00     0.034 C 
ATOM     33  C   UNL     1      40.174 135.078  13.264  1.00  0.00     0.012 C 
ATOM     34  C   UNL     1      41.607 133.194  14.078  1.00  0.00     0.012 C 
ENDBRANCH   1  32
TORSDOF 7
ENDMDL
MODEL 6
REMARK VINA RESULT:      -5.6      3.346      6.745
REMARK SMILES C#C/C(N)=[NH+]\[C@H](c1c(C)nnn1-c1c2ccccc2c(C=O)c2ccccc12)C(C)C
REMARK SMILES IDX 6 1 5 2 3 4 4 5 2 8 1 9 7 10 8 11 12 12 10 13 11 14 9 15
REMARK SMILES IDX 13 16 14 17 28 18 15 19 19 20 27 21 23 22 16 23 18 24 20 25
REMARK SMILES IDX 26 26 24 27 17 28 25 29 21 30 22 31 29 32 30 33 31 34
REMARK H PARENT 5 3 4 6 4 7
ROOT
ATOM      1  C   UNL     1      44.231 133.142  17.876  1.00  0.00     0.227 C 
ENDROOT
BRANCH   1   2
ATOM      2  N   UNL     1      44.204 131.683  18.081  1.00  0.00    -0.258 N 
ATOM      3  H   UNL     1      43.293 131.189  17.943  1.00  0.00     0.306 HD
BRANCH   2   4
ATOM      4  C   UNL     1      45.237 130.970  18.450  1.00  0.00     0.319 C 
ATOM      5  N   UNL     1      45.824 130.044  17.531  1.00  0.00    -0.280 N 
ATOM      6  H   UNL     1      46.638 129.456  17.818  1.00  0.00     0.302 HD
ATOM      7  H   UNL     1      45.438 129.922  16.569  1.00  0.00     0.302 HD
BRANCH   4   8
ATOM      8  C   UNL     1      45.793 131.065  19.779  1.00  0.00     0.017 C 
ATOM      9  C   UNL     1      46.262 131.147  20.886  1.00  0.00     0.018 C 
ENDBRANCH   4   8
ENDBRANCH   2   4
ENDBRANCH   1   2
BRANCH   1  10
ATOM     10  C   UNL     1      43.032 133.781  18.562  1.00  0.00     0.112 A 
ATOM     11  C   UNL     1      41.716 133.755  18.134  1.00  0.00     0.088 A 
ATOM     12  N   UNL     1      43.022 134.438  19.742  1.00  0.00    -0.212 N 
ATOM     13  N   UNL     1      40.958 134.385  19.054  1.00  0.00    -0.135 NA
ATOM     14  N   UNL     1      41.776 134.794  20.014  1.00  0.00    -0.062 NA
ATOM     15  C   UNL     1      41.166 133.105  16.906  1.00  0.00     0.071 C 
BRANCH  12  16
ATOM     16  C   UNL     1      44.137 134.765  20.589  1.00  0.00     0.083 A 
ATOM     17  C   UNL     1      44.978 135.846  20.256  1.00  0.00     0.009 A 
ATOM     18  C   UNL     1      44.374 134.020  21.762  1.00  0.00     0.009 A 
ATOM     19  C   UNL     1      44.682 136.669  19.148  1.00  0.00     0.011 A 
ATOM     20  C   UNL     1      46.141 136.109  21.029  1.00  0.00    -0.005 A 
ATOM     21  C   UNL     1      43.467 133.017  22.169  1.00  0.00     0.011 A 
ATOM     22  C   UNL     1      45.525 134.284  22.553  1.00  0.00    -0.005 A 
ATOM     23  C   UNL     1      45.533 137.711  18.786  1.00  0.00     0.001 A 
ATOM     24  C   UNL     1      46.999 137.159  20.623  1.00  0.00     0.009 A 
ATOM     25  C   UNL     1      46.433 135.305  22.164  1.00  0.00     0.030 A 
ATOM     26  C   UNL     1      43.693 132.281  23.328  1.00  0.00     0.001 A 
ATOM     27  C   UNL     1      45.713 133.536  23.741  1.00  0.00     0.009 A 
ATOM     28  C   UNL     1      46.692 137.949  19.516  1.00  0.00     0.001 A 
ATOM     29  C   UNL     1      44.810 132.541  24.113  1.00  0.00     0.001 A 
BRANCH  25  30
ATOM     30  C   UNL     1      47.674 135.548  22.938  1.00  0.00     0.261 C 
ATOM     31  O   UNL     1      48.751 134.975  22.623  1.00  0.00    -0.298 OA
ENDBRANCH  25  30
ENDBRANCH  12  16
ENDBRANCH   1  10
BRANCH   1  32
ATOM     32  C   UNL     1      44.291 133.481  16.358  1.00  0.00     0.034 C 
ATOM     33  C   UNL     1      45.484 132.779  15.687  1.00  0.00     0.012 C 
ATOM     34  C   UNL     1      44.396 134.994  16.107  1.00  0.00     0.012 C 
ENDBRANCH   1  32
TORSDOF 7
ENDMDL
MODEL 7
REMARK VINA RESULT:      -5.6      2.616      4.852
REMARK SMILES C#C/C(N)=[NH+]\[C@H](c1c(C)nnn1-c1c2ccccc2c(C=O)c2ccccc12)C(C)C
REMARK SMILES IDX 6 1 5 2 3 4 4 5 2 8 1 9 7 10 8 11 12 12 10 13 11 14 9 15
REMARK SMILES IDX 13 16 14 17 28 18 15 19 19 20 27 21 23 22 16 23 18 24 20 25
REMARK SMILES IDX 26 26 24 27 17 28 25 29 21 30 22 31 29 32 30 33 31 34
REMARK H PARENT 5 3 4 6 4 7
ROOT
ATOM      1  C   UNL     1      39.364 135.284  16.573  1.00  0.00     0.227 C 
ENDROOT
BRANCH   1   2
ATOM      2  N   UNL     1      38.586 136.441  16.094  1.00  0.00    -0.258 N 
ATOM      3  H   UNL     1      37.956 136.296  15.272  1.00  0.00     0.306 HD
BRANCH   2   4
ATOM      4  C   UNL     1      38.651 137.640  16.612  1.00  0.00     0.319 C 
ATOM      5  N   UNL     1      37.937 138.718  16.000  1.00  0.00    -0.280 N 
ATOM      6  H   UNL     1      37.994 139.684  16.394  1.00  0.00     0.302 HD
ATOM      7  H   UNL     1      37.366 138.565  15.139  1.00  0.00     0.302 HD
BRANCH   4   8
ATOM      8  C   UNL     1      39.454 137.923  17.779  1.00  0.00     0.017 C 
ATOM      9  C   UNL     1      40.120 138.161  18.755  1.00  0.00     0.018 C 
ENDBRANCH   4   8
ENDBRANCH   2   4
ENDBRANCH   1   2
BRANCH   1  10
ATOM     10  C   UNL     1      40.322 134.822  15.485  1.00  0.00     0.112 A 
ATOM     11  C   UNL     1      39.989 134.231  14.278  1.00  0.00     0.088 A 
ATOM     12  N   UNL     1      41.667 134.957  15.470  1.00  0.00    -0.212 N 
ATOM     13  N   UNL     1      41.123 134.030  13.577  1.00  0.00    -0.135 NA
ATOM     14  N   UNL     1      42.123 134.474  14.325  1.00  0.00    -0.062 NA
ATOM     15  C   UNL     1      38.624 133.904  13.765  1.00  0.00     0.071 C 
BRANCH  12  16
ATOM     16  C   UNL     1      42.519 135.486  16.498  1.00  0.00     0.083 A 
ATOM     17  C   UNL     1      43.103 134.618  17.443  1.00  0.00     0.009 A 
ATOM     18  C   UNL     1      42.790 136.868  16.547  1.00  0.00     0.009 A 
ATOM     19  C   UNL     1      42.931 133.221  17.333  1.00  0.00     0.011 A 
ATOM     20  C   UNL     1      43.861 135.145  18.523  1.00  0.00    -0.005 A 
ATOM     21  C   UNL     1      42.313 137.728  15.534  1.00  0.00     0.011 A 
ATOM     22  C   UNL     1      43.562 137.406  17.613  1.00  0.00    -0.005 A 
ATOM     23  C   UNL     1      43.466 132.360  18.288  1.00  0.00     0.001 A 
ATOM     24  C   UNL     1      44.372 134.247  19.491  1.00  0.00     0.009 A 
ATOM     25  C   UNL     1      44.065 136.547  18.627  1.00  0.00     0.030 A 
ATOM     26  C   UNL     1      42.581 139.094  15.574  1.00  0.00     0.001 A 
ATOM     27  C   UNL     1      43.839 138.795  17.612  1.00  0.00     0.009 A 
ATOM     28  C   UNL     1      44.176 132.872  19.369  1.00  0.00     0.001 A 
ATOM     29  C   UNL     1      43.343 139.625  16.607  1.00  0.00     0.001 A 
BRANCH  25  30
ATOM     30  C   UNL     1      44.811 137.098  19.784  1.00  0.00     0.261 C 
ATOM     31  O   UNL     1      46.053 137.299  19.712  1.00  0.00    -0.298 OA
ENDBRANCH  25  30
ENDBRANCH  12  16
ENDBRANCH   1  10
BRANCH   1  32
ATOM     32  C   UNL     1      38.416 134.145  17.047  1.00  0.00     0.034 C 
ATOM     33  C   UNL     1      37.335 134.690  17.995  1.00  0.00     0.012 C 
ATOM     34  C   UNL     1      39.180 133.015  17.758  1.00  0.00     0.012 C 
ENDBRANCH   1  32
TORSDOF 7
ENDMDL
MODEL 8
REMARK VINA RESULT:      -5.6      2.861      5.697
REMARK SMILES C#C/C(N)=[NH+]\[C@H](c1c(C)nnn1-c1c2ccccc2c(C=O)c2ccccc12)C(C)C
REMARK SMILES IDX 6 1 5 2 3 4 4 5 2 8 1 9 7 10 8 11 12 12 10 13 11 14 9 15
REMARK SMILES IDX 13 16 14 17 28 18 15 19 19 20 27 21 23 22 16 23 18 24 20 25
REMARK SMILES IDX 26 26 24 27 17 28 25 29 21 30 22 31 29 32 30 33 31 34
REMARK H PARENT 5 3 4 6 4 7
ROOT
ATOM      1  C   UNL     1      40.972 134.438  16.075  1.00  0.00     0.227 C 
ENDROOT
BRANCH   1   2
ATOM      2  N   UNL     1      39.659 134.808  16.634  1.00  0.00    -0.258 N 
ATOM      3  H   UNL     1      38.851 134.870  15.975  1.00  0.00     0.306 HD
BRANCH   2   4
ATOM      4  C   UNL     1      39.445 135.089  17.893  1.00  0.00     0.319 C 
ATOM      5  N   UNL     1      39.391 134.033  18.857  1.00  0.00    -0.280 N 
ATOM      6  H   UNL     1      39.204 134.242  19.863  1.00  0.00     0.302 HD
ATOM      7  H   UNL     1      39.515 133.036  18.571  1.00  0.00     0.302 HD
BRANCH   4   8
ATOM      8  C   UNL     1      39.229 136.444  18.346  1.00  0.00     0.017 C 
ATOM      9  C   UNL     1      39.046 137.574  18.719  1.00  0.00     0.018 C 
ENDBRANCH   4   8
ENDBRANCH   2   4
ENDBRANCH   1   2
BRANCH   1  10
ATOM     10  C   UNL     1      41.970 135.560  16.318  1.00  0.00     0.112 A 
ATOM     11  C   UNL     1      41.982 136.809  15.721  1.00  0.00     0.088 A 
ATOM     12  N   UNL     1      42.991 135.567  17.204  1.00  0.00    -0.212 N 
ATOM     13  N   UNL     1      42.992 137.525  16.254  1.00  0.00    -0.135 NA
ATOM     14  N   UNL     1      43.589 136.747  17.145  1.00  0.00    -0.062 NA
ATOM     15  C   UNL     1      41.030 137.343  14.700  1.00  0.00     0.071 C 
BRANCH  12  16
ATOM     16  C   UNL     1      43.432 134.502  18.062  1.00  0.00     0.083 A 
ATOM     17  C   UNL     1      44.192 133.440  17.531  1.00  0.00     0.009 A 
ATOM     18  C   UNL     1      43.125 134.533  19.438  1.00  0.00     0.009 A 
ATOM     19  C   UNL     1      44.602 133.459  16.180  1.00  0.00     0.011 A 
ATOM     20  C   UNL     1      44.540 132.333  18.350  1.00  0.00    -0.005 A 
ATOM     21  C   UNL     1      42.474 135.651  20.002  1.00  0.00     0.011 A 
ATOM     22  C   UNL     1      43.484 133.439  20.272  1.00  0.00    -0.005 A 
ATOM     23  C   UNL     1      45.313 132.393  15.636  1.00  0.00     0.001 A 
ATOM     24  C   UNL     1      45.243 131.253  17.763  1.00  0.00     0.009 A 
ATOM     25  C   UNL     1      44.158 132.317  19.718  1.00  0.00     0.030 A 
ATOM     26  C   UNL     1      42.172 135.689  21.360  1.00  0.00     0.001 A 
ATOM     27  C   UNL     1      43.186 133.518  21.654  1.00  0.00     0.009 A 
ATOM     28  C   UNL     1      45.624 131.289  16.423  1.00  0.00     0.001 A 
ATOM     29  C   UNL     1      42.529 134.629  22.184  1.00  0.00     0.001 A 
BRANCH  25  30
ATOM     30  C   UNL     1      44.477 131.137  20.558  1.00  0.00     0.261 C 
ATOM     31  O   UNL     1      45.621 131.001  21.069  1.00  0.00    -0.298 OA
ENDBRANCH  25  30
ENDBRANCH  12  16
ENDBRANCH   1  10
BRANCH   1  32
ATOM     32  C   UNL     1      40.845 134.079  14.567  1.00  0.00     0.034 C 
ATOM     33  C   UNL     1      39.383 133.773  14.198  1.00  0.00     0.012 C 
ATOM     34  C   UNL     1      41.719 132.874  14.183  1.00  0.00     0.012 C 
ENDBRANCH   1  32
TORSDOF 7
ENDMDL
MODEL 9
REMARK VINA RESULT:      -5.5      2.840      5.540
REMARK SMILES C#C/C(N)=[NH+]\[C@H](c1c(C)nnn1-c1c2ccccc2c(C=O)c2ccccc12)C(C)C
REMARK SMILES IDX 6 1 5 2 3 4 4 5 2 8 1 9 7 10 8 11 12 12 10 13 11 14 9 15
REMARK SMILES IDX 13 16 14 17 28 18 15 19 19 20 27 21 23 22 16 23 18 24 20 25
REMARK SMILES IDX 26 26 24 27 17 28 25 29 21 30 22 31 29 32 30 33 31 34
REMARK H PARENT 5 3 4 6 4 7
ROOT
ATOM      1  C   UNL     1      40.737 134.528  16.526  1.00  0.00     0.227 C 
ENDROOT
BRANCH   1   2
ATOM      2  N   UNL     1      39.779 135.495  17.091  1.00  0.00    -0.258 N 
ATOM      3  H   UNL     1      38.899 135.676  16.556  1.00  0.00     0.306 HD
BRANCH   2   4
ATOM      4  C   UNL     1      39.968 136.160  18.201  1.00  0.00     0.319 C 
ATOM      5  N   UNL     1      40.081 137.586  18.164  1.00  0.00    -0.280 N 
ATOM      6  H   UNL     1      40.249 138.127  19.042  1.00  0.00     0.302 HD
ATOM      7  H   UNL     1      40.021 138.107  17.262  1.00  0.00     0.302 HD
BRANCH   4   8
ATOM      8  C   UNL     1      40.097 135.493  19.476  1.00  0.00     0.017 C 
ATOM      9  C   UNL     1      40.201 134.937  20.540  1.00  0.00     0.018 C 
ENDBRANCH   4   8
ENDBRANCH   2   4
ENDBRANCH   1   2
BRANCH   1  10
ATOM     10  C   UNL     1      41.936 135.267  15.950  1.00  0.00     0.112 A 
ATOM     11  C   UNL     1      41.912 136.318  15.049  1.00  0.00     0.088 A 
ATOM     12  N   UNL     1      43.238 135.076  16.256  1.00  0.00    -0.212 N 
ATOM     13  N   UNL     1      43.180 136.727  14.840  1.00  0.00    -0.135 NA
ATOM     14  N   UNL     1      43.962 135.953  15.580  1.00  0.00    -0.062 NA
ATOM     15  C   UNL     1      40.716 136.965  14.429  1.00  0.00     0.071 C 
BRANCH  12  16
ATOM     16  C   UNL     1      43.810 134.085  17.126  1.00  0.00     0.083 A 
ATOM     17  C   UNL     1      44.243 132.852  16.597  1.00  0.00     0.009 A 
ATOM     18  C   UNL     1      43.962 134.356  18.501  1.00  0.00     0.009 A 
ATOM     19  C   UNL     1      44.202 132.616  15.206  1.00  0.00     0.011 A 
ATOM     20  C   UNL     1      44.712 131.829  17.465  1.00  0.00    -0.005 A 
ATOM     21  C   UNL     1      43.649 135.632  19.018  1.00  0.00     0.011 A 
ATOM     22  C   UNL     1      44.447 133.347  19.377  1.00  0.00    -0.005 A 
ATOM     23  C   UNL     1      44.584 131.384  14.681  1.00  0.00     0.001 A 
ATOM     24  C   UNL     1      45.070 130.579  16.904  1.00  0.00     0.009 A 
ATOM     25  C   UNL     1      44.785 132.066  18.863  1.00  0.00     0.030 A 
ATOM     26  C   UNL     1      43.800 135.907  20.374  1.00  0.00     0.001 A 
ATOM     27  C   UNL     1      44.614 133.666  20.747  1.00  0.00     0.009 A 
ATOM     28  C   UNL     1      45.008 130.366  15.528  1.00  0.00     0.001 A 
ATOM     29  C   UNL     1      44.283 134.930  21.235  1.00  0.00     0.001 A 
BRANCH  25  30
ATOM     30  C   UNL     1      45.225 130.979  19.772  1.00  0.00     0.261 C 
ATOM     31  O   UNL     1      46.372 131.000  20.292  1.00  0.00    -0.298 OA
ENDBRANCH  25  30
ENDBRANCH  12  16
ENDBRANCH   1  10
BRANCH   1  32
ATOM     32  C   UNL     1      40.042 133.620  15.471  1.00  0.00     0.034 C 
ATOM     33  C   UNL     1      40.928 133.449  14.225  1.00  0.00     0.012 C 
ATOM     34  C   UNL     1      38.675 134.176  15.040  1.00  0.00     0.012 C 
ENDBRANCH   1  32
TORSDOF 7
ENDMDL


