MODEL 1
REMARK VINA RESULT:      -7.8      0.000      0.000
REMARK SMILES Cc1ccc2ccccc2c1C[N+](C)(C)CCc1cn(/C(=N\O)c2ccccc2N=[N+]=[N-])[nH+]n1
REMARK SMILES IDX 20 1 19 2 18 3 34 4 33 5 21 7 22 8 23 9 24 11 25 12 29 13
REMARK SMILES IDX 26 14 28 15 27 16 30 17 31 18 32 19 17 20 16 21 13 22 14 23
REMARK SMILES IDX 15 24 12 25 11 26 2 27 10 28 3 29 9 30 5 31 4 32 8 33 6 34
REMARK SMILES IDX 7 35 1 36
REMARK H PARENT 33 6 23 10
ROOT
ATOM      1  N   UNL     1      44.386 133.187  17.784  1.00  0.00    -0.081 N 
ATOM      2  C   UNL     1      44.052 134.031  18.779  1.00  0.00     0.192 A 
ATOM      3  C   UNL     1      43.965 133.262  19.923  1.00  0.00     0.138 A 
ATOM      4  N   UNL     1      44.254 131.984  19.603  1.00  0.00     0.020 NA
ATOM      5  N   UNL     1      44.496 131.973  18.301  1.00  0.00    -0.011 N 
ATOM      6  H   UNL     1      44.753 131.115  17.762  1.00  0.00     0.527 HD
ENDROOT
BRANCH   1   7
ATOM      7  C   UNL     1      44.593 133.505  16.396  1.00  0.00     0.241 C 
BRANCH   7   8
ATOM      8  N   UNL     1      44.598 134.743  15.987  1.00  0.00    -0.064 NA
BRANCH   8   9
ATOM      9  O   UNL     1      43.838 135.171  14.922  1.00  0.00    -0.409 OA
ATOM     10  H   UNL     1      43.540 134.509  14.215  1.00  0.00     0.330 HD
ENDBRANCH   8   9
ENDBRANCH   7   8
BRANCH   7  11
ATOM     11  C   UNL     1      44.894 132.426  15.425  1.00  0.00     0.036 A 
ATOM     12  C   UNL     1      46.237 132.109  15.138  1.00  0.00     0.013 A 
ATOM     13  C   UNL     1      43.861 131.740  14.740  1.00  0.00     0.049 A 
ATOM     14  C   UNL     1      46.553 131.119  14.206  1.00  0.00     0.001 A 
ATOM     15  C   UNL     1      44.198 130.746  13.796  1.00  0.00     0.011 A 
ATOM     16  C   UNL     1      45.536 130.438  13.536  1.00  0.00     0.001 A 
BRANCH  13  17
ATOM     17  N   UNL     1      42.488 132.096  14.976  1.00  0.00    -0.060 NA
BRANCH  17  18
ATOM     18  N   UNL     1      41.893 132.925  14.283  1.00  0.00     0.005 N 
ATOM     19  N   UNL     1      41.301 133.750  13.590  1.00  0.00    -0.003 NA
ENDBRANCH  17  18
ENDBRANCH  13  17
ENDBRANCH   7  11
ENDBRANCH   1   7
BRANCH   3  20
ATOM     20  C   UNL     1      43.644 133.738  21.308  1.00  0.00     0.126 C 
BRANCH  20  21
ATOM     21  C   UNL     1      44.310 135.092  21.677  1.00  0.00     0.270 C 
BRANCH  21  22
ATOM     22  N   UNL     1      45.600 135.046  22.447  1.00  0.00    -0.324 N 
ATOM     23  C   UNL     1      45.450 133.958  23.448  1.00  0.00     0.334 C 
ATOM     24  C   UNL     1      45.795 136.310  23.201  1.00  0.00     0.334 C 
BRANCH  22  25
ATOM     25  C   UNL     1      46.757 134.781  21.524  1.00  0.00     0.301 C 
BRANCH  25  26
ATOM     26  C   UNL     1      47.839 135.882  21.464  1.00  0.00     0.017 A 
ATOM     27  C   UNL     1      48.991 135.805  22.310  1.00  0.00    -0.042 A 
ATOM     28  C   UNL     1      47.722 137.009  20.584  1.00  0.00    -0.009 A 
ATOM     29  C   UNL     1      50.062 136.690  22.117  1.00  0.00     0.004 A 
ATOM     30  C   UNL     1      46.531 137.312  19.878  1.00  0.00     0.009 A 
ATOM     31  C   UNL     1      48.831 137.886  20.418  1.00  0.00    -0.018 A 
ATOM     32  C   UNL     1      49.998 137.694  21.162  1.00  0.00     0.009 A 
ATOM     33  C   UNL     1      46.472 138.394  18.997  1.00  0.00     0.001 A 
ATOM     34  C   UNL     1      48.758 138.966  19.522  1.00  0.00     0.009 A 
ATOM     35  C   UNL     1      47.586 139.210  18.810  1.00  0.00     0.001 A 
ATOM     36  C   UNL     1      49.076 134.865  23.492  1.00  0.00     0.045 C 
ENDBRANCH  25  26
ENDBRANCH  22  25
ENDBRANCH  21  22
ENDBRANCH  20  21
ENDBRANCH   3  20
TORSDOF 11
ENDMDL
MODEL 2
REMARK VINA RESULT:      -6.6      2.584      4.507
REMARK SMILES Cc1ccc2ccccc2c1C[N+](C)(C)CCc1cn(/C(=N\O)c2ccccc2N=[N+]=[N-])[nH+]n1
REMARK SMILES IDX 20 1 19 2 18 3 34 4 33 5 21 7 22 8 23 9 24 11 25 12 29 13
REMARK SMILES IDX 26 14 28 15 27 16 30 17 31 18 32 19 17 20 16 21 13 22 14 23
REMARK SMILES IDX 15 24 12 25 11 26 2 27 10 28 3 29 9 30 5 31 4 32 8 33 6 34
REMARK SMILES IDX 7 35 1 36
REMARK H PARENT 33 6 23 10
ROOT
ATOM      1  N   UNL     1      43.203 132.403  15.889  1.00  0.00    -0.081 N 
ATOM      2  C   UNL     1      43.451 132.468  17.211  1.00  0.00     0.192 A 
ATOM      3  C   UNL     1      44.400 131.499  17.472  1.00  0.00     0.138 A 
ATOM      4  N   UNL     1      44.709 130.879  16.314  1.00  0.00     0.020 NA
ATOM      5  N   UNL     1      43.962 131.446  15.379  1.00  0.00    -0.011 N 
ATOM      6  H   UNL     1      43.985 131.175  14.370  1.00  0.00     0.527 HD
ENDROOT
BRANCH   1   7
ATOM      7  C   UNL     1      42.285 133.209  15.128  1.00  0.00     0.241 C 
BRANCH   7   8
ATOM      8  N   UNL     1      41.552 132.680  14.188  1.00  0.00    -0.064 NA
BRANCH   8   9
ATOM      9  O   UNL     1      40.236 133.033  13.991  1.00  0.00    -0.409 OA
ATOM     10  H   UNL     1      39.721 132.646  13.209  1.00  0.00     0.330 HD
ENDBRANCH   8   9
ENDBRANCH   7   8
BRANCH   7  11
ATOM     11  C   UNL     1      42.096 134.639  15.467  1.00  0.00     0.036 A 
ATOM     12  C   UNL     1      42.976 135.599  14.928  1.00  0.00     0.013 A 
ATOM     13  C   UNL     1      41.081 135.059  16.363  1.00  0.00     0.049 A 
ATOM     14  C   UNL     1      42.843 136.951  15.253  1.00  0.00     0.001 A 
ATOM     15  C   UNL     1      40.965 136.427  16.685  1.00  0.00     0.011 A 
ATOM     16  C   UNL     1      41.840 137.365  16.129  1.00  0.00     0.001 A 
BRANCH  13  17
ATOM     17  N   UNL     1      40.216 134.083  16.969  1.00  0.00    -0.060 NA
BRANCH  17  18
ATOM     18  N   UNL     1      38.987 134.189  16.950  1.00  0.00     0.005 N 
ATOM     19  N   UNL     1      37.762 134.295  16.928  1.00  0.00    -0.003 NA
ENDBRANCH  17  18
ENDBRANCH  13  17
ENDBRANCH   7  11
ENDBRANCH   1   7
BRANCH   3  20
ATOM     20  C   UNL     1      45.028 131.184  18.796  1.00  0.00     0.126 C 
BRANCH  20  21
ATOM     21  C   UNL     1      45.018 132.374  19.795  1.00  0.00     0.270 C 
BRANCH  21  22
ATOM     22  N   UNL     1      44.332 132.167  21.117  1.00  0.00    -0.324 N 
ATOM     23  C   UNL     1      45.163 131.190  21.868  1.00  0.00     0.334 C 
ATOM     24  C   UNL     1      43.000 131.543  20.913  1.00  0.00     0.334 C 
BRANCH  22  25
ATOM     25  C   UNL     1      44.215 133.468  21.861  1.00  0.00     0.301 C 
BRANCH  25  26
ATOM     26  C   UNL     1      44.795 134.708  21.146  1.00  0.00     0.017 A 
ATOM     27  C   UNL     1      43.967 135.495  20.283  1.00  0.00    -0.042 A 
ATOM     28  C   UNL     1      46.165 135.101  21.308  1.00  0.00    -0.009 A 
ATOM     29  C   UNL     1      44.432 136.725  19.796  1.00  0.00     0.004 A 
ATOM     30  C   UNL     1      47.131 134.279  21.942  1.00  0.00     0.009 A 
ATOM     31  C   UNL     1      46.599 136.356  20.795  1.00  0.00    -0.018 A 
ATOM     32  C   UNL     1      45.718 137.166  20.076  1.00  0.00     0.009 A 
ATOM     33  C   UNL     1      48.445 134.717  22.118  1.00  0.00     0.001 A 
ATOM     34  C   UNL     1      47.924 136.785  20.987  1.00  0.00     0.009 A 
ATOM     35  C   UNL     1      48.837 135.971  21.654  1.00  0.00     0.001 A 
ATOM     36  C   UNL     1      42.625 135.015  19.778  1.00  0.00     0.045 C 
ENDBRANCH  25  26
ENDBRANCH  22  25
ENDBRANCH  21  22
ENDBRANCH  20  21
ENDBRANCH   3  20
TORSDOF 11
ENDMDL
MODEL 3
REMARK VINA RESULT:      -6.6      4.695      7.570
REMARK SMILES Cc1ccc2ccccc2c1C[N+](C)(C)CCc1cn(/C(=N\O)c2ccccc2N=[N+]=[N-])[nH+]n1
REMARK SMILES IDX 20 1 19 2 18 3 34 4 33 5 21 7 22 8 23 9 24 11 25 12 29 13
REMARK SMILES IDX 26 14 28 15 27 16 30 17 31 18 32 19 17 20 16 21 13 22 14 23
REMARK SMILES IDX 15 24 12 25 11 26 2 27 10 28 3 29 9 30 5 31 4 32 8 33 6 34
REMARK SMILES IDX 7 35 1 36
REMARK H PARENT 33 6 23 10
ROOT
ATOM      1  N   UNL     1      43.178 134.028  15.310  1.00  0.00    -0.081 N 
ATOM      2  C   UNL     1      42.284 134.896  14.800  1.00  0.00     0.192 A 
ATOM      3  C   UNL     1      42.679 136.149  15.225  1.00  0.00     0.138 A 
ATOM      4  N   UNL     1      43.797 136.017  15.968  1.00  0.00     0.020 NA
ATOM      5  N   UNL     1      44.067 134.721  16.005  1.00  0.00    -0.011 N 
ATOM      6  H   UNL     1      44.884 134.309  16.510  1.00  0.00     0.527 HD
ENDROOT
BRANCH   1   7
ATOM      7  C   UNL     1      43.200 132.598  15.154  1.00  0.00     0.241 C 
BRANCH   7   8
ATOM      8  N   UNL     1      42.414 132.006  14.299  1.00  0.00    -0.064 NA
BRANCH   8   9
ATOM      9  O   UNL     1      41.155 132.479  14.005  1.00  0.00    -0.409 OA
ATOM     10  H   UNL     1      40.808 132.434  13.054  1.00  0.00     0.330 HD
ENDBRANCH   8   9
ENDBRANCH   7   8
BRANCH   7  11
ATOM     11  C   UNL     1      44.186 131.785  15.905  1.00  0.00     0.036 A 
ATOM     12  C   UNL     1      44.150 131.782  17.314  1.00  0.00     0.013 A 
ATOM     13  C   UNL     1      45.197 131.048  15.239  1.00  0.00     0.049 A 
ATOM     14  C   UNL     1      45.085 131.051  18.051  1.00  0.00     0.001 A 
ATOM     15  C   UNL     1      46.137 130.319  15.998  1.00  0.00     0.011 A 
ATOM     16  C   UNL     1      46.076 130.320  17.394  1.00  0.00     0.001 A 
BRANCH  13  17
ATOM     17  N   UNL     1      45.284 131.092  13.804  1.00  0.00    -0.060 NA
BRANCH  17  18
ATOM     18  N   UNL     1      46.274 130.685  13.191  1.00  0.00     0.005 N 
ATOM     19  N   UNL     1      47.260 130.281  12.578  1.00  0.00    -0.003 NA
ENDBRANCH  17  18
ENDBRANCH  13  17
ENDBRANCH   7  11
ENDBRANCH   1   7
BRANCH   3  20
ATOM     20  C   UNL     1      42.024 137.459  14.904  1.00  0.00     0.126 C 
BRANCH  20  21
ATOM     21  C   UNL     1      40.482 137.367  14.741  1.00  0.00     0.270 C 
BRANCH  21  22
ATOM     22  N   UNL     1      39.648 138.432  15.398  1.00  0.00    -0.324 N 
ATOM     23  C   UNL     1      38.759 138.977  14.339  1.00  0.00     0.334 C 
ATOM     24  C   UNL     1      40.510 139.548  15.862  1.00  0.00     0.334 C 
BRANCH  22  25
ATOM     25  C   UNL     1      38.851 137.853  16.533  1.00  0.00     0.301 C 
BRANCH  25  26
ATOM     26  C   UNL     1      39.093 136.357  16.834  1.00  0.00     0.017 A 
ATOM     27  C   UNL     1      38.239 135.361  16.263  1.00  0.00    -0.042 A 
ATOM     28  C   UNL     1      40.158 135.922  17.691  1.00  0.00    -0.009 A 
ATOM     29  C   UNL     1      38.576 134.004  16.371  1.00  0.00     0.004 A 
ATOM     30  C   UNL     1      40.914 136.815  18.491  1.00  0.00     0.009 A 
ATOM     31  C   UNL     1      40.466 134.535  17.777  1.00  0.00    -0.018 A 
ATOM     32  C   UNL     1      39.692 133.598  17.089  1.00  0.00     0.009 A 
ATOM     33  C   UNL     1      41.972 136.356  19.280  1.00  0.00     0.001 A 
ATOM     34  C   UNL     1      41.537 134.090  18.571  1.00  0.00     0.009 A 
ATOM     35  C   UNL     1      42.290 135.000  19.310  1.00  0.00     0.001 A 
ATOM     36  C   UNL     1      36.911 135.694  15.621  1.00  0.00     0.045 C 
ENDBRANCH  25  26
ENDBRANCH  22  25
ENDBRANCH  21  22
ENDBRANCH  20  21
ENDBRANCH   3  20
TORSDOF 11
ENDMDL
MODEL 4
REMARK VINA RESULT:      -6.3      4.837      7.150
REMARK SMILES Cc1ccc2ccccc2c1C[N+](C)(C)CCc1cn(/C(=N\O)c2ccccc2N=[N+]=[N-])[nH+]n1
REMARK SMILES IDX 20 1 19 2 18 3 34 4 33 5 21 7 22 8 23 9 24 11 25 12 29 13
REMARK SMILES IDX 26 14 28 15 27 16 30 17 31 18 32 19 17 20 16 21 13 22 14 23
REMARK SMILES IDX 15 24 12 25 11 26 2 27 10 28 3 29 9 30 5 31 4 32 8 33 6 34
REMARK SMILES IDX 7 35 1 36
REMARK H PARENT 33 6 23 10
ROOT
ATOM      1  N   UNL     1      44.748 132.596  16.657  1.00  0.00    -0.081 N 
ATOM      2  C   UNL     1      44.504 133.719  15.954  1.00  0.00     0.192 A 
ATOM      3  C   UNL     1      43.488 134.376  16.618  1.00  0.00     0.138 A 
ATOM      4  N   UNL     1      43.146 133.651  17.704  1.00  0.00     0.020 NA
ATOM      5  N   UNL     1      43.923 132.579  17.692  1.00  0.00    -0.011 N 
ATOM      6  H   UNL     1      43.891 131.827  18.418  1.00  0.00     0.527 HD
ENDROOT
BRANCH   1   7
ATOM      7  C   UNL     1      45.719 131.574  16.370  1.00  0.00     0.241 C 
BRANCH   7   8
ATOM      8  N   UNL     1      46.278 130.893  17.331  1.00  0.00    -0.064 NA
BRANCH   8   9
ATOM      9  O   UNL     1      45.544 130.210  18.275  1.00  0.00    -0.409 OA
ATOM     10  H   UNL     1      45.764 130.314  19.258  1.00  0.00     0.330 HD
ENDBRANCH   8   9
ENDBRANCH   7   8
BRANCH   7  11
ATOM     11  C   UNL     1      46.031 131.222  14.965  1.00  0.00     0.036 A 
ATOM     12  C   UNL     1      47.349 131.372  14.490  1.00  0.00     0.013 A 
ATOM     13  C   UNL     1      45.021 130.784  14.071  1.00  0.00     0.049 A 
ATOM     14  C   UNL     1      47.668 131.077  13.163  1.00  0.00     0.001 A 
ATOM     15  C   UNL     1      45.360 130.496  12.732  1.00  0.00     0.011 A 
ATOM     16  C   UNL     1      46.675 130.639  12.285  1.00  0.00     0.001 A 
BRANCH  13  17
ATOM     17  N   UNL     1      43.660 130.685  14.525  1.00  0.00    -0.060 NA
BRANCH  17  18
ATOM     18  N   UNL     1      42.786 131.477  14.163  1.00  0.00     0.005 N 
ATOM     19  N   UNL     1      41.912 132.264  13.804  1.00  0.00    -0.003 NA
ENDBRANCH  17  18
ENDBRANCH  13  17
ENDBRANCH   7  11
ENDBRANCH   1   7
BRANCH   3  20
ATOM     20  C   UNL     1      42.870 135.690  16.248  1.00  0.00     0.126 C 
BRANCH  20  21
ATOM     21  C   UNL     1      41.421 135.571  15.699  1.00  0.00     0.270 C 
BRANCH  21  22
ATOM     22  N   UNL     1      40.733 136.836  15.269  1.00  0.00    -0.324 N 
ATOM     23  C   UNL     1      40.103 136.542  13.955  1.00  0.00     0.334 C 
ATOM     24  C   UNL     1      41.730 137.913  15.044  1.00  0.00     0.334 C 
BRANCH  22  25
ATOM     25  C   UNL     1      39.706 137.251  16.285  1.00  0.00     0.301 C 
BRANCH  25  26
ATOM     26  C   UNL     1      39.197 136.134  17.223  1.00  0.00     0.017 A 
ATOM     27  C   UNL     1      38.074 135.332  16.843  1.00  0.00    -0.042 A 
ATOM     28  C   UNL     1      39.811 135.876  18.492  1.00  0.00    -0.009 A 
ATOM     29  C   UNL     1      37.738 134.196  17.595  1.00  0.00     0.004 A 
ATOM     30  C   UNL     1      40.768 136.745  19.074  1.00  0.00     0.009 A 
ATOM     31  C   UNL     1      39.440 134.714  19.227  1.00  0.00    -0.018 A 
ATOM     32  C   UNL     1      38.432 133.872  18.751  1.00  0.00     0.009 A 
ATOM     33  C   UNL     1      41.376 136.435  20.293  1.00  0.00     0.001 A 
ATOM     34  C   UNL     1      40.066 134.413  20.449  1.00  0.00     0.009 A 
ATOM     35  C   UNL     1      41.035 135.267  20.971  1.00  0.00     0.001 A 
ATOM     36  C   UNL     1      37.150 135.705  15.705  1.00  0.00     0.045 C 
ENDBRANCH  25  26
ENDBRANCH  22  25
ENDBRANCH  21  22
ENDBRANCH  20  21
ENDBRANCH   3  20
TORSDOF 11
ENDMDL
MODEL 5
REMARK VINA RESULT:      -5.9      4.827      7.840
REMARK SMILES Cc1ccc2ccccc2c1C[N+](C)(C)CCc1cn(/C(=N\O)c2ccccc2N=[N+]=[N-])[nH+]n1
REMARK SMILES IDX 20 1 19 2 18 3 34 4 33 5 21 7 22 8 23 9 24 11 25 12 29 13
REMARK SMILES IDX 26 14 28 15 27 16 30 17 31 18 32 19 17 20 16 21 13 22 14 23
REMARK SMILES IDX 15 24 12 25 11 26 2 27 10 28 3 29 9 30 5 31 4 32 8 33 6 34
REMARK SMILES IDX 7 35 1 36
REMARK H PARENT 33 6 23 10
ROOT
ATOM      1  N   UNL     1      44.704 132.076  16.661  1.00  0.00    -0.081 N 
ATOM      2  C   UNL     1      45.103 133.358  16.559  1.00  0.00     0.192 A 
ATOM      3  C   UNL     1      43.968 134.128  16.719  1.00  0.00     0.138 A 
ATOM      4  N   UNL     1      42.917 133.306  16.921  1.00  0.00     0.020 NA
ATOM      5  N   UNL     1      43.397 132.073  16.872  1.00  0.00    -0.011 N 
ATOM      6  H   UNL     1      42.814 131.214  16.998  1.00  0.00     0.527 HD
ENDROOT
BRANCH   1   7
ATOM      7  C   UNL     1      45.518 130.893  16.562  1.00  0.00     0.241 C 
BRANCH   7   8
ATOM      8  N   UNL     1      45.650 130.086  17.578  1.00  0.00    -0.064 NA
BRANCH   8   9
ATOM      9  O   UNL     1      46.157 130.500  18.789  1.00  0.00    -0.409 OA
ATOM     10  H   UNL     1      46.434 131.466  18.917  1.00  0.00     0.330 HD
ENDBRANCH   8   9
ENDBRANCH   7   8
BRANCH   7  11
ATOM     11  C   UNL     1      46.146 130.531  15.270  1.00  0.00     0.036 A 
ATOM     12  C   UNL     1      47.366 129.825  15.268  1.00  0.00     0.013 A 
ATOM     13  C   UNL     1      45.574 130.924  14.034  1.00  0.00     0.049 A 
ATOM     14  C   UNL     1      47.998 129.496  14.067  1.00  0.00     0.001 A 
ATOM     15  C   UNL     1      46.229 130.589  12.831  1.00  0.00     0.011 A 
ATOM     16  C   UNL     1      47.431 129.877  12.850  1.00  0.00     0.001 A 
BRANCH  13  17
ATOM     17  N   UNL     1      44.362 131.699  14.023  1.00  0.00    -0.060 NA
BRANCH  17  18
ATOM     18  N   UNL     1      43.302 131.260  13.570  1.00  0.00     0.005 N 
ATOM     19  N   UNL     1      42.247 130.819  13.118  1.00  0.00    -0.003 NA
ENDBRANCH  17  18
ENDBRANCH  13  17
ENDBRANCH   7  11
ENDBRANCH   1   7
BRANCH   3  20
ATOM     20  C   UNL     1      43.884 135.625  16.713  1.00  0.00     0.126 C 
BRANCH  20  21
ATOM     21  C   UNL     1      42.844 136.192  15.708  1.00  0.00     0.270 C 
BRANCH  21  22
ATOM     22  N   UNL     1      41.748 137.061  16.257  1.00  0.00    -0.324 N 
ATOM     23  C   UNL     1      41.151 137.765  15.091  1.00  0.00     0.334 C 
ATOM     24  C   UNL     1      42.315 138.101  17.151  1.00  0.00     0.334 C 
BRANCH  22  25
ATOM     25  C   UNL     1      40.722 136.229  16.974  1.00  0.00     0.301 C 
BRANCH  25  26
ATOM     26  C   UNL     1      39.257 136.434  16.530  1.00  0.00     0.017 A 
ATOM     27  C   UNL     1      38.441 137.418  17.174  1.00  0.00    -0.042 A 
ATOM     28  C   UNL     1      38.668 135.651  15.483  1.00  0.00    -0.009 A 
ATOM     29  C   UNL     1      37.184 137.743  16.642  1.00  0.00     0.004 A 
ATOM     30  C   UNL     1      39.295 134.502  14.938  1.00  0.00     0.009 A 
ATOM     31  C   UNL     1      37.388 136.010  14.973  1.00  0.00    -0.018 A 
ATOM     32  C   UNL     1      36.679 137.073  15.538  1.00  0.00     0.009 A 
ATOM     33  C   UNL     1      38.708 133.791  13.888  1.00  0.00     0.001 A 
ATOM     34  C   UNL     1      36.815 135.288  13.913  1.00  0.00     0.009 A 
ATOM     35  C   UNL     1      37.478 134.190  13.370  1.00  0.00     0.001 A 
ATOM     36  C   UNL     1      38.827 138.072  18.482  1.00  0.00     0.045 C 
ENDBRANCH  25  26
ENDBRANCH  22  25
ENDBRANCH  21  22
ENDBRANCH  20  21
ENDBRANCH   3  20
TORSDOF 11
ENDMDL
MODEL 6
REMARK VINA RESULT:      -5.9      4.068      7.076
REMARK SMILES Cc1ccc2ccccc2c1C[N+](C)(C)CCc1cn(/C(=N\O)c2ccccc2N=[N+]=[N-])[nH+]n1
REMARK SMILES IDX 20 1 19 2 18 3 34 4 33 5 21 7 22 8 23 9 24 11 25 12 29 13
REMARK SMILES IDX 26 14 28 15 27 16 30 17 31 18 32 19 17 20 16 21 13 22 14 23
REMARK SMILES IDX 15 24 12 25 11 26 2 27 10 28 3 29 9 30 5 31 4 32 8 33 6 34
REMARK SMILES IDX 7 35 1 36
REMARK H PARENT 33 6 23 10
ROOT
ATOM      1  N   UNL     1      44.005 132.450  15.493  1.00  0.00    -0.081 N 
ATOM      2  C   UNL     1      43.614 133.715  15.246  1.00  0.00     0.192 A 
ATOM      3  C   UNL     1      43.587 134.355  16.469  1.00  0.00     0.138 A 
ATOM      4  N   UNL     1      43.966 133.477  17.421  1.00  0.00     0.020 NA
ATOM      5  N   UNL     1      44.204 132.334  16.797  1.00  0.00    -0.011 N 
ATOM      6  H   UNL     1      44.520 131.461  17.277  1.00  0.00     0.527 HD
ENDROOT
BRANCH   1   7
ATOM      7  C   UNL     1      44.185 131.386  14.542  1.00  0.00     0.241 C 
BRANCH   7   8
ATOM      8  N   UNL     1      43.203 131.001  13.776  1.00  0.00    -0.064 NA
BRANCH   8   9
ATOM      9  O   UNL     1      42.041 131.728  13.644  1.00  0.00    -0.409 OA
ATOM     10  H   UNL     1      41.651 132.206  14.448  1.00  0.00     0.330 HD
ENDBRANCH   8   9
ENDBRANCH   7   8
BRANCH   7  11
ATOM     11  C   UNL     1      45.522 130.772  14.360  1.00  0.00     0.036 A 
ATOM     12  C   UNL     1      46.224 130.988  13.157  1.00  0.00     0.013 A 
ATOM     13  C   UNL     1      46.088 129.929  15.349  1.00  0.00     0.049 A 
ATOM     14  C   UNL     1      47.472 130.398  12.944  1.00  0.00     0.001 A 
ATOM     15  C   UNL     1      47.347 129.337  15.114  1.00  0.00     0.011 A 
ATOM     16  C   UNL     1      48.032 129.574  13.920  1.00  0.00     0.001 A 
BRANCH  13  17
ATOM     17  N   UNL     1      45.355 129.650  16.554  1.00  0.00    -0.060 NA
BRANCH  17  18
ATOM     18  N   UNL     1      45.673 130.129  17.645  1.00  0.00     0.005 N 
ATOM     19  N   UNL     1      45.992 130.605  18.733  1.00  0.00    -0.003 NA
ENDBRANCH  17  18
ENDBRANCH  13  17
ENDBRANCH   7  11
ENDBRANCH   1   7
BRANCH   3  20
ATOM     20  C   UNL     1      43.237 135.789  16.730  1.00  0.00     0.126 C 
BRANCH  20  21
ATOM     21  C   UNL     1      42.686 136.052  18.159  1.00  0.00     0.270 C 
BRANCH  21  22
ATOM     22  N   UNL     1      42.543 137.482  18.598  1.00  0.00    -0.324 N 
ATOM     23  C   UNL     1      43.254 138.303  17.582  1.00  0.00     0.334 C 
ATOM     24  C   UNL     1      43.235 137.695  19.894  1.00  0.00     0.334 C 
BRANCH  22  25
ATOM     25  C   UNL     1      41.092 137.865  18.687  1.00  0.00     0.301 C 
BRANCH  25  26
ATOM     26  C   UNL     1      40.187 137.351  17.546  1.00  0.00     0.017 A 
ATOM     27  C   UNL     1      40.016 138.131  16.357  1.00  0.00    -0.042 A 
ATOM     28  C   UNL     1      39.487 136.103  17.640  1.00  0.00    -0.009 A 
ATOM     29  C   UNL     1      39.362 137.579  15.246  1.00  0.00     0.004 A 
ATOM     30  C   UNL     1      39.392 135.364  18.846  1.00  0.00     0.009 A 
ATOM     31  C   UNL     1      38.832 135.579  16.490  1.00  0.00    -0.018 A 
ATOM     32  C   UNL     1      38.808 136.308  15.299  1.00  0.00     0.009 A 
ATOM     33  C   UNL     1      38.738 134.131  18.886  1.00  0.00     0.001 A 
ATOM     34  C   UNL     1      38.184 134.332  16.545  1.00  0.00     0.009 A 
ATOM     35  C   UNL     1      38.148 133.611  17.736  1.00  0.00     0.001 A 
ATOM     36  C   UNL     1      40.426 139.584  16.266  1.00  0.00     0.045 C 
ENDBRANCH  25  26
ENDBRANCH  22  25
ENDBRANCH  21  22
ENDBRANCH  20  21
ENDBRANCH   3  20
TORSDOF 11
ENDMDL
MODEL 7
REMARK VINA RESULT:      -5.9      2.936      5.564
REMARK SMILES Cc1ccc2ccccc2c1C[N+](C)(C)CCc1cn(/C(=N\O)c2ccccc2N=[N+]=[N-])[nH+]n1
REMARK SMILES IDX 20 1 19 2 18 3 34 4 33 5 21 7 22 8 23 9 24 11 25 12 29 13
REMARK SMILES IDX 26 14 28 15 27 16 30 17 31 18 32 19 17 20 16 21 13 22 14 23
REMARK SMILES IDX 15 24 12 25 11 26 2 27 10 28 3 29 9 30 5 31 4 32 8 33 6 34
REMARK SMILES IDX 7 35 1 36
REMARK H PARENT 33 6 23 10
ROOT
ATOM      1  N   UNL     1      44.065 132.283  15.209  1.00  0.00    -0.081 N 
ATOM      2  C   UNL     1      44.450 132.245  16.499  1.00  0.00     0.192 A 
ATOM      3  C   UNL     1      44.111 133.471  17.037  1.00  0.00     0.138 A 
ATOM      4  N   UNL     1      43.527 134.215  16.075  1.00  0.00     0.020 NA
ATOM      5  N   UNL     1      43.522 133.468  14.981  1.00  0.00    -0.011 N 
ATOM      6  H   UNL     1      43.127 133.779  14.065  1.00  0.00     0.527 HD
ENDROOT
BRANCH   1   7
ATOM      7  C   UNL     1      44.203 131.245  14.222  1.00  0.00     0.241 C 
BRANCH   7   8
ATOM      8  N   UNL     1      43.182 130.864  13.506  1.00  0.00    -0.064 NA
BRANCH   8   9
ATOM      9  O   UNL     1      42.017 131.595  13.434  1.00  0.00    -0.409 OA
ATOM     10  H   UNL     1      41.172 131.243  13.869  1.00  0.00     0.330 HD
ENDBRANCH   8   9
ENDBRANCH   7   8
BRANCH   7  11
ATOM     11  C   UNL     1      45.534 130.655  13.946  1.00  0.00     0.036 A 
ATOM     12  C   UNL     1      46.284 131.123  12.849  1.00  0.00     0.013 A 
ATOM     13  C   UNL     1      46.049 129.594  14.732  1.00  0.00     0.049 A 
ATOM     14  C   UNL     1      47.528 130.567  12.545  1.00  0.00     0.001 A 
ATOM     15  C   UNL     1      47.305 129.039  14.408  1.00  0.00     0.011 A 
ATOM     16  C   UNL     1      48.038 129.527  13.323  1.00  0.00     0.001 A 
BRANCH  13  17
ATOM     17  N   UNL     1      45.268 129.064  15.817  1.00  0.00    -0.060 NA
BRANCH  17  18
ATOM     18  N   UNL     1      44.988 127.865  15.903  1.00  0.00     0.005 N 
ATOM     19  N   UNL     1      44.711 126.671  15.991  1.00  0.00    -0.003 NA
ENDBRANCH  17  18
ENDBRANCH  13  17
ENDBRANCH   7  11
ENDBRANCH   1   7
BRANCH   3  20
ATOM     20  C   UNL     1      44.310 133.922  18.453  1.00  0.00     0.126 C 
BRANCH  20  21
ATOM     21  C   UNL     1      43.124 134.748  19.022  1.00  0.00     0.270 C 
BRANCH  21  22
ATOM     22  N   UNL     1      43.307 136.236  19.142  1.00  0.00    -0.324 N 
ATOM     23  C   UNL     1      42.305 136.853  18.234  1.00  0.00     0.334 C 
ATOM     24  C   UNL     1      44.649 136.631  18.647  1.00  0.00     0.334 C 
BRANCH  22  25
ATOM     25  C   UNL     1      43.100 136.680  20.563  1.00  0.00     0.301 C 
BRANCH  25  26
ATOM     26  C   UNL     1      42.543 135.612  21.530  1.00  0.00     0.017 A 
ATOM     27  C   UNL     1      41.130 135.473  21.713  1.00  0.00    -0.042 A 
ATOM     28  C   UNL     1      43.408 134.744  22.276  1.00  0.00    -0.009 A 
ATOM     29  C   UNL     1      40.621 134.380  22.430  1.00  0.00     0.004 A 
ATOM     30  C   UNL     1      44.810 134.940  22.356  1.00  0.00     0.009 A 
ATOM     31  C   UNL     1      42.852 133.648  22.994  1.00  0.00    -0.018 A 
ATOM     32  C   UNL     1      41.468 133.462  23.033  1.00  0.00     0.009 A 
ATOM     33  C   UNL     1      45.623 134.047  23.058  1.00  0.00     0.001 A 
ATOM     34  C   UNL     1      43.685 132.755  23.690  1.00  0.00     0.009 A 
ATOM     35  C   UNL     1      45.064 132.952  23.711  1.00  0.00     0.001 A 
ATOM     36  C   UNL     1      40.139 136.516  21.249  1.00  0.00     0.045 C 
ENDBRANCH  25  26
ENDBRANCH  22  25
ENDBRANCH  21  22
ENDBRANCH  20  21
ENDBRANCH   3  20
TORSDOF 11
ENDMDL
MODEL 8
REMARK VINA RESULT:      -5.8      2.258      3.869
REMARK SMILES Cc1ccc2ccccc2c1C[N+](C)(C)CCc1cn(/C(=N\O)c2ccccc2N=[N+]=[N-])[nH+]n1
REMARK SMILES IDX 20 1 19 2 18 3 34 4 33 5 21 7 22 8 23 9 24 11 25 12 29 13
REMARK SMILES IDX 26 14 28 15 27 16 30 17 31 18 32 19 17 20 16 21 13 22 14 23
REMARK SMILES IDX 15 24 12 25 11 26 2 27 10 28 3 29 9 30 5 31 4 32 8 33 6 34
REMARK SMILES IDX 7 35 1 36
REMARK H PARENT 33 6 23 10
ROOT
ATOM      1  N   UNL     1      43.921 132.419  16.872  1.00  0.00    -0.081 N 
ATOM      2  C   UNL     1      43.986 132.902  18.128  1.00  0.00     0.192 A 
ATOM      3  C   UNL     1      44.745 132.000  18.848  1.00  0.00     0.138 A 
ATOM      4  N   UNL     1      45.127 131.005  18.022  1.00  0.00     0.020 NA
ATOM      5  N   UNL     1      44.606 131.286  16.837  1.00  0.00    -0.011 N 
ATOM      6  H   UNL     1      44.734 130.692  15.987  1.00  0.00     0.527 HD
ENDROOT
BRANCH   1   7
ATOM      7  C   UNL     1      43.240 132.997  15.744  1.00  0.00     0.241 C 
BRANCH   7   8
ATOM      8  N   UNL     1      42.941 132.273  14.702  1.00  0.00    -0.064 NA
BRANCH   8   9
ATOM      9  O   UNL     1      41.694 132.296  14.121  1.00  0.00    -0.409 OA
ATOM     10  H   UNL     1      41.284 133.178  13.837  1.00  0.00     0.330 HD
ENDBRANCH   8   9
ENDBRANCH   7   8
BRANCH   7  11
ATOM     11  C   UNL     1      42.790 134.408  15.793  1.00  0.00     0.036 A 
ATOM     12  C   UNL     1      43.620 135.417  15.264  1.00  0.00     0.013 A 
ATOM     13  C   UNL     1      41.565 134.772  16.405  1.00  0.00     0.049 A 
ATOM     14  C   UNL     1      43.238 136.759  15.322  1.00  0.00     0.001 A 
ATOM     15  C   UNL     1      41.197 136.133  16.461  1.00  0.00     0.011 A 
ATOM     16  C   UNL     1      42.028 137.116  15.919  1.00  0.00     0.001 A 
BRANCH  13  17
ATOM     17  N   UNL     1      40.738 133.759  17.004  1.00  0.00    -0.060 NA
BRANCH  17  18
ATOM     18  N   UNL     1      39.529 133.675  16.775  1.00  0.00     0.005 N 
ATOM     19  N   UNL     1      38.324 133.591  16.543  1.00  0.00    -0.003 NA
ENDBRANCH  17  18
ENDBRANCH  13  17
ENDBRANCH   7  11
ENDBRANCH   1   7
BRANCH   3  20
ATOM     20  C   UNL     1      45.130 132.096  20.294  1.00  0.00     0.126 C 
BRANCH  20  21
ATOM     21  C   UNL     1      44.449 133.271  21.049  1.00  0.00     0.270 C 
BRANCH  21  22
ATOM     22  N   UNL     1      45.248 133.971  22.113  1.00  0.00    -0.324 N 
ATOM     23  C   UNL     1      46.676 133.817  21.729  1.00  0.00     0.334 C 
ATOM     24  C   UNL     1      45.071 133.291  23.420  1.00  0.00     0.334 C 
BRANCH  22  25
ATOM     25  C   UNL     1      44.860 135.421  22.197  1.00  0.00     0.301 C 
BRANCH  25  26
ATOM     26  C   UNL     1      44.940 136.218  20.877  1.00  0.00     0.017 A 
ATOM     27  C   UNL     1      43.783 136.348  20.044  1.00  0.00    -0.042 A 
ATOM     28  C   UNL     1      46.159 136.836  20.440  1.00  0.00    -0.009 A 
ATOM     29  C   UNL     1      43.800 137.232  18.955  1.00  0.00     0.004 A 
ATOM     30  C   UNL     1      47.411 136.583  21.053  1.00  0.00     0.009 A 
ATOM     31  C   UNL     1      46.134 137.724  19.327  1.00  0.00    -0.018 A 
ATOM     32  C   UNL     1      44.948 137.936  18.621  1.00  0.00     0.009 A 
ATOM     33  C   UNL     1      48.568 137.238  20.625  1.00  0.00     0.001 A 
ATOM     34  C   UNL     1      47.307 138.380  18.913  1.00  0.00     0.009 A 
ATOM     35  C   UNL     1      48.513 138.142  19.567  1.00  0.00     0.001 A 
ATOM     36  C   UNL     1      42.549 135.491  20.219  1.00  0.00     0.045 C 
ENDBRANCH  25  26
ENDBRANCH  22  25
ENDBRANCH  21  22
ENDBRANCH  20  21
ENDBRANCH   3  20
TORSDOF 11
ENDMDL
MODEL 9
REMARK VINA RESULT:      -5.8      2.920      4.707
REMARK SMILES Cc1ccc2ccccc2c1C[N+](C)(C)CCc1cn(/C(=N\O)c2ccccc2N=[N+]=[N-])[nH+]n1
REMARK SMILES IDX 20 1 19 2 18 3 34 4 33 5 21 7 22 8 23 9 24 11 25 12 29 13
REMARK SMILES IDX 26 14 28 15 27 16 30 17 31 18 32 19 17 20 16 21 13 22 14 23
REMARK SMILES IDX 15 24 12 25 11 26 2 27 10 28 3 29 9 30 5 31 4 32 8 33 6 34
REMARK SMILES IDX 7 35 1 36
REMARK H PARENT 33 6 23 10
ROOT
ATOM      1  N   UNL     1      42.395 132.867  16.366  1.00  0.00    -0.081 N 
ATOM      2  C   UNL     1      42.563 133.073  17.686  1.00  0.00     0.192 A 
ATOM      3  C   UNL     1      43.599 132.247  18.076  1.00  0.00     0.138 A 
ATOM      4  N   UNL     1      44.039 131.572  16.994  1.00  0.00     0.020 NA
ATOM      5  N   UNL     1      43.284 131.966  15.979  1.00  0.00    -0.011 N 
ATOM      6  H   UNL     1      43.392 131.614  15.001  1.00  0.00     0.527 HD
ENDROOT
BRANCH   1   7
ATOM      7  C   UNL     1      41.434 133.491  15.496  1.00  0.00     0.241 C 
BRANCH   7   8
ATOM      8  N   UNL     1      41.363 133.165  14.236  1.00  0.00    -0.064 NA
BRANCH   8   9
ATOM      9  O   UNL     1      41.163 134.097  13.242  1.00  0.00    -0.409 OA
ATOM     10  H   UNL     1      40.830 135.025  13.479  1.00  0.00     0.330 HD
ENDBRANCH   8   9
ENDBRANCH   7   8
BRANCH   7  11
ATOM     11  C   UNL     1      40.450 134.453  16.046  1.00  0.00     0.036 A 
ATOM     12  C   UNL     1      39.137 134.019  16.319  1.00  0.00     0.013 A 
ATOM     13  C   UNL     1      40.786 135.814  16.257  1.00  0.00     0.049 A 
ATOM     14  C   UNL     1      38.179 134.909  16.810  1.00  0.00     0.001 A 
ATOM     15  C   UNL     1      39.804 136.701  16.747  1.00  0.00     0.011 A 
ATOM     16  C   UNL     1      38.512 136.247  17.024  1.00  0.00     0.001 A 
BRANCH  13  17
ATOM     17  N   UNL     1      42.103 136.285  15.924  1.00  0.00    -0.060 NA
BRANCH  17  18
ATOM     18  N   UNL     1      42.289 137.309  15.262  1.00  0.00     0.005 N 
ATOM     19  N   UNL     1      42.477 138.330  14.604  1.00  0.00    -0.003 NA
ENDBRANCH  17  18
ENDBRANCH  13  17
ENDBRANCH   7  11
ENDBRANCH   1   7
BRANCH   3  20
ATOM     20  C   UNL     1      44.187 132.123  19.449  1.00  0.00     0.126 C 
BRANCH  20  21
ATOM     21  C   UNL     1      44.559 133.484  20.099  1.00  0.00     0.270 C 
BRANCH  21  22
ATOM     22  N   UNL     1      44.165 133.701  21.533  1.00  0.00    -0.324 N 
ATOM     23  C   UNL     1      45.195 133.016  22.357  1.00  0.00     0.334 C 
ATOM     24  C   UNL     1      42.867 133.038  21.816  1.00  0.00     0.334 C 
BRANCH  22  25
ATOM     25  C   UNL     1      44.104 135.169  21.849  1.00  0.00     0.301 C 
BRANCH  25  26
ATOM     26  C   UNL     1      44.610 136.118  20.739  1.00  0.00     0.017 A 
ATOM     27  C   UNL     1      43.696 136.649  19.775  1.00  0.00    -0.042 A 
ATOM     28  C   UNL     1      45.993 136.484  20.631  1.00  0.00    -0.009 A 
ATOM     29  C   UNL     1      44.113 137.660  18.897  1.00  0.00     0.004 A 
ATOM     30  C   UNL     1      47.017 135.845  21.374  1.00  0.00     0.009 A 
ATOM     31  C   UNL     1      46.376 137.512  19.724  1.00  0.00    -0.018 A 
ATOM     32  C   UNL     1      45.426 138.110  18.894  1.00  0.00     0.009 A 
ATOM     33  C   UNL     1      48.347 136.260  21.272  1.00  0.00     0.001 A 
ATOM     34  C   UNL     1      47.718 137.922  19.638  1.00  0.00     0.009 A 
ATOM     35  C   UNL     1      48.694 137.304  20.416  1.00  0.00     0.001 A 
ATOM     36  C   UNL     1      42.301 136.098  19.580  1.00  0.00     0.045 C 
ENDBRANCH  25  26
ENDBRANCH  22  25
ENDBRANCH  21  22
ENDBRANCH  20  21
ENDBRANCH   3  20
TORSDOF 11
ENDMDL


