REMARK SMILES [N-]=[N+]=NC(=O)c1cc2ccccc2cc1OC(=O)[C@]1(N=[N+]=[N-])C[C@H](CO)C1
REMARK SMILES IDX 16 1 17 2 18 3 19 4 24 5 23 6 27 7 25 8 26 9 20 11 21 12
REMARK SMILES IDX 22 13 15 14 6 15 14 16 7 17 13 18 8 19 12 20 9 21 11 22
REMARK SMILES IDX 10 23 4 24 5 25 3 26 2 27 1 28
REMARK H PARENT 26 10
ROOT
ATOM      1  O   UNL     1       0.237  -0.807  -0.231  1.00  0.00    -0.425 OA
ENDROOT
BRANCH   1   2
ATOM      2  C   UNL     1       1.313  -0.037   0.232  1.00  0.00     0.323 C 
ATOM      3  O   UNL     1       1.171   1.199   0.443  1.00  0.00    -0.251 OA
BRANCH   2   4
ATOM      4  C   UNL     1       2.678  -0.677   0.348  1.00  0.00     0.147 C 
ATOM      5  C   UNL     1       4.574   0.361   0.273  1.00  0.00     0.017 C 
ATOM      6  C   UNL     1       3.635  -0.257  -0.769  1.00  0.00     0.031 C 
ATOM      7  C   UNL     1       3.614  -0.051   1.391  1.00  0.00     0.031 C 
BRANCH   5   8
ATOM      8  C   UNL     1       4.743   1.882   0.142  1.00  0.00     0.159 C 
BRANCH   8   9
ATOM      9  O   UNL     1       5.592   2.185  -0.932  1.00  0.00    -0.396 OA
ATOM     10  H   UNL     1       5.040   2.136  -1.755  1.00  0.00     0.210 HD
ENDBRANCH   8   9
ENDBRANCH   5   8
BRANCH   4  11
ATOM     11  N   UNL     1       2.604  -2.133   0.474  1.00  0.00    -0.075 NA
BRANCH  11  12
ATOM     12  N   UNL     1       2.049  -2.662   1.438  1.00  0.00     0.002 N 
ATOM     13  N   UNL     1       1.494  -3.190   2.400  1.00  0.00    -0.003 NA
ENDBRANCH  11  12
ENDBRANCH   4  11
ENDBRANCH   2   4
ENDBRANCH   1   2
BRANCH   1  14
ATOM     14  C   UNL     1      -1.116  -0.440  -0.151  1.00  0.00     0.142 A 
ATOM     15  C   UNL     1      -2.023  -0.881  -1.147  1.00  0.00     0.068 A 
ATOM     16  C   UNL     1      -1.588   0.322   0.934  1.00  0.00     0.056 A 
ATOM     17  C   UNL     1      -3.381  -0.519  -1.045  1.00  0.00     0.024 A 
ATOM     18  C   UNL     1      -2.938   0.677   1.026  1.00  0.00    -0.015 A 
ATOM     19  C   UNL     1      -3.842   0.256   0.027  1.00  0.00    -0.017 A 
ATOM     20  C   UNL     1      -3.404   1.444   2.107  1.00  0.00     0.009 A 
ATOM     21  C   UNL     1      -5.197   0.613   0.121  1.00  0.00     0.009 A 
ATOM     22  C   UNL     1      -4.755   1.793   2.190  1.00  0.00     0.001 A 
ATOM     23  C   UNL     1      -5.649   1.379   1.199  1.00  0.00     0.001 A 
BRANCH  15  24
ATOM     24  C   UNL     1      -1.575  -1.707  -2.303  1.00  0.00     0.252 C 
ATOM     25  O   UNL     1      -0.353  -1.980  -2.462  1.00  0.00    -0.287 OA
BRANCH  24  26
ATOM     26  N   UNL     1      -2.531  -2.199  -3.249  1.00  0.00    -0.017 NA
BRANCH  26  27
ATOM     27  N   UNL     1      -2.186  -2.882  -4.213  1.00  0.00     0.009 N 
ATOM     28  N   UNL     1      -1.842  -3.565  -5.177  1.00  0.00    -0.003 NA
ENDBRANCH  26  27
ENDBRANCH  24  26
ENDBRANCH  15  24
ENDBRANCH   1  14
TORSDOF 10


