MODEL 1
REMARK VINA RESULT:      -5.4      0.000      0.000
REMARK SMILES [N-]=[N+]=NC(=O)c1cc2c3c(ccc(N=[N+]=[N-])c3c1OCCc1cn(C[C@H](N=C=S)C(=O)[O-])n[nH+]1)CC2
REMARK SMILES IDX 20 1 19 2 18 3 12 4 11 5 13 6 10 7 17 8 9 9 35 10 8 11 36 12
REMARK SMILES IDX 6 13 7 14 14 15 15 16 16 17 4 18 5 19 3 20 2 21 1 22 21 23
REMARK SMILES IDX 22 24 23 25 34 26 24 27 33 28 25 30 26 31 27 32 28 33 29 34
REMARK SMILES IDX 30 35 31 36 32 37
REMARK H PARENT 34 29
ROOT
ATOM      1  C   UNL     1      43.899 132.532  14.949  1.00  0.00     0.238 C 
ENDROOT
BRANCH   1   2
ATOM      2  O   UNL     1      43.300 131.776  16.001  1.00  0.00    -0.492 OA
BRANCH   2   3
ATOM      3  C   UNL     1      43.981 131.479  17.187  1.00  0.00     0.138 A 
ATOM      4  C   UNL     1      41.812 132.823  20.000  1.00  0.00     0.011 A 
ATOM      5  C   UNL     1      42.671 132.577  21.086  1.00  0.00     0.005 A 
ATOM      6  C   UNL     1      42.185 132.471  18.672  1.00  0.00     0.049 A 
ATOM      7  C   UNL     1      43.901 131.976  20.837  1.00  0.00    -0.039 A 
ATOM      8  C   UNL     1      43.457 131.877  18.447  1.00  0.00     0.035 A 
ATOM      9  C   UNL     1      44.257 131.647  19.566  1.00  0.00    -0.008 A 
ATOM     10  C   UNL     1      44.971 131.576  21.802  1.00  0.00     0.041 C 
ATOM     11  C   UNL     1      45.471 131.047  19.520  1.00  0.00    -0.039 A 
ATOM     12  C   UNL     1      46.055 130.936  20.893  1.00  0.00     0.041 C 
ATOM     13  C   UNL     1      45.228 130.787  17.129  1.00  0.00     0.067 A 
ATOM     14  C   UNL     1      45.986 130.595  18.308  1.00  0.00     0.020 A 
BRANCH   6  15
ATOM     15  N   UNL     1      41.274 132.665  17.580  1.00  0.00    -0.060 NA
BRANCH  15  16
ATOM     16  N   UNL     1      40.165 133.179  17.726  1.00  0.00     0.005 N 
ATOM     17  N   UNL     1      39.055 133.690  17.870  1.00  0.00    -0.003 NA
ENDBRANCH  15  16
ENDBRANCH   6  15
BRANCH  13  18
ATOM     18  C   UNL     1      45.773 130.287  15.846  1.00  0.00     0.252 C 
ATOM     19  O   UNL     1      46.847 130.775  15.404  1.00  0.00    -0.287 OA
BRANCH  18  20
ATOM     20  N   UNL     1      45.131 129.245  15.101  1.00  0.00    -0.017 NA
BRANCH  20  21
ATOM     21  N   UNL     1      44.977 128.111  15.559  1.00  0.00     0.009 N 
ATOM     22  N   UNL     1      44.824 126.978  16.015  1.00  0.00    -0.003 NA
ENDBRANCH  20  21
ENDBRANCH  18  20
ENDBRANCH  13  18
ENDBRANCH   2   3
ENDBRANCH   1   2
BRANCH   1  23
ATOM     23  C   UNL     1      44.218 133.949  15.419  1.00  0.00     0.128 C 
BRANCH  23  24
ATOM     24  C   UNL     1      42.976 134.769  15.603  1.00  0.00     0.168 A 
ATOM     25  C   UNL     1      41.996 135.038  14.669  1.00  0.00     0.274 A 
ATOM     26  N   UNL     1      42.669 135.458  16.721  1.00  0.00    -0.148 N 
ATOM     27  N   UNL     1      41.126 135.876  15.267  1.00  0.00    -0.135 N 
ATOM     28  N   UNL     1      41.542 136.115  16.502  1.00  0.00     0.088 NA
ATOM     29  H   UNL     1      43.212 135.492  17.610  1.00  0.00     0.342 HD
BRANCH  27  30
ATOM     30  C   UNL     1      39.887 136.397  14.694  1.00  0.00     0.303 C 
BRANCH  30  31
ATOM     31  C   UNL     1      39.125 137.250  15.722  1.00  0.00     0.206 C 
BRANCH  31  32
ATOM     32  N   UNL     1      37.723 136.840  15.742  1.00  0.00    -0.219 NA
BRANCH  32  33
ATOM     33  C   UNL     1      37.236 136.057  14.864  1.00  0.00     0.059 C 
ATOM     34  S   UNL     1      36.619 135.063  13.759  1.00  0.00    -0.006 S 
ENDBRANCH  32  33
ENDBRANCH  31  32
BRANCH  31  35
ATOM     35  C   UNL     1      39.234 138.711  15.378  1.00  0.00     0.071 C 
ATOM     36  O   UNL     1      38.879 139.120  14.241  1.00  0.00    -0.548 OA
ATOM     37  O   UNL     1      39.686 139.622  16.326  1.00  0.00    -0.548 OA
ENDBRANCH  31  35
ENDBRANCH  30  31
ENDBRANCH  27  30
ENDBRANCH  23  24
ENDBRANCH   1  23
TORSDOF 14
ENDMDL
MODEL 2
REMARK VINA RESULT:      -5.3      3.873      6.509
REMARK SMILES [N-]=[N+]=NC(=O)c1cc2c3c(ccc(N=[N+]=[N-])c3c1OCCc1cn(C[C@H](N=C=S)C(=O)[O-])n[nH+]1)CC2
REMARK SMILES IDX 20 1 19 2 18 3 12 4 11 5 13 6 10 7 17 8 9 9 35 10 8 11 36 12
REMARK SMILES IDX 6 13 7 14 14 15 15 16 16 17 4 18 5 19 3 20 2 21 1 22 21 23
REMARK SMILES IDX 22 24 23 25 34 26 24 27 33 28 25 30 26 31 27 32 28 33 29 34
REMARK SMILES IDX 30 35 31 36 32 37
REMARK H PARENT 34 29
ROOT
ATOM      1  C   UNL     1      42.556 135.257  17.415  1.00  0.00     0.238 C 
ENDROOT
BRANCH   1   2
ATOM      2  O   UNL     1      42.119 133.902  17.308  1.00  0.00    -0.492 OA
BRANCH   2   3
ATOM      3  C   UNL     1      42.706 132.997  16.417  1.00  0.00     0.138 A 
ATOM      4  C   UNL     1      45.268 131.056  18.441  1.00  0.00     0.011 A 
ATOM      5  C   UNL     1      45.852 130.304  17.405  1.00  0.00     0.005 A 
ATOM      6  C   UNL     1      44.205 131.967  18.180  1.00  0.00     0.049 A 
ATOM      7  C   UNL     1      45.366 130.466  16.112  1.00  0.00    -0.039 A 
ATOM      8  C   UNL     1      43.746 132.125  16.844  1.00  0.00     0.035 A 
ATOM      9  C   UNL     1      44.356 131.342  15.865  1.00  0.00    -0.008 A 
ATOM     10  C   UNL     1      45.779 129.773  14.854  1.00  0.00     0.041 C 
ATOM     11  C   UNL     1      43.996 131.345  14.559  1.00  0.00    -0.039 A 
ATOM     12  C   UNL     1      44.835 130.380  13.781  1.00  0.00     0.041 C 
ATOM     13  C   UNL     1      42.272 132.963  15.058  1.00  0.00     0.067 A 
ATOM     14  C   UNL     1      42.945 132.146  14.121  1.00  0.00     0.020 A 
BRANCH   6  15
ATOM     15  N   UNL     1      43.572 132.680  19.252  1.00  0.00    -0.060 NA
BRANCH  15  16
ATOM     16  N   UNL     1      44.210 133.299  20.104  1.00  0.00     0.005 N 
ATOM     17  N   UNL     1      44.848 133.921  20.953  1.00  0.00    -0.003 NA
ENDBRANCH  15  16
ENDBRANCH   6  15
BRANCH  13  18
ATOM     18  C   UNL     1      41.143 133.798  14.589  1.00  0.00     0.252 C 
ATOM     19  O   UNL     1      41.386 134.891  14.011  1.00  0.00    -0.287 OA
BRANCH  18  20
ATOM     20  N   UNL     1      39.778 133.392  14.749  1.00  0.00    -0.017 NA
BRANCH  20  21
ATOM     21  N   UNL     1      38.914 133.653  13.909  1.00  0.00     0.009 N 
ATOM     22  N   UNL     1      38.051 133.913  13.071  1.00  0.00    -0.003 NA
ENDBRANCH  20  21
ENDBRANCH  18  20
ENDBRANCH  13  18
ENDBRANCH   2   3
ENDBRANCH   1   2
BRANCH   1  23
ATOM     23  C   UNL     1      41.403 136.161  17.843  1.00  0.00     0.128 C 
BRANCH  23  24
ATOM     24  C   UNL     1      41.467 136.494  19.304  1.00  0.00     0.168 A 
ATOM     25  C   UNL     1      41.084 135.704  20.368  1.00  0.00     0.274 A 
ATOM     26  N   UNL     1      41.841 137.690  19.803  1.00  0.00    -0.148 N 
ATOM     27  N   UNL     1      41.251 136.454  21.475  1.00  0.00    -0.135 N 
ATOM     28  N   UNL     1      41.712 137.644  21.119  1.00  0.00     0.088 NA
ATOM     29  H   UNL     1      42.168 138.523  19.268  1.00  0.00     0.342 HD
BRANCH  27  30
ATOM     30  C   UNL     1      41.033 136.028  22.855  1.00  0.00     0.303 C 
BRANCH  30  31
ATOM     31  C   UNL     1      40.796 134.511  22.929  1.00  0.00     0.206 C 
BRANCH  31  32
ATOM     32  N   UNL     1      39.738 134.237  23.898  1.00  0.00    -0.219 NA
BRANCH  32  33
ATOM     33  C   UNL     1      38.513 134.162  23.557  1.00  0.00     0.059 C 
ATOM     34  S   UNL     1      36.965 134.064  23.130  1.00  0.00    -0.006 S 
ENDBRANCH  32  33
ENDBRANCH  31  32
BRANCH  31  35
ATOM     35  C   UNL     1      42.061 133.798  23.326  1.00  0.00     0.071 C 
ATOM     36  O   UNL     1      42.231 132.591  23.011  1.00  0.00    -0.548 OA
ATOM     37  O   UNL     1      43.065 134.479  24.004  1.00  0.00    -0.548 OA
ENDBRANCH  31  35
ENDBRANCH  30  31
ENDBRANCH  27  30
ENDBRANCH  23  24
ENDBRANCH   1  23
TORSDOF 14
ENDMDL
MODEL 3
REMARK VINA RESULT:      -5.3      2.931      5.375
REMARK SMILES [N-]=[N+]=NC(=O)c1cc2c3c(ccc(N=[N+]=[N-])c3c1OCCc1cn(C[C@H](N=C=S)C(=O)[O-])n[nH+]1)CC2
REMARK SMILES IDX 20 1 19 2 18 3 12 4 11 5 13 6 10 7 17 8 9 9 35 10 8 11 36 12
REMARK SMILES IDX 6 13 7 14 14 15 15 16 16 17 4 18 5 19 3 20 2 21 1 22 21 23
REMARK SMILES IDX 22 24 23 25 34 26 24 27 33 28 25 30 26 31 27 32 28 33 29 34
REMARK SMILES IDX 30 35 31 36 32 37
REMARK H PARENT 34 29
ROOT
ATOM      1  C   UNL     1      42.321 133.659  14.764  1.00  0.00     0.238 C 
ENDROOT
BRANCH   1   2
ATOM      2  O   UNL     1      41.911 132.587  15.612  1.00  0.00    -0.492 OA
BRANCH   2   3
ATOM      3  C   UNL     1      42.331 132.486  16.943  1.00  0.00     0.138 A 
ATOM      4  C   UNL     1      45.734 130.802  16.838  1.00  0.00     0.011 A 
ATOM      5  C   UNL     1      45.954 130.652  18.220  1.00  0.00     0.005 A 
ATOM      6  C   UNL     1      44.547 131.416  16.345  1.00  0.00     0.049 A 
ATOM      7  C   UNL     1      44.986 131.120  19.102  1.00  0.00    -0.039 A 
ATOM      8  C   UNL     1      43.567 131.865  17.272  1.00  0.00     0.035 A 
ATOM      9  C   UNL     1      43.851 131.700  18.627  1.00  0.00    -0.008 A 
ATOM     10  C   UNL     1      44.988 131.118  20.596  1.00  0.00     0.041 C 
ATOM     11  C   UNL     1      43.040 132.120  19.628  1.00  0.00    -0.039 A 
ATOM     12  C   UNL     1      43.645 131.807  20.960  1.00  0.00     0.041 C 
ATOM     13  C   UNL     1      41.497 132.992  17.985  1.00  0.00     0.067 A 
ATOM     14  C   UNL     1      41.850 132.781  19.338  1.00  0.00     0.020 A 
BRANCH   6  15
ATOM     15  N   UNL     1      44.362 131.625  14.938  1.00  0.00    -0.060 NA
BRANCH  15  16
ATOM     16  N   UNL     1      45.018 131.023  14.087  1.00  0.00     0.005 N 
ATOM     17  N   UNL     1      45.674 130.420  13.238  1.00  0.00    -0.003 NA
ENDBRANCH  15  16
ENDBRANCH   6  15
BRANCH  13  18
ATOM     18  C   UNL     1      40.240 133.713  17.684  1.00  0.00     0.252 C 
ATOM     19  O   UNL     1      39.296 133.093  17.125  1.00  0.00    -0.287 OA
BRANCH  18  20
ATOM     20  N   UNL     1      40.049 135.090  18.031  1.00  0.00    -0.017 NA
BRANCH  20  21
ATOM     21  N   UNL     1      39.566 135.432  19.112  1.00  0.00     0.009 N 
ATOM     22  N   UNL     1      39.085 135.776  20.192  1.00  0.00    -0.003 NA
ENDBRANCH  20  21
ENDBRANCH  18  20
ENDBRANCH  13  18
ENDBRANCH   2   3
ENDBRANCH   1   2
BRANCH   1  23
ATOM     23  C   UNL     1      41.153 134.605  14.492  1.00  0.00     0.128 C 
BRANCH  23  24
ATOM     24  C   UNL     1      41.507 136.030  14.796  1.00  0.00     0.168 A 
ATOM     25  C   UNL     1      42.165 136.518  15.907  1.00  0.00     0.274 A 
ATOM     26  N   UNL     1      41.145 137.089  14.043  1.00  0.00    -0.148 N 
ATOM     27  N   UNL     1      42.183 137.859  15.775  1.00  0.00    -0.135 N 
ATOM     28  N   UNL     1      41.570 138.187  14.648  1.00  0.00     0.088 NA
ATOM     29  H   UNL     1      40.614 137.074  13.146  1.00  0.00     0.342 HD
BRANCH  27  30
ATOM     30  C   UNL     1      42.824 138.813  16.678  1.00  0.00     0.303 C 
BRANCH  30  31
ATOM     31  C   UNL     1      42.956 138.225  18.092  1.00  0.00     0.206 C 
BRANCH  31  32
ATOM     32  N   UNL     1      42.392 139.164  19.058  1.00  0.00    -0.219 NA
BRANCH  32  33
ATOM     33  C   UNL     1      41.135 139.300  19.213  1.00  0.00     0.059 C 
ATOM     34  S   UNL     1      39.547 139.467  19.413  1.00  0.00    -0.006 S 
ENDBRANCH  32  33
ENDBRANCH  31  32
BRANCH  31  35
ATOM     35  C   UNL     1      44.401 137.952  18.416  1.00  0.00     0.071 C 
ATOM     36  O   UNL     1      45.209 138.907  18.545  1.00  0.00    -0.548 OA
ATOM     37  O   UNL     1      44.838 136.648  18.617  1.00  0.00    -0.548 OA
ENDBRANCH  31  35
ENDBRANCH  30  31
ENDBRANCH  27  30
ENDBRANCH  23  24
ENDBRANCH   1  23
TORSDOF 14
ENDMDL
MODEL 4
REMARK VINA RESULT:      -5.2      2.130      2.423
REMARK SMILES [N-]=[N+]=NC(=O)c1cc2c3c(ccc(N=[N+]=[N-])c3c1OCCc1cn(C[C@H](N=C=S)C(=O)[O-])n[nH+]1)CC2
REMARK SMILES IDX 20 1 19 2 18 3 12 4 11 5 13 6 10 7 17 8 9 9 35 10 8 11 36 12
REMARK SMILES IDX 6 13 7 14 14 15 15 16 16 17 4 18 5 19 3 20 2 21 1 22 21 23
REMARK SMILES IDX 22 24 23 25 34 26 24 27 33 28 25 30 26 31 27 32 28 33 29 34
REMARK SMILES IDX 30 35 31 36 32 37
REMARK H PARENT 34 29
ROOT
ATOM      1  C   UNL     1      44.162 132.387  15.130  1.00  0.00     0.238 C 
ENDROOT
BRANCH   1   2
ATOM      2  O   UNL     1      44.619 133.081  16.290  1.00  0.00    -0.492 OA
BRANCH   2   3
ATOM      3  C   UNL     1      44.802 132.439  17.520  1.00  0.00     0.138 A 
ATOM      4  C   UNL     1      43.393 134.793  20.146  1.00  0.00     0.011 A 
ATOM      5  C   UNL     1      43.765 134.088  21.305  1.00  0.00     0.005 A 
ATOM      6  C   UNL     1      43.701 134.292  18.849  1.00  0.00     0.049 A 
ATOM      7  C   UNL     1      44.442 132.882  21.160  1.00  0.00    -0.039 A 
ATOM      8  C   UNL     1      44.412 133.066  18.735  1.00  0.00     0.035 A 
ATOM      9  C   UNL     1      44.740 132.410  19.919  1.00  0.00    -0.008 A 
ATOM     10  C   UNL     1      44.914 131.930  22.212  1.00  0.00     0.041 C 
ATOM     11  C   UNL     1      45.373 131.212  19.973  1.00  0.00    -0.039 A 
ATOM     12  C   UNL     1      45.557 130.778  21.393  1.00  0.00     0.041 C 
ATOM     13  C   UNL     1      45.410 131.148  17.557  1.00  0.00     0.067 A 
ATOM     14  C   UNL     1      45.718 130.547  18.800  1.00  0.00     0.020 A 
BRANCH   6  15
ATOM     15  N   UNL     1      43.258 134.985  17.673  1.00  0.00    -0.060 NA
BRANCH  15  16
ATOM     16  N   UNL     1      43.093 136.205  17.645  1.00  0.00     0.005 N 
ATOM     17  N   UNL     1      42.925 137.423  17.616  1.00  0.00    -0.003 NA
ENDBRANCH  15  16
ENDBRANCH   6  15
BRANCH  13  18
ATOM     18  C   UNL     1      45.762 130.426  16.313  1.00  0.00     0.252 C 
ATOM     19  O   UNL     1      44.928 129.627  15.811  1.00  0.00    -0.287 OA
BRANCH  18  20
ATOM     20  N   UNL     1      47.014 130.626  15.645  1.00  0.00    -0.017 NA
BRANCH  20  21
ATOM     21  N   UNL     1      47.428 129.847  14.784  1.00  0.00     0.009 N 
ATOM     22  N   UNL     1      47.841 129.068  13.925  1.00  0.00    -0.003 NA
ENDBRANCH  20  21
ENDBRANCH  18  20
ENDBRANCH  13  18
ENDBRANCH   2   3
ENDBRANCH   1   2
BRANCH   1  23
ATOM     23  C   UNL     1      42.646 132.218  15.167  1.00  0.00     0.128 C 
BRANCH  23  24
ATOM     24  C   UNL     1      41.935 133.537  15.116  1.00  0.00     0.168 A 
ATOM     25  C   UNL     1      40.648 133.820  15.525  1.00  0.00     0.274 A 
ATOM     26  N   UNL     1      42.439 134.660  14.562  1.00  0.00    -0.148 N 
ATOM     27  N   UNL     1      40.427 135.111  15.210  1.00  0.00    -0.135 N 
ATOM     28  N   UNL     1      41.514 135.604  14.637  1.00  0.00     0.088 NA
ATOM     29  H   UNL     1      43.381 134.784  14.135  1.00  0.00     0.342 HD
BRANCH  27  30
ATOM     30  C   UNL     1      39.222 135.884  15.503  1.00  0.00     0.303 C 
BRANCH  30  31
ATOM     31  C   UNL     1      39.578 137.332  15.878  1.00  0.00     0.206 C 
BRANCH  31  32
ATOM     32  N   UNL     1      39.186 137.579  17.264  1.00  0.00    -0.219 NA
BRANCH  32  33
ATOM     33  C   UNL     1      39.359 136.711  18.179  1.00  0.00     0.059 C 
ATOM     34  S   UNL     1      39.574 135.618  19.340  1.00  0.00    -0.006 S 
ENDBRANCH  32  33
ENDBRANCH  31  32
BRANCH  31  35
ATOM     35  C   UNL     1      38.882 138.301  14.961  1.00  0.00     0.071 C 
ATOM     36  O   UNL     1      38.516 137.933  13.814  1.00  0.00    -0.548 OA
ATOM     37  O   UNL     1      38.600 139.592  15.391  1.00  0.00    -0.548 OA
ENDBRANCH  31  35
ENDBRANCH  30  31
ENDBRANCH  27  30
ENDBRANCH  23  24
ENDBRANCH   1  23
TORSDOF 14
ENDMDL
MODEL 5
REMARK VINA RESULT:      -5.1      3.983      6.635
REMARK SMILES [N-]=[N+]=NC(=O)c1cc2c3c(ccc(N=[N+]=[N-])c3c1OCCc1cn(C[C@H](N=C=S)C(=O)[O-])n[nH+]1)CC2
REMARK SMILES IDX 20 1 19 2 18 3 12 4 11 5 13 6 10 7 17 8 9 9 35 10 8 11 36 12
REMARK SMILES IDX 6 13 7 14 14 15 15 16 16 17 4 18 5 19 3 20 2 21 1 22 21 23
REMARK SMILES IDX 22 24 23 25 34 26 24 27 33 28 25 30 26 31 27 32 28 33 29 34
REMARK SMILES IDX 30 35 31 36 32 37
REMARK H PARENT 34 29
ROOT
ATOM      1  C   UNL     1      45.120 131.045  18.059  1.00  0.00     0.238 C 
ENDROOT
BRANCH   1   2
ATOM      2  O   UNL     1      44.872 132.407  17.712  1.00  0.00    -0.492 OA
BRANCH   2   3
ATOM      3  C   UNL     1      43.831 132.782  16.856  1.00  0.00     0.138 A 
ATOM      4  C   UNL     1      41.594 135.088  18.881  1.00  0.00     0.011 A 
ATOM      5  C   UNL     1      40.551 135.264  17.953  1.00  0.00     0.005 A 
ATOM      6  C   UNL     1      42.724 134.278  18.572  1.00  0.00     0.049 A 
ATOM      7  C   UNL     1      40.647 134.630  16.718  1.00  0.00    -0.039 A 
ATOM      8  C   UNL     1      42.782 133.627  17.310  1.00  0.00     0.035 A 
ATOM      9  C   UNL     1      41.725 133.852  16.430  1.00  0.00    -0.008 A 
ATOM     10  C   UNL     1      39.709 134.679  15.555  1.00  0.00     0.041 C 
ATOM     11  C   UNL     1      41.660 133.342  15.176  1.00  0.00    -0.039 A 
ATOM     12  C   UNL     1      40.407 133.790  14.491  1.00  0.00     0.041 C 
ATOM     13  C   UNL     1      43.809 132.290  15.515  1.00  0.00     0.067 A 
ATOM     14  C   UNL     1      42.698 132.557  14.683  1.00  0.00     0.020 A 
BRANCH   6  15
ATOM     15  N   UNL     1      43.813 134.159  19.499  1.00  0.00    -0.060 NA
BRANCH  15  16
ATOM     16  N   UNL     1      44.454 135.133  19.897  1.00  0.00     0.005 N 
ATOM     17  N   UNL     1      45.097 136.103  20.297  1.00  0.00    -0.003 NA
ENDBRANCH  15  16
ENDBRANCH   6  15
BRANCH  13  18
ATOM     18  C   UNL     1      44.919 131.470  14.978  1.00  0.00     0.252 C 
ATOM     19  O   UNL     1      44.712 130.256  14.712  1.00  0.00    -0.287 OA
BRANCH  18  20
ATOM     20  N   UNL     1      46.218 132.019  14.724  1.00  0.00    -0.017 NA
BRANCH  20  21
ATOM     21  N   UNL     1      47.069 131.412  14.071  1.00  0.00     0.009 N 
ATOM     22  N   UNL     1      47.920 130.805  13.420  1.00  0.00    -0.003 NA
ENDBRANCH  20  21
ENDBRANCH  18  20
ENDBRANCH  13  18
ENDBRANCH   2   3
ENDBRANCH   1   2
BRANCH   1  23
ATOM     23  C   UNL     1      45.598 130.937  19.505  1.00  0.00     0.128 C 
BRANCH  23  24
ATOM     24  C   UNL     1      44.501 131.245  20.480  1.00  0.00     0.168 A 
ATOM     25  C   UNL     1      44.615 131.470  21.837  1.00  0.00     0.274 A 
ATOM     26  N   UNL     1      43.186 131.263  20.176  1.00  0.00    -0.148 N 
ATOM     27  N   UNL     1      43.359 131.624  22.300  1.00  0.00    -0.135 N 
ATOM     28  N   UNL     1      42.512 131.502  21.290  1.00  0.00     0.088 NA
ATOM     29  H   UNL     1      42.752 131.107  19.242  1.00  0.00     0.342 HD
BRANCH  27  30
ATOM     30  C   UNL     1      42.971 131.942  23.673  1.00  0.00     0.303 C 
BRANCH  30  31
ATOM     31  C   UNL     1      42.554 133.417  23.796  1.00  0.00     0.206 C 
BRANCH  31  32
ATOM     32  N   UNL     1      41.827 133.812  22.591  1.00  0.00    -0.219 NA
BRANCH  32  33
ATOM     33  C   UNL     1      40.658 134.314  22.643  1.00  0.00     0.059 C 
ATOM     34  S   UNL     1      39.182 134.953  22.707  1.00  0.00    -0.006 S 
ENDBRANCH  32  33
ENDBRANCH  31  32
BRANCH  31  35
ATOM     35  C   UNL     1      43.764 134.293  23.983  1.00  0.00     0.071 C 
ATOM     36  O   UNL     1      44.839 133.800  24.412  1.00  0.00    -0.548 OA
ATOM     37  O   UNL     1      43.712 135.640  23.643  1.00  0.00    -0.548 OA
ENDBRANCH  31  35
ENDBRANCH  30  31
ENDBRANCH  27  30
ENDBRANCH  23  24
ENDBRANCH   1  23
TORSDOF 14
ENDMDL
MODEL 6
REMARK VINA RESULT:      -5.0      4.753      8.051
REMARK SMILES [N-]=[N+]=NC(=O)c1cc2c3c(ccc(N=[N+]=[N-])c3c1OCCc1cn(C[C@H](N=C=S)C(=O)[O-])n[nH+]1)CC2
REMARK SMILES IDX 20 1 19 2 18 3 12 4 11 5 13 6 10 7 17 8 9 9 35 10 8 11 36 12
REMARK SMILES IDX 6 13 7 14 14 15 15 16 16 17 4 18 5 19 3 20 2 21 1 22 21 23
REMARK SMILES IDX 22 24 23 25 34 26 24 27 33 28 25 30 26 31 27 32 28 33 29 34
REMARK SMILES IDX 30 35 31 36 32 37
REMARK H PARENT 34 29
ROOT
ATOM      1  C   UNL     1      42.736 135.561  18.848  1.00  0.00     0.238 C 
ENDROOT
BRANCH   1   2
ATOM      2  O   UNL     1      43.479 136.209  19.880  1.00  0.00    -0.492 OA
BRANCH   2   3
ATOM      3  C   UNL     1      44.655 136.919  19.621  1.00  0.00     0.138 A 
ATOM      4  C   UNL     1      47.321 135.370  21.838  1.00  0.00     0.011 A 
ATOM      5  C   UNL     1      48.381 136.257  21.572  1.00  0.00     0.005 A 
ATOM      6  C   UNL     1      46.053 135.530  21.211  1.00  0.00     0.049 A 
ATOM      7  C   UNL     1      48.165 137.299  20.675  1.00  0.00    -0.039 A 
ATOM      8  C   UNL     1      45.858 136.617  20.316  1.00  0.00     0.035 A 
ATOM      9  C   UNL     1      46.950 137.452  20.084  1.00  0.00    -0.008 A 
ATOM     10  C   UNL     1      49.119 138.345  20.195  1.00  0.00     0.041 C 
ATOM     11  C   UNL     1      46.935 138.498  19.222  1.00  0.00    -0.039 A 
ATOM     12  C   UNL     1      48.270 139.174  19.193  1.00  0.00     0.041 C 
ATOM     13  C   UNL     1      44.643 137.977  18.662  1.00  0.00     0.067 A 
ATOM     14  C   UNL     1      45.790 138.785  18.485  1.00  0.00     0.020 A 
BRANCH   6  15
ATOM     15  N   UNL     1      45.000 134.582  21.439  1.00  0.00    -0.060 NA
BRANCH  15  16
ATOM     16  N   UNL     1      45.188 133.365  21.419  1.00  0.00     0.005 N 
ATOM     17  N   UNL     1      45.375 132.149  21.396  1.00  0.00    -0.003 NA
ENDBRANCH  15  16
ENDBRANCH   6  15
BRANCH  13  18
ATOM     18  C   UNL     1      43.434 138.276  17.861  1.00  0.00     0.252 C 
ATOM     19  O   UNL     1      42.615 139.135  18.282  1.00  0.00    -0.287 OA
BRANCH  18  20
ATOM     20  N   UNL     1      43.176 137.637  16.604  1.00  0.00    -0.017 NA
BRANCH  20  21
ATOM     21  N   UNL     1      42.768 138.262  15.623  1.00  0.00     0.009 N 
ATOM     22  N   UNL     1      42.361 138.888  14.644  1.00  0.00    -0.003 NA
ENDBRANCH  20  21
ENDBRANCH  18  20
ENDBRANCH  13  18
ENDBRANCH   2   3
ENDBRANCH   1   2
BRANCH   1  23
ATOM     23  C   UNL     1      43.109 134.083  18.764  1.00  0.00     0.128 C 
BRANCH  23  24
ATOM     24  C   UNL     1      43.739 133.741  17.447  1.00  0.00     0.168 A 
ATOM     25  C   UNL     1      44.295 132.537  17.064  1.00  0.00     0.274 A 
ATOM     26  N   UNL     1      43.939 134.616  16.440  1.00  0.00    -0.148 N 
ATOM     27  N   UNL     1      44.803 132.731  15.831  1.00  0.00    -0.135 N 
ATOM     28  N   UNL     1      44.577 133.984  15.468  1.00  0.00     0.088 NA
ATOM     29  H   UNL     1      43.661 135.620  16.412  1.00  0.00     0.342 HD
BRANCH  27  30
ATOM     30  C   UNL     1      45.442 131.725  14.985  1.00  0.00     0.303 C 
BRANCH  30  31
ATOM     31  C   UNL     1      46.461 130.902  15.790  1.00  0.00     0.206 C 
BRANCH  31  32
ATOM     32  N   UNL     1      47.469 130.363  14.880  1.00  0.00    -0.219 NA
BRANCH  32  33
ATOM     33  C   UNL     1      47.364 130.472  13.616  1.00  0.00     0.059 C 
ATOM     34  S   UNL     1      47.238 130.609  12.017  1.00  0.00    -0.006 S 
ENDBRANCH  32  33
ENDBRANCH  31  32
BRANCH  31  35
ATOM     35  C   UNL     1      45.773 129.781  16.524  1.00  0.00     0.071 C 
ATOM     36  O   UNL     1      45.680 129.813  17.779  1.00  0.00    -0.548 OA
ATOM     37  O   UNL     1      45.199 128.731  15.818  1.00  0.00    -0.548 OA
ENDBRANCH  31  35
ENDBRANCH  30  31
ENDBRANCH  27  30
ENDBRANCH  23  24
ENDBRANCH   1  23
TORSDOF 14
ENDMDL
MODEL 7
REMARK VINA RESULT:      -4.9      2.363      4.829
REMARK SMILES [N-]=[N+]=NC(=O)c1cc2c3c(ccc(N=[N+]=[N-])c3c1OCCc1cn(C[C@H](N=C=S)C(=O)[O-])n[nH+]1)CC2
REMARK SMILES IDX 20 1 19 2 18 3 12 4 11 5 13 6 10 7 17 8 9 9 35 10 8 11 36 12
REMARK SMILES IDX 6 13 7 14 14 15 15 16 16 17 4 18 5 19 3 20 2 21 1 22 21 23
REMARK SMILES IDX 22 24 23 25 34 26 24 27 33 28 25 30 26 31 27 32 28 33 29 34
REMARK SMILES IDX 30 35 31 36 32 37
REMARK H PARENT 34 29
ROOT
ATOM      1  C   UNL     1      42.181 132.890  15.645  1.00  0.00     0.238 C 
ENDROOT
BRANCH   1   2
ATOM      2  O   UNL     1      43.344 133.589  16.088  1.00  0.00    -0.492 OA
BRANCH   2   3
ATOM      3  C   UNL     1      43.669 133.713  17.443  1.00  0.00     0.138 A 
ATOM      4  C   UNL     1      45.632 130.585  18.333  1.00  0.00     0.011 A 
ATOM      5  C   UNL     1      45.764 130.787  19.719  1.00  0.00     0.005 A 
ATOM      6  C   UNL     1      44.952 131.530  17.513  1.00  0.00     0.049 A 
ATOM      7  C   UNL     1      45.216 131.938  20.277  1.00  0.00    -0.039 A 
ATOM      8  C   UNL     1      44.385 132.685  18.117  1.00  0.00     0.035 A 
ATOM      9  C   UNL     1      44.561 132.834  19.492  1.00  0.00    -0.008 A 
ATOM     10  C   UNL     1      45.246 132.406  21.696  1.00  0.00     0.041 C 
ATOM     11  C   UNL     1      44.122 133.902  20.201  1.00  0.00    -0.039 A 
ATOM     12  C   UNL     1      44.490 133.761  21.645  1.00  0.00     0.041 C 
ATOM     13  C   UNL     1      43.258 134.874  18.164  1.00  0.00     0.067 A 
ATOM     14  C   UNL     1      43.468 134.951  19.560  1.00  0.00     0.020 A 
BRANCH   6  15
ATOM     15  N   UNL     1      44.880 131.348  16.091  1.00  0.00    -0.060 NA
BRANCH  15  16
ATOM     16  N   UNL     1      45.018 130.247  15.557  1.00  0.00     0.005 N 
ATOM     17  N   UNL     1      45.152 129.147  15.022  1.00  0.00    -0.003 NA
ENDBRANCH  15  16
ENDBRANCH   6  15
BRANCH  13  18
ATOM     18  C   UNL     1      42.579 136.001  17.486  1.00  0.00     0.252 C 
ATOM     19  O   UNL     1      41.322 136.074  17.526  1.00  0.00    -0.287 OA
BRANCH  18  20
ATOM     20  N   UNL     1      43.307 137.030  16.804  1.00  0.00    -0.017 NA
BRANCH  20  21
ATOM     21  N   UNL     1      43.421 138.167  17.267  1.00  0.00     0.009 N 
ATOM     22  N   UNL     1      43.537 139.302  17.728  1.00  0.00    -0.003 NA
ENDBRANCH  20  21
ENDBRANCH  18  20
ENDBRANCH  13  18
ENDBRANCH   2   3
ENDBRANCH   1   2
BRANCH   1  23
ATOM     23  C   UNL     1      41.718 133.422  14.291  1.00  0.00     0.128 C 
BRANCH  23  24
ATOM     24  C   UNL     1      40.405 134.139  14.393  1.00  0.00     0.168 A 
ATOM     25  C   UNL     1      39.667 134.700  13.371  1.00  0.00     0.274 A 
ATOM     26  N   UNL     1      39.774 134.425  15.551  1.00  0.00    -0.148 N 
ATOM     27  N   UNL     1      38.609 135.298  13.954  1.00  0.00    -0.135 N 
ATOM     28  N   UNL     1      38.685 135.119  15.264  1.00  0.00     0.088 NA
ATOM     29  H   UNL     1      40.075 134.166  16.514  1.00  0.00     0.342 HD
BRANCH  27  30
ATOM     30  C   UNL     1      37.511 135.979  13.272  1.00  0.00     0.303 C 
BRANCH  30  31
ATOM     31  C   UNL     1      37.938 137.382  12.811  1.00  0.00     0.206 C 
BRANCH  31  32
ATOM     32  N   UNL     1      38.783 137.262  11.625  1.00  0.00    -0.219 NA
BRANCH  32  33
ATOM     33  C   UNL     1      38.306 136.955  10.485  1.00  0.00     0.059 C 
ATOM     34  S   UNL     1      37.698 136.567   9.047  1.00  0.00    -0.006 S 
ENDBRANCH  32  33
ENDBRANCH  31  32
BRANCH  31  35
ATOM     35  C   UNL     1      38.684 138.093  13.910  1.00  0.00     0.071 C 
ATOM     36  O   UNL     1      39.900 138.382  13.761  1.00  0.00    -0.548 OA
ATOM     37  O   UNL     1      38.025 138.470  15.073  1.00  0.00    -0.548 OA
ENDBRANCH  31  35
ENDBRANCH  30  31
ENDBRANCH  27  30
ENDBRANCH  23  24
ENDBRANCH   1  23
TORSDOF 14
ENDMDL
MODEL 8
REMARK VINA RESULT:      -4.7      2.564      5.039
REMARK SMILES [N-]=[N+]=NC(=O)c1cc2c3c(ccc(N=[N+]=[N-])c3c1OCCc1cn(C[C@H](N=C=S)C(=O)[O-])n[nH+]1)CC2
REMARK SMILES IDX 20 1 19 2 18 3 12 4 11 5 13 6 10 7 17 8 9 9 35 10 8 11 36 12
REMARK SMILES IDX 6 13 7 14 14 15 15 16 16 17 4 18 5 19 3 20 2 21 1 22 21 23
REMARK SMILES IDX 22 24 23 25 34 26 24 27 33 28 25 30 26 31 27 32 28 33 29 34
REMARK SMILES IDX 30 35 31 36 32 37
REMARK H PARENT 34 29
ROOT
ATOM      1  C   UNL     1      42.405 133.673  15.020  1.00  0.00     0.238 C 
ENDROOT
BRANCH   1   2
ATOM      2  O   UNL     1      43.213 134.308  16.010  1.00  0.00    -0.492 OA
BRANCH   2   3
ATOM      3  C   UNL     1      43.243 133.876  17.340  1.00  0.00     0.138 A 
ATOM      4  C   UNL     1      45.711 130.991  17.444  1.00  0.00     0.011 A 
ATOM      5  C   UNL     1      45.531 130.587  18.780  1.00  0.00     0.005 A 
ATOM      6  C   UNL     1      44.983 132.089  16.903  1.00  0.00     0.049 A 
ATOM      7  C   UNL     1      44.625 131.289  19.569  1.00  0.00    -0.039 A 
ATOM      8  C   UNL     1      44.050 132.772  17.729  1.00  0.00     0.035 A 
ATOM      9  C   UNL     1      43.928 132.333  19.047  1.00  0.00    -0.008 A 
ATOM     10  C   UNL     1      44.277 131.093  21.010  1.00  0.00     0.041 C 
ATOM     11  C   UNL     1      43.119 132.912  19.967  1.00  0.00    -0.039 A 
ATOM     12  C   UNL     1      43.236 132.212  21.284  1.00  0.00     0.041 C 
ATOM     13  C   UNL     1      42.435 134.536  18.314  1.00  0.00     0.067 A 
ATOM     14  C   UNL     1      42.358 134.028  19.631  1.00  0.00     0.020 A 
BRANCH   6  15
ATOM     15  N   UNL     1      45.223 132.534  15.560  1.00  0.00    -0.060 NA
BRANCH  15  16
ATOM     16  N   UNL     1      46.089 132.036  14.841  1.00  0.00     0.005 N 
ATOM     17  N   UNL     1      46.957 131.539  14.124  1.00  0.00    -0.003 NA
ENDBRANCH  15  16
ENDBRANCH   6  15
BRANCH  13  18
ATOM     18  C   UNL     1      41.638 135.736  17.968  1.00  0.00     0.252 C 
ATOM     19  O   UNL     1      40.516 135.589  17.415  1.00  0.00    -0.287 OA
BRANCH  18  20
ATOM     20  N   UNL     1      42.091 137.062  18.267  1.00  0.00    -0.017 NA
BRANCH  20  21
ATOM     21  N   UNL     1      43.287 137.359  18.278  1.00  0.00     0.009 N 
ATOM     22  N   UNL     1      44.482 137.654  18.289  1.00  0.00    -0.003 NA
ENDBRANCH  20  21
ENDBRANCH  18  20
ENDBRANCH  13  18
ENDBRANCH   2   3
ENDBRANCH   1   2
BRANCH   1  23
ATOM     23  C   UNL     1      41.665 134.712  14.182  1.00  0.00     0.128 C 
BRANCH  23  24
ATOM     24  C   UNL     1      40.178 134.539  14.264  1.00  0.00     0.168 A 
ATOM     25  C   UNL     1      39.229 134.939  13.345  1.00  0.00     0.274 A 
ATOM     26  N   UNL     1      39.521 134.027  15.326  1.00  0.00    -0.148 N 
ATOM     27  N   UNL     1      38.031 134.642  13.887  1.00  0.00    -0.135 N 
ATOM     28  N   UNL     1      38.223 134.090  15.075  1.00  0.00     0.088 NA
ATOM     29  H   UNL     1      39.938 133.652  16.204  1.00  0.00     0.342 HD
BRANCH  27  30
ATOM     30  C   UNL     1      36.723 134.826  13.260  1.00  0.00     0.303 C 
BRANCH  30  31
ATOM     31  C   UNL     1      36.703 136.102  12.403  1.00  0.00     0.206 C 
BRANCH  31  32
ATOM     32  N   UNL     1      37.584 135.921  11.252  1.00  0.00    -0.219 NA
BRANCH  32  33
ATOM     33  C   UNL     1      37.162 135.455  10.145  1.00  0.00     0.059 C 
ATOM     34  S   UNL     1      36.630 134.860   8.747  1.00  0.00    -0.006 S 
ENDBRANCH  32  33
ENDBRANCH  31  32
BRANCH  31  35
ATOM     35  C   UNL     1      37.146 137.290  13.214  1.00  0.00     0.071 C 
ATOM     36  O   UNL     1      36.612 137.526  14.330  1.00  0.00    -0.548 OA
ATOM     37  O   UNL     1      38.174 138.106  12.757  1.00  0.00    -0.548 OA
ENDBRANCH  31  35
ENDBRANCH  30  31
ENDBRANCH  27  30
ENDBRANCH  23  24
ENDBRANCH   1  23
TORSDOF 14
ENDMDL
MODEL 9
REMARK VINA RESULT:      -4.6      2.671      3.065
REMARK SMILES [N-]=[N+]=NC(=O)c1cc2c3c(ccc(N=[N+]=[N-])c3c1OCCc1cn(C[C@H](N=C=S)C(=O)[O-])n[nH+]1)CC2
REMARK SMILES IDX 20 1 19 2 18 3 12 4 11 5 13 6 10 7 17 8 9 9 35 10 8 11 36 12
REMARK SMILES IDX 6 13 7 14 14 15 15 16 16 17 4 18 5 19 3 20 2 21 1 22 21 23
REMARK SMILES IDX 22 24 23 25 34 26 24 27 33 28 25 30 26 31 27 32 28 33 29 34
REMARK SMILES IDX 30 35 31 36 32 37
REMARK H PARENT 34 29
ROOT
ATOM      1  C   UNL     1      43.589 134.413  15.902  1.00  0.00     0.238 C 
ENDROOT
BRANCH   1   2
ATOM      2  O   UNL     1      43.200 133.162  16.468  1.00  0.00    -0.492 OA
BRANCH   2   3
ATOM      3  C   UNL     1      43.926 132.548  17.494  1.00  0.00     0.138 A 
ATOM      4  C   UNL     1      42.798 134.219  20.713  1.00  0.00     0.011 A 
ATOM      5  C   UNL     1      43.693 133.607  21.611  1.00  0.00     0.005 A 
ATOM      6  C   UNL     1      42.817 133.901  19.325  1.00  0.00     0.049 A 
ATOM      7  C   UNL     1      44.601 132.678  21.113  1.00  0.00    -0.039 A 
ATOM      8  C   UNL     1      43.771 132.963  18.845  1.00  0.00     0.035 A 
ATOM      9  C   UNL     1      44.620 132.383  19.786  1.00  0.00    -0.008 A 
ATOM     10  C   UNL     1      45.621 131.868  21.847  1.00  0.00     0.041 C 
ATOM     11  C   UNL     1      45.547 131.438  19.492  1.00  0.00    -0.039 A 
ATOM     12  C   UNL     1      46.275 131.013  20.728  1.00  0.00     0.041 C 
ATOM     13  C   UNL     1      44.852 131.508  17.178  1.00  0.00     0.067 A 
ATOM     14  C   UNL     1      45.684 130.971  18.187  1.00  0.00     0.020 A 
BRANCH   6  15
ATOM     15  N   UNL     1      41.857 134.480  18.429  1.00  0.00    -0.060 NA
BRANCH  15  16
ATOM     16  N   UNL     1      41.794 135.692  18.218  1.00  0.00     0.005 N 
ATOM     17  N   UNL     1      41.728 136.903  18.011  1.00  0.00    -0.003 NA
ENDBRANCH  15  16
ENDBRANCH   6  15
BRANCH  13  18
ATOM     18  C   UNL     1      44.989 130.993  15.797  1.00  0.00     0.252 C 
ATOM     19  O   UNL     1      44.344 129.966  15.458  1.00  0.00    -0.287 OA
BRANCH  18  20
ATOM     20  N   UNL     1      45.815 131.641  14.821  1.00  0.00    -0.017 NA
BRANCH  20  21
ATOM     21  N   UNL     1      46.189 131.068  13.795  1.00  0.00     0.009 N 
ATOM     22  N   UNL     1      46.562 130.495  12.772  1.00  0.00    -0.003 NA
ENDBRANCH  20  21
ENDBRANCH  18  20
ENDBRANCH  13  18
ENDBRANCH   2   3
ENDBRANCH   1   2
BRANCH   1  23
ATOM     23  C   UNL     1      42.872 134.648  14.575  1.00  0.00     0.128 C 
BRANCH  23  24
ATOM     24  C   UNL     1      41.440 135.045  14.777  1.00  0.00     0.168 A 
ATOM     25  C   UNL     1      40.385 134.237  15.151  1.00  0.00     0.274 A 
ATOM     26  N   UNL     1      40.940 136.274  14.530  1.00  0.00    -0.148 N 
ATOM     27  N   UNL     1      39.286 135.017  15.124  1.00  0.00    -0.135 N 
ATOM     28  N   UNL     1      39.637 136.239  14.755  1.00  0.00     0.088 NA
ATOM     29  H   UNL     1      41.465 137.115  14.209  1.00  0.00     0.342 HD
BRANCH  27  30
ATOM     30  C   UNL     1      37.930 134.622  15.502  1.00  0.00     0.303 C 
BRANCH  30  31
ATOM     31  C   UNL     1      37.632 135.014  16.959  1.00  0.00     0.206 C 
BRANCH  31  32
ATOM     32  N   UNL     1      38.452 136.167  17.323  1.00  0.00    -0.219 NA
BRANCH  32  33
ATOM     33  C   UNL     1      38.078 137.010  18.202  1.00  0.00     0.059 C 
ATOM     34  S   UNL     1      37.601 138.074  19.310  1.00  0.00    -0.006 S 
ENDBRANCH  32  33
ENDBRANCH  31  32
BRANCH  31  35
ATOM     35  C   UNL     1      37.919 133.861  17.884  1.00  0.00     0.071 C 
ATOM     36  O   UNL     1      36.995 133.368  18.582  1.00  0.00    -0.548 OA
ATOM     37  O   UNL     1      39.193 133.308  17.939  1.00  0.00    -0.548 OA
ENDBRANCH  31  35
ENDBRANCH  30  31
ENDBRANCH  27  30
ENDBRANCH  23  24
ENDBRANCH   1  23
TORSDOF 14
ENDMDL


