REMARK SMILES CC[C@H]1C[C@]1(N)C(=O)Oc1ccccc(O)c(NC2(CF)COC2)c(N=[N+]=[N-])c(Cl)c1Cl
REMARK SMILES IDX 15 1 14 2 13 3 12 4 11 5 10 6 31 7 32 8 29 9 30 10 25 11
REMARK SMILES IDX 17 12 16 13 18 15 19 17 22 18 24 19 23 20 20 21 21 22 26 23
REMARK SMILES IDX 27 24 28 25 9 26 7 27 8 28 5 29 4 30 3 31 6 32 2 35 1 36
REMARK H PARENT 16 14 18 16 6 33 6 34
ROOT
ATOM      1  C   UNL     1      -2.110   1.658  -1.425  1.00  0.00     0.139 A 
ATOM      2  C   UNL     1      -2.724   2.590  -0.554  1.00  0.00     0.048 A 
ATOM      3  C   UNL     1      -2.830   2.474   0.845  1.00  0.00     0.004 A 
ATOM      4  C   UNL     1      -2.024   1.646   1.631  1.00  0.00     0.004 A 
ATOM      5  C   UNL     1      -0.712   1.332   1.269  1.00  0.00     0.049 A 
ATOM      6  C   UNL     1      -0.167   0.038   1.377  1.00  0.00     0.151 A 
ATOM      7  C   UNL     1      -0.954  -1.137   1.377  1.00  0.00     0.102 A 
ATOM      8  Cl  UNL     1      -0.223  -2.570   2.113  1.00  0.00    -0.079 Cl
ATOM      9  C   UNL     1      -2.238  -1.267   0.779  1.00  0.00     0.075 A 
ATOM     10  Cl  UNL     1      -3.237  -2.641   1.271  1.00  0.00    -0.082 Cl
ATOM     11  C   UNL     1      -2.751  -0.396  -0.220  1.00  0.00     0.085 A 
ATOM     12  C   UNL     1      -1.906   0.292  -1.116  1.00  0.00     0.088 A 
ENDROOT
BRANCH   1  13
ATOM     13  O   UNL     1      -1.672   2.109  -2.670  1.00  0.00    -0.506 OA
ATOM     14  H   UNL     1      -1.777   3.075  -2.957  1.00  0.00     0.293 HD
ENDBRANCH   1  13
BRANCH  12  15
ATOM     15  N   UNL     1      -0.834  -0.399  -1.781  1.00  0.00    -0.369 N 
ATOM     16  H   UNL     1       0.057   0.129  -1.929  1.00  0.00     0.161 HD
BRANCH  15  17
ATOM     17  C   UNL     1      -0.977  -1.685  -2.484  1.00  0.00     0.113 C 
ATOM     18  C   UNL     1      -2.316  -1.899  -3.174  1.00  0.00     0.193 C 
ATOM     19  C   UNL     1      -0.464  -1.607  -3.913  1.00  0.00     0.193 C 
ATOM     20  O   UNL     1      -1.744  -1.828  -4.458  1.00  0.00    -0.376 OA
BRANCH  17  21
ATOM     21  C   UNL     1      -0.440  -2.884  -1.683  1.00  0.00     0.247 C 
ATOM     22  F   UNL     1      -0.435  -4.043  -2.442  1.00  0.00    -0.248 F 
ENDBRANCH  17  21
ENDBRANCH  15  17
ENDBRANCH  12  15
BRANCH  11  23
ATOM     23  N   UNL     1      -4.164  -0.142  -0.328  1.00  0.00    -0.057 NA
BRANCH  23  24
ATOM     24  N   UNL     1      -4.943  -0.298   0.613  1.00  0.00     0.005 N 
ATOM     25  N   UNL     1      -5.721  -0.448   1.551  1.00  0.00    -0.003 NA
ENDBRANCH  23  24
ENDBRANCH  11  23
BRANCH   6  26
ATOM     26  O   UNL     1       1.222  -0.126   1.503  1.00  0.00    -0.424 OA
BRANCH  26  27
ATOM     27  C   UNL     1       2.197   0.618   0.828  1.00  0.00     0.331 C 
ATOM     28  O   UNL     1       1.906   1.310  -0.185  1.00  0.00    -0.250 OA
BRANCH  27  29
ATOM     29  C   UNL     1       3.615   0.555   1.302  1.00  0.00     0.118 C 
ATOM     30  C   UNL     1       4.290  -0.806   1.217  1.00  0.00     0.040 C 
ATOM     31  C   UNL     1       4.718   0.319   0.276  1.00  0.00     0.022 C 
BRANCH  29  32
ATOM     32  N   UNL     1       3.967   1.318   2.495  1.00  0.00    -0.316 NA
ATOM     33  H   UNL     1       3.342   1.004   3.271  1.00  0.00     0.119 HD
ATOM     34  H   UNL     1       3.745   2.322   2.308  1.00  0.00     0.119 HD
ENDBRANCH  29  32
BRANCH  31  35
ATOM     35  C   UNL     1       6.087   0.949   0.573  1.00  0.00     0.003 C 
ATOM     36  C   UNL     1       7.164   0.323  -0.304  1.00  0.00     0.004 C 
ENDBRANCH  31  35
ENDBRANCH  27  29
ENDBRANCH  26  27
ENDBRANCH   6  26
TORSDOF 11


