REMARK SMILES C[N+]1(C)Cc2cc3ccc(-n4cc(CCN5C[C@@H](CN=[N+]=[N-])CN5C(=O)c5ccc(N)cc5)n[nH+]4)cc3cc2C1
REMARK SMILES IDX 24 1 16 2 17 3 18 4 23 5 25 6 26 7 27 8 28 9 29 10 30 11
REMARK SMILES IDX 33 12 32 13 31 14 15 17 14 18 13 19 34 20 12 21 35 22 11 23
REMARK SMILES IDX 10 25 9 26 36 27 8 28 37 29 7 30 38 31 6 32 39 33 5 34 40 35
REMARK SMILES IDX 4 36 2 37 1 38 3 39 19 40 20 41 21 42 22 43
REMARK H PARENT 31 15 31 16 35 24
ROOT
ATOM      1  N   UNL     1      -0.890   3.764   1.428  1.00  0.00    -0.271 N 
ATOM      2  N   UNL     1      -1.966   4.475   1.997  1.00  0.00    -0.218 NA
ATOM      3  C   UNL     1      -1.373   5.755   2.419  1.00  0.00     0.114 C 
ATOM      4  C   UNL     1      -0.143   5.995   1.541  1.00  0.00     0.032 C 
ATOM      5  C   UNL     1       0.270   4.593   1.121  1.00  0.00     0.145 C 
ENDROOT
BRANCH   1   6
ATOM      6  C   UNL     1      -0.736   2.363   1.718  1.00  0.00     0.268 C 
ATOM      7  O   UNL     1      -1.383   1.867   2.680  1.00  0.00    -0.268 OA
BRANCH   6   8
ATOM      8  C   UNL     1       0.158   1.483   0.922  1.00  0.00     0.041 A 
ATOM      9  C   UNL     1       0.435   1.756  -0.429  1.00  0.00     0.016 A 
ATOM     10  C   UNL     1       1.247   0.896  -1.175  1.00  0.00     0.026 A 
ATOM     11  C   UNL     1       1.772  -0.264  -0.592  1.00  0.00     0.031 A 
ATOM     12  C   UNL     1       0.679   0.310   1.497  1.00  0.00     0.016 A 
ATOM     13  C   UNL     1       1.481  -0.555   0.746  1.00  0.00     0.026 A 
BRANCH  11  14
ATOM     14  N   UNL     1       2.574  -1.161  -1.365  1.00  0.00    -0.399 N 
ATOM     15  H   UNL     1       2.792  -0.955  -2.366  1.00  0.00     0.156 HD
ATOM     16  H   UNL     1       2.948  -2.042  -0.946  1.00  0.00     0.156 HD
ENDBRANCH  11  14
ENDBRANCH   6   8
ENDBRANCH   1   6
BRANCH   2  17
ATOM     17  C   UNL     1      -3.004   4.690   0.964  1.00  0.00     0.115 C 
BRANCH  17  18
ATOM     18  C   UNL     1      -3.883   3.440   0.766  1.00  0.00     0.082 C 
BRANCH  18  19
ATOM     19  C   UNL     1      -3.433   2.608  -0.397  1.00  0.00     0.134 A 
ATOM     20  N   UNL     1      -3.432   3.021  -1.679  1.00  0.00     0.020 NA
ATOM     21  C   UNL     1      -2.932   1.327  -0.350  1.00  0.00     0.190 A 
ATOM     22  N   UNL     1      -2.923   2.025  -2.386  1.00  0.00    -0.012 N 
ATOM     23  N   UNL     1      -2.597   0.994  -1.614  1.00  0.00    -0.104 N 
ATOM     24  H   UNL     1      -2.803   2.071  -3.421  1.00  0.00     0.527 HD
BRANCH  23  25
ATOM     25  C   UNL     1      -1.877  -0.188  -2.039  1.00  0.00     0.107 A 
ATOM     26  C   UNL     1      -1.253  -0.237  -3.302  1.00  0.00     0.033 A 
ATOM     27  C   UNL     1      -1.709  -1.278  -1.160  1.00  0.00     0.041 A 
ATOM     28  C   UNL     1      -0.463  -1.328  -3.671  1.00  0.00     0.011 A 
ATOM     29  C   UNL     1      -0.898  -2.366  -1.511  1.00  0.00    -0.016 A 
ATOM     30  C   UNL     1      -0.264  -2.390  -2.783  1.00  0.00    -0.018 A 
ATOM     31  C   UNL     1      -0.683  -3.421  -0.603  1.00  0.00     0.019 A 
ATOM     32  C   UNL     1       0.575  -3.467  -3.129  1.00  0.00     0.018 A 
ATOM     33  C   UNL     1       0.164  -4.464  -0.979  1.00  0.00     0.016 A 
ATOM     34  C   UNL     1       0.772  -4.486  -2.196  1.00  0.00     0.016 A 
ATOM     35  C   UNL     1       0.530  -5.660  -0.191  1.00  0.00     0.301 C 
ATOM     36  C   UNL     1       1.605  -5.698  -2.341  1.00  0.00     0.301 C 
ATOM     37  N   UNL     1       1.542  -6.395  -1.016  1.00  0.00    -0.321 N 
ATOM     38  C   UNL     1       1.141  -7.810  -1.191  1.00  0.00     0.334 C 
ATOM     39  C   UNL     1       2.867  -6.350  -0.353  1.00  0.00     0.334 C 
ENDBRANCH  23  25
ENDBRANCH  18  19
ENDBRANCH  17  18
ENDBRANCH   2  17
BRANCH   4  40
ATOM     40  C   UNL     1       0.979   6.754   2.265  1.00  0.00     0.097 C 
BRANCH  40  41
ATOM     41  N   UNL     1       0.536   8.104   2.597  1.00  0.00    -0.094 NA
BRANCH  41  42
ATOM     42  N   UNL     1       0.503   8.491   3.765  1.00  0.00     0.001 N 
ATOM     43  N   UNL     1       0.469   8.877   4.933  1.00  0.00    -0.003 NA
ENDBRANCH  41  42
ENDBRANCH  40  41
ENDBRANCH   4  40
TORSDOF 10


