MODEL 1
REMARK VINA RESULT:      -6.5      0.000      0.000
REMARK SMILES C[C@@H](C#N)N(C)CCCCc1cn(-c2cc(N)c3c4c(cccc24)C(=O)N3)nn1
REMARK SMILES IDX 8 1 7 2 5 3 6 4 2 5 1 6 3 7 4 8 9 9 10 10 11 11 12 12 29 13
REMARK SMILES IDX 13 14 28 15 14 16 15 17 24 18 16 19 23 20 19 21 18 22 22 23
REMARK SMILES IDX 20 24 27 25 21 26 25 27 26 29 17 30
REMARK H PARENT 27 28 17 31 17 32
ROOT
ATOM      1  C   UNL     1      37.861 135.580  16.283  1.00  0.00     0.016 C 
ENDROOT
BRANCH   1   2
ATOM      2  C   UNL     1      38.915 136.132  15.315  1.00  0.00     0.085 C 
BRANCH   2   3
ATOM      3  N   UNL     1      39.466 137.410  15.822  1.00  0.00    -0.291 NA
ATOM      4  C   UNL     1      38.409 138.421  16.007  1.00  0.00     0.106 C 
BRANCH   3   5
ATOM      5  C   UNL     1      40.634 137.893  15.038  1.00  0.00     0.157 C 
ATOM      6  C   UNL     1      41.229 139.219  15.548  1.00  0.00     0.041 C 
BRANCH   5   7
ATOM      7  C   UNL     1      41.673 136.853  15.008  1.00  0.00     0.081 C 
ATOM      8  N   UNL     1      42.491 136.034  14.984  1.00  0.00    -0.197 NA
ENDBRANCH   5   7
ENDBRANCH   3   5
ENDBRANCH   2   3
ENDBRANCH   1   2
BRANCH   1   9
ATOM      9  C   UNL     1      38.174 134.134  16.705  1.00  0.00     0.008 C 
BRANCH   9  10
ATOM     10  C   UNL     1      38.775 134.060  18.115  1.00  0.00     0.060 C 
BRANCH  10  11
ATOM     11  C   UNL     1      40.265 133.912  18.060  1.00  0.00     0.083 A 
ATOM     12  C   UNL     1      40.970 132.753  17.817  1.00  0.00     0.140 A 
ATOM     13  N   UNL     1      41.133 134.943  18.092  1.00  0.00    -0.135 NA
ATOM     14  N   UNL     1      42.257 133.120  17.703  1.00  0.00    -0.220 N 
ATOM     15  N   UNL     1      42.338 134.430  17.883  1.00  0.00    -0.062 NA
BRANCH  14  16
ATOM     16  C   UNL     1      43.375 132.257  17.444  1.00  0.00     0.076 A 
ATOM     17  C   UNL     1      44.196 131.831  18.527  1.00  0.00     0.056 A 
ATOM     18  C   UNL     1      43.682 131.817  16.129  1.00  0.00     0.011 A 
ATOM     19  C   UNL     1      45.325 131.001  18.317  1.00  0.00     0.058 A 
ATOM     20  C   UNL     1      42.927 132.074  14.961  1.00  0.00     0.011 A 
ATOM     21  C   UNL     1      44.803 131.015  15.979  1.00  0.00     0.022 A 
ATOM     22  C   UNL     1      45.609 130.609  17.005  1.00  0.00     0.073 A 
ATOM     23  C   UNL     1      43.340 131.538  13.713  1.00  0.00     0.002 A 
ATOM     24  C   UNL     1      45.212 130.489  14.790  1.00  0.00     0.050 A 
ATOM     25  N   UNL     1      46.652 129.759  16.518  1.00  0.00    -0.320 N 
ATOM     26  C   UNL     1      44.497 130.732  13.619  1.00  0.00     0.014 A 
ATOM     27  C   UNL     1      46.389 129.688  15.110  1.00  0.00     0.256 C 
ATOM     28  H   UNL     1      47.407 129.276  17.052  1.00  0.00     0.170 HD
ATOM     29  O   UNL     1      47.075 129.018  14.294  1.00  0.00    -0.269 OA
BRANCH  19  30
ATOM     30  N   UNL     1      46.140 130.583  19.415  1.00  0.00    -0.397 N 
ATOM     31  H   UNL     1      47.180 130.665  19.364  1.00  0.00     0.156 HD
ATOM     32  H   UNL     1      45.718 130.191  20.285  1.00  0.00     0.156 HD
ENDBRANCH  19  30
ENDBRANCH  14  16
ENDBRANCH  10  11
ENDBRANCH   9  10
ENDBRANCH   1   9
TORSDOF 9
ENDMDL
MODEL 2
REMARK VINA RESULT:      -6.0      1.574      2.007
REMARK SMILES C[C@@H](C#N)N(C)CCCCc1cn(-c2cc(N)c3c4c(cccc24)C(=O)N3)nn1
REMARK SMILES IDX 8 1 7 2 5 3 6 4 2 5 1 6 3 7 4 8 9 9 10 10 11 11 12 12 29 13
REMARK SMILES IDX 13 14 28 15 14 16 15 17 24 18 16 19 23 20 19 21 18 22 22 23
REMARK SMILES IDX 20 24 27 25 21 26 25 27 26 29 17 30
REMARK H PARENT 27 28 17 31 17 32
ROOT
ATOM      1  C   UNL     1      39.260 137.518  16.360  1.00  0.00     0.016 C 
ENDROOT
BRANCH   1   2
ATOM      2  C   UNL     1      40.669 137.312  16.931  1.00  0.00     0.085 C 
BRANCH   2   3
ATOM      3  N   UNL     1      41.679 137.968  16.069  1.00  0.00    -0.291 NA
ATOM      4  C   UNL     1      41.648 137.435  14.695  1.00  0.00     0.106 C 
BRANCH   3   5
ATOM      5  C   UNL     1      43.036 137.994  16.678  1.00  0.00     0.157 C 
ATOM      6  C   UNL     1      43.194 139.015  17.820  1.00  0.00     0.041 C 
BRANCH   5   7
ATOM      7  C   UNL     1      43.388 136.648  17.154  1.00  0.00     0.081 C 
ATOM      8  N   UNL     1      43.665 135.588  17.528  1.00  0.00    -0.197 NA
ENDBRANCH   5   7
ENDBRANCH   3   5
ENDBRANCH   2   3
ENDBRANCH   1   2
BRANCH   1   9
ATOM      9  C   UNL     1      38.399 136.250  16.489  1.00  0.00     0.008 C 
BRANCH   9  10
ATOM     10  C   UNL     1      38.827 135.158  15.499  1.00  0.00     0.060 C 
BRANCH  10  11
ATOM     11  C   UNL     1      39.617 134.085  16.186  1.00  0.00     0.083 A 
ATOM     12  C   UNL     1      40.949 133.790  15.990  1.00  0.00     0.140 A 
ATOM     13  N   UNL     1      39.163 133.348  17.219  1.00  0.00    -0.135 NA
ATOM     14  N   UNL     1      41.266 132.876  16.922  1.00  0.00    -0.220 N 
ATOM     15  N   UNL     1      40.184 132.614  17.640  1.00  0.00    -0.062 NA
BRANCH  14  16
ATOM     16  C   UNL     1      42.549 132.263  17.120  1.00  0.00     0.076 A 
ATOM     17  C   UNL     1      43.061 132.121  18.442  1.00  0.00     0.056 A 
ATOM     18  C   UNL     1      43.323 131.794  16.026  1.00  0.00     0.011 A 
ATOM     19  C   UNL     1      44.333 131.547  18.685  1.00  0.00     0.058 A 
ATOM     20  C   UNL     1      42.931 131.780  14.667  1.00  0.00     0.011 A 
ATOM     21  C   UNL     1      44.565 131.251  16.319  1.00  0.00     0.022 A 
ATOM     22  C   UNL     1      45.076 131.120  17.580  1.00  0.00     0.073 A 
ATOM     23  C   UNL     1      43.801 131.246  13.680  1.00  0.00     0.002 A 
ATOM     24  C   UNL     1      45.410 130.731  15.384  1.00  0.00     0.050 A 
ATOM     25  N   UNL     1      46.357 130.484  17.538  1.00  0.00    -0.320 N 
ATOM     26  C   UNL     1      45.060 130.711  14.037  1.00  0.00     0.014 A 
ATOM     27  C   UNL     1      46.559 130.239  16.139  1.00  0.00     0.256 C 
ATOM     28  H   UNL     1      46.986 130.226  18.329  1.00  0.00     0.170 HD
ATOM     29  O   UNL     1      47.576 129.673  15.659  1.00  0.00    -0.269 OA
BRANCH  19  30
ATOM     30  N   UNL     1      44.833 131.413  20.018  1.00  0.00    -0.397 N 
ATOM     31  H   UNL     1      44.175 131.358  20.827  1.00  0.00     0.156 HD
ATOM     32  H   UNL     1      45.857 131.367  20.210  1.00  0.00     0.156 HD
ENDBRANCH  19  30
ENDBRANCH  14  16
ENDBRANCH  10  11
ENDBRANCH   9  10
ENDBRANCH   1   9
TORSDOF 9
ENDMDL
MODEL 3
REMARK VINA RESULT:      -5.6      3.282      8.094
REMARK SMILES C[C@@H](C#N)N(C)CCCCc1cn(-c2cc(N)c3c4c(cccc24)C(=O)N3)nn1
REMARK SMILES IDX 8 1 7 2 5 3 6 4 2 5 1 6 3 7 4 8 9 9 10 10 11 11 12 12 29 13
REMARK SMILES IDX 13 14 28 15 14 16 15 17 24 18 16 19 23 20 19 21 18 22 22 23
REMARK SMILES IDX 20 24 27 25 21 26 25 27 26 29 17 30
REMARK H PARENT 27 28 17 31 17 32
ROOT
ATOM      1  C   UNL     1      45.950 130.702  16.219  1.00  0.00     0.016 C 
ENDROOT
BRANCH   1   2
ATOM      2  C   UNL     1      46.228 131.842  15.232  1.00  0.00     0.085 C 
BRANCH   2   3
ATOM      3  N   UNL     1      46.168 131.347  13.837  1.00  0.00    -0.291 NA
ATOM      4  C   UNL     1      45.049 130.407  13.643  1.00  0.00     0.106 C 
BRANCH   3   5
ATOM      5  C   UNL     1      47.476 130.840  13.342  1.00  0.00     0.157 C 
ATOM      6  C   UNL     1      47.932 129.526  14.004  1.00  0.00     0.041 C 
BRANCH   5   7
ATOM      7  C   UNL     1      47.422 130.677  11.882  1.00  0.00     0.081 C 
ATOM      8  N   UNL     1      47.379 130.550  10.733  1.00  0.00    -0.197 NA
ENDBRANCH   5   7
ENDBRANCH   3   5
ENDBRANCH   2   3
ENDBRANCH   1   2
BRANCH   1   9
ATOM      9  C   UNL     1      44.705 130.981  17.079  1.00  0.00     0.008 C 
BRANCH   9  10
ATOM     10  C   UNL     1      44.757 132.365  17.739  1.00  0.00     0.060 C 
BRANCH  10  11
ATOM     11  C   UNL     1      43.533 133.166  17.413  1.00  0.00     0.083 A 
ATOM     12  C   UNL     1      43.434 134.176  16.481  1.00  0.00     0.140 A 
ATOM     13  N   UNL     1      42.301 132.900  17.889  1.00  0.00    -0.135 NA
ATOM     14  N   UNL     1      42.130 134.492  16.415  1.00  0.00    -0.220 N 
ATOM     15  N   UNL     1      41.469 133.729  17.273  1.00  0.00    -0.062 NA
BRANCH  14  16
ATOM     16  C   UNL     1      41.532 135.492  15.576  1.00  0.00     0.076 A 
ATOM     17  C   UNL     1      42.154 136.768  15.455  1.00  0.00     0.056 A 
ATOM     18  C   UNL     1      40.330 135.238  14.863  1.00  0.00     0.011 A 
ATOM     19  C   UNL     1      41.587 137.794  14.660  1.00  0.00     0.058 A 
ATOM     20  C   UNL     1      39.633 134.009  14.805  1.00  0.00     0.011 A 
ATOM     21  C   UNL     1      39.812 136.281  14.110  1.00  0.00     0.022 A 
ATOM     22  C   UNL     1      40.389 137.515  13.994  1.00  0.00     0.073 A 
ATOM     23  C   UNL     1      38.456 133.894  14.019  1.00  0.00     0.002 A 
ATOM     24  C   UNL     1      38.687 136.186  13.347  1.00  0.00     0.050 A 
ATOM     25  N   UNL     1      39.627 138.344  13.111  1.00  0.00    -0.320 N 
ATOM     26  C   UNL     1      37.971 134.994  13.276  1.00  0.00     0.014 A 
ATOM     27  C   UNL     1      38.549 137.490  12.705  1.00  0.00     0.256 C 
ATOM     28  H   UNL     1      39.817 139.323  12.804  1.00  0.00     0.170 HD
ATOM     29  O   UNL     1      37.639 137.830  11.903  1.00  0.00    -0.269 OA
BRANCH  19  30
ATOM     30  N   UNL     1      42.223 139.070  14.550  1.00  0.00    -0.397 N 
ATOM     31  H   UNL     1      42.921 139.250  13.794  1.00  0.00     0.156 HD
ATOM     32  H   UNL     1      42.006 139.843  15.215  1.00  0.00     0.156 HD
ENDBRANCH  19  30
ENDBRANCH  14  16
ENDBRANCH  10  11
ENDBRANCH   9  10
ENDBRANCH   1   9
TORSDOF 9
ENDMDL
MODEL 4
REMARK VINA RESULT:      -5.6      1.740      2.345
REMARK SMILES C[C@@H](C#N)N(C)CCCCc1cn(-c2cc(N)c3c4c(cccc24)C(=O)N3)nn1
REMARK SMILES IDX 8 1 7 2 5 3 6 4 2 5 1 6 3 7 4 8 9 9 10 10 11 11 12 12 29 13
REMARK SMILES IDX 13 14 28 15 14 16 15 17 24 18 16 19 23 20 19 21 18 22 22 23
REMARK SMILES IDX 20 24 27 25 21 26 25 27 26 29 17 30
REMARK H PARENT 27 28 17 31 17 32
ROOT
ATOM      1  C   UNL     1      38.669 134.254  14.627  1.00  0.00     0.016 C 
ENDROOT
BRANCH   1   2
ATOM      2  C   UNL     1      38.490 135.293  13.514  1.00  0.00     0.085 C 
BRANCH   2   3
ATOM      3  N   UNL     1      39.681 136.170  13.426  1.00  0.00    -0.291 NA
ATOM      4  C   UNL     1      40.840 135.580  14.121  1.00  0.00     0.106 C 
BRANCH   3   5
ATOM      5  C   UNL     1      39.397 137.578  13.810  1.00  0.00     0.157 C 
ATOM      6  C   UNL     1      40.643 138.378  14.234  1.00  0.00     0.041 C 
BRANCH   5   7
ATOM      7  C   UNL     1      38.711 138.263  12.704  1.00  0.00     0.081 C 
ATOM      8  N   UNL     1      38.170 138.801  11.834  1.00  0.00    -0.197 NA
ENDBRANCH   5   7
ENDBRANCH   3   5
ENDBRANCH   2   3
ENDBRANCH   1   2
BRANCH   1   9
ATOM      9  C   UNL     1      37.677 134.477  15.782  1.00  0.00     0.008 C 
BRANCH   9  10
ATOM     10  C   UNL     1      38.268 135.361  16.889  1.00  0.00     0.060 C 
BRANCH  10  11
ATOM     11  C   UNL     1      39.255 134.599  17.720  1.00  0.00     0.083 A 
ATOM     12  C   UNL     1      40.354 133.904  17.263  1.00  0.00     0.140 A 
ATOM     13  N   UNL     1      39.289 134.615  19.067  1.00  0.00    -0.135 NA
ATOM     14  N   UNL     1      41.031 133.520  18.358  1.00  0.00    -0.220 N 
ATOM     15  N   UNL     1      40.373 133.942  19.428  1.00  0.00    -0.062 NA
BRANCH  14  16
ATOM     16  C   UNL     1      42.253 132.768  18.391  1.00  0.00     0.076 A 
ATOM     17  C   UNL     1      42.808 132.388  19.647  1.00  0.00     0.056 A 
ATOM     18  C   UNL     1      42.925 132.394  17.197  1.00  0.00     0.011 A 
ATOM     19  C   UNL     1      44.025 131.669  19.730  1.00  0.00     0.058 A 
ATOM     20  C   UNL     1      42.472 132.615  15.876  1.00  0.00     0.011 A 
ATOM     21  C   UNL     1      44.118 131.701  17.336  1.00  0.00     0.022 A 
ATOM     22  C   UNL     1      44.671 131.341  18.533  1.00  0.00     0.073 A 
ATOM     23  C   UNL     1      43.238 132.152  14.773  1.00  0.00     0.002 A 
ATOM     24  C   UNL     1      44.864 131.247  16.289  1.00  0.00     0.050 A 
ATOM     25  N   UNL     1      45.878 130.601  18.326  1.00  0.00    -0.320 N 
ATOM     26  C   UNL     1      44.451 131.457  14.975  1.00  0.00     0.014 A 
ATOM     27  C   UNL     1      45.990 130.546  16.898  1.00  0.00     0.256 C 
ATOM     28  H   UNL     1      46.514 130.173  19.034  1.00  0.00     0.170 HD
ATOM     29  O   UNL     1      46.922 129.963  16.283  1.00  0.00    -0.269 OA
BRANCH  19  30
ATOM     30  N   UNL     1      44.570 131.296  20.998  1.00  0.00    -0.397 N 
ATOM     31  H   UNL     1      44.885 132.026  21.675  1.00  0.00     0.156 HD
ATOM     32  H   UNL     1      44.663 130.295  21.275  1.00  0.00     0.156 HD
ENDBRANCH  19  30
ENDBRANCH  14  16
ENDBRANCH  10  11
ENDBRANCH   9  10
ENDBRANCH   1   9
TORSDOF 9
ENDMDL
MODEL 5
REMARK VINA RESULT:      -5.6      3.237      8.126
REMARK SMILES C[C@@H](C#N)N(C)CCCCc1cn(-c2cc(N)c3c4c(cccc24)C(=O)N3)nn1
REMARK SMILES IDX 8 1 7 2 5 3 6 4 2 5 1 6 3 7 4 8 9 9 10 10 11 11 12 12 29 13
REMARK SMILES IDX 13 14 28 15 14 16 15 17 24 18 16 19 23 20 19 21 18 22 22 23
REMARK SMILES IDX 20 24 27 25 21 26 25 27 26 29 17 30
REMARK H PARENT 27 28 17 31 17 32
ROOT
ATOM      1  C   UNL     1      44.495 131.119  17.298  1.00  0.00     0.016 C 
ENDROOT
BRANCH   1   2
ATOM      2  C   UNL     1      45.434 130.924  18.494  1.00  0.00     0.085 C 
BRANCH   2   3
ATOM      3  N   UNL     1      45.051 131.823  19.607  1.00  0.00    -0.291 NA
ATOM      4  C   UNL     1      45.402 131.245  20.917  1.00  0.00     0.106 C 
BRANCH   3   5
ATOM      5  C   UNL     1      43.645 132.300  19.513  1.00  0.00     0.157 C 
ATOM      6  C   UNL     1      42.697 131.668  20.549  1.00  0.00     0.041 C 
BRANCH   5   7
ATOM      7  C   UNL     1      43.612 133.765  19.627  1.00  0.00     0.081 C 
ATOM      8  N   UNL     1      43.585 134.918  19.717  1.00  0.00    -0.197 NA
ENDBRANCH   5   7
ENDBRANCH   3   5
ENDBRANCH   2   3
ENDBRANCH   1   2
BRANCH   1   9
ATOM      9  C   UNL     1      45.138 131.986  16.202  1.00  0.00     0.008 C 
BRANCH   9  10
ATOM     10  C   UNL     1      44.541 131.705  14.816  1.00  0.00     0.060 C 
BRANCH  10  11
ATOM     11  C   UNL     1      43.171 132.298  14.687  1.00  0.00     0.083 A 
ATOM     12  C   UNL     1      42.723 133.467  15.263  1.00  0.00     0.140 A 
ATOM     13  N   UNL     1      42.218 131.839  13.852  1.00  0.00    -0.135 NA
ATOM     14  N   UNL     1      41.500 133.686  14.751  1.00  0.00    -0.220 N 
ATOM     15  N   UNL     1      41.209 132.697  13.919  1.00  0.00    -0.062 NA
BRANCH  14  16
ATOM     16  C   UNL     1      40.631 134.790  15.047  1.00  0.00     0.076 A 
ATOM     17  C   UNL     1      40.708 135.973  14.257  1.00  0.00     0.056 A 
ATOM     18  C   UNL     1      39.695 134.731  16.113  1.00  0.00     0.011 A 
ATOM     19  C   UNL     1      39.890 137.097  14.528  1.00  0.00     0.058 A 
ATOM     20  C   UNL     1      39.431 133.610  16.936  1.00  0.00     0.011 A 
ATOM     21  C   UNL     1      38.927 135.863  16.341  1.00  0.00     0.022 A 
ATOM     22  C   UNL     1      38.998 137.010  15.602  1.00  0.00     0.073 A 
ATOM     23  C   UNL     1      38.436 133.687  17.946  1.00  0.00     0.002 A 
ATOM     24  C   UNL     1      37.966 135.952  17.304  1.00  0.00     0.050 A 
ATOM     25  N   UNL     1      38.046 137.969  16.071  1.00  0.00    -0.320 N 
ATOM     26  C   UNL     1      37.689 134.871  18.138  1.00  0.00     0.014 A 
ATOM     27  C   UNL     1      37.394 137.286  17.151  1.00  0.00     0.256 C 
ATOM     28  H   UNL     1      37.842 138.924  15.704  1.00  0.00     0.170 HD
ATOM     29  O   UNL     1      36.463 137.778  17.840  1.00  0.00    -0.269 OA
BRANCH  19  30
ATOM     30  N   UNL     1      39.980 138.278  13.726  1.00  0.00    -0.397 N 
ATOM     31  H   UNL     1      40.406 138.240  12.774  1.00  0.00     0.156 HD
ATOM     32  H   UNL     1      39.626 139.196  14.072  1.00  0.00     0.156 HD
ENDBRANCH  19  30
ENDBRANCH  14  16
ENDBRANCH  10  11
ENDBRANCH   9  10
ENDBRANCH   1   9
TORSDOF 9
ENDMDL
MODEL 6
REMARK VINA RESULT:      -5.5      1.653      2.107
REMARK SMILES C[C@@H](C#N)N(C)CCCCc1cn(-c2cc(N)c3c4c(cccc24)C(=O)N3)nn1
REMARK SMILES IDX 8 1 7 2 5 3 6 4 2 5 1 6 3 7 4 8 9 9 10 10 11 11 12 12 29 13
REMARK SMILES IDX 13 14 28 15 14 16 15 17 24 18 16 19 23 20 19 21 18 22 22 23
REMARK SMILES IDX 20 24 27 25 21 26 25 27 26 29 17 30
REMARK H PARENT 27 28 17 31 17 32
ROOT
ATOM      1  C   UNL     1      37.640 136.248  15.547  1.00  0.00     0.016 C 
ENDROOT
BRANCH   1   2
ATOM      2  C   UNL     1      39.048 136.181  14.941  1.00  0.00     0.085 C 
BRANCH   2   3
ATOM      3  N   UNL     1      38.972 136.067  13.466  1.00  0.00    -0.291 NA
ATOM      4  C   UNL     1      40.060 135.227  12.931  1.00  0.00     0.106 C 
BRANCH   3   5
ATOM      5  C   UNL     1      38.833 137.382  12.786  1.00  0.00     0.157 C 
ATOM      6  C   UNL     1      37.399 137.946  12.795  1.00  0.00     0.041 C 
BRANCH   5   7
ATOM      7  C   UNL     1      39.759 138.351  13.390  1.00  0.00     0.081 C 
ATOM      8  N   UNL     1      40.489 139.112  13.866  1.00  0.00    -0.197 NA
ENDBRANCH   5   7
ENDBRANCH   3   5
ENDBRANCH   2   3
ENDBRANCH   1   2
BRANCH   1   9
ATOM      9  C   UNL     1      37.592 135.616  16.949  1.00  0.00     0.008 C 
BRANCH   9  10
ATOM     10  C   UNL     1      38.944 135.701  17.669  1.00  0.00     0.060 C 
BRANCH  10  11
ATOM     11  C   UNL     1      39.718 134.427  17.517  1.00  0.00     0.083 A 
ATOM     12  C   UNL     1      41.085 134.277  17.608  1.00  0.00     0.140 A 
ATOM     13  N   UNL     1      39.159 133.204  17.417  1.00  0.00    -0.135 NA
ATOM     14  N   UNL     1      41.316 132.954  17.565  1.00  0.00    -0.220 N 
ATOM     15  N   UNL     1      40.155 132.329  17.438  1.00  0.00    -0.062 NA
BRANCH  14  16
ATOM     16  C   UNL     1      42.594 132.304  17.632  1.00  0.00     0.076 A 
ATOM     17  C   UNL     1      43.181 132.041  18.903  1.00  0.00     0.056 A 
ATOM     18  C   UNL     1      43.290 131.916  16.456  1.00  0.00     0.011 A 
ATOM     19  C   UNL     1      44.452 131.426  19.018  1.00  0.00     0.058 A 
ATOM     20  C   UNL     1      42.816 132.024  15.127  1.00  0.00     0.011 A 
ATOM     21  C   UNL     1      44.534 131.328  16.625  1.00  0.00     0.022 A 
ATOM     22  C   UNL     1      45.117 131.082  17.837  1.00  0.00     0.073 A 
ATOM     23  C   UNL     1      43.613 131.561  14.047  1.00  0.00     0.002 A 
ATOM     24  C   UNL     1      45.310 130.875  15.600  1.00  0.00     0.050 A 
ATOM     25  N   UNL     1      46.379 130.430  17.663  1.00  0.00    -0.320 N 
ATOM     26  C   UNL     1      44.879 130.976  14.280  1.00  0.00     0.014 A 
ATOM     27  C   UNL     1      46.490 130.301  16.239  1.00  0.00     0.256 C 
ATOM     28  H   UNL     1      47.048 130.094  18.389  1.00  0.00     0.170 HD
ATOM     29  O   UNL     1      47.463 129.759  15.651  1.00  0.00    -0.269 OA
BRANCH  19  30
ATOM     30  N   UNL     1      45.027 131.171  20.301  1.00  0.00    -0.397 N 
ATOM     31  H   UNL     1      44.817 131.797  21.110  1.00  0.00     0.156 HD
ATOM     32  H   UNL     1      45.665 130.361  20.457  1.00  0.00     0.156 HD
ENDBRANCH  19  30
ENDBRANCH  14  16
ENDBRANCH  10  11
ENDBRANCH   9  10
ENDBRANCH   1   9
TORSDOF 9
ENDMDL
MODEL 7
REMARK VINA RESULT:      -5.4      1.973      2.745
REMARK SMILES C[C@@H](C#N)N(C)CCCCc1cn(-c2cc(N)c3c4c(cccc24)C(=O)N3)nn1
REMARK SMILES IDX 8 1 7 2 5 3 6 4 2 5 1 6 3 7 4 8 9 9 10 10 11 11 12 12 29 13
REMARK SMILES IDX 13 14 28 15 14 16 15 17 24 18 16 19 23 20 19 21 18 22 22 23
REMARK SMILES IDX 20 24 27 25 21 26 25 27 26 29 17 30
REMARK H PARENT 27 28 17 31 17 32
ROOT
ATOM      1  C   UNL     1      39.124 138.203  15.369  1.00  0.00     0.016 C 
ENDROOT
BRANCH   1   2
ATOM      2  C   UNL     1      39.880 137.415  14.292  1.00  0.00     0.085 C 
BRANCH   2   3
ATOM      3  N   UNL     1      39.022 137.209  13.102  1.00  0.00    -0.291 NA
ATOM      4  C   UNL     1      38.525 138.489  12.564  1.00  0.00     0.106 C 
BRANCH   3   5
ATOM      5  C   UNL     1      37.960 136.191  13.319  1.00  0.00     0.157 C 
ATOM      6  C   UNL     1      36.909 136.130  12.195  1.00  0.00     0.041 C 
BRANCH   5   7
ATOM      7  C   UNL     1      38.575 134.868  13.506  1.00  0.00     0.081 C 
ATOM      8  N   UNL     1      39.058 133.828  13.653  1.00  0.00    -0.197 NA
ENDBRANCH   5   7
ENDBRANCH   3   5
ENDBRANCH   2   3
ENDBRANCH   1   2
BRANCH   1   9
ATOM      9  C   UNL     1      38.161 137.304  16.164  1.00  0.00     0.008 C 
BRANCH   9  10
ATOM     10  C   UNL     1      38.768 136.840  17.494  1.00  0.00     0.060 C 
BRANCH  10  11
ATOM     11  C   UNL     1      39.435 135.506  17.348  1.00  0.00     0.083 A 
ATOM     12  C   UNL     1      40.724 135.184  17.714  1.00  0.00     0.140 A 
ATOM     13  N   UNL     1      38.803 134.377  16.968  1.00  0.00    -0.135 NA
ATOM     14  N   UNL     1      40.835 133.855  17.549  1.00  0.00    -0.220 N 
ATOM     15  N   UNL     1      39.682 133.391  17.090  1.00  0.00    -0.062 NA
BRANCH  14  16
ATOM     16  C   UNL     1      41.997 133.054  17.806  1.00  0.00     0.076 A 
ATOM     17  C   UNL     1      42.359 132.756  19.152  1.00  0.00     0.056 A 
ATOM     18  C   UNL     1      42.798 132.548  16.747  1.00  0.00     0.011 A 
ATOM     19  C   UNL     1      43.512 131.991  19.455  1.00  0.00     0.058 A 
ATOM     20  C   UNL     1      42.536 132.677  15.363  1.00  0.00     0.011 A 
ATOM     21  C   UNL     1      43.921 131.815  17.101  1.00  0.00     0.022 A 
ATOM     22  C   UNL     1      44.289 131.533  18.386  1.00  0.00     0.073 A 
ATOM     23  C   UNL     1      43.413 132.087  14.415  1.00  0.00     0.002 A 
ATOM     24  C   UNL     1      44.770 131.240  16.204  1.00  0.00     0.050 A 
ATOM     25  N   UNL     1      45.469 130.724  18.404  1.00  0.00    -0.320 N 
ATOM     26  C   UNL     1      44.547 131.356  14.834  1.00  0.00     0.014 A 
ATOM     27  C   UNL     1      45.765 130.542  17.012  1.00  0.00     0.256 C 
ATOM     28  H   UNL     1      45.980 130.328  19.223  1.00  0.00     0.170 HD
ATOM     29  O   UNL     1      46.735 129.867  16.577  1.00  0.00    -0.269 OA
BRANCH  19  30
ATOM     30  N   UNL     1      43.862 131.703  20.811  1.00  0.00    -0.397 N 
ATOM     31  H   UNL     1      44.444 130.867  21.042  1.00  0.00     0.156 HD
ATOM     32  H   UNL     1      43.547 132.316  21.594  1.00  0.00     0.156 HD
ENDBRANCH  19  30
ENDBRANCH  14  16
ENDBRANCH  10  11
ENDBRANCH   9  10
ENDBRANCH   1   9
TORSDOF 9
ENDMDL
MODEL 8
REMARK VINA RESULT:      -5.3      2.139      2.565
REMARK SMILES C[C@@H](C#N)N(C)CCCCc1cn(-c2cc(N)c3c4c(cccc24)C(=O)N3)nn1
REMARK SMILES IDX 8 1 7 2 5 3 6 4 2 5 1 6 3 7 4 8 9 9 10 10 11 11 12 12 29 13
REMARK SMILES IDX 13 14 28 15 14 16 15 17 24 18 16 19 23 20 19 21 18 22 22 23
REMARK SMILES IDX 20 24 27 25 21 26 25 27 26 29 17 30
REMARK H PARENT 27 28 17 31 17 32
ROOT
ATOM      1  C   UNL     1      38.711 133.907  13.695  1.00  0.00     0.016 C 
ENDROOT
BRANCH   1   2
ATOM      2  C   UNL     1      37.632 134.641  12.889  1.00  0.00     0.085 C 
BRANCH   2   3
ATOM      3  N   UNL     1      37.714 136.102  13.124  1.00  0.00    -0.291 NA
ATOM      4  C   UNL     1      36.376 136.722  13.150  1.00  0.00     0.106 C 
BRANCH   3   5
ATOM      5  C   UNL     1      38.679 136.784  12.221  1.00  0.00     0.157 C 
ATOM      6  C   UNL     1      39.404 135.837  11.245  1.00  0.00     0.041 C 
BRANCH   5   7
ATOM      7  C   UNL     1      37.990 137.847  11.475  1.00  0.00     0.081 C 
ATOM      8  N   UNL     1      37.448 138.683  10.887  1.00  0.00    -0.197 NA
ENDBRANCH   5   7
ENDBRANCH   3   5
ENDBRANCH   2   3
ENDBRANCH   1   2
BRANCH   1   9
ATOM      9  C   UNL     1      38.344 133.812  15.187  1.00  0.00     0.008 C 
BRANCH   9  10
ATOM     10  C   UNL     1      39.245 134.694  16.061  1.00  0.00     0.060 C 
BRANCH  10  11
ATOM     11  C   UNL     1      40.265 133.872  16.788  1.00  0.00     0.083 A 
ATOM     12  C   UNL     1      41.378 133.270  16.244  1.00  0.00     0.140 A 
ATOM     13  N   UNL     1      40.313 133.731  18.128  1.00  0.00    -0.135 NA
ATOM     14  N   UNL     1      42.079 132.781  17.281  1.00  0.00    -0.220 N 
ATOM     15  N   UNL     1      41.421 133.054  18.399  1.00  0.00    -0.062 NA
BRANCH  14  16
ATOM     16  C   UNL     1      43.324 132.070  17.216  1.00  0.00     0.076 A 
ATOM     17  C   UNL     1      44.018 131.760  18.421  1.00  0.00     0.056 A 
ATOM     18  C   UNL     1      43.882 131.665  15.974  1.00  0.00     0.011 A 
ATOM     19  C   UNL     1      45.262 131.083  18.405  1.00  0.00     0.058 A 
ATOM     20  C   UNL     1      43.288 131.816  14.699  1.00  0.00     0.011 A 
ATOM     21  C   UNL     1      45.107 131.016  16.014  1.00  0.00     0.022 A 
ATOM     22  C   UNL     1      45.792 130.724  17.161  1.00  0.00     0.073 A 
ATOM     23  C   UNL     1      43.952 131.330  13.542  1.00  0.00     0.002 A 
ATOM     24  C   UNL     1      45.756 130.541  14.914  1.00  0.00     0.050 A 
ATOM     25  N   UNL     1      46.997 130.014  16.858  1.00  0.00    -0.320 N 
ATOM     26  C   UNL     1      45.203 130.682  13.643  1.00  0.00     0.014 A 
ATOM     27  C   UNL     1      46.963 129.901  15.428  1.00  0.00     0.256 C 
ATOM     28  H   UNL     1      47.716 129.636  17.512  1.00  0.00     0.170 HD
ATOM     29  O   UNL     1      47.846 129.322  14.743  1.00  0.00    -0.269 OA
BRANCH  19  30
ATOM     30  N   UNL     1      45.947 130.781  19.623  1.00  0.00    -0.397 N 
ATOM     31  H   UNL     1      45.932 129.813  20.013  1.00  0.00     0.156 HD
ATOM     32  H   UNL     1      46.472 131.516  20.145  1.00  0.00     0.156 HD
ENDBRANCH  19  30
ENDBRANCH  14  16
ENDBRANCH  10  11
ENDBRANCH   9  10
ENDBRANCH   1   9
TORSDOF 9
ENDMDL
MODEL 9
REMARK VINA RESULT:      -5.3      1.715      2.268
REMARK SMILES C[C@@H](C#N)N(C)CCCCc1cn(-c2cc(N)c3c4c(cccc24)C(=O)N3)nn1
REMARK SMILES IDX 8 1 7 2 5 3 6 4 2 5 1 6 3 7 4 8 9 9 10 10 11 11 12 12 29 13
REMARK SMILES IDX 13 14 28 15 14 16 15 17 24 18 16 19 23 20 19 21 18 22 22 23
REMARK SMILES IDX 20 24 27 25 21 26 25 27 26 29 17 30
REMARK H PARENT 27 28 17 31 17 32
ROOT
ATOM      1  C   UNL     1      39.543 134.404  14.205  1.00  0.00     0.016 C 
ENDROOT
BRANCH   1   2
ATOM      2  C   UNL     1      39.530 135.912  13.929  1.00  0.00     0.085 C 
BRANCH   2   3
ATOM      3  N   UNL     1      38.217 136.329  13.384  1.00  0.00    -0.291 NA
ATOM      4  C   UNL     1      38.160 136.160  11.921  1.00  0.00     0.106 C 
BRANCH   3   5
ATOM      5  C   UNL     1      37.791 137.674  13.855  1.00  0.00     0.157 C 
ATOM      6  C   UNL     1      37.865 137.858  15.383  1.00  0.00     0.041 C 
BRANCH   5   7
ATOM      7  C   UNL     1      38.592 138.708  13.184  1.00  0.00     0.081 C 
ATOM      8  N   UNL     1      39.222 139.522  12.654  1.00  0.00    -0.197 NA
ENDBRANCH   5   7
ENDBRANCH   3   5
ENDBRANCH   2   3
ENDBRANCH   1   2
BRANCH   1   9
ATOM      9  C   UNL     1      38.343 133.969  15.063  1.00  0.00     0.008 C 
BRANCH   9  10
ATOM     10  C   UNL     1      38.355 134.626  16.450  1.00  0.00     0.060 C 
BRANCH  10  11
ATOM     11  C   UNL     1      39.456 134.070  17.301  1.00  0.00     0.083 A 
ATOM     12  C   UNL     1      40.510 133.290  16.879  1.00  0.00     0.140 A 
ATOM     13  N   UNL     1      39.651 134.388  18.596  1.00  0.00    -0.135 NA
ATOM     14  N   UNL     1      41.324 133.161  17.940  1.00  0.00    -0.220 N 
ATOM     15  N   UNL     1      40.789 133.813  18.961  1.00  0.00    -0.062 NA
BRANCH  14  16
ATOM     16  C   UNL     1      42.562 132.436  17.988  1.00  0.00     0.076 A 
ATOM     17  C   UNL     1      43.102 132.056  19.251  1.00  0.00     0.056 A 
ATOM     18  C   UNL     1      43.263 132.087  16.803  1.00  0.00     0.011 A 
ATOM     19  C   UNL     1      44.333 131.362  19.349  1.00  0.00     0.058 A 
ATOM     20  C   UNL     1      42.829 132.310  15.476  1.00  0.00     0.011 A 
ATOM     21  C   UNL     1      44.468 131.418  16.958  1.00  0.00     0.022 A 
ATOM     22  C   UNL     1      45.006 131.059  18.162  1.00  0.00     0.073 A 
ATOM     23  C   UNL     1      43.624 131.874  14.384  1.00  0.00     0.002 A 
ATOM     24  C   UNL     1      45.242 130.990  15.921  1.00  0.00     0.050 A 
ATOM     25  N   UNL     1      46.233 130.348  17.970  1.00  0.00    -0.320 N 
ATOM     26  C   UNL     1      44.849 131.203  14.602  1.00  0.00     0.014 A 
ATOM     27  C   UNL     1      46.372 130.308  16.543  1.00  0.00     0.256 C 
ATOM     28  H   UNL     1      46.865 129.926  18.685  1.00  0.00     0.170 HD
ATOM     29  O   UNL     1      47.327 129.751  15.940  1.00  0.00    -0.269 OA
BRANCH  19  30
ATOM     30  N   UNL     1      44.862 130.989  20.624  1.00  0.00    -0.397 N 
ATOM     31  H   UNL     1      44.255 131.000  21.474  1.00  0.00     0.156 HD
ATOM     32  H   UNL     1      45.858 130.700  20.734  1.00  0.00     0.156 HD
ENDBRANCH  19  30
ENDBRANCH  14  16
ENDBRANCH  10  11
ENDBRANCH   9  10
ENDBRANCH   1   9
TORSDOF 9
ENDMDL


