REMARK SMILES Cc1n[nH+]n(/C=C(/O)Nc2cccc(C#N)c2C)c1-c1cc2ccccc2c2ccccc12
REMARK SMILES IDX 7 1 8 2 6 4 5 5 19 6 4 7 2 8 3 9 1 11 20 12 21 13 33 14
REMARK SMILES IDX 22 15 32 16 28 17 23 18 27 19 31 20 29 21 24 22 26 23 30 24
REMARK SMILES IDX 25 25 9 26 10 28 11 29 17 30 12 31 14 32 13 33 18 34 15 35
REMARK SMILES IDX 16 36
REMARK H PARENT 8 3 4 10 9 27
ROOT
ATOM      1  C   UNL     1      -2.318   0.395   1.618  1.00  0.00     0.211 C 
ENDROOT
BRANCH   1   2
ATOM      2  O   UNL     1      -2.928  -0.489   2.509  1.00  0.00    -0.493 OA
ATOM      3  H   UNL     1      -3.320  -0.178   3.391  1.00  0.00     0.295 HD
ENDBRANCH   1   2
BRANCH   1   4
ATOM      4  C   UNL     1      -2.270   1.705   1.907  1.00  0.00     0.225 C 
BRANCH   4   5
ATOM      5  N   UNL     1      -1.587   2.667   1.086  1.00  0.00    -0.098 N 
ATOM      6  C   UNL     1      -0.318   2.633   0.620  1.00  0.00     0.142 A 
ATOM      7  N   UNL     1      -2.075   3.866   0.811  1.00  0.00    -0.012 N 
ATOM      8  C   UNL     1      -0.078   3.868   0.038  1.00  0.00     0.137 A 
ATOM      9  N   UNL     1      -1.188   4.622   0.182  1.00  0.00     0.020 NA
ATOM     10  H   UNL     1      -3.028   4.195   1.086  1.00  0.00     0.527 HD
ATOM     11  C   UNL     1       1.233   4.406  -0.435  1.00  0.00     0.076 C 
BRANCH   6  12
ATOM     12  C   UNL     1       0.689   1.585   0.912  1.00  0.00     0.015 A 
ATOM     13  C   UNL     1       1.010   1.349   2.248  1.00  0.00     0.020 A 
ATOM     14  C   UNL     1       1.303   0.817  -0.107  1.00  0.00    -0.008 A 
ATOM     15  C   UNL     1       1.937   0.370   2.606  1.00  0.00    -0.017 A 
ATOM     16  C   UNL     1       0.949   1.002  -1.462  1.00  0.00     0.009 A 
ATOM     17  C   UNL     1       2.253  -0.194   0.235  1.00  0.00    -0.010 A 
ATOM     18  C   UNL     1       2.221   0.162   3.966  1.00  0.00     0.009 A 
ATOM     19  C   UNL     1       2.580  -0.414   1.609  1.00  0.00    -0.010 A 
ATOM     20  C   UNL     1       1.525   0.229  -2.464  1.00  0.00     0.001 A 
ATOM     21  C   UNL     1       2.817  -0.966  -0.812  1.00  0.00     0.009 A 
ATOM     22  C   UNL     1       3.135  -0.813   4.355  1.00  0.00     0.001 A 
ATOM     23  C   UNL     1       3.509  -1.395   2.038  1.00  0.00     0.009 A 
ATOM     24  C   UNL     1       2.453  -0.751  -2.140  1.00  0.00     0.001 A 
ATOM     25  C   UNL     1       3.777  -1.587   3.395  1.00  0.00     0.001 A 
ENDBRANCH   6  12
ENDBRANCH   4   5
ENDBRANCH   1   4
BRANCH   1  26
ATOM     26  N   UNL     1      -1.790  -0.113   0.384  1.00  0.00    -0.325 N 
ATOM     27  H   UNL     1      -1.837   0.503  -0.457  1.00  0.00     0.170 HD
BRANCH  26  28
ATOM     28  C   UNL     1      -1.149  -1.399   0.272  1.00  0.00     0.045 A 
ATOM     29  C   UNL     1      -0.486  -1.952   1.383  1.00  0.00     0.026 A 
ATOM     30  C   UNL     1      -1.080  -2.065  -0.980  1.00  0.00    -0.010 A 
ATOM     31  C   UNL     1       0.267  -3.117   1.256  1.00  0.00     0.004 A 
ATOM     32  C   UNL     1      -0.277  -3.227  -1.101  1.00  0.00     0.057 A 
ATOM     33  C   UNL     1       0.382  -3.744   0.019  1.00  0.00     0.020 A 
ATOM     34  C   UNL     1      -1.827  -1.513  -2.174  1.00  0.00     0.048 C 
BRANCH  32  35
ATOM     35  C   UNL     1      -0.093  -3.896  -2.367  1.00  0.00     0.099 C 
ATOM     36  N   UNL     1       0.057  -4.432  -3.382  1.00  0.00    -0.192 NA
ENDBRANCH  32  35
ENDBRANCH  26  28
ENDBRANCH   1  26
TORSDOF 7


