MODEL 1
REMARK VINA RESULT:      -6.1      0.000      0.000
REMARK SMILES CCN(CC/N=C(/OC(=O)[C@H]1C[C@@H]1CO)C1(C#N)CC1)c1cc(N=[N+]=[N-])c2c3c(cccc13)C(=O)[N-]2
REMARK SMILES IDX 6 1 7 2 8 3 9 4 10 5 11 6 13 7 12 8 14 9 15 10 16 12 19 13
REMARK SMILES IDX 20 14 17 15 18 16 5 17 4 18 3 19 21 20 22 21 33 22 23 23
REMARK SMILES IDX 32 24 28 25 27 26 31 27 29 28 36 29 30 30 34 31 35 32 24 33
REMARK SMILES IDX 25 34 26 35 2 36 1 37
REMARK H PARENT 15 11
ROOT
ATOM      1  N   UNL     1      43.921 134.838  15.389  1.00  0.00    -0.252 NA
ENDROOT
BRANCH   1   2
ATOM      2  C   UNL     1      43.551 133.589  15.428  1.00  0.00     0.214 C 
BRANCH   2   3
ATOM      3  O   UNL     1      44.381 132.587  14.908  1.00  0.00    -0.410 OA
BRANCH   3   4
ATOM      4  C   UNL     1      45.459 131.998  15.583  1.00  0.00     0.315 C 
ATOM      5  O   UNL     1      45.558 132.052  16.839  1.00  0.00    -0.251 OA
BRANCH   4   6
ATOM      6  C   UNL     1      46.491 131.253  14.797  1.00  0.00     0.105 C 
ATOM      7  C   UNL     1      45.985 130.654  13.493  1.00  0.00     0.030 C 
ATOM      8  C   UNL     1      46.239 129.754  14.693  1.00  0.00     0.022 C 
BRANCH   7   9
ATOM      9  C   UNL     1      47.027 130.555  12.373  1.00  0.00     0.160 C 
BRANCH   9  10
ATOM     10  O   UNL     1      47.944 129.535  12.662  1.00  0.00    -0.396 OA
ATOM     11  H   UNL     1      47.412 128.708  12.793  1.00  0.00     0.210 HD
ENDBRANCH   9  10
ENDBRANCH   7   9
ENDBRANCH   4   6
ENDBRANCH   3   4
ENDBRANCH   2   3
BRANCH   2  12
ATOM     12  C   UNL     1      42.271 133.161  16.096  1.00  0.00     0.133 C 
ATOM     13  C   UNL     1      42.274 131.862  16.886  1.00  0.00     0.034 C 
ATOM     14  C   UNL     1      42.294 133.196  17.618  1.00  0.00     0.034 C 
BRANCH  12  15
ATOM     15  C   UNL     1      40.994 133.572  15.497  1.00  0.00     0.079 C 
ATOM     16  N   UNL     1      39.985 133.892  15.029  1.00  0.00    -0.197 NA
ENDBRANCH  12  15
ENDBRANCH   2  12
ENDBRANCH   1   2
BRANCH   1  17
ATOM     17  C   UNL     1      44.235 135.681  16.540  1.00  0.00     0.167 C 
BRANCH  17  18
ATOM     18  C   UNL     1      43.065 136.624  16.829  1.00  0.00     0.140 C 
BRANCH  18  19
ATOM     19  N   UNL     1      43.264 137.366  18.088  1.00  0.00    -0.369 N 
BRANCH  19  20
ATOM     20  C   UNL     1      43.900 136.706  19.196  1.00  0.00     0.045 A 
ATOM     21  C   UNL     1      43.160 135.758  19.961  1.00  0.00     0.035 A 
ATOM     22  C   UNL     1      45.244 136.988  19.552  1.00  0.00     0.005 A 
ATOM     23  C   UNL     1      43.747 135.088  21.070  1.00  0.00     0.026 A 
ATOM     24  C   UNL     1      46.095 137.932  18.932  1.00  0.00     0.011 A 
ATOM     25  C   UNL     1      45.766 136.299  20.634  1.00  0.00    -0.021 A 
ATOM     26  C   UNL     1      45.076 135.384  21.377  1.00  0.00    -0.116 A 
ATOM     27  C   UNL     1      47.416 138.123  19.415  1.00  0.00     0.001 A 
ATOM     28  C   UNL     1      47.022 136.471  21.116  1.00  0.00     0.006 A 
ATOM     29  N   UNL     1      45.872 134.864  22.450  1.00  0.00    -0.622 NA
ATOM     30  C   UNL     1      47.892 137.384  20.523  1.00  0.00     0.011 A 
ATOM     31  C   UNL     1      47.111 135.572  22.262  1.00  0.00     0.086 C 
ATOM     32  O   UNL     1      48.118 135.426  23.002  1.00  0.00    -0.315 OA
BRANCH  23  33
ATOM     33  N   UNL     1      43.023 134.147  21.875  1.00  0.00    -0.062 NA
BRANCH  33  34
ATOM     34  N   UNL     1      41.853 134.336  22.214  1.00  0.00     0.005 N 
ATOM     35  N   UNL     1      40.686 134.530  22.554  1.00  0.00    -0.003 NA
ENDBRANCH  33  34
ENDBRANCH  23  33
ENDBRANCH  19  20
BRANCH  19  36
ATOM     36  C   UNL     1      43.181 138.832  18.101  1.00  0.00     0.113 C 
ATOM     37  C   UNL     1      43.283 139.392  16.691  1.00  0.00     0.027 C 
ENDBRANCH  19  36
ENDBRANCH  18  19
ENDBRANCH  17  18
ENDBRANCH   1  17
TORSDOF 15
ENDMDL
MODEL 2
REMARK VINA RESULT:      -5.7      3.536      6.189
REMARK SMILES CCN(CC/N=C(/OC(=O)[C@H]1C[C@@H]1CO)C1(C#N)CC1)c1cc(N=[N+]=[N-])c2c3c(cccc13)C(=O)[N-]2
REMARK SMILES IDX 6 1 7 2 8 3 9 4 10 5 11 6 13 7 12 8 14 9 15 10 16 12 19 13
REMARK SMILES IDX 20 14 17 15 18 16 5 17 4 18 3 19 21 20 22 21 33 22 23 23
REMARK SMILES IDX 32 24 28 25 27 26 31 27 29 28 36 29 30 30 34 31 35 32 24 33
REMARK SMILES IDX 25 34 26 35 2 36 1 37
REMARK H PARENT 15 11
ROOT
ATOM      1  N   UNL     1      42.826 132.079  15.010  1.00  0.00    -0.252 NA
ENDROOT
BRANCH   1   2
ATOM      2  C   UNL     1      43.673 131.430  15.758  1.00  0.00     0.214 C 
BRANCH   2   3
ATOM      3  O   UNL     1      43.480 131.354  17.144  1.00  0.00    -0.410 OA
BRANCH   3   4
ATOM      4  C   UNL     1      44.156 132.126  18.100  1.00  0.00     0.315 C 
ATOM      5  O   UNL     1      44.356 133.359  17.927  1.00  0.00    -0.251 OA
BRANCH   4   6
ATOM      6  C   UNL     1      44.612 131.479  19.369  1.00  0.00     0.105 C 
ATOM      7  C   UNL     1      43.865 131.932  20.615  1.00  0.00     0.030 C 
ATOM      8  C   UNL     1      45.278 132.431  20.354  1.00  0.00     0.022 C 
BRANCH   7   9
ATOM      9  C   UNL     1      43.741 130.877  21.720  1.00  0.00     0.160 C 
BRANCH   9  10
ATOM     10  O   UNL     1      42.390 130.649  22.014  1.00  0.00    -0.396 OA
ATOM     11  H   UNL     1      42.282 129.665  22.093  1.00  0.00     0.210 HD
ENDBRANCH   9  10
ENDBRANCH   7   9
ENDBRANCH   4   6
ENDBRANCH   3   4
ENDBRANCH   2   3
BRANCH   2  12
ATOM     12  C   UNL     1      44.836 130.676  15.170  1.00  0.00     0.133 C 
ATOM     13  C   UNL     1      45.404 131.157  13.844  1.00  0.00     0.034 C 
ATOM     14  C   UNL     1      46.153 131.440  15.139  1.00  0.00     0.034 C 
BRANCH  12  15
ATOM     15  C   UNL     1      44.970 129.244  15.471  1.00  0.00     0.079 C 
ATOM     16  N   UNL     1      45.079 128.116  15.703  1.00  0.00    -0.197 NA
ENDBRANCH  12  15
ENDBRANCH   2  12
ENDBRANCH   1   2
BRANCH   1  17
ATOM     17  C   UNL     1      42.706 133.531  14.903  1.00  0.00     0.167 C 
BRANCH  17  18
ATOM     18  C   UNL     1      41.358 133.898  14.277  1.00  0.00     0.140 C 
BRANCH  18  19
ATOM     19  N   UNL     1      40.372 134.288  15.300  1.00  0.00    -0.369 N 
BRANCH  19  20
ATOM     20  C   UNL     1      40.714 135.315  16.246  1.00  0.00     0.045 A 
ATOM     21  C   UNL     1      40.882 136.655  15.790  1.00  0.00     0.035 A 
ATOM     22  C   UNL     1      40.901 135.022  17.622  1.00  0.00     0.005 A 
ATOM     23  C   UNL     1      41.229 137.701  16.689  1.00  0.00     0.026 A 
ATOM     24  C   UNL     1      40.821 133.745  18.224  1.00  0.00     0.011 A 
ATOM     25  C   UNL     1      41.227 136.081  18.453  1.00  0.00    -0.021 A 
ATOM     26  C   UNL     1      41.389 137.372  18.037  1.00  0.00    -0.116 A 
ATOM     27  C   UNL     1      41.056 133.602  19.617  1.00  0.00     0.001 A 
ATOM     28  C   UNL     1      41.462 135.964  19.783  1.00  0.00     0.006 A 
ATOM     29  N   UNL     1      41.756 138.235  19.120  1.00  0.00    -0.622 NA
ATOM     30  C   UNL     1      41.381 134.724  20.413  1.00  0.00     0.011 A 
ATOM     31  C   UNL     1      41.796 137.314  20.225  1.00  0.00     0.086 C 
ATOM     32  O   UNL     1      42.089 137.648  21.402  1.00  0.00    -0.315 OA
BRANCH  23  33
ATOM     33  N   UNL     1      41.430 139.055  16.259  1.00  0.00    -0.062 NA
BRANCH  33  34
ATOM     34  N   UNL     1      41.765 139.335  15.107  1.00  0.00     0.005 N 
ATOM     35  N   UNL     1      42.099 139.609  13.954  1.00  0.00    -0.003 NA
ENDBRANCH  33  34
ENDBRANCH  23  33
ENDBRANCH  19  20
BRANCH  19  36
ATOM     36  C   UNL     1      38.956 133.935  15.133  1.00  0.00     0.113 C 
ATOM     37  C   UNL     1      38.261 134.915  14.200  1.00  0.00     0.027 C 
ENDBRANCH  19  36
ENDBRANCH  18  19
ENDBRANCH  17  18
ENDBRANCH   1  17
TORSDOF 15
ENDMDL
MODEL 3
REMARK VINA RESULT:      -5.7      2.677      5.196
REMARK SMILES CCN(CC/N=C(/OC(=O)[C@H]1C[C@@H]1CO)C1(C#N)CC1)c1cc(N=[N+]=[N-])c2c3c(cccc13)C(=O)[N-]2
REMARK SMILES IDX 6 1 7 2 8 3 9 4 10 5 11 6 13 7 12 8 14 9 15 10 16 12 19 13
REMARK SMILES IDX 20 14 17 15 18 16 5 17 4 18 3 19 21 20 22 21 33 22 23 23
REMARK SMILES IDX 32 24 28 25 27 26 31 27 29 28 36 29 30 30 34 31 35 32 24 33
REMARK SMILES IDX 25 34 26 35 2 36 1 37
REMARK H PARENT 15 11
ROOT
ATOM      1  N   UNL     1      44.838 131.780  16.684  1.00  0.00    -0.252 NA
ENDROOT
BRANCH   1   2
ATOM      2  C   UNL     1      44.729 131.658  15.391  1.00  0.00     0.214 C 
BRANCH   2   3
ATOM      3  O   UNL     1      44.038 132.622  14.645  1.00  0.00    -0.410 OA
BRANCH   3   4
ATOM      4  C   UNL     1      42.661 132.610  14.384  1.00  0.00     0.315 C 
ATOM      5  O   UNL     1      42.115 131.652  13.772  1.00  0.00    -0.251 OA
BRANCH   4   6
ATOM      6  C   UNL     1      41.815 133.740  14.880  1.00  0.00     0.105 C 
ATOM      7  C   UNL     1      40.379 133.726  14.377  1.00  0.00     0.030 C 
ATOM      8  C   UNL     1      41.377 134.718  13.797  1.00  0.00     0.022 C 
BRANCH   7   9
ATOM      9  C   UNL     1      39.346 134.327  15.337  1.00  0.00     0.160 C 
BRANCH   9  10
ATOM     10  O   UNL     1      38.055 133.943  14.952  1.00  0.00    -0.396 OA
ATOM     11  H   UNL     1      37.967 132.982  15.184  1.00  0.00     0.210 HD
ENDBRANCH   9  10
ENDBRANCH   7   9
ENDBRANCH   4   6
ENDBRANCH   3   4
ENDBRANCH   2   3
BRANCH   2  12
ATOM     12  C   UNL     1      45.397 130.538  14.641  1.00  0.00     0.133 C 
ATOM     13  C   UNL     1      45.691 130.741  13.162  1.00  0.00     0.034 C 
ATOM     14  C   UNL     1      46.820 130.827  14.180  1.00  0.00     0.034 C 
BRANCH  12  15
ATOM     15  C   UNL     1      45.173 129.157  15.091  1.00  0.00     0.079 C 
ATOM     16  N   UNL     1      44.991 128.072  15.448  1.00  0.00    -0.197 NA
ENDBRANCH  12  15
ENDBRANCH   2  12
ENDBRANCH   1   2
BRANCH   1  17
ATOM     17  C   UNL     1      44.335 132.889  17.492  1.00  0.00     0.167 C 
BRANCH  17  18
ATOM     18  C   UNL     1      42.977 132.521  18.094  1.00  0.00     0.140 C 
BRANCH  18  19
ATOM     19  N   UNL     1      42.545 133.505  19.103  1.00  0.00    -0.369 N 
BRANCH  19  20
ATOM     20  C   UNL     1      43.523 134.067  19.995  1.00  0.00     0.045 A 
ATOM     21  C   UNL     1      44.068 135.353  19.711  1.00  0.00     0.035 A 
ATOM     22  C   UNL     1      43.966 133.364  21.145  1.00  0.00     0.005 A 
ATOM     23  C   UNL     1      45.044 135.943  20.562  1.00  0.00     0.026 A 
ATOM     24  C   UNL     1      43.564 132.066  21.540  1.00  0.00     0.011 A 
ATOM     25  C   UNL     1      44.908 133.990  21.942  1.00  0.00    -0.021 A 
ATOM     26  C   UNL     1      45.441 135.223  21.691  1.00  0.00    -0.116 A 
ATOM     27  C   UNL     1      44.114 131.478  22.709  1.00  0.00     0.001 A 
ATOM     28  C   UNL     1      45.451 133.444  23.059  1.00  0.00     0.006 A 
ATOM     29  N   UNL     1      46.415 135.590  22.676  1.00  0.00    -0.622 NA
ATOM     30  C   UNL     1      45.071 132.173  23.485  1.00  0.00     0.011 A 
ATOM     31  C   UNL     1      46.403 134.440  23.539  1.00  0.00     0.086 C 
ATOM     32  O   UNL     1      47.130 134.325  24.560  1.00  0.00    -0.315 OA
BRANCH  23  33
ATOM     33  N   UNL     1      45.631 137.224  20.292  1.00  0.00    -0.062 NA
BRANCH  33  34
ATOM     34  N   UNL     1      45.308 138.238  20.914  1.00  0.00     0.005 N 
ATOM     35  N   UNL     1      44.980 139.250  21.534  1.00  0.00    -0.003 NA
ENDBRANCH  33  34
ENDBRANCH  23  33
ENDBRANCH  19  20
BRANCH  19  36
ATOM     36  C   UNL     1      41.253 134.188  18.962  1.00  0.00     0.113 C 
ATOM     37  C   UNL     1      40.690 134.565  20.324  1.00  0.00     0.027 C 
ENDBRANCH  19  36
ENDBRANCH  18  19
ENDBRANCH  17  18
ENDBRANCH   1  17
TORSDOF 15
ENDMDL
MODEL 4
REMARK VINA RESULT:      -5.7      2.756      5.217
REMARK SMILES CCN(CC/N=C(/OC(=O)[C@H]1C[C@@H]1CO)C1(C#N)CC1)c1cc(N=[N+]=[N-])c2c3c(cccc13)C(=O)[N-]2
REMARK SMILES IDX 6 1 7 2 8 3 9 4 10 5 11 6 13 7 12 8 14 9 15 10 16 12 19 13
REMARK SMILES IDX 20 14 17 15 18 16 5 17 4 18 3 19 21 20 22 21 33 22 23 23
REMARK SMILES IDX 32 24 28 25 27 26 31 27 29 28 36 29 30 30 34 31 35 32 24 33
REMARK SMILES IDX 25 34 26 35 2 36 1 37
REMARK H PARENT 15 11
ROOT
ATOM      1  N   UNL     1      44.373 132.633  15.327  1.00  0.00    -0.252 NA
ENDROOT
BRANCH   1   2
ATOM      2  C   UNL     1      44.666 131.486  15.875  1.00  0.00     0.214 C 
BRANCH   2   3
ATOM      3  O   UNL     1      44.052 131.096  17.072  1.00  0.00    -0.410 OA
BRANCH   3   4
ATOM      4  C   UNL     1      44.454 131.492  18.355  1.00  0.00     0.315 C 
ATOM      5  O   UNL     1      45.522 131.061  18.872  1.00  0.00    -0.251 OA
BRANCH   4   6
ATOM      6  C   UNL     1      43.621 132.479  19.108  1.00  0.00     0.105 C 
ATOM      7  C   UNL     1      43.144 131.998  20.471  1.00  0.00     0.030 C 
ATOM      8  C   UNL     1      42.170 132.055  19.304  1.00  0.00     0.022 C 
BRANCH   7   9
ATOM      9  C   UNL     1      42.964 133.098  21.524  1.00  0.00     0.160 C 
BRANCH   9  10
ATOM     10  O   UNL     1      41.624 133.155  21.931  1.00  0.00    -0.396 OA
ATOM     11  H   UNL     1      41.117 132.569  21.312  1.00  0.00     0.210 HD
ENDBRANCH   9  10
ENDBRANCH   7   9
ENDBRANCH   4   6
ENDBRANCH   3   4
ENDBRANCH   2   3
BRANCH   2  12
ATOM     12  C   UNL     1      45.600 130.508  15.215  1.00  0.00     0.133 C 
ATOM     13  C   UNL     1      46.755 129.955  16.036  1.00  0.00     0.034 C 
ATOM     14  C   UNL     1      45.536 129.086  15.758  1.00  0.00     0.034 C 
BRANCH  12  15
ATOM     15  C   UNL     1      45.800 130.595  13.762  1.00  0.00     0.079 C 
ATOM     16  N   UNL     1      45.962 130.666  12.618  1.00  0.00    -0.197 NA
ENDBRANCH  12  15
ENDBRANCH   2  12
ENDBRANCH   1   2
BRANCH   1  17
ATOM     17  C   UNL     1      43.176 132.936  14.547  1.00  0.00     0.167 C 
BRANCH  17  18
ATOM     18  C   UNL     1      41.959 133.021  15.471  1.00  0.00     0.140 C 
BRANCH  18  19
ATOM     19  N   UNL     1      41.569 134.419  15.729  1.00  0.00    -0.369 N 
BRANCH  19  20
ATOM     20  C   UNL     1      41.367 134.850  17.085  1.00  0.00     0.045 A 
ATOM     21  C   UNL     1      40.100 134.636  17.704  1.00  0.00     0.035 A 
ATOM     22  C   UNL     1      42.397 135.496  17.818  1.00  0.00     0.005 A 
ATOM     23  C   UNL     1      39.855 135.055  19.041  1.00  0.00     0.026 A 
ATOM     24  C   UNL     1      43.686 135.826  17.337  1.00  0.00     0.011 A 
ATOM     25  C   UNL     1      42.105 135.871  19.118  1.00  0.00    -0.021 A 
ATOM     26  C   UNL     1      40.900 135.672  19.731  1.00  0.00    -0.116 A 
ATOM     27  C   UNL     1      44.608 136.495  18.184  1.00  0.00     0.001 A 
ATOM     28  C   UNL     1      42.968 136.518  19.940  1.00  0.00     0.006 A 
ATOM     29  N   UNL     1      40.890 136.197  21.064  1.00  0.00    -0.622 NA
ATOM     30  C   UNL     1      44.250 136.848  19.506  1.00  0.00     0.011 A 
ATOM     31  C   UNL     1      42.222 136.730  21.176  1.00  0.00     0.086 C 
ATOM     32  O   UNL     1      42.659 137.307  22.205  1.00  0.00    -0.315 OA
BRANCH  23  33
ATOM     33  N   UNL     1      38.584 134.877  19.684  1.00  0.00    -0.062 NA
BRANCH  33  34
ATOM     34  N   UNL     1      37.798 135.811  19.854  1.00  0.00     0.005 N 
ATOM     35  N   UNL     1      37.009 136.740  20.023  1.00  0.00    -0.003 NA
ENDBRANCH  33  34
ENDBRANCH  23  33
ENDBRANCH  19  20
BRANCH  19  36
ATOM     36  C   UNL     1      41.757 135.441  14.691  1.00  0.00     0.113 C 
ATOM     37  C   UNL     1      40.538 136.345  14.595  1.00  0.00     0.027 C 
ENDBRANCH  19  36
ENDBRANCH  18  19
ENDBRANCH  17  18
ENDBRANCH   1  17
TORSDOF 15
ENDMDL
MODEL 5
REMARK VINA RESULT:      -5.7      3.165      5.951
REMARK SMILES CCN(CC/N=C(/OC(=O)[C@H]1C[C@@H]1CO)C1(C#N)CC1)c1cc(N=[N+]=[N-])c2c3c(cccc13)C(=O)[N-]2
REMARK SMILES IDX 6 1 7 2 8 3 9 4 10 5 11 6 13 7 12 8 14 9 15 10 16 12 19 13
REMARK SMILES IDX 20 14 17 15 18 16 5 17 4 18 3 19 21 20 22 21 33 22 23 23
REMARK SMILES IDX 32 24 28 25 27 26 31 27 29 28 36 29 30 30 34 31 35 32 24 33
REMARK SMILES IDX 25 34 26 35 2 36 1 37
REMARK H PARENT 15 11
ROOT
ATOM      1  N   UNL     1      40.934 132.886  16.876  1.00  0.00    -0.252 NA
ENDROOT
BRANCH   1   2
ATOM      2  C   UNL     1      39.996 133.715  17.241  1.00  0.00     0.214 C 
BRANCH   2   3
ATOM      3  O   UNL     1      39.660 133.852  18.594  1.00  0.00    -0.410 OA
BRANCH   3   4
ATOM      4  C   UNL     1      40.475 134.431  19.577  1.00  0.00     0.315 C 
ATOM      5  O   UNL     1      41.092 133.725  20.420  1.00  0.00    -0.251 OA
BRANCH   4   6
ATOM      6  C   UNL     1      40.649 135.917  19.596  1.00  0.00     0.105 C 
ATOM      7  C   UNL     1      40.394 136.568  20.948  1.00  0.00     0.030 C 
ATOM      8  C   UNL     1      39.362 136.696  19.838  1.00  0.00     0.022 C 
BRANCH   7   9
ATOM      9  C   UNL     1      41.212 137.834  21.226  1.00  0.00     0.160 C 
BRANCH   9  10
ATOM     10  O   UNL     1      41.102 138.720  20.146  1.00  0.00    -0.396 OA
ATOM     11  H   UNL     1      40.438 138.325  19.524  1.00  0.00     0.210 HD
ENDBRANCH   9  10
ENDBRANCH   7   9
ENDBRANCH   4   6
ENDBRANCH   3   4
ENDBRANCH   2   3
BRANCH   2  12
ATOM     12  C   UNL     1      39.298 134.610  16.252  1.00  0.00     0.133 C 
ATOM     13  C   UNL     1      38.631 133.962  15.047  1.00  0.00     0.034 C 
ATOM     14  C   UNL     1      37.782 134.464  16.207  1.00  0.00     0.034 C 
BRANCH  12  15
ATOM     15  C   UNL     1      39.782 135.986  16.084  1.00  0.00     0.079 C 
ATOM     16  N   UNL     1      40.158 137.073  15.957  1.00  0.00    -0.197 NA
ENDBRANCH  12  15
ENDBRANCH   2  12
ENDBRANCH   1   2
BRANCH   1  17
ATOM     17  C   UNL     1      41.909 133.103  15.810  1.00  0.00     0.167 C 
BRANCH  17  18
ATOM     18  C   UNL     1      43.016 132.049  15.895  1.00  0.00     0.140 C 
BRANCH  18  19
ATOM     19  N   UNL     1      44.270 132.620  16.419  1.00  0.00    -0.369 N 
BRANCH  19  20
ATOM     20  C   UNL     1      44.338 133.005  17.803  1.00  0.00     0.045 A 
ATOM     21  C   UNL     1      44.459 131.995  18.802  1.00  0.00     0.035 A 
ATOM     22  C   UNL     1      44.274 134.367  18.197  1.00  0.00     0.005 A 
ATOM     23  C   UNL     1      44.522 132.331  20.183  1.00  0.00     0.026 A 
ATOM     24  C   UNL     1      44.104 135.479  17.339  1.00  0.00     0.011 A 
ATOM     25  C   UNL     1      44.350 134.634  19.553  1.00  0.00    -0.021 A 
ATOM     26  C   UNL     1      44.470 133.683  20.526  1.00  0.00    -0.116 A 
ATOM     27  C   UNL     1      44.034 136.789  17.882  1.00  0.00     0.001 A 
ATOM     28  C   UNL     1      44.278 135.877  20.092  1.00  0.00     0.006 A 
ATOM     29  N   UNL     1      44.491 134.265  21.836  1.00  0.00    -0.622 NA
ATOM     30  C   UNL     1      44.123 136.997  19.278  1.00  0.00     0.011 A 
ATOM     31  C   UNL     1      44.368 135.666  21.533  1.00  0.00     0.086 C 
ATOM     32  O   UNL     1      44.336 136.569  22.408  1.00  0.00    -0.315 OA
BRANCH  23  33
ATOM     33  N   UNL     1      44.620 131.339  21.215  1.00  0.00    -0.062 NA
BRANCH  33  34
ATOM     34  N   UNL     1      43.625 130.874  21.775  1.00  0.00     0.005 N 
ATOM     35  N   UNL     1      42.634 130.408  22.339  1.00  0.00    -0.003 NA
ENDBRANCH  33  34
ENDBRANCH  23  33
ENDBRANCH  19  20
BRANCH  19  36
ATOM     36  C   UNL     1      45.527 132.445  15.679  1.00  0.00     0.113 C 
ATOM     37  C   UNL     1      45.392 131.347  14.636  1.00  0.00     0.027 C 
ENDBRANCH  19  36
ENDBRANCH  18  19
ENDBRANCH  17  18
ENDBRANCH   1  17
TORSDOF 15
ENDMDL
MODEL 6
REMARK VINA RESULT:      -5.4      3.154      6.992
REMARK SMILES CCN(CC/N=C(/OC(=O)[C@H]1C[C@@H]1CO)C1(C#N)CC1)c1cc(N=[N+]=[N-])c2c3c(cccc13)C(=O)[N-]2
REMARK SMILES IDX 6 1 7 2 8 3 9 4 10 5 11 6 13 7 12 8 14 9 15 10 16 12 19 13
REMARK SMILES IDX 20 14 17 15 18 16 5 17 4 18 3 19 21 20 22 21 33 22 23 23
REMARK SMILES IDX 32 24 28 25 27 26 31 27 29 28 36 29 30 30 34 31 35 32 24 33
REMARK SMILES IDX 25 34 26 35 2 36 1 37
REMARK H PARENT 15 11
ROOT
ATOM      1  N   UNL     1      40.024 135.736  19.486  1.00  0.00    -0.252 NA
ENDROOT
BRANCH   1   2
ATOM      2  C   UNL     1      39.409 135.907  18.349  1.00  0.00     0.214 C 
BRANCH   2   3
ATOM      3  O   UNL     1      39.860 136.871  17.438  1.00  0.00    -0.410 OA
BRANCH   3   4
ATOM      4  C   UNL     1      40.955 137.724  17.637  1.00  0.00     0.315 C 
ATOM      5  O   UNL     1      40.991 138.534  18.603  1.00  0.00    -0.251 OA
BRANCH   4   6
ATOM      6  C   UNL     1      42.124 137.638  16.707  1.00  0.00     0.105 C 
ATOM      7  C   UNL     1      42.893 136.327  16.774  1.00  0.00     0.030 C 
ATOM      8  C   UNL     1      43.477 137.582  17.404  1.00  0.00     0.022 C 
BRANCH   7   9
ATOM      9  C   UNL     1      43.552 135.890  15.461  1.00  0.00     0.160 C 
BRANCH   9  10
ATOM     10  O   UNL     1      44.660 135.074  15.730  1.00  0.00    -0.396 OA
ATOM     11  H   UNL     1      45.464 135.609  15.502  1.00  0.00     0.210 HD
ENDBRANCH   9  10
ENDBRANCH   7   9
ENDBRANCH   4   6
ENDBRANCH   3   4
ENDBRANCH   2   3
BRANCH   2  12
ATOM     12  C   UNL     1      38.253 135.036  17.933  1.00  0.00     0.133 C 
ATOM     13  C   UNL     1      37.315 134.525  19.016  1.00  0.00     0.034 C 
ATOM     14  C   UNL     1      36.876 135.664  18.106  1.00  0.00     0.034 C 
BRANCH  12  15
ATOM     15  C   UNL     1      38.396 134.206  16.730  1.00  0.00     0.079 C 
ATOM     16  N   UNL     1      38.502 133.549  15.783  1.00  0.00    -0.197 NA
ENDBRANCH  12  15
ENDBRANCH   2  12
ENDBRANCH   1   2
BRANCH   1  17
ATOM     17  C   UNL     1      40.458 134.459  20.048  1.00  0.00     0.167 C 
BRANCH  17  18
ATOM     18  C   UNL     1      40.760 133.470  18.920  1.00  0.00     0.140 C 
BRANCH  18  19
ATOM     19  N   UNL     1      42.209 133.250  18.763  1.00  0.00    -0.369 N 
BRANCH  19  20
ATOM     20  C   UNL     1      42.702 132.690  17.534  1.00  0.00     0.045 A 
ATOM     21  C   UNL     1      42.001 132.946  16.320  1.00  0.00     0.035 A 
ATOM     22  C   UNL     1      43.866 131.877  17.505  1.00  0.00     0.005 A 
ATOM     23  C   UNL     1      42.449 132.405  15.083  1.00  0.00     0.026 A 
ATOM     24  C   UNL     1      44.643 131.489  18.621  1.00  0.00     0.011 A 
ATOM     25  C   UNL     1      44.261 131.387  16.273  1.00  0.00    -0.021 A 
ATOM     26  C   UNL     1      43.606 131.623  15.097  1.00  0.00    -0.116 A 
ATOM     27  C   UNL     1      45.773 130.649  18.440  1.00  0.00     0.001 A 
ATOM     28  C   UNL     1      45.332 130.578  16.079  1.00  0.00     0.006 A 
ATOM     29  N   UNL     1      44.235 130.956  13.996  1.00  0.00    -0.622 NA
ATOM     30  C   UNL     1      46.128 130.184  17.153  1.00  0.00     0.011 A 
ATOM     31  C   UNL     1      45.335 130.296  14.648  1.00  0.00     0.086 C 
ATOM     32  O   UNL     1      46.170 129.572  14.046  1.00  0.00    -0.315 OA
BRANCH  23  33
ATOM     33  N   UNL     1      41.753 132.623  13.847  1.00  0.00    -0.062 NA
BRANCH  33  34
ATOM     34  N   UNL     1      41.201 133.693  13.585  1.00  0.00     0.005 N 
ATOM     35  N   UNL     1      40.649 134.761  13.319  1.00  0.00    -0.003 NA
ENDBRANCH  33  34
ENDBRANCH  23  33
ENDBRANCH  19  20
BRANCH  19  36
ATOM     36  C   UNL     1      43.159 133.930  19.653  1.00  0.00     0.113 C 
ATOM     37  C   UNL     1      43.174 133.279  21.027  1.00  0.00     0.027 C 
ENDBRANCH  19  36
ENDBRANCH  18  19
ENDBRANCH  17  18
ENDBRANCH   1  17
TORSDOF 15
ENDMDL
MODEL 7
REMARK VINA RESULT:      -5.4      2.297      3.809
REMARK SMILES CCN(CC/N=C(/OC(=O)[C@H]1C[C@@H]1CO)C1(C#N)CC1)c1cc(N=[N+]=[N-])c2c3c(cccc13)C(=O)[N-]2
REMARK SMILES IDX 6 1 7 2 8 3 9 4 10 5 11 6 13 7 12 8 14 9 15 10 16 12 19 13
REMARK SMILES IDX 20 14 17 15 18 16 5 17 4 18 3 19 21 20 22 21 33 22 23 23
REMARK SMILES IDX 32 24 28 25 27 26 31 27 29 28 36 29 30 30 34 31 35 32 24 33
REMARK SMILES IDX 25 34 26 35 2 36 1 37
REMARK H PARENT 15 11
ROOT
ATOM      1  N   UNL     1      44.992 131.003  18.160  1.00  0.00    -0.252 NA
ENDROOT
BRANCH   1   2
ATOM      2  C   UNL     1      44.314 131.421  17.128  1.00  0.00     0.214 C 
BRANCH   2   3
ATOM      3  O   UNL     1      44.193 130.617  15.987  1.00  0.00    -0.410 OA
BRANCH   3   4
ATOM      4  C   UNL     1      44.180 131.084  14.665  1.00  0.00     0.315 C 
ATOM      5  O   UNL     1      43.117 131.492  14.122  1.00  0.00    -0.251 OA
BRANCH   4   6
ATOM      6  C   UNL     1      45.463 131.139  13.899  1.00  0.00     0.105 C 
ATOM      7  C   UNL     1      46.539 130.183  14.394  1.00  0.00     0.030 C 
ATOM      8  C   UNL     1      46.648 131.670  14.696  1.00  0.00     0.022 C 
BRANCH   7   9
ATOM      9  C   UNL     1      47.498 129.667  13.316  1.00  0.00     0.160 C 
BRANCH   9  10
ATOM     10  O   UNL     1      48.229 128.577  13.808  1.00  0.00    -0.396 OA
ATOM     11  H   UNL     1      49.185 128.841  13.774  1.00  0.00     0.210 HD
ENDBRANCH   9  10
ENDBRANCH   7   9
ENDBRANCH   4   6
ENDBRANCH   3   4
ENDBRANCH   2   3
BRANCH   2  12
ATOM     12  C   UNL     1      43.571 132.730  17.145  1.00  0.00     0.133 C 
ATOM     13  C   UNL     1      44.293 133.956  17.682  1.00  0.00     0.034 C 
ATOM     14  C   UNL     1      44.100 133.785  16.182  1.00  0.00     0.034 C 
BRANCH  12  15
ATOM     15  C   UNL     1      42.108 132.708  17.277  1.00  0.00     0.079 C 
ATOM     16  N   UNL     1      40.955 132.690  17.376  1.00  0.00    -0.197 NA
ENDBRANCH  12  15
ENDBRANCH   2  12
ENDBRANCH   1   2
BRANCH   1  17
ATOM     17  C   UNL     1      45.408 131.811  19.303  1.00  0.00     0.167 C 
BRANCH  17  18
ATOM     18  C   UNL     1      44.918 131.166  20.602  1.00  0.00     0.140 C 
BRANCH  18  19
ATOM     19  N   UNL     1      44.907 132.130  21.717  1.00  0.00    -0.369 N 
BRANCH  19  20
ATOM     20  C   UNL     1      44.718 133.527  21.432  1.00  0.00     0.045 A 
ATOM     21  C   UNL     1      43.418 133.999  21.087  1.00  0.00     0.035 A 
ATOM     22  C   UNL     1      45.801 134.443  21.474  1.00  0.00     0.005 A 
ATOM     23  C   UNL     1      43.189 135.371  20.790  1.00  0.00     0.026 A 
ATOM     24  C   UNL     1      47.153 134.130  21.748  1.00  0.00     0.011 A 
ATOM     25  C   UNL     1      45.517 135.767  21.186  1.00  0.00    -0.021 A 
ATOM     26  C   UNL     1      44.279 136.241  20.857  1.00  0.00    -0.116 A 
ATOM     27  C   UNL     1      48.135 135.155  21.733  1.00  0.00     0.001 A 
ATOM     28  C   UNL     1      46.441 136.759  21.159  1.00  0.00     0.006 A 
ATOM     29  N   UNL     1      44.305 137.647  20.581  1.00  0.00    -0.622 NA
ATOM     30  C   UNL     1      47.780 136.491  21.435  1.00  0.00     0.011 A 
ATOM     31  C   UNL     1      45.696 137.956  20.782  1.00  0.00     0.086 C 
ATOM     32  O   UNL     1      46.184 139.107  20.637  1.00  0.00    -0.315 OA
BRANCH  23  33
ATOM     33  N   UNL     1      41.898 135.875  20.415  1.00  0.00    -0.062 NA
BRANCH  33  34
ATOM     34  N   UNL     1      40.868 135.215  20.564  1.00  0.00     0.005 N 
ATOM     35  N   UNL     1      39.837 134.557  20.708  1.00  0.00    -0.003 NA
ENDBRANCH  33  34
ENDBRANCH  23  33
ENDBRANCH  19  20
BRANCH  19  36
ATOM     36  C   UNL     1      44.700 131.664  23.095  1.00  0.00     0.113 C 
ATOM     37  C   UNL     1      44.425 132.834  24.026  1.00  0.00     0.027 C 
ENDBRANCH  19  36
ENDBRANCH  18  19
ENDBRANCH  17  18
ENDBRANCH   1  17
TORSDOF 15
ENDMDL
MODEL 8
REMARK VINA RESULT:      -5.2      2.648      5.064
REMARK SMILES CCN(CC/N=C(/OC(=O)[C@H]1C[C@@H]1CO)C1(C#N)CC1)c1cc(N=[N+]=[N-])c2c3c(cccc13)C(=O)[N-]2
REMARK SMILES IDX 6 1 7 2 8 3 9 4 10 5 11 6 13 7 12 8 14 9 15 10 16 12 19 13
REMARK SMILES IDX 20 14 17 15 18 16 5 17 4 18 3 19 21 20 22 21 33 22 23 23
REMARK SMILES IDX 32 24 28 25 27 26 31 27 29 28 36 29 30 30 34 31 35 32 24 33
REMARK SMILES IDX 25 34 26 35 2 36 1 37
REMARK H PARENT 15 11
ROOT
ATOM      1  N   UNL     1      42.145 132.531  18.066  1.00  0.00    -0.252 NA
ENDROOT
BRANCH   1   2
ATOM      2  C   UNL     1      42.448 132.710  16.811  1.00  0.00     0.214 C 
BRANCH   2   3
ATOM      3  O   UNL     1      41.437 132.828  15.848  1.00  0.00    -0.410 OA
BRANCH   3   4
ATOM      4  C   UNL     1      41.641 133.096  14.487  1.00  0.00     0.315 C 
ATOM      5  O   UNL     1      41.825 132.167  13.654  1.00  0.00    -0.251 OA
BRANCH   4   6
ATOM      6  C   UNL     1      41.597 134.512  14.009  1.00  0.00     0.105 C 
ATOM      7  C   UNL     1      40.905 135.480  14.958  1.00  0.00     0.030 C 
ATOM      8  C   UNL     1      40.197 135.023  13.691  1.00  0.00     0.022 C 
BRANCH   7   9
ATOM      9  C   UNL     1      41.436 136.918  14.923  1.00  0.00     0.160 C 
BRANCH   9  10
ATOM     10  O   UNL     1      40.799 137.639  13.904  1.00  0.00    -0.396 OA
ATOM     11  H   UNL     1      41.344 138.455  13.755  1.00  0.00     0.210 HD
ENDBRANCH   9  10
ENDBRANCH   7   9
ENDBRANCH   4   6
ENDBRANCH   3   4
ENDBRANCH   2   3
BRANCH   2  12
ATOM     12  C   UNL     1      43.873 132.877  16.355  1.00  0.00     0.133 C 
ATOM     13  C   UNL     1      44.925 131.947  16.938  1.00  0.00     0.034 C 
ATOM     14  C   UNL     1      44.422 131.729  15.518  1.00  0.00     0.034 C 
BRANCH  12  15
ATOM     15  C   UNL     1      44.324 134.209  15.930  1.00  0.00     0.079 C 
ATOM     16  N   UNL     1      44.675 135.261  15.599  1.00  0.00    -0.197 NA
ENDBRANCH  12  15
ENDBRANCH   2  12
ENDBRANCH   1   2
BRANCH   1  17
ATOM     17  C   UNL     1      40.968 133.057  18.753  1.00  0.00     0.167 C 
BRANCH  17  18
ATOM     18  C   UNL     1      41.253 134.470  19.268  1.00  0.00     0.140 C 
BRANCH  18  19
ATOM     19  N   UNL     1      41.693 134.456  20.675  1.00  0.00    -0.369 N 
BRANCH  19  20
ATOM     20  C   UNL     1      43.044 134.835  20.990  1.00  0.00     0.045 A 
ATOM     21  C   UNL     1      43.344 136.208  21.231  1.00  0.00     0.035 A 
ATOM     22  C   UNL     1      44.087 133.875  21.052  1.00  0.00     0.005 A 
ATOM     23  C   UNL     1      44.669 136.628  21.537  1.00  0.00     0.026 A 
ATOM     24  C   UNL     1      43.966 132.490  20.790  1.00  0.00     0.011 A 
ATOM     25  C   UNL     1      45.353 134.340  21.364  1.00  0.00    -0.021 A 
ATOM     26  C   UNL     1      45.662 135.649  21.603  1.00  0.00    -0.116 A 
ATOM     27  C   UNL     1      45.109 131.651  20.870  1.00  0.00     0.001 A 
ATOM     28  C   UNL     1      46.458 133.557  21.437  1.00  0.00     0.006 A 
ATOM     29  N   UNL     1      47.060 135.824  21.866  1.00  0.00    -0.622 NA
ATOM     30  C   UNL     1      46.376 132.187  21.199  1.00  0.00     0.011 A 
ATOM     31  C   UNL     1      47.547 134.475  21.757  1.00  0.00     0.086 C 
ATOM     32  O   UNL     1      48.754 134.153  21.911  1.00  0.00    -0.315 OA
BRANCH  23  33
ATOM     33  N   UNL     1      45.010 138.003  21.762  1.00  0.00    -0.062 NA
BRANCH  33  34
ATOM     34  N   UNL     1      45.808 138.608  21.043  1.00  0.00     0.005 N 
ATOM     35  N   UNL     1      46.609 139.210  20.327  1.00  0.00    -0.003 NA
ENDBRANCH  33  34
ENDBRANCH  23  33
ENDBRANCH  19  20
BRANCH  19  36
ATOM     36  C   UNL     1      40.701 134.440  21.759  1.00  0.00     0.113 C 
ATOM     37  C   UNL     1      41.281 133.803  23.012  1.00  0.00     0.027 C 
ENDBRANCH  19  36
ENDBRANCH  18  19
ENDBRANCH  17  18
ENDBRANCH   1  17
TORSDOF 15
ENDMDL
MODEL 9
REMARK VINA RESULT:      -5.2      2.898      4.984
REMARK SMILES CCN(CC/N=C(/OC(=O)[C@H]1C[C@@H]1CO)C1(C#N)CC1)c1cc(N=[N+]=[N-])c2c3c(cccc13)C(=O)[N-]2
REMARK SMILES IDX 6 1 7 2 8 3 9 4 10 5 11 6 13 7 12 8 14 9 15 10 16 12 19 13
REMARK SMILES IDX 20 14 17 15 18 16 5 17 4 18 3 19 21 20 22 21 33 22 23 23
REMARK SMILES IDX 32 24 28 25 27 26 31 27 29 28 36 29 30 30 34 31 35 32 24 33
REMARK SMILES IDX 25 34 26 35 2 36 1 37
REMARK H PARENT 15 11
ROOT
ATOM      1  N   UNL     1      43.723 132.889  15.917  1.00  0.00    -0.252 NA
ENDROOT
BRANCH   1   2
ATOM      2  C   UNL     1      44.239 131.707  16.104  1.00  0.00     0.214 C 
BRANCH   2   3
ATOM      3  O   UNL     1      44.050 131.036  17.319  1.00  0.00    -0.410 OA
BRANCH   3   4
ATOM      4  C   UNL     1      44.775 131.271  18.496  1.00  0.00     0.315 C 
ATOM      5  O   UNL     1      45.875 130.694  18.717  1.00  0.00    -0.251 OA
BRANCH   4   6
ATOM      6  C   UNL     1      44.253 132.261  19.488  1.00  0.00     0.105 C 
ATOM      7  C   UNL     1      44.483 131.881  20.944  1.00  0.00     0.030 C 
ATOM      8  C   UNL     1      43.095 131.748  20.335  1.00  0.00     0.022 C 
BRANCH   7   9
ATOM      9  C   UNL     1      44.661 133.062  21.904  1.00  0.00     0.160 C 
BRANCH   9  10
ATOM     10  O   UNL     1      43.681 134.032  21.657  1.00  0.00    -0.396 OA
ATOM     11  H   UNL     1      44.112 134.732  21.101  1.00  0.00     0.210 HD
ENDBRANCH   9  10
ENDBRANCH   7   9
ENDBRANCH   4   6
ENDBRANCH   3   4
ENDBRANCH   2   3
BRANCH   2  12
ATOM     12  C   UNL     1      44.981 130.983  15.012  1.00  0.00     0.133 C 
ATOM     13  C   UNL     1      44.789 129.479  14.890  1.00  0.00     0.034 C 
ATOM     14  C   UNL     1      44.105 130.415  13.903  1.00  0.00     0.034 C 
BRANCH  12  15
ATOM     15  C   UNL     1      46.265 131.529  14.553  1.00  0.00     0.079 C 
ATOM     16  N   UNL     1      47.279 131.953  14.189  1.00  0.00    -0.197 NA
ENDBRANCH  12  15
ENDBRANCH   2  12
ENDBRANCH   1   2
BRANCH   1  17
ATOM     17  C   UNL     1      44.426 134.165  16.034  1.00  0.00     0.167 C 
BRANCH  17  18
ATOM     18  C   UNL     1      43.622 135.267  15.341  1.00  0.00     0.140 C 
BRANCH  18  19
ATOM     19  N   UNL     1      42.264 135.384  15.901  1.00  0.00    -0.369 N 
BRANCH  19  20
ATOM     20  C   UNL     1      42.104 135.797  17.268  1.00  0.00     0.045 A 
ATOM     21  C   UNL     1      41.506 134.901  18.202  1.00  0.00     0.035 A 
ATOM     22  C   UNL     1      42.516 137.083  17.706  1.00  0.00     0.005 A 
ATOM     23  C   UNL     1      41.321 135.273  19.563  1.00  0.00     0.026 A 
ATOM     24  C   UNL     1      43.077 138.101  16.900  1.00  0.00     0.011 A 
ATOM     25  C   UNL     1      42.321 137.385  19.043  1.00  0.00    -0.021 A 
ATOM     26  C   UNL     1      41.755 136.541  19.955  1.00  0.00    -0.116 A 
ATOM     27  C   UNL     1      43.422 139.352  17.477  1.00  0.00     0.001 A 
ATOM     28  C   UNL     1      42.637 138.576  19.611  1.00  0.00     0.006 A 
ATOM     29  N   UNL     1      41.657 137.147  21.250  1.00  0.00    -0.622 NA
ATOM     30  C   UNL     1      43.201 139.598  18.852  1.00  0.00     0.011 A 
ATOM     31  C   UNL     1      42.228 138.445  21.006  1.00  0.00     0.086 C 
ATOM     32  O   UNL     1      42.341 139.335  21.888  1.00  0.00    -0.315 OA
BRANCH  23  33
ATOM     33  N   UNL     1      40.701 134.405  20.523  1.00  0.00    -0.062 NA
BRANCH  33  34
ATOM     34  N   UNL     1      39.493 134.449  20.764  1.00  0.00     0.005 N 
ATOM     35  N   UNL     1      38.286 134.497  21.002  1.00  0.00    -0.003 NA
ENDBRANCH  33  34
ENDBRANCH  23  33
ENDBRANCH  19  20
BRANCH  19  36
ATOM     36  C   UNL     1      41.101 135.460  15.007  1.00  0.00     0.113 C 
ATOM     37  C   UNL     1      41.259 134.509  13.831  1.00  0.00     0.027 C 
ENDBRANCH  19  36
ENDBRANCH  18  19
ENDBRANCH  17  18
ENDBRANCH   1  17
TORSDOF 15
ENDMDL


