MODEL 1
REMARK VINA RESULT:      -6.3      0.000      0.000
REMARK SMILES C[C@@H](C#N)N(C)CCCCc1cn(-c2cc(N)c3c4c(cccc24)C(=O)[N-]3)nn1
REMARK SMILES IDX 8 1 7 2 5 3 6 4 2 5 1 6 3 7 4 8 9 9 10 10 11 11 12 12 29 13
REMARK SMILES IDX 13 14 28 15 14 16 15 17 24 18 16 19 23 20 19 21 18 22 22 23
REMARK SMILES IDX 20 24 27 25 21 26 25 27 26 28 17 29
REMARK H PARENT 17 30 17 31
ROOT
ATOM      1  C   UNL     1      45.854 129.804  16.774  1.00  0.00     0.016 C 
ENDROOT
BRANCH   1   2
ATOM      2  C   UNL     1      45.495 129.067  15.478  1.00  0.00     0.085 C 
BRANCH   2   3
ATOM      3  N   UNL     1      46.441 129.426  14.393  1.00  0.00    -0.291 NA
ATOM      4  C   UNL     1      47.814 129.580  14.910  1.00  0.00     0.106 C 
BRANCH   3   5
ATOM      5  C   UNL     1      46.036 130.613  13.595  1.00  0.00     0.157 C 
ATOM      6  C   UNL     1      46.690 130.587  12.210  1.00  0.00     0.041 C 
BRANCH   5   7
ATOM      7  C   UNL     1      44.569 130.747  13.478  1.00  0.00     0.081 C 
ATOM      8  N   UNL     1      43.420 130.851  13.386  1.00  0.00    -0.197 NA
ENDBRANCH   5   7
ENDBRANCH   3   5
ENDBRANCH   2   3
ENDBRANCH   1   2
BRANCH   1   9
ATOM      9  C   UNL     1      44.851 130.927  17.088  1.00  0.00     0.008 C 
BRANCH   9  10
ATOM     10  C   UNL     1      45.347 132.298  16.608  1.00  0.00     0.060 C 
BRANCH  10  11
ATOM     11  C   UNL     1      44.255 133.322  16.647  1.00  0.00     0.083 A 
ATOM     12  C   UNL     1      43.316 133.566  15.670  1.00  0.00     0.140 A 
ATOM     13  N   UNL     1      44.090 134.226  17.635  1.00  0.00    -0.135 NA
ATOM     14  N   UNL     1      42.607 134.626  16.095  1.00  0.00    -0.220 N 
ATOM     15  N   UNL     1      43.071 134.997  17.278  1.00  0.00    -0.062 NA
BRANCH  14  16
ATOM     16  C   UNL     1      41.487 135.237  15.439  1.00  0.00     0.076 A 
ATOM     17  C   UNL     1      40.330 134.453  15.169  1.00  0.00     0.053 A 
ATOM     18  C   UNL     1      41.501 136.603  15.052  1.00  0.00     0.007 A 
ATOM     19  C   UNL     1      39.212 134.998  14.490  1.00  0.00     0.019 A 
ATOM     20  C   UNL     1      42.524 137.542  15.326  1.00  0.00     0.011 A 
ATOM     21  C   UNL     1      40.386 137.079  14.381  1.00  0.00    -0.020 A 
ATOM     22  C   UNL     1      39.277 136.337  14.095  1.00  0.00    -0.102 A 
ATOM     23  C   UNL     1      42.386 138.888  14.895  1.00  0.00     0.001 A 
ATOM     24  C   UNL     1      40.235 138.362  13.964  1.00  0.00     0.006 A 
ATOM     25  N   UNL     1      38.277 137.119  13.430  1.00  0.00    -0.620 NA
ATOM     26  C   UNL     1      41.227 139.311  14.204  1.00  0.00     0.011 A 
ATOM     27  C   UNL     1      38.910 138.407  13.357  1.00  0.00     0.086 C 
ATOM     28  O   UNL     1      38.375 139.423  12.843  1.00  0.00    -0.315 OA
BRANCH  19  29
ATOM     29  N   UNL     1      38.057 134.201  14.218  1.00  0.00    -0.400 N 
ATOM     30  H   UNL     1      37.890 133.808  13.265  1.00  0.00     0.156 HD
ATOM     31  H   UNL     1      37.361 133.999  14.969  1.00  0.00     0.156 HD
ENDBRANCH  19  29
ENDBRANCH  14  16
ENDBRANCH  10  11
ENDBRANCH   9  10
ENDBRANCH   1   9
TORSDOF 9
ENDMDL
MODEL 2
REMARK VINA RESULT:      -6.0      2.239      2.655
REMARK SMILES C[C@@H](C#N)N(C)CCCCc1cn(-c2cc(N)c3c4c(cccc24)C(=O)[N-]3)nn1
REMARK SMILES IDX 8 1 7 2 5 3 6 4 2 5 1 6 3 7 4 8 9 9 10 10 11 11 12 12 29 13
REMARK SMILES IDX 13 14 28 15 14 16 15 17 24 18 16 19 23 20 19 21 18 22 22 23
REMARK SMILES IDX 20 24 27 25 21 26 25 27 26 28 17 29
REMARK H PARENT 17 30 17 31
ROOT
ATOM      1  C   UNL     1      46.695 129.934  16.474  1.00  0.00     0.016 C 
ENDROOT
BRANCH   1   2
ATOM      2  C   UNL     1      46.030 129.130  15.350  1.00  0.00     0.085 C 
BRANCH   2   3
ATOM      3  N   UNL     1      46.714 129.374  14.056  1.00  0.00    -0.291 NA
ATOM      4  C   UNL     1      48.180 129.360  14.217  1.00  0.00     0.106 C 
BRANCH   3   5
ATOM      5  C   UNL     1      46.267 130.602  13.349  1.00  0.00     0.157 C 
ATOM      6  C   UNL     1      46.754 130.601  11.897  1.00  0.00     0.041 C 
BRANCH   5   7
ATOM      7  C   UNL     1      44.803 130.793  13.410  1.00  0.00     0.081 C 
ATOM      8  N   UNL     1      43.656 130.943  13.457  1.00  0.00    -0.197 NA
ENDBRANCH   5   7
ENDBRANCH   3   5
ENDBRANCH   2   3
ENDBRANCH   1   2
BRANCH   1   9
ATOM      9  C   UNL     1      45.656 130.632  17.368  1.00  0.00     0.008 C 
BRANCH   9  10
ATOM     10  C   UNL     1      45.108 131.914  16.726  1.00  0.00     0.060 C 
BRANCH  10  11
ATOM     11  C   UNL     1      43.667 132.131  17.074  1.00  0.00     0.083 A 
ATOM     12  C   UNL     1      42.763 132.917  16.396  1.00  0.00     0.140 A 
ATOM     13  N   UNL     1      43.064 131.638  18.175  1.00  0.00    -0.135 NA
ATOM     14  N   UNL     1      41.630 132.885  17.117  1.00  0.00    -0.220 N 
ATOM     15  N   UNL     1      41.821 132.102  18.167  1.00  0.00    -0.062 NA
BRANCH  14  16
ATOM     16  C   UNL     1      40.383 133.520  16.799  1.00  0.00     0.076 A 
ATOM     17  C   UNL     1      39.351 133.549  17.778  1.00  0.00     0.053 A 
ATOM     18  C   UNL     1      40.151 134.119  15.532  1.00  0.00     0.007 A 
ATOM     19  C   UNL     1      38.088 134.129  17.501  1.00  0.00     0.019 A 
ATOM     20  C   UNL     1      41.094 134.261  14.486  1.00  0.00     0.011 A 
ATOM     21  C   UNL     1      38.894 134.660  15.313  1.00  0.00    -0.020 A 
ATOM     22  C   UNL     1      37.886 134.679  16.232  1.00  0.00    -0.102 A 
ATOM     23  C   UNL     1      40.722 134.910  13.279  1.00  0.00     0.001 A 
ATOM     24  C   UNL     1      38.522 135.287  14.168  1.00  0.00     0.006 A 
ATOM     25  N   UNL     1      36.722 135.344  15.724  1.00  0.00    -0.620 NA
ATOM     26  C   UNL     1      39.419 135.433  13.111  1.00  0.00     0.011 A 
ATOM     27  C   UNL     1      37.151 135.723  14.406  1.00  0.00     0.086 C 
ATOM     28  O   UNL     1      36.430 136.350  13.588  1.00  0.00    -0.315 OA
BRANCH  19  29
ATOM     29  N   UNL     1      37.056 134.149  18.489  1.00  0.00    -0.400 N 
ATOM     30  H   UNL     1      37.285 134.079  19.505  1.00  0.00     0.156 HD
ATOM     31  H   UNL     1      36.053 134.233  18.210  1.00  0.00     0.156 HD
ENDBRANCH  19  29
ENDBRANCH  14  16
ENDBRANCH  10  11
ENDBRANCH   9  10
ENDBRANCH   1   9
TORSDOF 9
ENDMDL
MODEL 3
REMARK VINA RESULT:      -6.0      3.311      7.864
REMARK SMILES C[C@@H](C#N)N(C)CCCCc1cn(-c2cc(N)c3c4c(cccc24)C(=O)[N-]3)nn1
REMARK SMILES IDX 8 1 7 2 5 3 6 4 2 5 1 6 3 7 4 8 9 9 10 10 11 11 12 12 29 13
REMARK SMILES IDX 13 14 28 15 14 16 15 17 24 18 16 19 23 20 19 21 18 22 22 23
REMARK SMILES IDX 20 24 27 25 21 26 25 27 26 28 17 29
REMARK H PARENT 17 30 17 31
ROOT
ATOM      1  C   UNL     1      39.995 136.923  15.091  1.00  0.00     0.016 C 
ENDROOT
BRANCH   1   2
ATOM      2  C   UNL     1      40.556 137.566  16.364  1.00  0.00     0.085 C 
BRANCH   2   3
ATOM      3  N   UNL     1      41.936 137.088  16.628  1.00  0.00    -0.291 NA
ATOM      4  C   UNL     1      42.691 138.058  17.443  1.00  0.00     0.106 C 
BRANCH   3   5
ATOM      5  C   UNL     1      42.696 136.710  15.408  1.00  0.00     0.157 C 
ATOM      6  C   UNL     1      43.215 137.956  14.683  1.00  0.00     0.041 C 
BRANCH   5   7
ATOM      7  C   UNL     1      43.803 135.773  15.693  1.00  0.00     0.081 C 
ATOM      8  N   UNL     1      44.670 135.040  15.917  1.00  0.00    -0.197 NA
ENDBRANCH   5   7
ENDBRANCH   3   5
ENDBRANCH   2   3
ENDBRANCH   1   2
BRANCH   1   9
ATOM      9  C   UNL     1      38.611 136.296  15.331  1.00  0.00     0.008 C 
BRANCH   9  10
ATOM     10  C   UNL     1      38.585 134.799  14.991  1.00  0.00     0.060 C 
BRANCH  10  11
ATOM     11  C   UNL     1      39.457 134.010  15.919  1.00  0.00     0.083 A 
ATOM     12  C   UNL     1      40.771 133.653  15.714  1.00  0.00     0.140 A 
ATOM     13  N   UNL     1      39.039 133.454  17.074  1.00  0.00    -0.135 NA
ATOM     14  N   UNL     1      41.112 132.877  16.757  1.00  0.00    -0.220 N 
ATOM     15  N   UNL     1      40.071 132.783  17.569  1.00  0.00    -0.062 NA
BRANCH  14  16
ATOM     16  C   UNL     1      42.395 132.291  17.017  1.00  0.00     0.076 A 
ATOM     17  C   UNL     1      42.870 132.230  18.357  1.00  0.00     0.053 A 
ATOM     18  C   UNL     1      43.205 131.772  15.973  1.00  0.00     0.007 A 
ATOM     19  C   UNL     1      44.146 131.696  18.664  1.00  0.00     0.019 A 
ATOM     20  C   UNL     1      42.848 131.668  14.606  1.00  0.00     0.011 A 
ATOM     21  C   UNL     1      44.448 131.273  16.329  1.00  0.00    -0.020 A 
ATOM     22  C   UNL     1      44.929 131.225  17.605  1.00  0.00    -0.102 A 
ATOM     23  C   UNL     1      43.758 131.098  13.677  1.00  0.00     0.001 A 
ATOM     24  C   UNL     1      45.329 130.722  15.455  1.00  0.00     0.006 A 
ATOM     25  N   UNL     1      46.226 130.617  17.658  1.00  0.00    -0.620 NA
ATOM     26  C   UNL     1      45.019 130.617  14.100  1.00  0.00     0.011 A 
ATOM     27  C   UNL     1      46.461 130.306  16.275  1.00  0.00     0.086 C 
ATOM     28  O   UNL     1      47.504 129.744  15.851  1.00  0.00    -0.315 OA
BRANCH  19  29
ATOM     29  N   UNL     1      44.617 131.643  20.012  1.00  0.00    -0.400 N 
ATOM     30  H   UNL     1      44.717 130.730  20.509  1.00  0.00     0.156 HD
ATOM     31  H   UNL     1      44.868 132.519  20.523  1.00  0.00     0.156 HD
ENDBRANCH  19  29
ENDBRANCH  14  16
ENDBRANCH  10  11
ENDBRANCH   9  10
ENDBRANCH   1   9
TORSDOF 9
ENDMDL
MODEL 4
REMARK VINA RESULT:      -6.0      2.842      3.551
REMARK SMILES C[C@@H](C#N)N(C)CCCCc1cn(-c2cc(N)c3c4c(cccc24)C(=O)[N-]3)nn1
REMARK SMILES IDX 8 1 7 2 5 3 6 4 2 5 1 6 3 7 4 8 9 9 10 10 11 11 12 12 29 13
REMARK SMILES IDX 13 14 28 15 14 16 15 17 24 18 16 19 23 20 19 21 18 22 22 23
REMARK SMILES IDX 20 24 27 25 21 26 25 27 26 28 17 29
REMARK H PARENT 17 30 17 31
ROOT
ATOM      1  C   UNL     1      45.510 131.349  17.129  1.00  0.00     0.016 C 
ENDROOT
BRANCH   1   2
ATOM      2  C   UNL     1      45.060 130.422  15.993  1.00  0.00     0.085 C 
BRANCH   2   3
ATOM      3  N   UNL     1      45.413 131.003  14.674  1.00  0.00    -0.291 NA
ATOM      4  C   UNL     1      44.405 130.662  13.653  1.00  0.00     0.106 C 
BRANCH   3   5
ATOM      5  C   UNL     1      46.782 130.667  14.203  1.00  0.00     0.157 C 
ATOM      6  C   UNL     1      47.242 129.326  14.782  1.00  0.00     0.041 C 
BRANCH   5   7
ATOM      7  C   UNL     1      46.895 130.667  12.730  1.00  0.00     0.081 C 
ATOM      8  N   UNL     1      46.982 130.667  11.575  1.00  0.00    -0.197 NA
ENDBRANCH   5   7
ENDBRANCH   3   5
ENDBRANCH   2   3
ENDBRANCH   1   2
BRANCH   1   9
ATOM      9  C   UNL     1      45.344 130.684  18.506  1.00  0.00     0.008 C 
BRANCH   9  10
ATOM     10  C   UNL     1      45.221 131.715  19.636  1.00  0.00     0.060 C 
BRANCH  10  11
ATOM     11  C   UNL     1      44.181 132.749  19.328  1.00  0.00     0.083 A 
ATOM     12  C   UNL     1      42.927 132.528  18.805  1.00  0.00     0.140 A 
ATOM     13  N   UNL     1      44.368 134.080  19.445  1.00  0.00    -0.135 NA
ATOM     14  N   UNL     1      42.387 133.743  18.610  1.00  0.00    -0.220 N 
ATOM     15  N   UNL     1      43.255 134.658  19.014  1.00  0.00    -0.062 NA
BRANCH  14  16
ATOM     16  C   UNL     1      41.073 134.038  18.117  1.00  0.00     0.076 A 
ATOM     17  C   UNL     1      40.059 134.426  19.037  1.00  0.00     0.053 A 
ATOM     18  C   UNL     1      40.756 133.951  16.735  1.00  0.00     0.007 A 
ATOM     19  C   UNL     1      38.735 134.690  18.606  1.00  0.00     0.019 A 
ATOM     20  C   UNL     1      41.661 133.674  15.683  1.00  0.00     0.011 A 
ATOM     21  C   UNL     1      39.443 134.209  16.373  1.00  0.00    -0.020 A 
ATOM     22  C   UNL     1      38.453 134.562  17.243  1.00  0.00    -0.102 A 
ATOM     23  C   UNL     1      41.201 133.646  14.340  1.00  0.00     0.001 A 
ATOM     24  C   UNL     1      38.986 134.190  15.095  1.00  0.00     0.006 A 
ATOM     25  N   UNL     1      37.215 134.802  16.563  1.00  0.00    -0.620 NA
ATOM     26  C   UNL     1      39.845 133.907  14.035  1.00  0.00     0.011 A 
ATOM     27  C   UNL     1      37.579 134.558  15.194  1.00  0.00     0.086 C 
ATOM     28  O   UNL     1      36.780 134.661  14.228  1.00  0.00    -0.315 OA
BRANCH  19  29
ATOM     29  N   UNL     1      37.722 135.074  19.538  1.00  0.00    -0.400 N 
ATOM     30  H   UNL     1      36.838 135.527  19.213  1.00  0.00     0.156 HD
ATOM     31  H   UNL     1      37.848 134.908  20.561  1.00  0.00     0.156 HD
ENDBRANCH  19  29
ENDBRANCH  14  16
ENDBRANCH  10  11
ENDBRANCH   9  10
ENDBRANCH   1   9
TORSDOF 9
ENDMDL
MODEL 5
REMARK VINA RESULT:      -6.0      4.010      8.585
REMARK SMILES C[C@@H](C#N)N(C)CCCCc1cn(-c2cc(N)c3c4c(cccc24)C(=O)[N-]3)nn1
REMARK SMILES IDX 8 1 7 2 5 3 6 4 2 5 1 6 3 7 4 8 9 9 10 10 11 11 12 12 29 13
REMARK SMILES IDX 13 14 28 15 14 16 15 17 24 18 16 19 23 20 19 21 18 22 22 23
REMARK SMILES IDX 20 24 27 25 21 26 25 27 26 28 17 29
REMARK H PARENT 17 30 17 31
ROOT
ATOM      1  C   UNL     1      37.393 135.715  11.824  1.00  0.00     0.016 C 
ENDROOT
BRANCH   1   2
ATOM      2  C   UNL     1      38.343 136.919  11.789  1.00  0.00     0.085 C 
BRANCH   2   3
ATOM      3  N   UNL     1      38.572 137.364  10.392  1.00  0.00    -0.291 NA
ATOM      4  C   UNL     1      37.563 138.356   9.977  1.00  0.00     0.106 C 
BRANCH   3   5
ATOM      5  C   UNL     1      38.670 136.258   9.405  1.00  0.00     0.157 C 
ATOM      6  C   UNL     1      37.636 136.431   8.289  1.00  0.00     0.041 C 
BRANCH   5   7
ATOM      7  C   UNL     1      40.029 136.117   8.841  1.00  0.00     0.081 C 
ATOM      8  N   UNL     1      41.093 136.007   8.400  1.00  0.00    -0.197 NA
ENDBRANCH   5   7
ENDBRANCH   3   5
ENDBRANCH   2   3
ENDBRANCH   1   2
BRANCH   1   9
ATOM      9  C   UNL     1      37.826 134.678  12.874  1.00  0.00     0.008 C 
BRANCH   9  10
ATOM     10  C   UNL     1      39.243 134.942  13.400  1.00  0.00     0.060 C 
BRANCH  10  11
ATOM     11  C   UNL     1      39.455 134.320  14.747  1.00  0.00     0.083 A 
ATOM     12  C   UNL     1      40.640 134.241  15.443  1.00  0.00     0.140 A 
ATOM     13  N   UNL     1      38.505 133.662  15.443  1.00  0.00    -0.135 NA
ATOM     14  N   UNL     1      40.374 133.523  16.547  1.00  0.00    -0.220 N 
ATOM     15  N   UNL     1      39.091 133.200  16.540  1.00  0.00    -0.062 NA
BRANCH  14  16
ATOM     16  C   UNL     1      41.282 133.201  17.610  1.00  0.00     0.076 A 
ATOM     17  C   UNL     1      40.936 133.546  18.946  1.00  0.00     0.053 A 
ATOM     18  C   UNL     1      42.519 132.547  17.363  1.00  0.00     0.007 A 
ATOM     19  C   UNL     1      41.815 133.285  20.027  1.00  0.00     0.019 A 
ATOM     20  C   UNL     1      42.973 132.052  16.117  1.00  0.00     0.011 A 
ATOM     21  C   UNL     1      43.343 132.327  18.456  1.00  0.00    -0.020 A 
ATOM     22  C   UNL     1      43.037 132.670  19.741  1.00  0.00    -0.102 A 
ATOM     23  C   UNL     1      44.228 131.394  16.030  1.00  0.00     0.001 A 
ATOM     24  C   UNL     1      44.544 131.697  18.392  1.00  0.00     0.006 A 
ATOM     25  N   UNL     1      44.071 132.276  20.651  1.00  0.00    -0.620 NA
ATOM     26  C   UNL     1      45.030 131.210  17.180  1.00  0.00     0.011 A 
ATOM     27  C   UNL     1      45.022 131.658  19.769  1.00  0.00     0.086 C 
ATOM     28  O   UNL     1      46.108 131.153  20.152  1.00  0.00    -0.315 OA
BRANCH  19  29
ATOM     29  N   UNL     1      41.460 133.640  21.364  1.00  0.00    -0.400 N 
ATOM     30  H   UNL     1      40.461 133.779  21.635  1.00  0.00     0.156 HD
ATOM     31  H   UNL     1      42.196 133.768  22.095  1.00  0.00     0.156 HD
ENDBRANCH  19  29
ENDBRANCH  14  16
ENDBRANCH  10  11
ENDBRANCH   9  10
ENDBRANCH   1   9
TORSDOF 9
ENDMDL
MODEL 6
REMARK VINA RESULT:      -5.8      1.646      3.205
REMARK SMILES C[C@@H](C#N)N(C)CCCCc1cn(-c2cc(N)c3c4c(cccc24)C(=O)[N-]3)nn1
REMARK SMILES IDX 8 1 7 2 5 3 6 4 2 5 1 6 3 7 4 8 9 9 10 10 11 11 12 12 29 13
REMARK SMILES IDX 13 14 28 15 14 16 15 17 24 18 16 19 23 20 19 21 18 22 22 23
REMARK SMILES IDX 20 24 27 25 21 26 25 27 26 28 17 29
REMARK H PARENT 17 30 17 31
ROOT
ATOM      1  C   UNL     1      45.519 131.642  17.055  1.00  0.00     0.016 C 
ENDROOT
BRANCH   1   2
ATOM      2  C   UNL     1      44.847 131.875  15.697  1.00  0.00     0.085 C 
BRANCH   2   3
ATOM      3  N   UNL     1      45.522 131.085  14.637  1.00  0.00    -0.291 NA
ATOM      4  C   UNL     1      44.597 130.774  13.532  1.00  0.00     0.106 C 
BRANCH   3   5
ATOM      5  C   UNL     1      46.200 129.857  15.128  1.00  0.00     0.157 C 
ATOM      6  C   UNL     1      45.201 128.704  15.267  1.00  0.00     0.041 C 
BRANCH   5   7
ATOM      7  C   UNL     1      47.342 129.458  14.278  1.00  0.00     0.081 C 
ATOM      8  N   UNL     1      48.237 129.147  13.613  1.00  0.00    -0.197 NA
ENDBRANCH   5   7
ENDBRANCH   3   5
ENDBRANCH   2   3
ENDBRANCH   1   2
BRANCH   1   9
ATOM      9  C   UNL     1      44.486 131.531  18.190  1.00  0.00     0.008 C 
BRANCH   9  10
ATOM     10  C   UNL     1      44.041 132.906  18.706  1.00  0.00     0.060 C 
BRANCH  10  11
ATOM     11  C   UNL     1      42.861 133.424  17.943  1.00  0.00     0.083 A 
ATOM     12  C   UNL     1      42.846 134.486  17.066  1.00  0.00     0.140 A 
ATOM     13  N   UNL     1      41.601 132.963  18.077  1.00  0.00    -0.135 NA
ATOM     14  N   UNL     1      41.564 134.644  16.697  1.00  0.00    -0.220 N 
ATOM     15  N   UNL     1      40.836 133.715  17.297  1.00  0.00    -0.062 NA
BRANCH  14  16
ATOM     16  C   UNL     1      41.043 135.599  15.761  1.00  0.00     0.076 A 
ATOM     17  C   UNL     1      41.658 136.878  15.662  1.00  0.00     0.053 A 
ATOM     18  C   UNL     1      39.930 135.301  14.931  1.00  0.00     0.007 A 
ATOM     19  C   UNL     1      41.159 137.870  14.782  1.00  0.00     0.019 A 
ATOM     20  C   UNL     1      39.265 134.055  14.834  1.00  0.00     0.011 A 
ATOM     21  C   UNL     1      39.478 136.313  14.099  1.00  0.00    -0.020 A 
ATOM     22  C   UNL     1      40.041 137.552  14.006  1.00  0.00    -0.102 A 
ATOM     23  C   UNL     1      38.177 133.900  13.935  1.00  0.00     0.001 A 
ATOM     24  C   UNL     1      38.442 136.181  13.231  1.00  0.00     0.006 A 
ATOM     25  N   UNL     1      39.375 138.362  13.029  1.00  0.00    -0.620 NA
ATOM     26  C   UNL     1      37.754 134.974  13.119  1.00  0.00     0.011 A 
ATOM     27  C   UNL     1      38.359 137.467  12.548  1.00  0.00     0.086 C 
ATOM     28  O   UNL     1      37.525 137.769  11.655  1.00  0.00    -0.315 OA
BRANCH  19  29
ATOM     29  N   UNL     1      41.780 139.154  14.694  1.00  0.00    -0.400 N 
ATOM     30  H   UNL     1      41.921 139.741  15.547  1.00  0.00     0.156 HD
ATOM     31  H   UNL     1      42.103 139.528  13.774  1.00  0.00     0.156 HD
ENDBRANCH  19  29
ENDBRANCH  14  16
ENDBRANCH  10  11
ENDBRANCH   9  10
ENDBRANCH   1   9
TORSDOF 9
ENDMDL
MODEL 7
REMARK VINA RESULT:      -5.7      2.494      4.536
REMARK SMILES C[C@@H](C#N)N(C)CCCCc1cn(-c2cc(N)c3c4c(cccc24)C(=O)[N-]3)nn1
REMARK SMILES IDX 8 1 7 2 5 3 6 4 2 5 1 6 3 7 4 8 9 9 10 10 11 11 12 12 29 13
REMARK SMILES IDX 13 14 28 15 14 16 15 17 24 18 16 19 23 20 19 21 18 22 22 23
REMARK SMILES IDX 20 24 27 25 21 26 25 27 26 28 17 29
REMARK H PARENT 17 30 17 31
ROOT
ATOM      1  C   UNL     1      46.095 130.553  17.275  1.00  0.00     0.016 C 
ENDROOT
BRANCH   1   2
ATOM      2  C   UNL     1      44.879 130.740  18.191  1.00  0.00     0.085 C 
BRANCH   2   3
ATOM      3  N   UNL     1      45.076 131.905  19.089  1.00  0.00    -0.291 NA
ATOM      4  C   UNL     1      45.555 131.480  20.417  1.00  0.00     0.106 C 
BRANCH   3   5
ATOM      5  C   UNL     1      43.889 132.792  19.209  1.00  0.00     0.157 C 
ATOM      6  C   UNL     1      42.778 132.108  20.011  1.00  0.00     0.041 C 
BRANCH   5   7
ATOM      7  C   UNL     1      44.219 134.109  19.792  1.00  0.00     0.081 C 
ATOM      8  N   UNL     1      44.478 135.141  20.250  1.00  0.00    -0.197 NA
ENDBRANCH   5   7
ENDBRANCH   3   5
ENDBRANCH   2   3
ENDBRANCH   1   2
BRANCH   1   9
ATOM      9  C   UNL     1      45.700 130.591  15.789  1.00  0.00     0.008 C 
BRANCH   9  10
ATOM     10  C   UNL     1      45.556 132.026  15.264  1.00  0.00     0.060 C 
BRANCH  10  11
ATOM     11  C   UNL     1      44.136 132.342  14.910  1.00  0.00     0.083 A 
ATOM     12  C   UNL     1      43.420 133.457  15.285  1.00  0.00     0.140 A 
ATOM     13  N   UNL     1      43.316 131.517  14.227  1.00  0.00    -0.135 NA
ATOM     14  N   UNL     1      42.172 133.269  14.821  1.00  0.00    -0.220 N 
ATOM     15  N   UNL     1      42.132 132.114  14.177  1.00  0.00    -0.062 NA
BRANCH  14  16
ATOM     16  C   UNL     1      41.065 134.175  14.925  1.00  0.00     0.076 A 
ATOM     17  C   UNL     1      40.765 135.032  13.830  1.00  0.00     0.053 A 
ATOM     18  C   UNL     1      40.260 134.240  16.094  1.00  0.00     0.007 A 
ATOM     19  C   UNL     1      39.706 135.971  13.896  1.00  0.00     0.019 A 
ATOM     20  C   UNL     1      40.360 133.401  17.229  1.00  0.00     0.011 A 
ATOM     21  C   UNL     1      39.247 135.185  16.108  1.00  0.00    -0.020 A 
ATOM     22  C   UNL     1      38.957 136.029  15.075  1.00  0.00    -0.102 A 
ATOM     23  C   UNL     1      39.463 133.569  18.317  1.00  0.00     0.001 A 
ATOM     24  C   UNL     1      38.378 135.358  17.137  1.00  0.00     0.006 A 
ATOM     25  N   UNL     1      37.829 136.861  15.375  1.00  0.00    -0.620 NA
ATOM     26  C   UNL     1      38.456 134.560  18.277  1.00  0.00     0.011 A 
ATOM     27  C   UNL     1      37.477 136.416  16.695  1.00  0.00     0.086 C 
ATOM     28  O   UNL     1      36.515 136.882  17.358  1.00  0.00    -0.315 OA
BRANCH  19  29
ATOM     29  N   UNL     1      39.416 136.831  12.793  1.00  0.00    -0.400 N 
ATOM     30  H   UNL     1      38.757 136.532  12.039  1.00  0.00     0.156 HD
ATOM     31  H   UNL     1      39.858 137.774  12.721  1.00  0.00     0.156 HD
ENDBRANCH  19  29
ENDBRANCH  14  16
ENDBRANCH  10  11
ENDBRANCH   9  10
ENDBRANCH   1   9
TORSDOF 9
ENDMDL
MODEL 8
REMARK VINA RESULT:      -5.5      3.048      3.748
REMARK SMILES C[C@@H](C#N)N(C)CCCCc1cn(-c2cc(N)c3c4c(cccc24)C(=O)[N-]3)nn1
REMARK SMILES IDX 8 1 7 2 5 3 6 4 2 5 1 6 3 7 4 8 9 9 10 10 11 11 12 12 29 13
REMARK SMILES IDX 13 14 28 15 14 16 15 17 24 18 16 19 23 20 19 21 18 22 22 23
REMARK SMILES IDX 20 24 27 25 21 26 25 27 26 28 17 29
REMARK H PARENT 17 30 17 31
ROOT
ATOM      1  C   UNL     1      45.298 131.112  17.493  1.00  0.00     0.016 C 
ENDROOT
BRANCH   1   2
ATOM      2  C   UNL     1      46.526 130.479  16.828  1.00  0.00     0.085 C 
BRANCH   2   3
ATOM      3  N   UNL     1      46.623 130.895  15.406  1.00  0.00    -0.291 NA
ATOM      4  C   UNL     1      45.817 132.102  15.147  1.00  0.00     0.106 C 
BRANCH   3   5
ATOM      5  C   UNL     1      46.303 129.820  14.431  1.00  0.00     0.157 C 
ATOM      6  C   UNL     1      47.580 129.270  13.790  1.00  0.00     0.041 C 
BRANCH   5   7
ATOM      7  C   UNL     1      45.505 128.728  15.029  1.00  0.00     0.081 C 
ATOM      8  N   UNL     1      44.881 127.873  15.496  1.00  0.00    -0.197 NA
ENDBRANCH   5   7
ENDBRANCH   3   5
ENDBRANCH   2   3
ENDBRANCH   1   2
BRANCH   1   9
ATOM      9  C   UNL     1      45.174 130.700  18.970  1.00  0.00     0.008 C 
BRANCH   9  10
ATOM     10  C   UNL     1      45.300 131.900  19.919  1.00  0.00     0.060 C 
BRANCH  10  11
ATOM     11  C   UNL     1      44.095 132.787  19.846  1.00  0.00     0.083 A 
ATOM     12  C   UNL     1      43.004 132.633  19.020  1.00  0.00     0.140 A 
ATOM     13  N   UNL     1      43.947 133.935  20.540  1.00  0.00    -0.135 NA
ATOM     14  N   UNL     1      42.224 133.706  19.232  1.00  0.00    -0.220 N 
ATOM     15  N   UNL     1      42.794 134.465  20.156  1.00  0.00    -0.062 NA
BRANCH  14  16
ATOM     16  C   UNL     1      40.951 133.983  18.632  1.00  0.00     0.076 A 
ATOM     17  C   UNL     1      39.856 134.347  19.466  1.00  0.00     0.053 A 
ATOM     18  C   UNL     1      40.753 133.902  17.228  1.00  0.00     0.007 A 
ATOM     19  C   UNL     1      38.569 134.592  18.927  1.00  0.00     0.019 A 
ATOM     20  C   UNL     1      41.748 133.649  16.254  1.00  0.00     0.011 A 
ATOM     21  C   UNL     1      39.471 134.141  16.758  1.00  0.00    -0.020 A 
ATOM     22  C   UNL     1      38.405 134.471  17.544  1.00  0.00    -0.102 A 
ATOM     23  C   UNL     1      41.402 133.625  14.877  1.00  0.00     0.001 A 
ATOM     24  C   UNL     1      39.123 134.126  15.446  1.00  0.00     0.006 A 
ATOM     25  N   UNL     1      37.225 134.696  16.763  1.00  0.00    -0.620 NA
ATOM     26  C   UNL     1      40.073 133.865  14.460  1.00  0.00     0.011 A 
ATOM     27  C   UNL     1      37.707 134.469  15.429  1.00  0.00     0.086 C 
ATOM     28  O   UNL     1      36.990 134.567  14.399  1.00  0.00    -0.315 OA
BRANCH  19  29
ATOM     29  N   UNL     1      37.475 134.952  19.773  1.00  0.00    -0.400 N 
ATOM     30  H   UNL     1      37.451 134.655  20.774  1.00  0.00     0.156 HD
ATOM     31  H   UNL     1      36.679 135.518  19.403  1.00  0.00     0.156 HD
ENDBRANCH  19  29
ENDBRANCH  14  16
ENDBRANCH  10  11
ENDBRANCH   9  10
ENDBRANCH   1   9
TORSDOF 9
ENDMDL
MODEL 9
REMARK VINA RESULT:      -5.4      3.257      8.192
REMARK SMILES C[C@@H](C#N)N(C)CCCCc1cn(-c2cc(N)c3c4c(cccc24)C(=O)[N-]3)nn1
REMARK SMILES IDX 8 1 7 2 5 3 6 4 2 5 1 6 3 7 4 8 9 9 10 10 11 11 12 12 29 13
REMARK SMILES IDX 13 14 28 15 14 16 15 17 24 18 16 19 23 20 19 21 18 22 22 23
REMARK SMILES IDX 20 24 27 25 21 26 25 27 26 28 17 29
REMARK H PARENT 17 30 17 31
ROOT
ATOM      1  C   UNL     1      39.161 138.997  13.468  1.00  0.00     0.016 C 
ENDROOT
BRANCH   1   2
ATOM      2  C   UNL     1      37.989 138.145  12.967  1.00  0.00     0.085 C 
BRANCH   2   3
ATOM      3  N   UNL     1      38.484 136.926  12.280  1.00  0.00    -0.291 NA
ATOM      4  C   UNL     1      38.062 136.900  10.867  1.00  0.00     0.106 C 
BRANCH   3   5
ATOM      5  C   UNL     1      38.134 135.653  12.964  1.00  0.00     0.157 C 
ATOM      6  C   UNL     1      37.111 134.860  12.146  1.00  0.00     0.041 C 
BRANCH   5   7
ATOM      7  C   UNL     1      39.320 134.823  13.264  1.00  0.00     0.081 C 
ATOM      8  N   UNL     1      40.248 134.173  13.500  1.00  0.00    -0.197 NA
ENDBRANCH   5   7
ENDBRANCH   3   5
ENDBRANCH   2   3
ENDBRANCH   1   2
BRANCH   1   9
ATOM      9  C   UNL     1      40.195 138.151  14.231  1.00  0.00     0.008 C 
BRANCH   9  10
ATOM     10  C   UNL     1      39.888 138.077  15.733  1.00  0.00     0.060 C 
BRANCH  10  11
ATOM     11  C   UNL     1      40.223 136.731  16.297  1.00  0.00     0.083 A 
ATOM     12  C   UNL     1      41.482 136.230  16.545  1.00  0.00     0.140 A 
ATOM     13  N   UNL     1      39.318 135.768  16.570  1.00  0.00    -0.135 NA
ATOM     14  N   UNL     1      41.302 134.963  16.956  1.00  0.00    -0.220 N 
ATOM     15  N   UNL     1      40.002 134.709  16.982  1.00  0.00    -0.062 NA
BRANCH  14  16
ATOM     16  C   UNL     1      42.314 134.035  17.372  1.00  0.00     0.076 A 
ATOM     17  C   UNL     1      42.746 134.043  18.728  1.00  0.00     0.053 A 
ATOM     18  C   UNL     1      42.897 133.110  16.466  1.00  0.00     0.007 A 
ATOM     19  C   UNL     1      43.770 133.174  19.180  1.00  0.00     0.019 A 
ATOM     20  C   UNL     1      42.520 132.905  15.117  1.00  0.00     0.011 A 
ATOM     21  C   UNL     1      43.901 132.293  16.961  1.00  0.00    -0.020 A 
ATOM     22  C   UNL     1      44.343 132.300  18.252  1.00  0.00    -0.102 A 
ATOM     23  C   UNL     1      43.181 131.919  14.338  1.00  0.00     0.001 A 
ATOM     24  C   UNL     1      44.541 131.343  16.232  1.00  0.00     0.006 A 
ATOM     25  N   UNL     1      45.360 131.314  18.467  1.00  0.00    -0.620 NA
ATOM     26  C   UNL     1      44.207 131.123  14.896  1.00  0.00     0.011 A 
ATOM     27  C   UNL     1      45.471 130.716  17.164  1.00  0.00     0.086 C 
ATOM     28  O   UNL     1      46.261 129.777  16.889  1.00  0.00    -0.315 OA
BRANCH  19  29
ATOM     29  N   UNL     1      44.201 133.193  20.542  1.00  0.00    -0.400 N 
ATOM     30  H   UNL     1      44.543 132.323  21.008  1.00  0.00     0.156 HD
ATOM     31  H   UNL     1      44.181 134.079  21.095  1.00  0.00     0.156 HD
ENDBRANCH  19  29
ENDBRANCH  14  16
ENDBRANCH  10  11
ENDBRANCH   9  10
ENDBRANCH   1   9
TORSDOF 9
ENDMDL


