MODEL 1
REMARK VINA RESULT:      -7.5      0.000      0.000
REMARK SMILES C=C(C)/C(O)=[N+]1/C[C@@H]2CC[C@H](Oc3ccc4c5c(ccc(N=[N+]=[N-])c35)CC4)[C@@H]2C1
REMARK SMILES IDX 12 1 11 2 6 3 29 4 7 5 28 6 8 7 9 8 10 9 4 10 5 11 2 13 1 14
REMARK SMILES IDX 3 15 13 16 14 17 25 18 15 19 21 20 17 21 16 22 20 23 18 24
REMARK SMILES IDX 27 25 19 26 26 27 22 28 23 29 24 30
REMARK H PARENT 5 12
ROOT
ATOM      1  O   UNL     1      41.609 133.204  16.316  1.00  0.00    -0.489 OA
ENDROOT
BRANCH   1   2
ATOM      2  C   UNL     1      41.696 134.618  16.506  1.00  0.00     0.183 C 
ATOM      3  N   UNL     1      39.536 135.831  13.866  1.00  0.00    -0.198 N 
ATOM      4  C   UNL     1      39.774 134.734  14.792  1.00  0.00     0.362 C 
ATOM      5  C   UNL     1      40.131 137.080  14.319  1.00  0.00     0.358 C 
ATOM      6  C   UNL     1      40.437 135.356  16.032  1.00  0.00     0.105 C 
ATOM      7  C   UNL     1      40.905 136.744  15.600  1.00  0.00     0.068 C 
ATOM      8  C   UNL     1      42.432 136.649  15.406  1.00  0.00     0.014 C 
ATOM      9  C   UNL     1      42.823 135.199  15.670  1.00  0.00     0.046 C 
BRANCH   3  10
ATOM     10  C   UNL     1      38.814 135.748  12.775  1.00  0.00     0.362 C 
BRANCH  10  11
ATOM     11  O   UNL     1      39.309 136.277  11.582  1.00  0.00    -0.460 OA
ATOM     12  H   UNL     1      39.831 137.144  11.564  1.00  0.00     0.300 HD
ENDBRANCH  10  11
BRANCH  10  13
ATOM     13  C   UNL     1      37.466 135.125  12.767  1.00  0.00     0.053 C 
ATOM     14  C   UNL     1      37.207 134.130  11.915  1.00  0.00     0.023 C 
ATOM     15  C   UNL     1      36.398 135.585  13.719  1.00  0.00     0.055 C 
ENDBRANCH  10  13
ENDBRANCH   3  10
ENDBRANCH   1   2
BRANCH   1  16
ATOM     16  C   UNL     1      42.632 132.395  15.796  1.00  0.00     0.128 A 
ATOM     17  C   UNL     1      42.718 132.114  14.403  1.00  0.00     0.047 A 
ATOM     18  C   UNL     1      43.604 131.845  16.672  1.00  0.00     0.034 A 
ATOM     19  C   UNL     1      43.745 131.298  13.891  1.00  0.00     0.008 A 
ATOM     20  C   UNL     1      43.675 132.069  18.074  1.00  0.00     0.049 A 
ATOM     21  C   UNL     1      44.594 131.043  16.104  1.00  0.00    -0.008 A 
ATOM     22  C   UNL     1      44.680 130.768  14.777  1.00  0.00    -0.039 A 
ATOM     23  C   UNL     1      44.729 131.465  18.818  1.00  0.00     0.011 A 
ATOM     24  C   UNL     1      45.602 130.465  16.809  1.00  0.00    -0.039 A 
ATOM     25  C   UNL     1      45.863 129.897  14.496  1.00  0.00     0.041 C 
ATOM     26  C   UNL     1      45.695 130.660  18.185  1.00  0.00     0.005 A 
ATOM     27  C   UNL     1      46.499 129.687  15.899  1.00  0.00     0.041 C 
BRANCH  20  28
ATOM     28  N   UNL     1      42.705 132.906  18.723  1.00  0.00    -0.060 NA
BRANCH  28  29
ATOM     29  N   UNL     1      42.500 132.863  19.936  1.00  0.00     0.005 N 
ATOM     30  N   UNL     1      42.294 132.819  21.149  1.00  0.00    -0.003 NA
ENDBRANCH  28  29
ENDBRANCH  20  28
ENDBRANCH   1  16
TORSDOF 7
ENDMDL
MODEL 2
REMARK VINA RESULT:      -7.4      2.372      7.201
REMARK SMILES C=C(C)/C(O)=[N+]1/C[C@@H]2CC[C@H](Oc3ccc4c5c(ccc(N=[N+]=[N-])c35)CC4)[C@@H]2C1
REMARK SMILES IDX 12 1 11 2 6 3 29 4 7 5 28 6 8 7 9 8 10 9 4 10 5 11 2 13 1 14
REMARK SMILES IDX 3 15 13 16 14 17 25 18 15 19 21 20 17 21 16 22 20 23 18 24
REMARK SMILES IDX 27 25 19 26 26 27 22 28 23 29 24 30
REMARK H PARENT 5 12
ROOT
ATOM      1  O   UNL     1      41.281 132.616  16.611  1.00  0.00    -0.489 OA
ENDROOT
BRANCH   1   2
ATOM      2  C   UNL     1      42.445 132.910  17.385  1.00  0.00     0.183 C 
ATOM      3  N   UNL     1      44.881 130.684  15.895  1.00  0.00    -0.198 N 
ATOM      4  C   UNL     1      43.687 131.477  15.639  1.00  0.00     0.362 C 
ATOM      5  C   UNL     1      45.625 131.159  17.052  1.00  0.00     0.358 C 
ATOM      6  C   UNL     1      43.747 132.667  16.611  1.00  0.00     0.105 C 
ATOM      7  C   UNL     1      44.793 132.296  17.659  1.00  0.00     0.068 C 
ATOM      8  C   UNL     1      44.016 131.898  18.929  1.00  0.00     0.014 C 
ATOM      9  C   UNL     1      42.533 131.987  18.588  1.00  0.00     0.046 C 
BRANCH   3  10
ATOM     10  C   UNL     1      45.297 129.694  15.145  1.00  0.00     0.362 C 
BRANCH  10  11
ATOM     11  O   UNL     1      44.796 128.410  15.363  1.00  0.00    -0.460 OA
ATOM     12  H   UNL     1      43.821 128.253  15.589  1.00  0.00     0.300 HD
ENDBRANCH  10  11
BRANCH  10  13
ATOM     13  C   UNL     1      46.309 129.885  14.076  1.00  0.00     0.053 C 
ATOM     14  C   UNL     1      47.552 129.433  14.258  1.00  0.00     0.023 C 
ATOM     15  C   UNL     1      45.947 130.561  12.783  1.00  0.00     0.055 C 
ENDBRANCH  10  13
ENDBRANCH   3  10
ENDBRANCH   1   2
BRANCH   1  16
ATOM     16  C   UNL     1      40.779 133.415  15.572  1.00  0.00     0.128 A 
ATOM     17  C   UNL     1      41.489 133.570  14.347  1.00  0.00     0.047 A 
ATOM     18  C   UNL     1      39.538 134.084  15.739  1.00  0.00     0.034 A 
ATOM     19  C   UNL     1      40.979 134.376  13.311  1.00  0.00     0.008 A 
ATOM     20  C   UNL     1      38.697 133.993  16.882  1.00  0.00     0.049 A 
ATOM     21  C   UNL     1      39.088 134.870  14.678  1.00  0.00    -0.008 A 
ATOM     22  C   UNL     1      39.762 135.025  13.508  1.00  0.00    -0.039 A 
ATOM     23  C   UNL     1      37.464 134.707  16.890  1.00  0.00     0.011 A 
ATOM     24  C   UNL     1      37.913 135.552  14.680  1.00  0.00    -0.039 A 
ATOM     25  C   UNL     1      39.001 135.914  12.577  1.00  0.00     0.041 C 
ATOM     26  C   UNL     1      37.070 135.490  15.788  1.00  0.00     0.005 A 
ATOM     27  C   UNL     1      37.725 136.279  13.387  1.00  0.00     0.041 C 
BRANCH  20  28
ATOM     28  N   UNL     1      39.082 133.181  18.001  1.00  0.00    -0.060 NA
BRANCH  28  29
ATOM     29  N   UNL     1      39.397 133.661  19.090  1.00  0.00     0.005 N 
ATOM     30  N   UNL     1      39.712 134.143  20.177  1.00  0.00    -0.003 NA
ENDBRANCH  28  29
ENDBRANCH  20  28
ENDBRANCH   1  16
TORSDOF 7
ENDMDL
MODEL 3
REMARK VINA RESULT:      -7.3      2.622      7.326
REMARK SMILES C=C(C)/C(O)=[N+]1/C[C@@H]2CC[C@H](Oc3ccc4c5c(ccc(N=[N+]=[N-])c35)CC4)[C@@H]2C1
REMARK SMILES IDX 12 1 11 2 6 3 29 4 7 5 28 6 8 7 9 8 10 9 4 10 5 11 2 13 1 14
REMARK SMILES IDX 3 15 13 16 14 17 25 18 15 19 21 20 17 21 16 22 20 23 18 24
REMARK SMILES IDX 27 25 19 26 26 27 22 28 23 29 24 30
REMARK H PARENT 5 12
ROOT
ATOM      1  O   UNL     1      43.901 134.374  15.833  1.00  0.00    -0.489 OA
ENDROOT
BRANCH   1   2
ATOM      2  C   UNL     1      44.110 133.698  17.074  1.00  0.00     0.183 C 
ATOM      3  N   UNL     1      45.470 130.536  15.949  1.00  0.00    -0.198 N 
ATOM      4  C   UNL     1      45.370 131.957  15.649  1.00  0.00     0.362 C 
ATOM      5  C   UNL     1      45.263 130.251  17.361  1.00  0.00     0.358 C 
ATOM      6  C   UNL     1      45.251 132.674  17.004  1.00  0.00     0.105 C 
ATOM      7  C   UNL     1      44.900 131.588  18.019  1.00  0.00     0.068 C 
ATOM      8  C   UNL     1      43.398 131.749  18.329  1.00  0.00     0.014 C 
ATOM      9  C   UNL     1      42.884 132.885  17.451  1.00  0.00     0.046 C 
BRANCH   3  10
ATOM     10  C   UNL     1      45.779 129.607  15.078  1.00  0.00     0.362 C 
BRANCH  10  11
ATOM     11  O   UNL     1      45.322 128.303  15.275  1.00  0.00    -0.460 OA
ATOM     12  H   UNL     1      45.728 127.701  15.981  1.00  0.00     0.300 HD
ENDBRANCH  10  11
BRANCH  10  13
ATOM     13  C   UNL     1      46.623 129.888  13.890  1.00  0.00     0.053 C 
ATOM     14  C   UNL     1      46.088 130.506  12.834  1.00  0.00     0.023 C 
ATOM     15  C   UNL     1      48.076 129.506  13.868  1.00  0.00     0.055 C 
ENDBRANCH  10  13
ENDBRANCH   3  10
ENDBRANCH   1   2
BRANCH   1  16
ATOM     16  C   UNL     1      42.673 134.463  15.158  1.00  0.00     0.128 A 
ATOM     17  C   UNL     1      42.109 133.335  14.495  1.00  0.00     0.047 A 
ATOM     18  C   UNL     1      41.974 135.697  15.135  1.00  0.00     0.034 A 
ATOM     19  C   UNL     1      40.879 133.434  13.819  1.00  0.00     0.008 A 
ATOM     20  C   UNL     1      42.385 136.893  15.784  1.00  0.00     0.049 A 
ATOM     21  C   UNL     1      40.761 135.731  14.446  1.00  0.00    -0.008 A 
ATOM     22  C   UNL     1      40.219 134.661  13.808  1.00  0.00    -0.039 A 
ATOM     23  C   UNL     1      41.560 138.050  15.690  1.00  0.00     0.011 A 
ATOM     24  C   UNL     1      39.969 136.832  14.353  1.00  0.00    -0.039 A 
ATOM     25  C   UNL     1      38.910 135.028  13.186  1.00  0.00     0.041 C 
ATOM     26  C   UNL     1      40.348 138.021  14.972  1.00  0.00     0.005 A 
ATOM     27  C   UNL     1      38.738 136.527  13.561  1.00  0.00     0.041 C 
BRANCH  20  28
ATOM     28  N   UNL     1      43.609 136.925  16.535  1.00  0.00    -0.060 NA
BRANCH  28  29
ATOM     29  N   UNL     1      43.662 137.332  17.696  1.00  0.00     0.005 N 
ATOM     30  N   UNL     1      43.715 137.740  18.856  1.00  0.00    -0.003 NA
ENDBRANCH  28  29
ENDBRANCH  20  28
ENDBRANCH   1  16
TORSDOF 7
ENDMDL
MODEL 4
REMARK VINA RESULT:      -7.1      2.850      4.418
REMARK SMILES C=C(C)/C(O)=[N+]1/C[C@@H]2CC[C@H](Oc3ccc4c5c(ccc(N=[N+]=[N-])c35)CC4)[C@@H]2C1
REMARK SMILES IDX 12 1 11 2 6 3 29 4 7 5 28 6 8 7 9 8 10 9 4 10 5 11 2 13 1 14
REMARK SMILES IDX 3 15 13 16 14 17 25 18 15 19 21 20 17 21 16 22 20 23 18 24
REMARK SMILES IDX 27 25 19 26 26 27 22 28 23 29 24 30
REMARK H PARENT 5 12
ROOT
ATOM      1  O   UNL     1      41.959 132.912  17.299  1.00  0.00    -0.489 OA
ENDROOT
BRANCH   1   2
ATOM      2  C   UNL     1      40.893 133.839  17.087  1.00  0.00     0.183 C 
ATOM      3  N   UNL     1      42.568 136.999  17.656  1.00  0.00    -0.198 N 
ATOM      4  C   UNL     1      42.743 135.632  17.185  1.00  0.00     0.362 C 
ATOM      5  C   UNL     1      41.184 137.441  17.575  1.00  0.00     0.358 C 
ATOM      6  C   UNL     1      41.389 135.206  16.595  1.00  0.00     0.105 C 
ATOM      7  C   UNL     1      40.373 136.226  17.104  1.00  0.00     0.068 C 
ATOM      8  C   UNL     1      39.579 135.528  18.226  1.00  0.00     0.014 C 
ATOM      9  C   UNL     1      40.177 134.136  18.393  1.00  0.00     0.046 C 
BRANCH   3  10
ATOM     10  C   UNL     1      43.539 137.786  18.048  1.00  0.00     0.362 C 
BRANCH  10  11
ATOM     11  O   UNL     1      43.806 138.956  17.334  1.00  0.00    -0.460 OA
ATOM     12  H   UNL     1      44.620 139.038  16.738  1.00  0.00     0.300 HD
ENDBRANCH  10  11
BRANCH  10  13
ATOM     13  C   UNL     1      44.390 137.465  19.222  1.00  0.00     0.053 C 
ATOM     14  C   UNL     1      45.706 137.683  19.161  1.00  0.00     0.023 C 
ATOM     15  C   UNL     1      43.785 136.919  20.485  1.00  0.00     0.055 C 
ENDBRANCH  10  13
ENDBRANCH   3  10
ENDBRANCH   1   2
BRANCH   1  16
ATOM     16  C   UNL     1      42.735 132.328  16.285  1.00  0.00     0.128 A 
ATOM     17  C   UNL     1      42.375 132.451  14.913  1.00  0.00     0.047 A 
ATOM     18  C   UNL     1      43.904 131.600  16.629  1.00  0.00     0.034 A 
ATOM     19  C   UNL     1      43.157 131.859  13.903  1.00  0.00     0.008 A 
ATOM     20  C   UNL     1      44.414 131.427  17.945  1.00  0.00     0.049 A 
ATOM     21  C   UNL     1      44.635 131.036  15.583  1.00  0.00    -0.008 A 
ATOM     22  C   UNL     1      44.296 131.146  14.273  1.00  0.00    -0.039 A 
ATOM     23  C   UNL     1      45.618 130.689  18.128  1.00  0.00     0.011 A 
ATOM     24  C   UNL     1      45.785 130.331  15.752  1.00  0.00    -0.039 A 
ATOM     25  C   UNL     1      45.295 130.444  13.409  1.00  0.00     0.041 C 
ATOM     26  C   UNL     1      46.307 130.138  17.029  1.00  0.00     0.005 A 
ATOM     27  C   UNL     1      46.323 129.880  14.431  1.00  0.00     0.041 C 
BRANCH  20  28
ATOM     28  N   UNL     1      43.730 132.004  19.068  1.00  0.00    -0.060 NA
BRANCH  28  29
ATOM     29  N   UNL     1      44.288 132.752  19.870  1.00  0.00     0.005 N 
ATOM     30  N   UNL     1      44.848 133.499  20.671  1.00  0.00    -0.003 NA
ENDBRANCH  28  29
ENDBRANCH  20  28
ENDBRANCH   1  16
TORSDOF 7
ENDMDL
MODEL 5
REMARK VINA RESULT:      -7.1      1.855      3.367
REMARK SMILES C=C(C)/C(O)=[N+]1/C[C@@H]2CC[C@H](Oc3ccc4c5c(ccc(N=[N+]=[N-])c35)CC4)[C@@H]2C1
REMARK SMILES IDX 12 1 11 2 6 3 29 4 7 5 28 6 8 7 9 8 10 9 4 10 5 11 2 13 1 14
REMARK SMILES IDX 3 15 13 16 14 17 25 18 15 19 21 20 17 21 16 22 20 23 18 24
REMARK SMILES IDX 27 25 19 26 26 27 22 28 23 29 24 30
REMARK H PARENT 5 12
ROOT
ATOM      1  O   UNL     1      41.525 133.018  15.699  1.00  0.00    -0.489 OA
ENDROOT
BRANCH   1   2
ATOM      2  C   UNL     1      40.809 133.839  14.775  1.00  0.00     0.183 C 
ATOM      3  N   UNL     1      41.560 137.152  16.027  1.00  0.00    -0.198 N 
ATOM      4  C   UNL     1      42.064 135.793  15.894  1.00  0.00     0.362 C 
ATOM      5  C   UNL     1      40.540 137.466  15.038  1.00  0.00     0.358 C 
ATOM      6  C   UNL     1      41.439 135.228  14.608  1.00  0.00     0.105 C 
ATOM      7  C   UNL     1      40.288 136.169  14.257  1.00  0.00     0.068 C 
ATOM      8  C   UNL     1      38.991 135.438  14.655  1.00  0.00     0.014 C 
ATOM      9  C   UNL     1      39.403 134.111  15.282  1.00  0.00     0.046 C 
BRANCH   3  10
ATOM     10  C   UNL     1      42.006 138.036  16.886  1.00  0.00     0.362 C 
BRANCH  10  11
ATOM     11  O   UNL     1      43.180 138.736  16.605  1.00  0.00    -0.460 OA
ATOM     12  H   UNL     1      43.855 138.952  17.329  1.00  0.00     0.300 HD
ENDBRANCH  10  11
BRANCH  10  13
ATOM     13  C   UNL     1      41.313 138.306  18.171  1.00  0.00     0.053 C 
ATOM     14  C   UNL     1      40.489 137.387  18.680  1.00  0.00     0.023 C 
ATOM     15  C   UNL     1      41.544 139.591  18.916  1.00  0.00     0.055 C 
ENDBRANCH  10  13
ENDBRANCH   3  10
ENDBRANCH   1   2
BRANCH   1  16
ATOM     16  C   UNL     1      42.640 132.227  15.380  1.00  0.00     0.128 A 
ATOM     17  C   UNL     1      42.907 131.829  14.039  1.00  0.00     0.047 A 
ATOM     18  C   UNL     1      43.525 131.815  16.411  1.00  0.00     0.034 A 
ATOM     19  C   UNL     1      44.026 131.033  13.729  1.00  0.00     0.008 A 
ATOM     20  C   UNL     1      43.416 132.166  17.784  1.00  0.00     0.049 A 
ATOM     21  C   UNL     1      44.614 131.025  16.040  1.00  0.00    -0.008 A 
ATOM     22  C   UNL     1      44.872 130.639  14.763  1.00  0.00    -0.039 A 
ATOM     23  C   UNL     1      44.400 131.693  18.699  1.00  0.00     0.011 A 
ATOM     24  C   UNL     1      45.555 130.571  16.908  1.00  0.00    -0.039 A 
ATOM     25  C   UNL     1      46.121 129.818  14.705  1.00  0.00     0.041 C 
ATOM     26  C   UNL     1      45.473 130.892  18.261  1.00  0.00     0.005 A 
ATOM     27  C   UNL     1      46.592 129.770  16.186  1.00  0.00     0.041 C 
BRANCH  20  28
ATOM     28  N   UNL     1      42.336 132.998  18.235  1.00  0.00    -0.060 NA
BRANCH  28  29
ATOM     29  N   UNL     1      42.089 133.174  19.428  1.00  0.00     0.005 N 
ATOM     30  N   UNL     1      41.845 133.349  20.621  1.00  0.00    -0.003 NA
ENDBRANCH  28  29
ENDBRANCH  20  28
ENDBRANCH   1  16
TORSDOF 7
ENDMDL
MODEL 6
REMARK VINA RESULT:      -7.1      1.541      2.350
REMARK SMILES C=C(C)/C(O)=[N+]1/C[C@@H]2CC[C@H](Oc3ccc4c5c(ccc(N=[N+]=[N-])c35)CC4)[C@@H]2C1
REMARK SMILES IDX 12 1 11 2 6 3 29 4 7 5 28 6 8 7 9 8 10 9 4 10 5 11 2 13 1 14
REMARK SMILES IDX 3 15 13 16 14 17 25 18 15 19 21 20 17 21 16 22 20 23 18 24
REMARK SMILES IDX 27 25 19 26 26 27 22 28 23 29 24 30
REMARK H PARENT 5 12
ROOT
ATOM      1  O   UNL     1      41.366 133.820  15.532  1.00  0.00    -0.489 OA
ENDROOT
BRANCH   1   2
ATOM      2  C   UNL     1      39.959 133.573  15.548  1.00  0.00     0.183 C 
ATOM      3  N   UNL     1      38.800 135.850  12.983  1.00  0.00    -0.198 N 
ATOM      4  C   UNL     1      39.914 135.018  13.414  1.00  0.00     0.362 C 
ATOM      5  C   UNL     1      37.531 135.416  13.548  1.00  0.00     0.358 C 
ATOM      6  C   UNL     1      39.296 133.844  14.192  1.00  0.00     0.105 C 
ATOM      7  C   UNL     1      37.861 134.263  14.505  1.00  0.00     0.068 C 
ATOM      8  C   UNL     1      37.837 134.656  15.995  1.00  0.00     0.014 C 
ATOM      9  C   UNL     1      39.263 134.516  16.514  1.00  0.00     0.046 C 
BRANCH   3  10
ATOM     10  C   UNL     1      38.892 136.842  12.131  1.00  0.00     0.362 C 
BRANCH  10  11
ATOM     11  O   UNL     1      39.162 136.571  10.789  1.00  0.00    -0.460 OA
ATOM     12  H   UNL     1      38.906 135.687  10.366  1.00  0.00     0.300 HD
ENDBRANCH  10  11
BRANCH  10  13
ATOM     13  C   UNL     1      38.740 138.258  12.550  1.00  0.00     0.053 C 
ATOM     14  C   UNL     1      38.102 139.116  11.749  1.00  0.00     0.023 C 
ATOM     15  C   UNL     1      39.276 138.734  13.871  1.00  0.00     0.055 C 
ENDBRANCH  10  13
ENDBRANCH   3  10
ENDBRANCH   1   2
BRANCH   1  16
ATOM     16  C   UNL     1      42.355 132.845  15.326  1.00  0.00     0.128 A 
ATOM     17  C   UNL     1      42.533 132.229  14.054  1.00  0.00     0.047 A 
ATOM     18  C   UNL     1      43.198 132.463  16.401  1.00  0.00     0.034 A 
ATOM     19  C   UNL     1      43.525 131.249  13.857  1.00  0.00     0.008 A 
ATOM     20  C   UNL     1      43.170 133.016  17.711  1.00  0.00     0.049 A 
ATOM     21  C   UNL     1      44.160 131.486  16.143  1.00  0.00    -0.008 A 
ATOM     22  C   UNL     1      44.333 130.891  14.934  1.00  0.00    -0.039 A 
ATOM     23  C   UNL     1      44.101 132.544  18.680  1.00  0.00     0.011 A 
ATOM     24  C   UNL     1      45.050 131.032  17.064  1.00  0.00    -0.039 A 
ATOM     25  C   UNL     1      45.455 129.904  14.990  1.00  0.00     0.041 C 
ATOM     26  C   UNL     1      45.044 131.549  18.358  1.00  0.00     0.005 A 
ATOM     27  C   UNL     1      45.950 130.001  16.460  1.00  0.00     0.041 C 
BRANCH  20  28
ATOM     28  N   UNL     1      42.226 134.045  18.042  1.00  0.00    -0.060 NA
BRANCH  28  29
ATOM     29  N   UNL     1      42.216 134.608  19.136  1.00  0.00     0.005 N 
ATOM     30  N   UNL     1      42.207 135.173  20.230  1.00  0.00    -0.003 NA
ENDBRANCH  28  29
ENDBRANCH  20  28
ENDBRANCH   1  16
TORSDOF 7
ENDMDL
MODEL 7
REMARK VINA RESULT:      -7.1      1.768      2.116
REMARK SMILES C=C(C)/C(O)=[N+]1/C[C@@H]2CC[C@H](Oc3ccc4c5c(ccc(N=[N+]=[N-])c35)CC4)[C@@H]2C1
REMARK SMILES IDX 12 1 11 2 6 3 29 4 7 5 28 6 8 7 9 8 10 9 4 10 5 11 2 13 1 14
REMARK SMILES IDX 3 15 13 16 14 17 25 18 15 19 21 20 17 21 16 22 20 23 18 24
REMARK SMILES IDX 27 25 19 26 26 27 22 28 23 29 24 30
REMARK H PARENT 5 12
ROOT
ATOM      1  O   UNL     1      42.395 133.716  17.961  1.00  0.00    -0.489 OA
ENDROOT
BRANCH   1   2
ATOM      2  C   UNL     1      42.554 135.128  18.119  1.00  0.00     0.183 C 
ATOM      3  N   UNL     1      39.661 136.379  16.335  1.00  0.00    -0.198 N 
ATOM      4  C   UNL     1      40.178 135.272  17.128  1.00  0.00     0.362 C 
ATOM      5  C   UNL     1      40.385 137.619  16.575  1.00  0.00     0.358 C 
ATOM      6  C   UNL     1      41.216 135.880  18.086  1.00  0.00     0.105 C 
ATOM      7  C   UNL     1      41.531 137.267  17.531  1.00  0.00     0.068 C 
ATOM      8  C   UNL     1      42.909 137.161  16.848  1.00  0.00     0.014 C 
ATOM      9  C   UNL     1      43.351 135.707  16.963  1.00  0.00     0.046 C 
BRANCH   3  10
ATOM     10  C   UNL     1      38.622 136.309  15.540  1.00  0.00     0.362 C 
BRANCH  10  11
ATOM     11  O   UNL     1      37.564 137.203  15.714  1.00  0.00    -0.460 OA
ATOM     12  H   UNL     1      37.173 137.718  14.935  1.00  0.00     0.300 HD
ENDBRANCH  10  11
BRANCH  10  13
ATOM     13  C   UNL     1      38.517 135.290  14.465  1.00  0.00     0.053 C 
ATOM     14  C   UNL     1      37.396 134.577  14.342  1.00  0.00     0.023 C 
ATOM     15  C   UNL     1      39.649 135.067  13.502  1.00  0.00     0.055 C 
ENDBRANCH  10  13
ENDBRANCH   3  10
ENDBRANCH   1   2
BRANCH   1  16
ATOM     16  C   UNL     1      42.869 132.967  16.872  1.00  0.00     0.128 A 
ATOM     17  C   UNL     1      42.325 133.135  15.566  1.00  0.00     0.047 A 
ATOM     18  C   UNL     1      43.911 132.025  17.070  1.00  0.00     0.034 A 
ATOM     19  C   UNL     1      42.804 132.377  14.480  1.00  0.00     0.008 A 
ATOM     20  C   UNL     1      44.580 131.778  18.300  1.00  0.00     0.049 A 
ATOM     21  C   UNL     1      44.340 131.304  15.955  1.00  0.00    -0.008 A 
ATOM     22  C   UNL     1      43.823 131.455  14.708  1.00  0.00    -0.039 A 
ATOM     23  C   UNL     1      45.629 130.814  18.334  1.00  0.00     0.011 A 
ATOM     24  C   UNL     1      45.339 130.384  15.982  1.00  0.00    -0.039 A 
ATOM     25  C   UNL     1      44.514 130.548  13.739  1.00  0.00     0.041 C 
ATOM     26  C   UNL     1      46.010 130.114  17.173  1.00  0.00     0.005 A 
ATOM     27  C   UNL     1      45.560 129.808  14.620  1.00  0.00     0.041 C 
BRANCH  20  28
ATOM     28  N   UNL     1      44.211 132.503  19.483  1.00  0.00    -0.060 NA
BRANCH  28  29
ATOM     29  N   UNL     1      45.036 132.862  20.323  1.00  0.00     0.005 N 
ATOM     30  N   UNL     1      45.862 133.220  21.162  1.00  0.00    -0.003 NA
ENDBRANCH  28  29
ENDBRANCH  20  28
ENDBRANCH   1  16
TORSDOF 7
ENDMDL
MODEL 8
REMARK VINA RESULT:      -7.1      2.463      6.998
REMARK SMILES C=C(C)/C(O)=[N+]1/C[C@@H]2CC[C@H](Oc3ccc4c5c(ccc(N=[N+]=[N-])c35)CC4)[C@@H]2C1
REMARK SMILES IDX 12 1 11 2 6 3 29 4 7 5 28 6 8 7 9 8 10 9 4 10 5 11 2 13 1 14
REMARK SMILES IDX 3 15 13 16 14 17 25 18 15 19 21 20 17 21 16 22 20 23 18 24
REMARK SMILES IDX 27 25 19 26 26 27 22 28 23 29 24 30
REMARK H PARENT 5 12
ROOT
ATOM      1  O   UNL     1      42.885 134.722  16.569  1.00  0.00    -0.489 OA
ENDROOT
BRANCH   1   2
ATOM      2  C   UNL     1      43.214 133.994  17.755  1.00  0.00     0.183 C 
ATOM      3  N   UNL     1      45.455 131.469  16.448  1.00  0.00    -0.198 N 
ATOM      4  C   UNL     1      44.977 132.833  16.275  1.00  0.00     0.362 C 
ATOM      5  C   UNL     1      45.268 130.982  17.806  1.00  0.00     0.358 C 
ATOM      6  C   UNL     1      44.597 133.334  17.678  1.00  0.00     0.105 C 
ATOM      7  C   UNL     1      44.514 132.088  18.556  1.00  0.00     0.068 C 
ATOM      8  C   UNL     1      43.014 131.798  18.762  1.00  0.00     0.014 C 
ATOM      9  C   UNL     1      42.246 132.841  17.957  1.00  0.00     0.046 C 
BRANCH   3  10
ATOM     10  C   UNL     1      46.053 130.762  15.520  1.00  0.00     0.362 C 
BRANCH  10  11
ATOM     11  O   UNL     1      47.189 130.020  15.848  1.00  0.00    -0.460 OA
ATOM     12  H   UNL     1      47.868 130.360  16.517  1.00  0.00     0.300 HD
ENDBRANCH  10  11
BRANCH  10  13
ATOM     13  C   UNL     1      45.575 130.739  14.115  1.00  0.00     0.053 C 
ATOM     14  C   UNL     1      46.462 130.700  13.118  1.00  0.00     0.023 C 
ATOM     15  C   UNL     1      44.105 130.737  13.801  1.00  0.00     0.055 C 
ENDBRANCH  10  13
ENDBRANCH   3  10
ENDBRANCH   1   2
BRANCH   1  16
ATOM     16  C   UNL     1      41.748 134.502  15.776  1.00  0.00     0.128 A 
ATOM     17  C   UNL     1      41.765 133.569  14.699  1.00  0.00     0.047 A 
ATOM     18  C   UNL     1      40.553 135.218  16.049  1.00  0.00     0.034 A 
ATOM     19  C   UNL     1      40.621 133.357  13.906  1.00  0.00     0.008 A 
ATOM     20  C   UNL     1      40.369 136.145  17.111  1.00  0.00     0.049 A 
ATOM     21  C   UNL     1      39.455 134.965  15.226  1.00  0.00    -0.008 A 
ATOM     22  C   UNL     1      39.466 134.080  14.195  1.00  0.00    -0.039 A 
ATOM     23  C   UNL     1      39.098 136.767  17.272  1.00  0.00     0.011 A 
ATOM     24  C   UNL     1      38.241 135.556  15.375  1.00  0.00    -0.039 A 
ATOM     25  C   UNL     1      38.128 134.034  13.528  1.00  0.00     0.041 C 
ATOM     26  C   UNL     1      38.030 136.474  16.402  1.00  0.00     0.005 A 
ATOM     27  C   UNL     1      37.282 135.053  14.342  1.00  0.00     0.041 C 
BRANCH  20  28
ATOM     28  N   UNL     1      41.447 136.434  18.014  1.00  0.00    -0.060 NA
BRANCH  28  29
ATOM     29  N   UNL     1      41.381 137.327  18.859  1.00  0.00     0.005 N 
ATOM     30  N   UNL     1      41.315 138.222  19.701  1.00  0.00    -0.003 NA
ENDBRANCH  28  29
ENDBRANCH  20  28
ENDBRANCH   1  16
TORSDOF 7
ENDMDL
MODEL 9
REMARK VINA RESULT:      -7.0      3.208      5.152
REMARK SMILES C=C(C)/C(O)=[N+]1/C[C@@H]2CC[C@H](Oc3ccc4c5c(ccc(N=[N+]=[N-])c35)CC4)[C@@H]2C1
REMARK SMILES IDX 12 1 11 2 6 3 29 4 7 5 28 6 8 7 9 8 10 9 4 10 5 11 2 13 1 14
REMARK SMILES IDX 3 15 13 16 14 17 25 18 15 19 21 20 17 21 16 22 20 23 18 24
REMARK SMILES IDX 27 25 19 26 26 27 22 28 23 29 24 30
REMARK H PARENT 5 12
ROOT
ATOM      1  O   UNL     1      41.919 133.067  17.532  1.00  0.00    -0.489 OA
ENDROOT
BRANCH   1   2
ATOM      2  C   UNL     1      41.205 134.301  17.423  1.00  0.00     0.183 C 
ATOM      3  N   UNL     1      43.378 136.551  19.247  1.00  0.00    -0.198 N 
ATOM      4  C   UNL     1      43.338 135.355  18.417  1.00  0.00     0.362 C 
ATOM      5  C   UNL     1      42.215 137.403  19.051  1.00  0.00     0.358 C 
ATOM      6  C   UNL     1      42.129 135.525  17.482  1.00  0.00     0.105 C 
ATOM      7  C   UNL     1      41.291 136.651  18.083  1.00  0.00     0.068 C 
ATOM      8  C   UNL     1      40.082 135.979  18.763  1.00  0.00     0.014 C 
ATOM      9  C   UNL     1      40.259 134.474  18.598  1.00  0.00     0.046 C 
BRANCH   3  10
ATOM     10  C   UNL     1      44.369 136.880  20.039  1.00  0.00     0.362 C 
BRANCH  10  11
ATOM     11  O   UNL     1      44.662 136.076  21.142  1.00  0.00    -0.460 OA
ATOM     12  H   UNL     1      43.940 135.554  21.623  1.00  0.00     0.300 HD
ENDBRANCH  10  11
BRANCH  10  13
ATOM     13  C   UNL     1      45.187 138.099  19.815  1.00  0.00     0.053 C 
ATOM     14  C   UNL     1      46.054 138.132  18.801  1.00  0.00     0.023 C 
ATOM     15  C   UNL     1      45.034 139.302  20.703  1.00  0.00     0.055 C 
ENDBRANCH  10  13
ENDBRANCH   3  10
ENDBRANCH   1   2
BRANCH   1  16
ATOM     16  C   UNL     1      42.673 132.478  16.506  1.00  0.00     0.128 A 
ATOM     17  C   UNL     1      42.314 132.638  15.137  1.00  0.00     0.047 A 
ATOM     18  C   UNL     1      43.819 131.707  16.832  1.00  0.00     0.034 A 
ATOM     19  C   UNL     1      43.074 132.040  14.114  1.00  0.00     0.008 A 
ATOM     20  C   UNL     1      44.327 131.494  18.143  1.00  0.00     0.049 A 
ATOM     21  C   UNL     1      44.529 131.139  15.774  1.00  0.00    -0.008 A 
ATOM     22  C   UNL     1      44.190 131.284  14.467  1.00  0.00    -0.039 A 
ATOM     23  C   UNL     1      45.507 130.714  18.308  1.00  0.00     0.011 A 
ATOM     24  C   UNL     1      45.656 130.395  15.926  1.00  0.00    -0.039 A 
ATOM     25  C   UNL     1      45.165 130.567  13.588  1.00  0.00     0.041 C 
ATOM     26  C   UNL     1      46.175 130.161  17.198  1.00  0.00     0.005 A 
ATOM     27  C   UNL     1      46.176 129.951  14.596  1.00  0.00     0.041 C 
BRANCH  20  28
ATOM     28  N   UNL     1      43.664 132.071  19.278  1.00  0.00    -0.060 NA
BRANCH  28  29
ATOM     29  N   UNL     1      44.278 132.604  20.202  1.00  0.00     0.005 N 
ATOM     30  N   UNL     1      44.893 133.139  21.124  1.00  0.00    -0.003 NA
ENDBRANCH  28  29
ENDBRANCH  20  28
ENDBRANCH   1  16
TORSDOF 7
ENDMDL


