REMARK SMILES C#C[C@@](O)(c1cc(N=[N+]=[N-])cc(SC(C)(C)C[NH2+]C[C@](C)(O)C=C)ccc2cc1CC2)C(C)(C)C
REMARK SMILES IDX 14 1 15 2 16 3 13 4 12 5 5 6 6 7 29 8 7 9 28 10 30 11 11 12
REMARK SMILES IDX 27 13 31 14 26 15 25 16 3 17 2 18 1 19 4 20 32 22 33 23
REMARK SMILES IDX 34 24 35 25 8 26 9 27 10 28 17 29 18 30 19 33 20 34 21 35
REMARK SMILES IDX 22 36 23 38 24 39
REMARK H PARENT 4 21 18 31 18 32 22 37
ROOT
ATOM      1  C   UNL     1      -2.097   0.269   3.090  1.00  0.00     0.064 C 
ATOM      2  C   UNL     1      -2.467   1.071   1.826  1.00  0.00     0.029 C 
ATOM      3  C   UNL     1      -3.088  -0.894   3.303  1.00  0.00     0.029 C 
ENDROOT
BRANCH   1   4
ATOM      4  S   UNL     1      -0.379  -0.409   2.931  1.00  0.00    -0.114 SA
BRANCH   4   5
ATOM      5  C   UNL     1      -0.525  -1.385   1.417  1.00  0.00     0.008 A 
ATOM      6  C   UNL     1       1.250  -1.883  -2.674  1.00  0.00    -0.000 A 
ATOM      7  C   UNL     1       0.524  -0.836  -2.043  1.00  0.00     0.018 A 
ATOM      8  C   UNL     1       1.308  -3.152  -2.043  1.00  0.00    -0.040 A 
ATOM      9  C   UNL     1      -0.475  -1.098  -1.093  1.00  0.00     0.039 A 
ATOM     10  C   UNL     1       1.264  -3.232  -0.662  1.00  0.00     0.007 A 
ATOM     11  C   UNL     1       0.617  -4.349  -2.628  1.00  0.00     0.041 C 
ATOM     12  C   UNL     1      -0.232  -0.686   0.224  1.00  0.00     0.025 A 
ATOM     13  C   UNL     1       0.255  -4.080  -0.299  1.00  0.00    -0.047 A 
ATOM     14  C   UNL     1      -0.075  -5.001  -1.425  1.00  0.00     0.040 C 
ATOM     15  C   UNL     1      -0.596  -3.910   0.800  1.00  0.00     0.005 A 
ATOM     16  C   UNL     1      -0.785  -2.771   1.615  1.00  0.00     0.015 A 
BRANCH   6  17
ATOM     17  C   UNL     1       2.113  -1.574  -3.912  1.00  0.00     0.155 C 
BRANCH  17  18
ATOM     18  C   UNL     1       2.037  -2.706  -4.871  1.00  0.00    -0.066 C 
ATOM     19  C   UNL     1       1.978  -3.617  -5.659  1.00  0.00     0.007 C 
ENDBRANCH  17  18
BRANCH  17  20
ATOM     20  O   UNL     1       1.595  -0.436  -4.570  1.00  0.00    -0.373 OA
ATOM     21  H   UNL     1       0.652  -0.622  -4.828  1.00  0.00     0.213 HD
ENDBRANCH  17  20
BRANCH  17  22
ATOM     22  C   UNL     1       3.625  -1.281  -3.534  1.00  0.00     0.006 C 
ATOM     23  C   UNL     1       3.725  -0.097  -2.543  1.00  0.00     0.015 C 
ATOM     24  C   UNL     1       4.429  -0.896  -4.803  1.00  0.00     0.015 C 
ATOM     25  C   UNL     1       4.321  -2.506  -2.887  1.00  0.00     0.015 C 
ENDBRANCH  17  22
ENDBRANCH   6  17
BRANCH   9  26
ATOM     26  N   UNL     1      -1.529  -2.008  -1.437  1.00  0.00    -0.061 NA
BRANCH  26  27
ATOM     27  N   UNL     1      -2.590  -2.053  -0.812  1.00  0.00     0.005 N 
ATOM     28  N   UNL     1      -3.653  -2.100  -0.196  1.00  0.00    -0.003 NA
ENDBRANCH  26  27
ENDBRANCH   9  26
ENDBRANCH   4   5
ENDBRANCH   1   4
BRANCH   1  29
ATOM     29  C   UNL     1      -2.063   1.195   4.345  1.00  0.00     0.278 C 
BRANCH  29  30
ATOM     30  N   UNL     1      -3.312   1.956   4.604  1.00  0.00    -0.342 N 
ATOM     31  H   UNL     1      -4.124   1.541   4.097  1.00  0.00     0.346 HD
ATOM     32  H   UNL     1      -3.551   1.869   5.619  1.00  0.00     0.346 HD
BRANCH  30  33
ATOM     33  C   UNL     1      -3.212   3.385   4.225  1.00  0.00     0.300 C 
BRANCH  33  34
ATOM     34  C   UNL     1      -2.735   4.299   5.390  1.00  0.00     0.128 C 
ATOM     35  C   UNL     1      -2.519   5.731   4.858  1.00  0.00     0.053 C 
BRANCH  34  36
ATOM     36  O   UNL     1      -1.508   3.805   5.872  1.00  0.00    -0.380 OA
ATOM     37  H   UNL     1      -1.195   4.406   6.599  1.00  0.00     0.212 HD
ENDBRANCH  34  36
BRANCH  34  38
ATOM     38  C   UNL     1      -3.753   4.311   6.524  1.00  0.00     0.005 C 
ATOM     39  C   UNL     1      -5.009   4.752   6.380  1.00  0.00     0.007 C 
ENDBRANCH  34  38
ENDBRANCH  33  34
ENDBRANCH  30  33
ENDBRANCH  29  30
ENDBRANCH   1  29
TORSDOF 14


