MODEL 1
REMARK VINA RESULT:      -7.7      0.000      0.000
REMARK SMILES COC[C@@H](C)[NH2+]Cc1c(C)n[nH+]n1-c1cc2ccccc2c2ccccc12
REMARK SMILES IDX 4 1 5 2 3 3 2 4 1 5 6 6 7 9 8 10 9 11 13 12 11 13 12 14
REMARK SMILES IDX 10 15 14 17 15 18 27 19 16 20 26 21 22 22 17 23 21 24 25 25
REMARK SMILES IDX 23 26 18 27 20 28 24 29 19 30
REMARK H PARENT 6 7 6 8 12 16
ROOT
ATOM      1  C   UNL     1      44.523 136.813  17.817  1.00  0.00     0.205 C 
ATOM      2  C   UNL     1      44.983 136.892  19.285  1.00  0.00     0.078 C 
ENDROOT
BRANCH   1   3
ATOM      3  C   UNL     1      43.344 137.776  17.578  1.00  0.00     0.224 C 
BRANCH   3   4
ATOM      4  O   UNL     1      42.864 138.271  18.811  1.00  0.00    -0.379 OA
ATOM      5  C   UNL     1      42.488 139.621  18.660  1.00  0.00     0.195 C 
ENDBRANCH   3   4
ENDBRANCH   1   3
BRANCH   1   6
ATOM      6  N   UNL     1      44.150 135.432  17.430  1.00  0.00    -0.337 N 
ATOM      7  H   UNL     1      43.374 135.107  18.052  1.00  0.00     0.346 HD
ATOM      8  H   UNL     1      44.965 134.789  17.563  1.00  0.00     0.346 HD
BRANCH   6   9
ATOM      9  C   UNL     1      43.685 135.349  16.034  1.00  0.00     0.324 C 
BRANCH   9  10
ATOM     10  C   UNL     1      42.467 134.469  15.939  1.00  0.00     0.166 A 
ATOM     11  C   UNL     1      41.157 134.866  15.741  1.00  0.00     0.138 A 
ATOM     12  N   UNL     1      42.477 133.125  15.824  1.00  0.00    -0.095 N 
ATOM     13  N   UNL     1      40.410 133.766  15.506  1.00  0.00     0.020 NA
ATOM     14  N   UNL     1      41.240 132.735  15.564  1.00  0.00    -0.012 N 
ATOM     15  C   UNL     1      40.640 136.265  15.667  1.00  0.00     0.076 C 
ATOM     16  H   UNL     1      40.953 131.745  15.396  1.00  0.00     0.527 HD
BRANCH  12  17
ATOM     17  C   UNL     1      43.621 132.260  15.810  1.00  0.00     0.116 A 
ATOM     18  C   UNL     1      44.160 131.894  14.579  1.00  0.00     0.042 A 
ATOM     19  C   UNL     1      44.213 131.799  17.006  1.00  0.00     0.012 A 
ATOM     20  C   UNL     1      45.307 131.102  14.502  1.00  0.00    -0.015 A 
ATOM     21  C   UNL     1      43.640 132.123  18.252  1.00  0.00     0.011 A 
ATOM     22  C   UNL     1      45.387 130.989  16.956  1.00  0.00    -0.008 A 
ATOM     23  C   UNL     1      45.828 130.774  13.239  1.00  0.00     0.009 A 
ATOM     24  C   UNL     1      45.944 130.641  15.686  1.00  0.00    -0.010 A 
ATOM     25  C   UNL     1      44.219 131.681  19.438  1.00  0.00     0.001 A 
ATOM     26  C   UNL     1      45.951 130.557  18.183  1.00  0.00     0.009 A 
ATOM     27  C   UNL     1      46.977 129.994  13.131  1.00  0.00     0.001 A 
ATOM     28  C   UNL     1      47.112 129.850  15.543  1.00  0.00     0.009 A 
ATOM     29  C   UNL     1      45.372 130.905  19.403  1.00  0.00     0.001 A 
ATOM     30  C   UNL     1      47.616 129.534  14.279  1.00  0.00     0.001 A 
ENDBRANCH  12  17
ENDBRANCH   9  10
ENDBRANCH   6   9
ENDBRANCH   1   6
TORSDOF 6
ENDMDL
MODEL 2
REMARK VINA RESULT:      -7.5      1.914      2.455
REMARK SMILES COC[C@@H](C)[NH2+]Cc1c(C)n[nH+]n1-c1cc2ccccc2c2ccccc12
REMARK SMILES IDX 4 1 5 2 3 3 2 4 1 5 6 6 7 9 8 10 9 11 13 12 11 13 12 14
REMARK SMILES IDX 10 15 14 17 15 18 27 19 16 20 26 21 22 22 17 23 21 24 25 25
REMARK SMILES IDX 23 26 18 27 20 28 24 29 19 30
REMARK H PARENT 6 7 6 8 12 16
ROOT
ATOM      1  C   UNL     1      42.466 137.181  15.307  1.00  0.00     0.205 C 
ATOM      2  C   UNL     1      42.719 137.923  16.632  1.00  0.00     0.078 C 
ENDROOT
BRANCH   1   3
ATOM      3  C   UNL     1      41.137 137.651  14.682  1.00  0.00     0.224 C 
BRANCH   3   4
ATOM      4  O   UNL     1      40.493 136.569  14.040  1.00  0.00    -0.379 OA
ATOM      5  C   UNL     1      39.098 136.769  14.070  1.00  0.00     0.195 C 
ENDBRANCH   3   4
ENDBRANCH   1   3
BRANCH   1   6
ATOM      6  N   UNL     1      42.459 135.711  15.491  1.00  0.00    -0.337 N 
ATOM      7  H   UNL     1      43.177 135.290  14.856  1.00  0.00     0.346 HD
ATOM      8  H   UNL     1      41.524 135.319  15.230  1.00  0.00     0.346 HD
BRANCH   6   9
ATOM      9  C   UNL     1      42.784 135.318  16.873  1.00  0.00     0.324 C 
BRANCH   9  10
ATOM     10  C   UNL     1      41.749 134.363  17.405  1.00  0.00     0.166 A 
ATOM     11  C   UNL     1      40.423 134.634  17.693  1.00  0.00     0.138 A 
ATOM     12  N   UNL     1      41.890 133.025  17.496  1.00  0.00    -0.095 N 
ATOM     13  N   UNL     1      39.795 133.466  17.942  1.00  0.00     0.020 NA
ATOM     14  N   UNL     1      40.711 132.518  17.815  1.00  0.00    -0.012 N 
ATOM     15  C   UNL     1      39.739 135.960  17.626  1.00  0.00     0.076 C 
ATOM     16  H   UNL     1      40.514 131.498  17.925  1.00  0.00     0.527 HD
BRANCH  12  17
ATOM     17  C   UNL     1      43.044 132.244  17.153  1.00  0.00     0.116 A 
ATOM     18  C   UNL     1      43.264 131.943  15.811  1.00  0.00     0.042 A 
ATOM     19  C   UNL     1      43.955 131.803  18.135  1.00  0.00     0.012 A 
ATOM     20  C   UNL     1      44.400 131.238  15.409  1.00  0.00    -0.015 A 
ATOM     21  C   UNL     1      43.709 132.059  19.499  1.00  0.00     0.011 A 
ATOM     22  C   UNL     1      45.125 131.080  17.752  1.00  0.00    -0.008 A 
ATOM     23  C   UNL     1      44.593 130.974  14.042  1.00  0.00     0.009 A 
ATOM     24  C   UNL     1      45.353 130.800  16.368  1.00  0.00    -0.010 A 
ATOM     25  C   UNL     1      44.605 131.636  20.477  1.00  0.00     0.001 A 
ATOM     26  C   UNL     1      46.017 130.665  18.773  1.00  0.00     0.009 A 
ATOM     27  C   UNL     1      45.721 130.280  13.610  1.00  0.00     0.001 A 
ATOM     28  C   UNL     1      46.491 130.098  15.897  1.00  0.00     0.009 A 
ATOM     29  C   UNL     1      45.756 130.946  20.114  1.00  0.00     0.001 A 
ATOM     30  C   UNL     1      46.666 129.844  14.535  1.00  0.00     0.001 A 
ENDBRANCH  12  17
ENDBRANCH   9  10
ENDBRANCH   6   9
ENDBRANCH   1   6
TORSDOF 6
ENDMDL
MODEL 3
REMARK VINA RESULT:      -7.5      1.279      1.544
REMARK SMILES COC[C@@H](C)[NH2+]Cc1c(C)n[nH+]n1-c1cc2ccccc2c2ccccc12
REMARK SMILES IDX 4 1 5 2 3 3 2 4 1 5 6 6 7 9 8 10 9 11 13 12 11 13 12 14
REMARK SMILES IDX 10 15 14 17 15 18 27 19 16 20 26 21 22 22 17 23 21 24 25 25
REMARK SMILES IDX 23 26 18 27 20 28 24 29 19 30
REMARK H PARENT 6 7 6 8 12 16
ROOT
ATOM      1  C   UNL     1      43.499 135.356  18.621  1.00  0.00     0.205 C 
ATOM      2  C   UNL     1      42.117 135.483  19.288  1.00  0.00     0.078 C 
ENDROOT
BRANCH   1   3
ATOM      3  C   UNL     1      44.605 135.778  19.609  1.00  0.00     0.224 C 
BRANCH   3   4
ATOM      4  O   UNL     1      44.155 135.618  20.938  1.00  0.00    -0.379 OA
ATOM      5  C   UNL     1      44.963 136.384  21.802  1.00  0.00     0.195 C 
ENDBRANCH   3   4
ENDBRANCH   1   3
BRANCH   1   6
ATOM      6  N   UNL     1      43.585 136.155  17.377  1.00  0.00    -0.337 N 
ATOM      7  H   UNL     1      44.419 136.785  17.439  1.00  0.00     0.346 HD
ATOM      8  H   UNL     1      42.733 136.754  17.273  1.00  0.00     0.346 HD
BRANCH   6   9
ATOM      9  C   UNL     1      43.737 135.311  16.179  1.00  0.00     0.324 C 
BRANCH   9  10
ATOM     10  C   UNL     1      42.521 134.444  15.989  1.00  0.00     0.166 A 
ATOM     11  C   UNL     1      41.220 134.859  15.766  1.00  0.00     0.138 A 
ATOM     12  N   UNL     1      42.531 133.109  15.801  1.00  0.00    -0.095 N 
ATOM     13  N   UNL     1      40.479 133.777  15.442  1.00  0.00     0.020 NA
ATOM     14  N   UNL     1      41.303 132.740  15.474  1.00  0.00    -0.012 N 
ATOM     15  C   UNL     1      40.710 136.262  15.751  1.00  0.00     0.076 C 
ATOM     16  H   UNL     1      41.020 131.763  15.241  1.00  0.00     0.527 HD
BRANCH  12  17
ATOM     17  C   UNL     1      43.672 132.239  15.781  1.00  0.00     0.116 A 
ATOM     18  C   UNL     1      44.209 131.880  14.547  1.00  0.00     0.042 A 
ATOM     19  C   UNL     1      44.262 131.769  16.973  1.00  0.00     0.012 A 
ATOM     20  C   UNL     1      45.354 131.085  14.464  1.00  0.00    -0.015 A 
ATOM     21  C   UNL     1      43.691 132.086  18.222  1.00  0.00     0.011 A 
ATOM     22  C   UNL     1      45.433 130.955  16.918  1.00  0.00    -0.008 A 
ATOM     23  C   UNL     1      45.874 130.763  13.199  1.00  0.00     0.009 A 
ATOM     24  C   UNL     1      45.990 130.614  15.645  1.00  0.00    -0.010 A 
ATOM     25  C   UNL     1      44.269 131.635  19.405  1.00  0.00     0.001 A 
ATOM     26  C   UNL     1      45.997 130.514  18.142  1.00  0.00     0.009 A 
ATOM     27  C   UNL     1      47.019 129.980  13.086  1.00  0.00     0.001 A 
ATOM     28  C   UNL     1      47.155 129.820  15.497  1.00  0.00     0.009 A 
ATOM     29  C   UNL     1      45.419 130.855  19.364  1.00  0.00     0.001 A 
ATOM     30  C   UNL     1      47.657 129.510  14.231  1.00  0.00     0.001 A 
ENDBRANCH  12  17
ENDBRANCH   9  10
ENDBRANCH   6   9
ENDBRANCH   1   6
TORSDOF 6
ENDMDL
MODEL 4
REMARK VINA RESULT:      -7.2      1.229      1.319
REMARK SMILES COC[C@@H](C)[NH2+]Cc1c(C)n[nH+]n1-c1cc2ccccc2c2ccccc12
REMARK SMILES IDX 4 1 5 2 3 3 2 4 1 5 6 6 7 9 8 10 9 11 13 12 11 13 12 14
REMARK SMILES IDX 10 15 14 17 15 18 27 19 16 20 26 21 22 22 17 23 21 24 25 25
REMARK SMILES IDX 23 26 18 27 20 28 24 29 19 30
REMARK H PARENT 6 7 6 8 12 16
ROOT
ATOM      1  C   UNL     1      44.032 135.992  18.195  1.00  0.00     0.205 C 
ATOM      2  C   UNL     1      43.571 135.327  19.506  1.00  0.00     0.078 C 
ENDROOT
BRANCH   1   3
ATOM      3  C   UNL     1      44.796 137.295  18.503  1.00  0.00     0.224 C 
BRANCH   3   4
ATOM      4  O   UNL     1      44.163 137.991  19.557  1.00  0.00    -0.379 OA
ATOM      5  C   UNL     1      44.113 139.365  19.248  1.00  0.00     0.195 C 
ENDBRANCH   3   4
ENDBRANCH   1   3
BRANCH   1   6
ATOM      6  N   UNL     1      42.896 136.262  17.284  1.00  0.00    -0.337 N 
ATOM      7  H   UNL     1      43.107 137.124  16.729  1.00  0.00     0.346 HD
ATOM      8  H   UNL     1      42.024 136.437  17.837  1.00  0.00     0.346 HD
BRANCH   6   9
ATOM      9  C   UNL     1      42.660 135.156  16.340  1.00  0.00     0.324 C 
BRANCH   9  10
ATOM     10  C   UNL     1      41.662 134.183  16.909  1.00  0.00     0.166 A 
ATOM     11  C   UNL     1      40.317 134.403  17.148  1.00  0.00     0.138 A 
ATOM     12  N   UNL     1      41.869 132.863  17.091  1.00  0.00    -0.095 N 
ATOM     13  N   UNL     1      39.742 133.221  17.458  1.00  0.00     0.020 NA
ATOM     14  N   UNL     1      40.708 132.316  17.414  1.00  0.00    -0.012 N 
ATOM     15  C   UNL     1      39.568 135.683  16.979  1.00  0.00     0.076 C 
ATOM     16  H   UNL     1      40.561 131.296  17.585  1.00  0.00     0.527 HD
BRANCH  12  17
ATOM     17  C   UNL     1      43.069 132.124  16.825  1.00  0.00     0.116 A 
ATOM     18  C   UNL     1      43.384 131.823  15.503  1.00  0.00     0.042 A 
ATOM     19  C   UNL     1      43.934 131.723  17.866  1.00  0.00     0.012 A 
ATOM     20  C   UNL     1      44.567 131.158  15.177  1.00  0.00    -0.015 A 
ATOM     21  C   UNL     1      43.594 131.977  19.210  1.00  0.00     0.011 A 
ATOM     22  C   UNL     1      45.151 131.041  17.562  1.00  0.00    -0.008 A 
ATOM     23  C   UNL     1      44.854 130.893  13.827  1.00  0.00     0.009 A 
ATOM     24  C   UNL     1      45.474 130.761  16.198  1.00  0.00    -0.010 A 
ATOM     25  C   UNL     1      44.442 131.594  20.245  1.00  0.00     0.001 A 
ATOM     26  C   UNL     1      45.992 130.666  18.640  1.00  0.00     0.009 A 
ATOM     27  C   UNL     1      46.032 130.239  13.472  1.00  0.00     0.001 A 
ATOM     28  C   UNL     1      46.664 130.099  15.804  1.00  0.00     0.009 A 
ATOM     29  C   UNL     1      45.638 130.945  19.960  1.00  0.00     0.001 A 
ATOM     30  C   UNL     1      46.932 129.844  14.457  1.00  0.00     0.001 A 
ENDBRANCH  12  17
ENDBRANCH   9  10
ENDBRANCH   6   9
ENDBRANCH   1   6
TORSDOF 6
ENDMDL
MODEL 5
REMARK VINA RESULT:      -7.2      2.237      3.851
REMARK SMILES COC[C@@H](C)[NH2+]Cc1c(C)n[nH+]n1-c1cc2ccccc2c2ccccc12
REMARK SMILES IDX 4 1 5 2 3 3 2 4 1 5 6 6 7 9 8 10 9 11 13 12 11 13 12 14
REMARK SMILES IDX 10 15 14 17 15 18 27 19 16 20 26 21 22 22 17 23 21 24 25 25
REMARK SMILES IDX 23 26 18 27 20 28 24 29 19 30
REMARK H PARENT 6 7 6 8 12 16
ROOT
ATOM      1  C   UNL     1      44.372 136.470  18.260  1.00  0.00     0.205 C 
ATOM      2  C   UNL     1      45.324 137.415  19.016  1.00  0.00     0.078 C 
ENDROOT
BRANCH   1   3
ATOM      3  C   UNL     1      43.324 137.286  17.478  1.00  0.00     0.224 C 
BRANCH   3   4
ATOM      4  O   UNL     1      43.106 136.706  16.209  1.00  0.00    -0.379 OA
ATOM      5  C   UNL     1      42.457 137.638  15.373  1.00  0.00     0.195 C 
ENDBRANCH   3   4
ENDBRANCH   1   3
BRANCH   1   6
ATOM      6  N   UNL     1      43.705 135.513  19.174  1.00  0.00    -0.337 N 
ATOM      7  H   UNL     1      42.954 135.011  18.645  1.00  0.00     0.346 HD
ATOM      8  H   UNL     1      43.256 136.027  19.968  1.00  0.00     0.346 HD
BRANCH   6   9
ATOM      9  C   UNL     1      44.639 134.507  19.709  1.00  0.00     0.324 C 
BRANCH   9  10
ATOM     10  C   UNL     1      43.886 133.299  20.199  1.00  0.00     0.166 A 
ATOM     11  C   UNL     1      43.227 133.153  21.407  1.00  0.00     0.138 A 
ATOM     12  N   UNL     1      43.553 132.226  19.453  1.00  0.00    -0.095 N 
ATOM     13  N   UNL     1      42.510 132.010  21.364  1.00  0.00     0.020 NA
ATOM     14  N   UNL     1      42.731 131.478  20.171  1.00  0.00    -0.012 N 
ATOM     15  C   UNL     1      43.188 134.127  22.538  1.00  0.00     0.076 C 
ATOM     16  H   UNL     1      42.288 130.594  19.834  1.00  0.00     0.527 HD
BRANCH  12  17
ATOM     17  C   UNL     1      43.871 131.990  18.074  1.00  0.00     0.116 A 
ATOM     18  C   UNL     1      45.004 131.239  17.775  1.00  0.00     0.042 A 
ATOM     19  C   UNL     1      43.053 132.482  17.034  1.00  0.00     0.012 A 
ATOM     20  C   UNL     1      45.333 130.926  16.454  1.00  0.00    -0.015 A 
ATOM     21  C   UNL     1      41.935 133.288  17.330  1.00  0.00     0.011 A 
ATOM     22  C   UNL     1      43.366 132.178  15.675  1.00  0.00    -0.008 A 
ATOM     23  C   UNL     1      46.474 130.148  16.199  1.00  0.00     0.009 A 
ATOM     24  C   UNL     1      44.518 131.383  15.383  1.00  0.00    -0.010 A 
ATOM     25  C   UNL     1      41.117 133.772  16.314  1.00  0.00     0.001 A 
ATOM     26  C   UNL     1      42.510 132.685  14.665  1.00  0.00     0.009 A 
ATOM     27  C   UNL     1      46.822 129.813  14.892  1.00  0.00     0.001 A 
ATOM     28  C   UNL     1      44.897 131.025  14.065  1.00  0.00     0.009 A 
ATOM     29  C   UNL     1      41.402 133.468  14.987  1.00  0.00     0.001 A 
ATOM     30  C   UNL     1      46.036 130.250  13.830  1.00  0.00     0.001 A 
ENDBRANCH  12  17
ENDBRANCH   9  10
ENDBRANCH   6   9
ENDBRANCH   1   6
TORSDOF 6
ENDMDL
MODEL 6
REMARK VINA RESULT:      -7.1      2.601      7.241
REMARK SMILES COC[C@@H](C)[NH2+]Cc1c(C)n[nH+]n1-c1cc2ccccc2c2ccccc12
REMARK SMILES IDX 4 1 5 2 3 3 2 4 1 5 6 6 7 9 8 10 9 11 13 12 11 13 12 14
REMARK SMILES IDX 10 15 14 17 15 18 27 19 16 20 26 21 22 22 17 23 21 24 25 25
REMARK SMILES IDX 23 26 18 27 20 28 24 29 19 30
REMARK H PARENT 6 7 6 8 12 16
ROOT
ATOM      1  C   UNL     1      45.446 130.837  14.278  1.00  0.00     0.205 C 
ATOM      2  C   UNL     1      45.181 129.452  14.897  1.00  0.00     0.078 C 
ENDROOT
BRANCH   1   3
ATOM      3  C   UNL     1      46.912 131.251  14.513  1.00  0.00     0.224 C 
BRANCH   3   4
ATOM      4  O   UNL     1      47.572 131.423  13.275  1.00  0.00    -0.379 OA
ATOM      5  C   UNL     1      46.943 130.627  12.295  1.00  0.00     0.195 C 
ENDBRANCH   3   4
ENDBRANCH   1   3
BRANCH   1   6
ATOM      6  N   UNL     1      44.526 131.866  14.816  1.00  0.00    -0.337 N 
ATOM      7  H   UNL     1      43.701 131.387  15.247  1.00  0.00     0.346 HD
ATOM      8  H   UNL     1      44.179 132.479  14.042  1.00  0.00     0.346 HD
BRANCH   6   9
ATOM      9  C   UNL     1      45.163 132.699  15.851  1.00  0.00     0.324 C 
BRANCH   9  10
ATOM     10  C   UNL     1      44.443 132.547  17.165  1.00  0.00     0.166 A 
ATOM     11  C   UNL     1      44.670 131.593  18.141  1.00  0.00     0.138 A 
ATOM     12  N   UNL     1      43.591 133.443  17.702  1.00  0.00    -0.095 N 
ATOM     13  N   UNL     1      43.964 131.934  19.240  1.00  0.00     0.020 NA
ATOM     14  N   UNL     1      43.325 133.054  18.938  1.00  0.00    -0.012 N 
ATOM     15  C   UNL     1      45.621 130.444  18.076  1.00  0.00     0.076 C 
ATOM     16  H   UNL     1      42.714 133.576  19.605  1.00  0.00     0.527 HD
BRANCH  12  17
ATOM     17  C   UNL     1      43.164 134.689  17.133  1.00  0.00     0.116 A 
ATOM     18  C   UNL     1      43.680 135.870  17.660  1.00  0.00     0.042 A 
ATOM     19  C   UNL     1      42.260 134.734  16.050  1.00  0.00     0.012 A 
ATOM     20  C   UNL     1      43.347 137.110  17.111  1.00  0.00    -0.015 A 
ATOM     21  C   UNL     1      41.694 133.545  15.547  1.00  0.00     0.011 A 
ATOM     22  C   UNL     1      41.903 135.988  15.468  1.00  0.00    -0.008 A 
ATOM     23  C   UNL     1      43.908 138.275  17.662  1.00  0.00     0.009 A 
ATOM     24  C   UNL     1      42.460 137.191  16.003  1.00  0.00    -0.010 A 
ATOM     25  C   UNL     1      40.808 133.577  14.474  1.00  0.00     0.001 A 
ATOM     26  C   UNL     1      40.999 135.983  14.376  1.00  0.00     0.009 A 
ATOM     27  C   UNL     1      43.602 139.524  17.129  1.00  0.00     0.001 A 
ATOM     28  C   UNL     1      42.170 138.478  15.483  1.00  0.00     0.009 A 
ATOM     29  C   UNL     1      40.466 134.790  13.889  1.00  0.00     0.001 A 
ATOM     30  C   UNL     1      42.736 139.625  16.044  1.00  0.00     0.001 A 
ENDBRANCH  12  17
ENDBRANCH   9  10
ENDBRANCH   6   9
ENDBRANCH   1   6
TORSDOF 6
ENDMDL
MODEL 7
REMARK VINA RESULT:      -7.1      3.106      4.883
REMARK SMILES COC[C@@H](C)[NH2+]Cc1c(C)n[nH+]n1-c1cc2ccccc2c2ccccc12
REMARK SMILES IDX 4 1 5 2 3 3 2 4 1 5 6 6 7 9 8 10 9 11 13 12 11 13 12 14
REMARK SMILES IDX 10 15 14 17 15 18 27 19 16 20 26 21 22 22 17 23 21 24 25 25
REMARK SMILES IDX 23 26 18 27 20 28 24 29 19 30
REMARK H PARENT 6 7 6 8 12 16
ROOT
ATOM      1  C   UNL     1      46.978 135.293  21.531  1.00  0.00     0.205 C 
ATOM      2  C   UNL     1      48.181 134.394  21.873  1.00  0.00     0.078 C 
ENDROOT
BRANCH   1   3
ATOM      3  C   UNL     1      46.833 136.408  22.585  1.00  0.00     0.224 C 
BRANCH   3   4
ATOM      4  O   UNL     1      47.789 137.422  22.352  1.00  0.00    -0.379 OA
ATOM      5  C   UNL     1      47.473 138.098  21.156  1.00  0.00     0.195 C 
ENDBRANCH   3   4
ENDBRANCH   1   3
BRANCH   1   6
ATOM      6  N   UNL     1      45.722 134.515  21.426  1.00  0.00    -0.337 N 
ATOM      7  H   UNL     1      45.221 134.801  20.552  1.00  0.00     0.346 HD
ATOM      8  H   UNL     1      45.099 134.724  22.241  1.00  0.00     0.346 HD
BRANCH   6   9
ATOM      9  C   UNL     1      45.966 133.063  21.358  1.00  0.00     0.324 C 
BRANCH   9  10
ATOM     10  C   UNL     1      44.662 132.313  21.295  1.00  0.00     0.166 A 
ATOM     11  C   UNL     1      43.755 132.117  22.322  1.00  0.00     0.138 A 
ATOM     12  N   UNL     1      44.060 131.879  20.170  1.00  0.00    -0.095 N 
ATOM     13  N   UNL     1      42.632 131.581  21.799  1.00  0.00     0.020 NA
ATOM     14  N   UNL     1      42.853 131.451  20.499  1.00  0.00    -0.012 N 
ATOM     15  C   UNL     1      43.905 132.529  23.749  1.00  0.00     0.076 C 
ATOM     16  H   UNL     1      42.148 131.085  19.821  1.00  0.00     0.527 HD
BRANCH  12  17
ATOM     17  C   UNL     1      44.540 131.999  18.823  1.00  0.00     0.116 A 
ATOM     18  C   UNL     1      45.284 130.951  18.288  1.00  0.00     0.042 A 
ATOM     19  C   UNL     1      44.253 133.136  18.037  1.00  0.00     0.012 A 
ATOM     20  C   UNL     1      45.728 130.985  16.964  1.00  0.00    -0.015 A 
ATOM     21  C   UNL     1      43.546 134.223  18.590  1.00  0.00     0.011 A 
ATOM     22  C   UNL     1      44.694 133.197  16.681  1.00  0.00    -0.008 A 
ATOM     23  C   UNL     1      46.458 129.896  16.460  1.00  0.00     0.009 A 
ATOM     24  C   UNL     1      45.436 132.103  16.136  1.00  0.00    -0.010 A 
ATOM     25  C   UNL     1      43.250 135.345  17.823  1.00  0.00     0.001 A 
ATOM     26  C   UNL     1      44.374 134.355  15.928  1.00  0.00     0.009 A 
ATOM     27  C   UNL     1      46.906 129.898  15.141  1.00  0.00     0.001 A 
ATOM     28  C   UNL     1      45.904 132.074  14.798  1.00  0.00     0.009 A 
ATOM     29  C   UNL     1      43.660 135.409  16.496  1.00  0.00     0.001 A 
ATOM     30  C   UNL     1      46.629 130.983  14.314  1.00  0.00     0.001 A 
ENDBRANCH  12  17
ENDBRANCH   9  10
ENDBRANCH   6   9
ENDBRANCH   1   6
TORSDOF 6
ENDMDL
MODEL 8
REMARK VINA RESULT:      -7.0      2.843      6.529
REMARK SMILES COC[C@@H](C)[NH2+]Cc1c(C)n[nH+]n1-c1cc2ccccc2c2ccccc12
REMARK SMILES IDX 4 1 5 2 3 3 2 4 1 5 6 6 7 9 8 10 9 11 13 12 11 13 12 14
REMARK SMILES IDX 10 15 14 17 15 18 27 19 16 20 26 21 22 22 17 23 21 24 25 25
REMARK SMILES IDX 23 26 18 27 20 28 24 29 19 30
REMARK H PARENT 6 7 6 8 12 16
ROOT
ATOM      1  C   UNL     1      47.014 131.116  14.506  1.00  0.00     0.205 C 
ATOM      2  C   UNL     1      46.689 130.809  13.032  1.00  0.00     0.078 C 
ENDROOT
BRANCH   1   3
ATOM      3  C   UNL     1      46.865 129.840  15.358  1.00  0.00     0.224 C 
BRANCH   3   4
ATOM      4  O   UNL     1      46.079 128.887  14.672  1.00  0.00    -0.379 OA
ATOM      5  C   UNL     1      45.031 128.455  15.509  1.00  0.00     0.195 C 
ENDBRANCH   3   4
ENDBRANCH   1   3
BRANCH   1   6
ATOM      6  N   UNL     1      46.160 132.200  15.044  1.00  0.00    -0.337 N 
ATOM      7  H   UNL     1      45.517 132.529  14.286  1.00  0.00     0.346 HD
ATOM      8  H   UNL     1      46.751 133.010  15.343  1.00  0.00     0.346 HD
BRANCH   6   9
ATOM      9  C   UNL     1      45.336 131.752  16.180  1.00  0.00     0.324 C 
BRANCH   9  10
ATOM     10  C   UNL     1      43.936 132.291  16.059  1.00  0.00     0.166 A 
ATOM     11  C   UNL     1      43.048 132.099  15.015  1.00  0.00     0.138 A 
ATOM     12  N   UNL     1      43.236 132.887  17.046  1.00  0.00    -0.095 N 
ATOM     13  N   UNL     1      41.841 132.570  15.393  1.00  0.00     0.020 NA
ATOM     14  N   UNL     1      41.992 133.037  16.623  1.00  0.00    -0.012 N 
ATOM     15  C   UNL     1      43.308 131.386  13.730  1.00  0.00     0.076 C 
ATOM     16  H   UNL     1      41.218 133.446  17.192  1.00  0.00     0.527 HD
BRANCH  12  17
ATOM     17  C   UNL     1      43.678 133.164  18.383  1.00  0.00     0.116 A 
ATOM     18  C   UNL     1      43.675 132.125  19.311  1.00  0.00     0.042 A 
ATOM     19  C   UNL     1      44.130 134.447  18.759  1.00  0.00     0.012 A 
ATOM     20  C   UNL     1      44.148 132.319  20.610  1.00  0.00    -0.015 A 
ATOM     21  C   UNL     1      44.085 135.514  17.839  1.00  0.00     0.011 A 
ATOM     22  C   UNL     1      44.619 134.673  20.081  1.00  0.00    -0.008 A 
ATOM     23  C   UNL     1      44.146 131.238  21.507  1.00  0.00     0.009 A 
ATOM     24  C   UNL     1      44.635 133.592  21.016  1.00  0.00    -0.010 A 
ATOM     25  C   UNL     1      44.534 136.782  18.197  1.00  0.00     0.001 A 
ATOM     26  C   UNL     1      45.071 135.976  20.410  1.00  0.00     0.009 A 
ATOM     27  C   UNL     1      44.621 131.399  22.807  1.00  0.00     0.001 A 
ATOM     28  C   UNL     1      45.112 133.723  22.345  1.00  0.00     0.009 A 
ATOM     29  C   UNL     1      45.029 137.010  19.475  1.00  0.00     0.001 A 
ATOM     30  C   UNL     1      45.102 132.637  23.223  1.00  0.00     0.001 A 
ENDBRANCH  12  17
ENDBRANCH   9  10
ENDBRANCH   6   9
ENDBRANCH   1   6
TORSDOF 6
ENDMDL
MODEL 9
REMARK VINA RESULT:      -6.9      2.766      6.427
REMARK SMILES COC[C@@H](C)[NH2+]Cc1c(C)n[nH+]n1-c1cc2ccccc2c2ccccc12
REMARK SMILES IDX 4 1 5 2 3 3 2 4 1 5 6 6 7 9 8 10 9 11 13 12 11 13 12 14
REMARK SMILES IDX 10 15 14 17 15 18 27 19 16 20 26 21 22 22 17 23 21 24 25 25
REMARK SMILES IDX 23 26 18 27 20 28 24 29 19 30
REMARK H PARENT 6 7 6 8 12 16
ROOT
ATOM      1  C   UNL     1      47.015 131.132  14.600  1.00  0.00     0.205 C 
ATOM      2  C   UNL     1      46.856 130.738  13.120  1.00  0.00     0.078 C 
ENDROOT
BRANCH   1   3
ATOM      3  C   UNL     1      46.657 129.938  15.508  1.00  0.00     0.224 C 
BRANCH   3   4
ATOM      4  O   UNL     1      45.977 128.949  14.763  1.00  0.00    -0.379 OA
ATOM      5  C   UNL     1      44.992 128.347  15.572  1.00  0.00     0.195 C 
ENDBRANCH   3   4
ENDBRANCH   1   3
BRANCH   1   6
ATOM      6  N   UNL     1      46.189 132.311  14.948  1.00  0.00    -0.337 N 
ATOM      7  H   UNL     1      45.655 132.610  14.098  1.00  0.00     0.346 HD
ATOM      8  H   UNL     1      46.803 133.107  15.243  1.00  0.00     0.346 HD
BRANCH   6   9
ATOM      9  C   UNL     1      45.220 132.020  16.019  1.00  0.00     0.324 C 
BRANCH   9  10
ATOM     10  C   UNL     1      43.864 132.570  15.664  1.00  0.00     0.166 A 
ATOM     11  C   UNL     1      43.007 132.118  14.676  1.00  0.00     0.138 A 
ATOM     12  N   UNL     1      43.167 133.468  16.388  1.00  0.00    -0.095 N 
ATOM     13  N   UNL     1      41.819 132.741  14.827  1.00  0.00     0.020 NA
ATOM     14  N   UNL     1      41.953 133.548  15.869  1.00  0.00    -0.012 N 
ATOM     15  C   UNL     1      43.269 131.040  13.677  1.00  0.00     0.076 C 
ATOM     16  H   UNL     1      41.185 134.147  16.246  1.00  0.00     0.527 HD
BRANCH  12  17
ATOM     17  C   UNL     1      43.574 134.111  17.605  1.00  0.00     0.116 A 
ATOM     18  C   UNL     1      44.147 135.378  17.525  1.00  0.00     0.042 A 
ATOM     19  C   UNL     1      43.384 133.499  18.862  1.00  0.00     0.012 A 
ATOM     20  C   UNL     1      44.510 136.078  18.678  1.00  0.00    -0.015 A 
ATOM     21  C   UNL     1      42.853 132.195  18.944  1.00  0.00     0.011 A 
ATOM     22  C   UNL     1      43.745 134.192  20.056  1.00  0.00    -0.008 A 
ATOM     23  C   UNL     1      45.066 137.362  18.552  1.00  0.00     0.009 A 
ATOM     24  C   UNL     1      44.309 135.502  19.962  1.00  0.00    -0.010 A 
ATOM     25  C   UNL     1      42.654 131.584  20.178  1.00  0.00     0.001 A 
ATOM     26  C   UNL     1      43.527 133.540  21.297  1.00  0.00     0.009 A 
ATOM     27  C   UNL     1      45.428 138.087  19.684  1.00  0.00     0.001 A 
ATOM     28  C   UNL     1      44.687 136.266  21.095  1.00  0.00     0.009 A 
ATOM     29  C   UNL     1      42.986 132.256  21.350  1.00  0.00     0.001 A 
ATOM     30  C   UNL     1      45.239 137.541  20.950  1.00  0.00     0.001 A 
ENDBRANCH  12  17
ENDBRANCH   9  10
ENDBRANCH   6   9
ENDBRANCH   1   6
TORSDOF 6
ENDMDL


