MODEL 1
REMARK VINA RESULT:      -6.0      0.000      0.000
REMARK SMILES C[C@@H](C#N)N(C)CCCCc1cn(-c2cc(N=C=O)c3c4c(cccc24)C(=O)[N-]3)nn1
REMARK SMILES IDX 9 1 10 2 11 3 13 4 30 5 12 6 31 7 14 8 24 9 23 10 25 11
REMARK SMILES IDX 22 12 26 13 21 14 27 15 20 16 29 17 15 18 16 19 28 20 17 21
REMARK SMILES IDX 18 22 19 23 8 24 7 25 5 26 6 27 2 28 1 29 3 30 4 31
REMARK H PARENT
ROOT
ATOM      1  C   UNL     1      37.921 136.277  16.622  1.00  0.00     0.008 C 
ENDROOT
BRANCH   1   2
ATOM      2  C   UNL     1      38.620 136.029  17.965  1.00  0.00     0.060 C 
BRANCH   2   3
ATOM      3  C   UNL     1      39.373 134.735  17.970  1.00  0.00     0.083 A 
ATOM      4  N   UNL     1      40.960 133.249  18.033  1.00  0.00    -0.220 N 
ATOM      5  N   UNL     1      39.818 132.652  17.723  1.00  0.00    -0.062 NA
ATOM      6  C   UNL     1      40.726 134.567  18.171  1.00  0.00     0.140 A 
ATOM      7  N   UNL     1      38.829 133.535  17.683  1.00  0.00    -0.135 NA
BRANCH   4   8
ATOM      8  C   UNL     1      42.234 132.584  18.074  1.00  0.00     0.076 A 
ATOM      9  C   UNL     1      43.344 132.097  14.472  1.00  0.00     0.001 A 
ATOM     10  C   UNL     1      44.555 131.399  14.695  1.00  0.00     0.011 A 
ATOM     11  C   UNL     1      42.532 132.510  15.561  1.00  0.00     0.011 A 
ATOM     12  C   UNL     1      44.914 131.132  16.015  1.00  0.00     0.006 A 
ATOM     13  C   UNL     1      42.921 132.209  16.888  1.00  0.00     0.007 A 
ATOM     14  C   UNL     1      44.122 131.529  17.044  1.00  0.00    -0.019 A 
ATOM     15  C   UNL     1      46.079 130.517  16.647  1.00  0.00     0.086 C 
ATOM     16  C   UNL     1      44.696 131.225  18.246  1.00  0.00    -0.098 A 
ATOM     17  N   UNL     1      45.961 130.564  18.078  1.00  0.00    -0.620 NA
ATOM     18  C   UNL     1      42.828 132.292  19.337  1.00  0.00     0.057 A 
ATOM     19  C   UNL     1      44.075 131.605  19.435  1.00  0.00     0.064 A 
ATOM     20  O   UNL     1      47.070 130.023  16.042  1.00  0.00    -0.315 OA
BRANCH  19  21
ATOM     21  N   UNL     1      44.701 131.297  20.691  1.00  0.00    -0.169 NA
BRANCH  21  22
ATOM     22  C   UNL     1      44.657 132.063  21.704  1.00  0.00     0.240 C 
ATOM     23  O   UNL     1      44.616 132.806  22.691  1.00  0.00    -0.211 OA
ENDBRANCH  21  22
ENDBRANCH  19  21
ENDBRANCH   4   8
ENDBRANCH   2   3
ENDBRANCH   1   2
BRANCH   1  24
ATOM     24  C   UNL     1      36.685 135.393  16.386  1.00  0.00     0.016 C 
BRANCH  24  25
ATOM     25  C   UNL     1      36.609 134.848  14.948  1.00  0.00     0.085 C 
BRANCH  25  26
ATOM     26  N   UNL     1      37.857 135.147  14.207  1.00  0.00    -0.291 NA
ATOM     27  C   UNL     1      38.678 133.928  14.032  1.00  0.00     0.106 C 
BRANCH  26  28
ATOM     28  C   UNL     1      37.650 135.853  12.912  1.00  0.00     0.157 C 
ATOM     29  C   UNL     1      38.880 136.647  12.421  1.00  0.00     0.041 C 
BRANCH  28  30
ATOM     30  C   UNL     1      37.223 134.890  11.874  1.00  0.00     0.081 C 
ATOM     31  N   UNL     1      36.897 134.138  11.055  1.00  0.00    -0.197 NA
ENDBRANCH  28  30
ENDBRANCH  26  28
ENDBRANCH  25  26
ENDBRANCH  24  25
ENDBRANCH   1  24
TORSDOF 10
ENDMDL
MODEL 2
REMARK VINA RESULT:      -5.5      1.474      1.901
REMARK SMILES C[C@@H](C#N)N(C)CCCCc1cn(-c2cc(N=C=O)c3c4c(cccc24)C(=O)[N-]3)nn1
REMARK SMILES IDX 9 1 10 2 11 3 13 4 30 5 12 6 31 7 14 8 24 9 23 10 25 11
REMARK SMILES IDX 22 12 26 13 21 14 27 15 20 16 29 17 15 18 16 19 28 20 17 21
REMARK SMILES IDX 18 22 19 23 8 24 7 25 5 26 6 27 2 28 1 29 3 30 4 31
REMARK H PARENT
ROOT
ATOM      1  C   UNL     1      37.539 134.400  18.387  1.00  0.00     0.008 C 
ENDROOT
BRANCH   1   2
ATOM      2  C   UNL     1      38.289 133.371  17.530  1.00  0.00     0.060 C 
BRANCH   2   3
ATOM      3  C   UNL     1      39.732 133.275  17.913  1.00  0.00     0.083 A 
ATOM      4  N   UNL     1      41.832 132.714  17.994  1.00  0.00    -0.220 N 
ATOM      5  N   UNL     1      41.543 133.468  19.045  1.00  0.00    -0.062 NA
ATOM      6  C   UNL     1      40.711 132.548  17.269  1.00  0.00     0.140 A 
ATOM      7  N   UNL     1      40.267 133.830  19.019  1.00  0.00    -0.135 NA
BRANCH   4   8
ATOM      8  C   UNL     1      43.110 132.091  17.773  1.00  0.00     0.076 A 
ATOM      9  C   UNL     1      43.515 131.695  14.016  1.00  0.00     0.001 A 
ATOM     10  C   UNL     1      44.767 131.035  13.986  1.00  0.00     0.011 A 
ATOM     11  C   UNL     1      42.917 132.065  15.249  1.00  0.00     0.011 A 
ATOM     12  C   UNL     1      45.383 130.760  15.206  1.00  0.00     0.006 A 
ATOM     13  C   UNL     1      43.565 131.757  16.470  1.00  0.00     0.007 A 
ATOM     14  C   UNL     1      44.793 131.115  16.377  1.00  0.00    -0.019 A 
ATOM     15  C   UNL     1      46.666 130.176  15.589  1.00  0.00     0.086 C 
ATOM     16  C   UNL     1      45.598 130.812  17.439  1.00  0.00    -0.098 A 
ATOM     17  N   UNL     1      46.826 130.197  17.016  1.00  0.00    -0.620 NA
ATOM     18  C   UNL     1      43.945 131.800  18.892  1.00  0.00     0.057 A 
ATOM     19  C   UNL     1      45.207 131.154  18.733  1.00  0.00     0.064 A 
ATOM     20  O   UNL     1      47.535 129.724  14.793  1.00  0.00    -0.315 OA
BRANCH  19  21
ATOM     21  N   UNL     1      46.074 130.849  19.838  1.00  0.00    -0.169 NA
BRANCH  21  22
ATOM     22  C   UNL     1      45.904 131.307  21.011  1.00  0.00     0.240 C 
ATOM     23  O   UNL     1      45.740 131.749  22.153  1.00  0.00    -0.211 OA
ENDBRANCH  21  22
ENDBRANCH  19  21
ENDBRANCH   4   8
ENDBRANCH   2   3
ENDBRANCH   1   2
BRANCH   1  24
ATOM     24  C   UNL     1      37.434 135.793  17.745  1.00  0.00     0.016 C 
BRANCH  24  25
ATOM     25  C   UNL     1      38.660 136.145  16.882  1.00  0.00     0.085 C 
BRANCH  25  26
ATOM     26  N   UNL     1      38.256 136.423  15.484  1.00  0.00    -0.291 NA
ATOM     27  C   UNL     1      39.438 136.648  14.623  1.00  0.00     0.106 C 
BRANCH  26  28
ATOM     28  C   UNL     1      37.341 135.405  14.894  1.00  0.00     0.157 C 
ATOM     29  C   UNL     1      36.376 135.967  13.828  1.00  0.00     0.041 C 
BRANCH  28  30
ATOM     30  C   UNL     1      38.126 134.288  14.327  1.00  0.00     0.081 C 
ATOM     31  N   UNL     1      38.731 133.408  13.879  1.00  0.00    -0.197 NA
ENDBRANCH  28  30
ENDBRANCH  26  28
ENDBRANCH  25  26
ENDBRANCH  24  25
ENDBRANCH   1  24
TORSDOF 10
ENDMDL
MODEL 3
REMARK VINA RESULT:      -5.3      3.529      7.914
REMARK SMILES C[C@@H](C#N)N(C)CCCCc1cn(-c2cc(N=C=O)c3c4c(cccc24)C(=O)[N-]3)nn1
REMARK SMILES IDX 9 1 10 2 11 3 13 4 30 5 12 6 31 7 14 8 24 9 23 10 25 11
REMARK SMILES IDX 22 12 26 13 21 14 27 15 20 16 29 17 15 18 16 19 28 20 17 21
REMARK SMILES IDX 18 22 19 23 8 24 7 25 5 26 6 27 2 28 1 29 3 30 4 31
REMARK H PARENT
ROOT
ATOM      1  C   UNL     1      45.418 130.429  16.049  1.00  0.00     0.008 C 
ENDROOT
BRANCH   1   2
ATOM      2  C   UNL     1      45.577 131.866  15.534  1.00  0.00     0.060 C 
BRANCH   2   3
ATOM      3  C   UNL     1      44.257 132.489  15.205  1.00  0.00     0.083 A 
ATOM      4  N   UNL     1      42.581 133.869  15.071  1.00  0.00    -0.220 N 
ATOM      5  N   UNL     1      42.220 132.698  14.567  1.00  0.00    -0.062 NA
ATOM      6  C   UNL     1      43.849 133.771  15.507  1.00  0.00     0.140 A 
ATOM      7  N   UNL     1      43.227 131.836  14.630  1.00  0.00    -0.135 NA
BRANCH   4   8
ATOM      8  C   UNL     1      41.693 134.989  15.226  1.00  0.00     0.076 A 
ATOM      9  C   UNL     1      38.295 133.896  13.919  1.00  0.00     0.001 A 
ATOM     10  C   UNL     1      37.580 135.106  14.094  1.00  0.00     0.011 A 
ATOM     11  C   UNL     1      39.667 133.805  14.276  1.00  0.00     0.011 A 
ATOM     12  C   UNL     1      38.271 136.196  14.621  1.00  0.00     0.006 A 
ATOM     13  C   UNL     1      40.340 134.937  14.795  1.00  0.00     0.007 A 
ATOM     14  C   UNL     1      39.584 136.092  14.950  1.00  0.00    -0.019 A 
ATOM     15  C   UNL     1      37.889 137.552  15.006  1.00  0.00     0.086 C 
ATOM     16  C   UNL     1      40.040 137.253  15.508  1.00  0.00    -0.098 A 
ATOM     17  N   UNL     1      39.007 138.250  15.576  1.00  0.00    -0.620 NA
ATOM     18  C   UNL     1      42.179 136.186  15.829  1.00  0.00     0.057 A 
ATOM     19  C   UNL     1      41.350 137.338  15.978  1.00  0.00     0.064 A 
ATOM     20  O   UNL     1      36.739 138.056  14.879  1.00  0.00    -0.315 OA
BRANCH  19  21
ATOM     21  N   UNL     1      41.808 138.558  16.582  1.00  0.00    -0.169 NA
BRANCH  21  22
ATOM     22  C   UNL     1      42.318 138.618  17.745  1.00  0.00     0.240 C 
ATOM     23  O   UNL     1      42.817 138.678  18.874  1.00  0.00    -0.211 OA
ENDBRANCH  21  22
ENDBRANCH  19  21
ENDBRANCH   4   8
ENDBRANCH   2   3
ENDBRANCH   1   2
BRANCH   1  24
ATOM     24  C   UNL     1      45.335 130.318  17.581  1.00  0.00     0.016 C 
BRANCH  24  25
ATOM     25  C   UNL     1      45.195 131.688  18.270  1.00  0.00     0.085 C 
BRANCH  25  26
ATOM     26  N   UNL     1      44.266 131.603  19.422  1.00  0.00    -0.291 NA
ATOM     27  C   UNL     1      45.004 131.639  20.705  1.00  0.00     0.106 C 
BRANCH  26  28
ATOM     28  C   UNL     1      43.166 132.607  19.400  1.00  0.00     0.157 C 
ATOM     29  C   UNL     1      43.629 134.042  19.065  1.00  0.00     0.041 C 
BRANCH  28  30
ATOM     30  C   UNL     1      42.112 132.182  18.455  1.00  0.00     0.081 C 
ATOM     31  N   UNL     1      41.282 131.859  17.713  1.00  0.00    -0.197 NA
ENDBRANCH  28  30
ENDBRANCH  26  28
ENDBRANCH  25  26
ENDBRANCH  24  25
ENDBRANCH   1  24
TORSDOF 10
ENDMDL
MODEL 4
REMARK VINA RESULT:      -5.2      3.747      8.271
REMARK SMILES C[C@@H](C#N)N(C)CCCCc1cn(-c2cc(N=C=O)c3c4c(cccc24)C(=O)[N-]3)nn1
REMARK SMILES IDX 9 1 10 2 11 3 13 4 30 5 12 6 31 7 14 8 24 9 23 10 25 11
REMARK SMILES IDX 22 12 26 13 21 14 27 15 20 16 29 17 15 18 16 19 28 20 17 21
REMARK SMILES IDX 18 22 19 23 8 24 7 25 5 26 6 27 2 28 1 29 3 30 4 31
REMARK H PARENT
ROOT
ATOM      1  C   UNL     1      44.595 131.092  20.694  1.00  0.00     0.008 C 
ENDROOT
BRANCH   1   2
ATOM      2  C   UNL     1      45.520 130.787  19.508  1.00  0.00     0.060 C 
BRANCH   2   3
ATOM      3  C   UNL     1      45.125 131.551  18.283  1.00  0.00     0.083 A 
ATOM      4  N   UNL     1      44.145 132.926  16.912  1.00  0.00    -0.220 N 
ATOM      5  N   UNL     1      44.931 132.112  16.223  1.00  0.00    -0.062 NA
ATOM      6  C   UNL     1      44.220 132.588  18.212  1.00  0.00     0.140 A 
ATOM      7  N   UNL     1      45.548 131.265  17.036  1.00  0.00    -0.135 NA
BRANCH   4   8
ATOM      8  C   UNL     1      43.275 133.904  16.317  1.00  0.00     0.076 A 
ATOM      9  C   UNL     1      44.194 137.268  17.829  1.00  0.00     0.001 A 
ATOM     10  C   UNL     1      43.228 138.081  17.188  1.00  0.00     0.011 A 
ATOM     11  C   UNL     1      44.250 135.871  17.578  1.00  0.00     0.011 A 
ATOM     12  C   UNL     1      42.339 137.461  16.311  1.00  0.00     0.006 A 
ATOM     13  C   UNL     1      43.321 135.273  16.691  1.00  0.00     0.007 A 
ATOM     14  C   UNL     1      42.403 136.123  16.088  1.00  0.00    -0.019 A 
ATOM     15  C   UNL     1      41.278 137.943  15.431  1.00  0.00     0.086 C 
ATOM     16  C   UNL     1      41.488 135.742  15.148  1.00  0.00    -0.098 A 
ATOM     17  N   UNL     1      40.716 136.858  14.676  1.00  0.00    -0.620 NA
ATOM     18  C   UNL     1      42.339 133.492  15.324  1.00  0.00     0.057 A 
ATOM     19  C   UNL     1      41.431 134.415  14.724  1.00  0.00     0.064 A 
ATOM     20  O   UNL     1      40.901 139.142  15.321  1.00  0.00    -0.315 OA
BRANCH  19  21
ATOM     21  N   UNL     1      40.478 134.033  13.719  1.00  0.00    -0.169 NA
BRANCH  21  22
ATOM     22  C   UNL     1      39.223 133.993  13.919  1.00  0.00     0.240 C 
ATOM     23  O   UNL     1      38.004 133.957  14.114  1.00  0.00    -0.211 OA
ENDBRANCH  21  22
ENDBRANCH  19  21
ENDBRANCH   4   8
ENDBRANCH   2   3
ENDBRANCH   1   2
BRANCH   1  24
ATOM     24  C   UNL     1      45.321 131.192  22.046  1.00  0.00     0.016 C 
BRANCH  24  25
ATOM     25  C   UNL     1      44.745 132.297  22.950  1.00  0.00     0.085 C 
BRANCH  25  26
ATOM     26  N   UNL     1      43.338 132.589  22.590  1.00  0.00    -0.291 NA
ATOM     27  C   UNL     1      42.406 132.061  23.612  1.00  0.00     0.106 C 
BRANCH  26  28
ATOM     28  C   UNL     1      43.063 134.024  22.296  1.00  0.00     0.157 C 
ATOM     29  C   UNL     1      44.086 134.679  21.342  1.00  0.00     0.041 C 
BRANCH  28  30
ATOM     30  C   UNL     1      41.696 134.177  21.754  1.00  0.00     0.081 C 
ATOM     31  N   UNL     1      40.621 134.293  21.339  1.00  0.00    -0.197 NA
ENDBRANCH  28  30
ENDBRANCH  26  28
ENDBRANCH  25  26
ENDBRANCH  24  25
ENDBRANCH   1  24
TORSDOF 10
ENDMDL
MODEL 5
REMARK VINA RESULT:      -5.1      3.063      4.926
REMARK SMILES C[C@@H](C#N)N(C)CCCCc1cn(-c2cc(N=C=O)c3c4c(cccc24)C(=O)[N-]3)nn1
REMARK SMILES IDX 9 1 10 2 11 3 13 4 30 5 12 6 31 7 14 8 24 9 23 10 25 11
REMARK SMILES IDX 22 12 26 13 21 14 27 15 20 16 29 17 15 18 16 19 28 20 17 21
REMARK SMILES IDX 18 22 19 23 8 24 7 25 5 26 6 27 2 28 1 29 3 30 4 31
REMARK H PARENT
ROOT
ATOM      1  C   UNL     1      39.032 135.556  20.881  1.00  0.00     0.008 C 
ENDROOT
BRANCH   1   2
ATOM      2  C   UNL     1      40.335 135.112  21.560  1.00  0.00     0.060 C 
BRANCH   2   3
ATOM      3  C   UNL     1      41.393 134.765  20.560  1.00  0.00     0.083 A 
ATOM      4  N   UNL     1      42.448 133.939  18.846  1.00  0.00    -0.220 N 
ATOM      5  N   UNL     1      43.323 134.514  19.660  1.00  0.00    -0.062 NA
ATOM      6  C   UNL     1      41.224 134.054  19.391  1.00  0.00     0.140 A 
ATOM      7  N   UNL     1      42.706 135.032  20.713  1.00  0.00    -0.135 NA
BRANCH   4   8
ATOM      8  C   UNL     1      42.807 133.213  17.658  1.00  0.00     0.076 A 
ATOM      9  C   UNL     1      45.602 130.825  18.623  1.00  0.00     0.001 A 
ATOM     10  C   UNL     1      45.860 130.246  17.357  1.00  0.00     0.011 A 
ATOM     11  C   UNL     1      44.600 131.819  18.778  1.00  0.00     0.011 A 
ATOM     12  C   UNL     1      45.101 130.691  16.276  1.00  0.00     0.006 A 
ATOM     13  C   UNL     1      43.857 132.257  17.654  1.00  0.00     0.007 A 
ATOM     14  C   UNL     1      44.151 131.648  16.440  1.00  0.00    -0.019 A 
ATOM     15  C   UNL     1      45.016 130.311  14.868  1.00  0.00     0.086 C 
ATOM     16  C   UNL     1      43.486 131.882  15.270  1.00  0.00    -0.098 A 
ATOM     17  N   UNL     1      43.988 131.061  14.202  1.00  0.00    -0.620 NA
ATOM     18  C   UNL     1      42.090 133.455  16.450  1.00  0.00     0.057 A 
ATOM     19  C   UNL     1      42.425 132.785  15.236  1.00  0.00     0.064 A 
ATOM     20  O   UNL     1      45.724 129.435  14.298  1.00  0.00    -0.315 OA
BRANCH  19  21
ATOM     21  N   UNL     1      41.721 133.004  14.002  1.00  0.00    -0.169 NA
BRANCH  21  22
ATOM     22  C   UNL     1      40.708 133.764  13.896  1.00  0.00     0.240 C 
ATOM     23  O   UNL     1      39.722 134.501  13.791  1.00  0.00    -0.211 OA
ENDBRANCH  21  22
ENDBRANCH  19  21
ENDBRANCH   4   8
ENDBRANCH   2   3
ENDBRANCH   1   2
BRANCH   1  24
ATOM     24  C   UNL     1      38.758 137.066  20.978  1.00  0.00     0.016 C 
BRANCH  24  25
ATOM     25  C   UNL     1      37.995 137.611  19.756  1.00  0.00     0.085 C 
BRANCH  25  26
ATOM     26  N   UNL     1      38.824 138.588  19.013  1.00  0.00    -0.291 NA
ATOM     27  C   UNL     1      40.205 138.627  19.543  1.00  0.00     0.106 C 
BRANCH  26  28
ATOM     28  C   UNL     1      38.815 138.403  17.534  1.00  0.00     0.157 C 
ATOM     29  C   UNL     1      39.766 139.354  16.774  1.00  0.00     0.041 C 
BRANCH  28  30
ATOM     30  C   UNL     1      39.129 136.998  17.198  1.00  0.00     0.081 C 
ATOM     31  N   UNL     1      39.365 135.895  16.933  1.00  0.00    -0.197 NA
ENDBRANCH  28  30
ENDBRANCH  26  28
ENDBRANCH  25  26
ENDBRANCH  24  25
ENDBRANCH   1  24
TORSDOF 10
ENDMDL
MODEL 6
REMARK VINA RESULT:      -5.1      1.297      1.790
REMARK SMILES C[C@@H](C#N)N(C)CCCCc1cn(-c2cc(N=C=O)c3c4c(cccc24)C(=O)[N-]3)nn1
REMARK SMILES IDX 9 1 10 2 11 3 13 4 30 5 12 6 31 7 14 8 24 9 23 10 25 11
REMARK SMILES IDX 22 12 26 13 21 14 27 15 20 16 29 17 15 18 16 19 28 20 17 21
REMARK SMILES IDX 18 22 19 23 8 24 7 25 5 26 6 27 2 28 1 29 3 30 4 31
REMARK H PARENT
ROOT
ATOM      1  C   UNL     1      36.870 135.886  15.717  1.00  0.00     0.008 C 
ENDROOT
BRANCH   1   2
ATOM      2  C   UNL     1      37.641 134.596  15.408  1.00  0.00     0.060 C 
BRANCH   2   3
ATOM      3  C   UNL     1      38.732 134.348  16.403  1.00  0.00     0.083 A 
ATOM      4  N   UNL     1      40.547 133.639  17.369  1.00  0.00    -0.220 N 
ATOM      5  N   UNL     1      39.791 134.257  18.265  1.00  0.00    -0.062 NA
ATOM      6  C   UNL     1      39.903 133.652  16.189  1.00  0.00     0.140 A 
ATOM      7  N   UNL     1      38.677 134.706  17.701  1.00  0.00    -0.135 NA
BRANCH   4   8
ATOM      8  C   UNL     1      41.779 132.966  17.680  1.00  0.00     0.076 A 
ATOM      9  C   UNL     1      43.350 131.951  14.371  1.00  0.00     0.001 A 
ATOM     10  C   UNL     1      44.494 131.273  14.856  1.00  0.00     0.011 A 
ATOM     11  C   UNL     1      42.412 132.529  15.268  1.00  0.00     0.011 A 
ATOM     12  C   UNL     1      44.661 131.192  16.238  1.00  0.00     0.006 A 
ATOM     13  C   UNL     1      42.607 132.414  16.666  1.00  0.00     0.007 A 
ATOM     14  C   UNL     1      43.751 131.744  17.081  1.00  0.00    -0.019 A 
ATOM     15  C   UNL     1      45.706 130.655  17.106  1.00  0.00     0.086 C 
ATOM     16  C   UNL     1      44.145 131.606  18.382  1.00  0.00    -0.098 A 
ATOM     17  N   UNL     1      45.397 130.908  18.485  1.00  0.00    -0.620 NA
ATOM     18  C   UNL     1      42.185 132.848  19.041  1.00  0.00     0.057 A 
ATOM     19  C   UNL     1      43.382 132.162  19.407  1.00  0.00     0.064 A 
ATOM     20  O   UNL     1      46.752 130.064  16.719  1.00  0.00    -0.315 OA
BRANCH  19  21
ATOM     21  N   UNL     1      43.821 132.027  20.769  1.00  0.00    -0.169 NA
BRANCH  21  22
ATOM     22  C   UNL     1      44.484 132.920  21.385  1.00  0.00     0.240 C 
ATOM     23  O   UNL     1      45.126 133.790  21.984  1.00  0.00    -0.211 OA
ENDBRANCH  21  22
ENDBRANCH  19  21
ENDBRANCH   4   8
ENDBRANCH   2   3
ENDBRANCH   1   2
BRANCH   1  24
ATOM     24  C   UNL     1      37.570 137.166  15.231  1.00  0.00     0.016 C 
BRANCH  24  25
ATOM     25  C   UNL     1      38.534 136.909  14.058  1.00  0.00     0.085 C 
BRANCH  25  26
ATOM     26  N   UNL     1      37.818 136.993  12.763  1.00  0.00    -0.291 NA
ATOM     27  C   UNL     1      38.124 138.263  12.068  1.00  0.00     0.106 C 
BRANCH  26  28
ATOM     28  C   UNL     1      38.027 135.820  11.868  1.00  0.00     0.157 C 
ATOM     29  C   UNL     1      37.032 134.663  12.103  1.00  0.00     0.041 C 
BRANCH  28  30
ATOM     30  C   UNL     1      37.979 136.249  10.453  1.00  0.00     0.081 C 
ATOM     31  N   UNL     1      37.936 136.575   9.343  1.00  0.00    -0.197 NA
ENDBRANCH  28  30
ENDBRANCH  26  28
ENDBRANCH  25  26
ENDBRANCH  24  25
ENDBRANCH   1  24
TORSDOF 10
ENDMDL
MODEL 7
REMARK VINA RESULT:      -5.0      3.811      7.651
REMARK SMILES C[C@@H](C#N)N(C)CCCCc1cn(-c2cc(N=C=O)c3c4c(cccc24)C(=O)[N-]3)nn1
REMARK SMILES IDX 9 1 10 2 11 3 13 4 30 5 12 6 31 7 14 8 24 9 23 10 25 11
REMARK SMILES IDX 22 12 26 13 21 14 27 15 20 16 29 17 15 18 16 19 28 20 17 21
REMARK SMILES IDX 18 22 19 23 8 24 7 25 5 26 6 27 2 28 1 29 3 30 4 31
REMARK H PARENT
ROOT
ATOM      1  C   UNL     1      44.857 132.509  24.232  1.00  0.00     0.008 C 
ENDROOT
BRANCH   1   2
ATOM      2  C   UNL     1      44.147 131.438  23.392  1.00  0.00     0.060 C 
BRANCH   2   3
ATOM      3  C   UNL     1      44.602 131.457  21.967  1.00  0.00     0.083 A 
ATOM      4  N   UNL     1      44.661 131.663  19.802  1.00  0.00    -0.220 N 
ATOM      5  N   UNL     1      45.790 131.107  20.216  1.00  0.00    -0.062 NA
ATOM      6  C   UNL     1      43.875 131.876  20.873  1.00  0.00     0.140 A 
ATOM      7  N   UNL     1      45.785 130.974  21.537  1.00  0.00    -0.135 NA
BRANCH   4   8
ATOM      8  C   UNL     1      44.320 131.865  18.420  1.00  0.00     0.076 A 
ATOM      9  C   UNL     1      40.905 133.531  18.354  1.00  0.00     0.001 A 
ATOM     10  C   UNL     1      40.709 133.603  16.954  1.00  0.00     0.011 A 
ATOM     11  C   UNL     1      42.087 132.958  18.895  1.00  0.00     0.011 A 
ATOM     12  C   UNL     1      41.713 133.090  16.133  1.00  0.00     0.006 A 
ATOM     13  C   UNL     1      43.079 132.434  18.030  1.00  0.00     0.007 A 
ATOM     14  C   UNL     1      42.833 132.539  16.667  1.00  0.00    -0.019 A 
ATOM     15  C   UNL     1      41.916 133.037  14.687  1.00  0.00     0.086 C 
ATOM     16  C   UNL     1      43.707 132.165  15.687  1.00  0.00    -0.098 A 
ATOM     17  N   UNL     1      43.188 132.447  14.377  1.00  0.00    -0.620 NA
ATOM     18  C   UNL     1      45.252 131.486  17.410  1.00  0.00     0.057 A 
ATOM     19  C   UNL     1      44.952 131.635  16.023  1.00  0.00     0.064 A 
ATOM     20  O   UNL     1      41.108 133.460  13.815  1.00  0.00    -0.315 OA
BRANCH  19  21
ATOM     21  N   UNL     1      45.869 131.266  14.980  1.00  0.00    -0.169 NA
BRANCH  21  22
ATOM     22  C   UNL     1      46.067 130.066  14.611  1.00  0.00     0.240 C 
ATOM     23  O   UNL     1      46.257 128.899  14.252  1.00  0.00    -0.211 OA
ENDBRANCH  21  22
ENDBRANCH  19  21
ENDBRANCH   4   8
ENDBRANCH   2   3
ENDBRANCH   1   2
BRANCH   1  24
ATOM     24  C   UNL     1      45.579 133.582  23.400  1.00  0.00     0.016 C 
BRANCH  24  25
ATOM     25  C   UNL     1      44.911 134.965  23.505  1.00  0.00     0.085 C 
BRANCH  25  26
ATOM     26  N   UNL     1      45.235 135.796  22.321  1.00  0.00    -0.291 NA
ATOM     27  C   UNL     1      46.687 135.768  22.033  1.00  0.00     0.106 C 
BRANCH  26  28
ATOM     28  C   UNL     1      44.434 135.475  21.107  1.00  0.00     0.157 C 
ATOM     29  C   UNL     1      42.907 135.579  21.313  1.00  0.00     0.041 C 
BRANCH  28  30
ATOM     30  C   UNL     1      44.852 136.340  19.982  1.00  0.00     0.081 C 
ATOM     31  N   UNL     1      45.175 137.027  19.107  1.00  0.00    -0.197 NA
ENDBRANCH  28  30
ENDBRANCH  26  28
ENDBRANCH  25  26
ENDBRANCH  24  25
ENDBRANCH   1  24
TORSDOF 10
ENDMDL
MODEL 8
REMARK VINA RESULT:      -5.0      2.416      4.061
REMARK SMILES C[C@@H](C#N)N(C)CCCCc1cn(-c2cc(N=C=O)c3c4c(cccc24)C(=O)[N-]3)nn1
REMARK SMILES IDX 9 1 10 2 11 3 13 4 30 5 12 6 31 7 14 8 24 9 23 10 25 11
REMARK SMILES IDX 22 12 26 13 21 14 27 15 20 16 29 17 15 18 16 19 28 20 17 21
REMARK SMILES IDX 18 22 19 23 8 24 7 25 5 26 6 27 2 28 1 29 3 30 4 31
REMARK H PARENT
ROOT
ATOM      1  C   UNL     1      38.122 137.597  18.769  1.00  0.00     0.008 C 
ENDROOT
BRANCH   1   2
ATOM      2  C   UNL     1      38.965 137.333  20.025  1.00  0.00     0.060 C 
BRANCH   2   3
ATOM      3  C   UNL     1      39.767 136.076  19.903  1.00  0.00     0.083 A 
ATOM      4  N   UNL     1      41.046 134.487  19.148  1.00  0.00    -0.220 N 
ATOM      5  N   UNL     1      40.523 134.110  20.306  1.00  0.00    -0.062 NA
ATOM      6  C   UNL     1      40.574 135.710  18.847  1.00  0.00     0.140 A 
ATOM      7  N   UNL     1      39.741 135.065  20.793  1.00  0.00    -0.135 NA
BRANCH   4   8
ATOM      8  C   UNL     1      41.870 133.646  18.323  1.00  0.00     0.076 A 
ATOM      9  C   UNL     1      44.472 132.068  20.599  1.00  0.00     0.001 A 
ATOM     10  C   UNL     1      45.209 131.336  19.637  1.00  0.00     0.011 A 
ATOM     11  C   UNL     1      43.355 132.856  20.215  1.00  0.00     0.011 A 
ATOM     12  C   UNL     1      44.801 131.423  18.307  1.00  0.00     0.006 A 
ATOM     13  C   UNL     1      42.978 132.931  18.852  1.00  0.00     0.007 A 
ATOM     14  C   UNL     1      43.734 132.186  17.956  1.00  0.00    -0.019 A 
ATOM     15  C   UNL     1      45.238 130.788  17.066  1.00  0.00     0.086 C 
ATOM     16  C   UNL     1      43.471 132.072  16.620  1.00  0.00    -0.098 A 
ATOM     17  N   UNL     1      44.401 131.190  15.970  1.00  0.00    -0.620 NA
ATOM     18  C   UNL     1      41.570 133.522  16.934  1.00  0.00     0.057 A 
ATOM     19  C   UNL     1      42.373 132.726  16.064  1.00  0.00     0.064 A 
ATOM     20  O   UNL     1      46.203 129.983  16.952  1.00  0.00    -0.315 OA
BRANCH  19  21
ATOM     21  N   UNL     1      42.097 132.579  14.662  1.00  0.00    -0.169 NA
BRANCH  21  22
ATOM     22  C   UNL     1      41.540 133.478  13.957  1.00  0.00     0.240 C 
ATOM     23  O   UNL     1      40.999 134.354  13.274  1.00  0.00    -0.211 OA
ENDBRANCH  21  22
ENDBRANCH  19  21
ENDBRANCH   4   8
ENDBRANCH   2   3
ENDBRANCH   1   2
BRANCH   1  24
ATOM     24  C   UNL     1      37.473 136.336  18.174  1.00  0.00     0.016 C 
BRANCH  24  25
ATOM     25  C   UNL     1      37.135 136.490  16.680  1.00  0.00     0.085 C 
BRANCH  25  26
ATOM     26  N   UNL     1      38.138 135.792  15.841  1.00  0.00    -0.291 NA
ATOM     27  C   UNL     1      37.553 134.594  15.198  1.00  0.00     0.106 C 
BRANCH  26  28
ATOM     28  C   UNL     1      38.820 136.665  14.844  1.00  0.00     0.157 C 
ATOM     29  C   UNL     1      37.900 137.725  14.200  1.00  0.00     0.041 C 
BRANCH  28  30
ATOM     30  C   UNL     1      39.991 137.321  15.463  1.00  0.00     0.081 C 
ATOM     31  N   UNL     1      40.906 137.831  15.958  1.00  0.00    -0.197 NA
ENDBRANCH  28  30
ENDBRANCH  26  28
ENDBRANCH  25  26
ENDBRANCH  24  25
ENDBRANCH   1  24
TORSDOF 10
ENDMDL
MODEL 9
REMARK VINA RESULT:      -4.9      3.726      6.472
REMARK SMILES C[C@@H](C#N)N(C)CCCCc1cn(-c2cc(N=C=O)c3c4c(cccc24)C(=O)[N-]3)nn1
REMARK SMILES IDX 9 1 10 2 11 3 13 4 30 5 12 6 31 7 14 8 24 9 23 10 25 11
REMARK SMILES IDX 22 12 26 13 21 14 27 15 20 16 29 17 15 18 16 19 28 20 17 21
REMARK SMILES IDX 18 22 19 23 8 24 7 25 5 26 6 27 2 28 1 29 3 30 4 31
REMARK H PARENT
ROOT
ATOM      1  C   UNL     1      39.964 134.522  21.854  1.00  0.00     0.008 C 
ENDROOT
BRANCH   1   2
ATOM      2  C   UNL     1      41.490 134.420  21.981  1.00  0.00     0.060 C 
BRANCH   2   3
ATOM      3  C   UNL     1      42.069 133.468  20.982  1.00  0.00     0.083 A 
ATOM      4  N   UNL     1      42.744 132.550  19.129  1.00  0.00    -0.220 N 
ATOM      5  N   UNL     1      42.823 131.661  20.109  1.00  0.00    -0.062 NA
ATOM      6  C   UNL     1      42.249 133.695  19.634  1.00  0.00     0.140 A 
ATOM      7  N   UNL     1      42.422 132.196  21.254  1.00  0.00    -0.135 NA
BRANCH   4   8
ATOM      8  C   UNL     1      43.025 132.258  17.750  1.00  0.00     0.076 A 
ATOM      9  C   UNL     1      46.259 130.263  17.677  1.00  0.00     0.001 A 
ATOM     10  C   UNL     1      46.408 130.114  16.277  1.00  0.00     0.011 A 
ATOM     11  C   UNL     1      45.154 130.971  18.219  1.00  0.00     0.011 A 
ATOM     12  C   UNL     1      45.437 130.689  15.458  1.00  0.00     0.006 A 
ATOM     13  C   UNL     1      44.195 131.554  17.356  1.00  0.00     0.007 A 
ATOM     14  C   UNL     1      44.391 131.369  15.994  1.00  0.00    -0.019 A 
ATOM     15  C   UNL     1      45.201 130.702  14.017  1.00  0.00     0.086 C 
ATOM     16  C   UNL     1      43.531 131.787  15.018  1.00  0.00    -0.098 A 
ATOM     17  N   UNL     1      43.984 131.401  13.710  1.00  0.00    -0.620 NA
ATOM     18  C   UNL     1      42.107 132.685  16.746  1.00  0.00     0.057 A 
ATOM     19  C   UNL     1      42.353 132.450  15.360  1.00  0.00     0.064 A 
ATOM     20  O   UNL     1      45.939 130.165  13.145  1.00  0.00    -0.315 OA
BRANCH  19  21
ATOM     21  N   UNL     1      41.448 132.865  14.324  1.00  0.00    -0.169 NA
BRANCH  21  22
ATOM     22  C   UNL     1      40.631 133.831  14.449  1.00  0.00     0.240 C 
ATOM     23  O   UNL     1      39.836 134.769  14.574  1.00  0.00    -0.211 OA
ENDBRANCH  21  22
ENDBRANCH  19  21
ENDBRANCH   4   8
ENDBRANCH   2   3
ENDBRANCH   1   2
BRANCH   1  24
ATOM     24  C   UNL     1      39.476 135.809  21.168  1.00  0.00     0.016 C 
BRANCH  24  25
ATOM     25  C   UNL     1      40.538 136.924  21.171  1.00  0.00     0.085 C 
BRANCH  25  26
ATOM     26  N   UNL     1      39.898 138.259  21.217  1.00  0.00    -0.291 NA
ATOM     27  C   UNL     1      38.518 138.206  20.683  1.00  0.00     0.106 C 
BRANCH  26  28
ATOM     28  C   UNL     1      39.937 138.915  22.554  1.00  0.00     0.157 C 
ATOM     29  C   UNL     1      38.889 138.377  23.552  1.00  0.00     0.041 C 
BRANCH  28  30
ATOM     30  C   UNL     1      41.293 138.800  23.134  1.00  0.00     0.081 C 
ATOM     31  N   UNL     1      42.355 138.699  23.585  1.00  0.00    -0.197 NA
ENDBRANCH  28  30
ENDBRANCH  26  28
ENDBRANCH  25  26
ENDBRANCH  24  25
ENDBRANCH   1  24
TORSDOF 10
ENDMDL


