MODEL 1
REMARK VINA RESULT:      -7.7      0.000      0.000
REMARK SMILES C#CCO/C([O-])=C\[C@H]1CC[C@@H]2C(=O)N([O-])C(=O)c3ccc(N=[N+]=[N-])c1c32
REMARK SMILES IDX 5 1 6 2 4 3 3 4 2 5 1 6 7 7 8 8 25 9 9 10 21 11 26 12 10 13
REMARK SMILES IDX 20 14 18 15 11 16 19 17 16 18 12 19 14 20 17 21 13 22 15 23
REMARK SMILES IDX 22 24 23 25 24 26
REMARK H PARENT
ROOT
ATOM      1  C   UNL     1      46.003 129.703  16.057  1.00  0.00     0.049 C 
ATOM      2  O   UNL     1      45.252 128.688  15.473  1.00  0.00    -0.547 OA
ENDROOT
BRANCH   1   3
ATOM      3  O   UNL     1      47.296 129.972  15.604  1.00  0.00    -0.601 OA
BRANCH   3   4
ATOM      4  C   UNL     1      47.819 129.437  14.398  1.00  0.00     0.160 C 
BRANCH   4   5
ATOM      5  C   UNL     1      47.180 130.111  13.267  1.00  0.00    -0.095 C 
ATOM      6  C   UNL     1      46.646 130.659  12.337  1.00  0.00     0.005 C 
ENDBRANCH   4   5
ENDBRANCH   3   4
ENDBRANCH   1   3
BRANCH   1   7
ATOM      7  C   UNL     1      45.471 130.426  17.050  1.00  0.00     0.005 C 
BRANCH   7   8
ATOM      8  C   UNL     1      45.010 131.860  16.876  1.00  0.00     0.044 C 
ATOM      9  C   UNL     1      43.805 132.174  17.770  1.00  0.00    -0.027 A 
ATOM     10  C   UNL     1      44.813 132.156  15.369  1.00  0.00     0.014 C 
ATOM     11  C   UNL     1      43.919 132.003  19.171  1.00  0.00     0.042 A 
ATOM     12  C   UNL     1      42.588 132.674  17.225  1.00  0.00    -0.019 A 
ATOM     13  C   UNL     1      43.798 133.266  15.119  1.00  0.00     0.019 C 
ATOM     14  C   UNL     1      42.809 132.246  19.996  1.00  0.00     0.011 A 
ATOM     15  C   UNL     1      41.490 132.923  18.080  1.00  0.00     0.043 A 
ATOM     16  C   UNL     1      42.447 132.856  15.720  1.00  0.00     0.109 C 
ATOM     17  C   UNL     1      41.609 132.690  19.456  1.00  0.00     0.014 A 
ATOM     18  C   UNL     1      40.241 133.490  17.533  1.00  0.00     0.250 C 
ATOM     19  C   UNL     1      41.355 133.836  15.349  1.00  0.00     0.226 C 
ATOM     20  N   UNL     1      40.220 134.002  16.201  1.00  0.00    -0.351 N 
ATOM     21  O   UNL     1      39.201 133.558  18.245  1.00  0.00    -0.269 OA
ATOM     22  O   UNL     1      41.384 134.427  14.234  1.00  0.00    -0.275 OA
ATOM     23  O   UNL     1      39.134 134.679  15.755  1.00  0.00    -0.749 OA
BRANCH  11  24
ATOM     24  N   UNL     1      45.172 131.585  19.739  1.00  0.00    -0.060 NA
BRANCH  24  25
ATOM     25  N   UNL     1      45.299 131.292  20.929  1.00  0.00     0.005 N 
ATOM     26  N   UNL     1      45.426 130.999  22.117  1.00  0.00    -0.003 NA
ENDBRANCH  24  25
ENDBRANCH  11  24
ENDBRANCH   7   8
ENDBRANCH   1   7
TORSDOF 7
ENDMDL
MODEL 2
REMARK VINA RESULT:      -7.7      3.163      4.890
REMARK SMILES C#CCO/C([O-])=C\[C@H]1CC[C@@H]2C(=O)N([O-])C(=O)c3ccc(N=[N+]=[N-])c1c32
REMARK SMILES IDX 5 1 6 2 4 3 3 4 2 5 1 6 7 7 8 8 25 9 9 10 21 11 26 12 10 13
REMARK SMILES IDX 20 14 18 15 11 16 19 17 16 18 12 19 14 20 17 21 13 22 15 23
REMARK SMILES IDX 22 24 23 25 24 26
REMARK H PARENT
ROOT
ATOM      1  C   UNL     1      45.874 130.615  15.912  1.00  0.00     0.049 C 
ATOM      2  O   UNL     1      47.017 129.977  16.383  1.00  0.00    -0.547 OA
ENDROOT
BRANCH   1   3
ATOM      3  O   UNL     1      45.046 129.981  14.984  1.00  0.00    -0.601 OA
BRANCH   3   4
ATOM      4  C   UNL     1      44.832 130.478  13.672  1.00  0.00     0.160 C 
BRANCH   4   5
ATOM      5  C   UNL     1      46.116 130.527  12.971  1.00  0.00    -0.095 C 
ATOM      6  C   UNL     1      47.176 130.559  12.399  1.00  0.00     0.005 C 
ENDBRANCH   4   5
ENDBRANCH   3   4
ENDBRANCH   1   3
BRANCH   1   7
ATOM      7  C   UNL     1      45.570 131.837  16.364  1.00  0.00     0.005 C 
BRANCH   7   8
ATOM      8  C   UNL     1      44.448 132.101  17.348  1.00  0.00     0.044 C 
ATOM      9  C   UNL     1      44.121 133.597  17.440  1.00  0.00    -0.027 A 
ATOM     10  C   UNL     1      44.774 131.411  18.695  1.00  0.00     0.014 C 
ATOM     11  C   UNL     1      43.739 134.295  16.268  1.00  0.00     0.042 A 
ATOM     12  C   UNL     1      44.151 134.287  18.684  1.00  0.00    -0.019 A 
ATOM     13  C   UNL     1      44.101 132.093  19.880  1.00  0.00     0.019 C 
ATOM     14  C   UNL     1      43.480 135.672  16.331  1.00  0.00     0.011 A 
ATOM     15  C   UNL     1      43.873 135.673  18.721  1.00  0.00     0.043 A 
ATOM     16  C   UNL     1      44.567 133.553  19.951  1.00  0.00     0.109 C 
ATOM     17  C   UNL     1      43.555 136.353  17.539  1.00  0.00     0.014 A 
ATOM     18  C   UNL     1      43.852 136.388  20.013  1.00  0.00     0.250 C 
ATOM     19  C   UNL     1      44.073 134.232  21.210  1.00  0.00     0.226 C 
ATOM     20  N   UNL     1      43.878 135.648  21.233  1.00  0.00    -0.351 N 
ATOM     21  O   UNL     1      43.774 137.648  20.048  1.00  0.00    -0.269 OA
ATOM     22  O   UNL     1      43.938 133.572  22.277  1.00  0.00    -0.275 OA
ATOM     23  O   UNL     1      43.683 136.284  22.413  1.00  0.00    -0.749 OA
BRANCH  11  24
ATOM     24  N   UNL     1      43.618 133.585  15.023  1.00  0.00    -0.060 NA
BRANCH  24  25
ATOM     25  N   UNL     1      42.541 133.158  14.603  1.00  0.00     0.005 N 
ATOM     26  N   UNL     1      41.465 132.730  14.186  1.00  0.00    -0.003 NA
ENDBRANCH  24  25
ENDBRANCH  11  24
ENDBRANCH   7   8
ENDBRANCH   1   7
TORSDOF 7
ENDMDL
MODEL 3
REMARK VINA RESULT:      -7.5      2.881      4.743
REMARK SMILES C#CCO/C([O-])=C\[C@H]1CC[C@@H]2C(=O)N([O-])C(=O)c3ccc(N=[N+]=[N-])c1c32
REMARK SMILES IDX 5 1 6 2 4 3 3 4 2 5 1 6 7 7 8 8 25 9 9 10 21 11 26 12 10 13
REMARK SMILES IDX 20 14 18 15 11 16 19 17 16 18 12 19 14 20 17 21 13 22 15 23
REMARK SMILES IDX 22 24 23 25 24 26
REMARK H PARENT
ROOT
ATOM      1  C   UNL     1      45.982 130.199  15.837  1.00  0.00     0.049 C 
ATOM      2  O   UNL     1      45.152 129.106  15.606  1.00  0.00    -0.547 OA
ENDROOT
BRANCH   1   3
ATOM      3  O   UNL     1      47.312 130.174  15.415  1.00  0.00    -0.601 OA
BRANCH   3   4
ATOM      4  C   UNL     1      47.758 129.404  14.309  1.00  0.00     0.160 C 
BRANCH   4   5
ATOM      5  C   UNL     1      47.380 130.089  13.074  1.00  0.00    -0.095 C 
ATOM      6  C   UNL     1      47.073 130.646  12.050  1.00  0.00     0.005 C 
ENDBRANCH   4   5
ENDBRANCH   3   4
ENDBRANCH   1   3
BRANCH   1   7
ATOM      7  C   UNL     1      45.491 131.278  16.459  1.00  0.00     0.005 C 
BRANCH   7   8
ATOM      8  C   UNL     1      44.705 131.202  17.753  1.00  0.00     0.044 C 
ATOM      9  C   UNL     1      43.902 132.485  17.998  1.00  0.00    -0.027 A 
ATOM     10  C   UNL     1      45.651 130.782  18.904  1.00  0.00     0.014 C 
ATOM     11  C   UNL     1      42.958 132.907  17.030  1.00  0.00     0.042 A 
ATOM     12  C   UNL     1      44.056 133.238  19.196  1.00  0.00    -0.019 A 
ATOM     13  C   UNL     1      45.170 131.272  20.265  1.00  0.00     0.019 C 
ATOM     14  C   UNL     1      42.249 134.102  17.223  1.00  0.00     0.011 A 
ATOM     15  C   UNL     1      43.319 134.433  19.370  1.00  0.00     0.043 A 
ATOM     16  C   UNL     1      45.073 132.803  20.242  1.00  0.00     0.109 C 
ATOM     17  C   UNL     1      42.435 134.859  18.373  1.00  0.00     0.014 A 
ATOM     18  C   UNL     1      43.433 135.194  20.631  1.00  0.00     0.250 C 
ATOM     19  C   UNL     1      44.773 133.359  21.617  1.00  0.00     0.226 C 
ATOM     20  N   UNL     1      44.095 134.610  21.753  1.00  0.00    -0.351 N 
ATOM     21  O   UNL     1      42.918 136.341  20.737  1.00  0.00    -0.269 OA
ATOM     22  O   UNL     1      45.216 132.781  22.648  1.00  0.00    -0.275 OA
ATOM     23  O   UNL     1      44.050 135.227  22.959  1.00  0.00    -0.749 OA
BRANCH  11  24
ATOM     24  N   UNL     1      42.731 132.104  15.859  1.00  0.00    -0.060 NA
BRANCH  24  25
ATOM     25  N   UNL     1      42.123 132.524  14.873  1.00  0.00     0.005 N 
ATOM     26  N   UNL     1      41.517 132.943  13.888  1.00  0.00    -0.003 NA
ENDBRANCH  24  25
ENDBRANCH  11  24
ENDBRANCH   7   8
ENDBRANCH   1   7
TORSDOF 7
ENDMDL
MODEL 4
REMARK VINA RESULT:      -7.0      3.059      4.920
REMARK SMILES C#CCO/C([O-])=C\[C@H]1CC[C@@H]2C(=O)N([O-])C(=O)c3ccc(N=[N+]=[N-])c1c32
REMARK SMILES IDX 5 1 6 2 4 3 3 4 2 5 1 6 7 7 8 8 25 9 9 10 21 11 26 12 10 13
REMARK SMILES IDX 20 14 18 15 11 16 19 17 16 18 12 19 14 20 17 21 13 22 15 23
REMARK SMILES IDX 22 24 23 25 24 26
REMARK H PARENT
ROOT
ATOM      1  C   UNL     1      45.802 131.663  15.652  1.00  0.00     0.049 C 
ATOM      2  O   UNL     1      46.005 133.004  15.342  1.00  0.00    -0.547 OA
ENDROOT
BRANCH   1   3
ATOM      3  O   UNL     1      46.874 130.768  15.636  1.00  0.00    -0.601 OA
BRANCH   3   4
ATOM      4  C   UNL     1      46.955 129.674  14.736  1.00  0.00     0.160 C 
BRANCH   4   5
ATOM      5  C   UNL     1      46.983 130.190  13.367  1.00  0.00    -0.095 C 
ATOM      6  C   UNL     1      47.016 130.618  12.241  1.00  0.00     0.005 C 
ENDBRANCH   4   5
ENDBRANCH   3   4
ENDBRANCH   1   3
BRANCH   1   7
ATOM      7  C   UNL     1      44.575 131.240  15.975  1.00  0.00     0.005 C 
BRANCH   7   8
ATOM      8  C   UNL     1      43.936 131.504  17.324  1.00  0.00     0.044 C 
ATOM      9  C   UNL     1      43.506 132.969  17.464  1.00  0.00    -0.027 A 
ATOM     10  C   UNL     1      44.864 130.976  18.444  1.00  0.00     0.014 C 
ATOM     11  C   UNL     1      42.598 133.518  16.525  1.00  0.00     0.042 A 
ATOM     12  C   UNL     1      43.966 133.776  18.543  1.00  0.00    -0.019 A 
ATOM     13  C   UNL     1      44.665 131.711  19.764  1.00  0.00     0.019 C 
ATOM     14  C   UNL     1      42.231 134.869  16.618  1.00  0.00     0.011 A 
ATOM     15  C   UNL     1      43.570 135.132  18.619  1.00  0.00     0.043 A 
ATOM     16  C   UNL     1      44.948 133.205  19.556  1.00  0.00     0.109 C 
ATOM     17  C   UNL     1      42.718 135.667  17.646  1.00  0.00     0.014 A 
ATOM     18  C   UNL     1      44.001 135.964  19.761  1.00  0.00     0.250 C 
ATOM     19  C   UNL     1      44.941 133.958  20.868  1.00  0.00     0.226 C 
ATOM     20  N   UNL     1      44.612 135.349  20.895  1.00  0.00    -0.351 N 
ATOM     21  O   UNL     1      43.800 137.210  19.759  1.00  0.00    -0.269 OA
ATOM     22  O   UNL     1      45.334 133.395  21.926  1.00  0.00    -0.275 OA
ATOM     23  O   UNL     1      44.849 136.077  22.012  1.00  0.00    -0.749 OA
BRANCH  11  24
ATOM     24  N   UNL     1      42.057 132.684  15.486  1.00  0.00    -0.060 NA
BRANCH  24  25
ATOM     25  N   UNL     1      41.190 133.076  14.703  1.00  0.00     0.005 N 
ATOM     26  N   UNL     1      40.324 133.468  13.922  1.00  0.00    -0.003 NA
ENDBRANCH  24  25
ENDBRANCH  11  24
ENDBRANCH   7   8
ENDBRANCH   1   7
TORSDOF 7
ENDMDL
MODEL 5
REMARK VINA RESULT:      -7.0      3.069      4.751
REMARK SMILES C#CCO/C([O-])=C\[C@H]1CC[C@@H]2C(=O)N([O-])C(=O)c3ccc(N=[N+]=[N-])c1c32
REMARK SMILES IDX 5 1 6 2 4 3 3 4 2 5 1 6 7 7 8 8 25 9 9 10 21 11 26 12 10 13
REMARK SMILES IDX 20 14 18 15 11 16 19 17 16 18 12 19 14 20 17 21 13 22 15 23
REMARK SMILES IDX 22 24 23 25 24 26
REMARK H PARENT
ROOT
ATOM      1  C   UNL     1      45.931 130.250  15.766  1.00  0.00     0.049 C 
ATOM      2  O   UNL     1      44.845 129.541  15.261  1.00  0.00    -0.547 OA
ENDROOT
BRANCH   1   3
ATOM      3  O   UNL     1      47.220 129.723  15.674  1.00  0.00    -0.601 OA
BRANCH   3   4
ATOM      4  C   UNL     1      48.044 129.892  14.530  1.00  0.00     0.160 C 
BRANCH   4   5
ATOM      5  C   UNL     1      47.203 130.268  13.394  1.00  0.00    -0.095 C 
ATOM      6  C   UNL     1      46.508 130.567  12.456  1.00  0.00     0.005 C 
ENDBRANCH   4   5
ENDBRANCH   3   4
ENDBRANCH   1   3
BRANCH   1   7
ATOM      7  C   UNL     1      45.729 131.446  16.332  1.00  0.00     0.005 C 
BRANCH   7   8
ATOM      8  C   UNL     1      44.622 131.712  17.333  1.00  0.00     0.044 C 
ATOM      9  C   UNL     1      44.264 133.202  17.391  1.00  0.00    -0.027 A 
ATOM     10  C   UNL     1      44.988 131.065  18.690  1.00  0.00     0.014 C 
ATOM     11  C   UNL     1      43.845 133.861  16.209  1.00  0.00     0.042 A 
ATOM     12  C   UNL     1      44.305 133.926  18.616  1.00  0.00    -0.019 A 
ATOM     13  C   UNL     1      44.325 131.764  19.870  1.00  0.00     0.019 C 
ATOM     14  C   UNL     1      43.558 135.234  16.242  1.00  0.00     0.011 A 
ATOM     15  C   UNL     1      43.998 135.307  18.623  1.00  0.00     0.043 A 
ATOM     16  C   UNL     1      44.761 133.235  19.894  1.00  0.00     0.109 C 
ATOM     17  C   UNL     1      43.643 135.948  17.430  1.00  0.00     0.014 A 
ATOM     18  C   UNL     1      43.987 136.055  19.896  1.00  0.00     0.250 C 
ATOM     19  C   UNL     1      44.278 133.937  21.144  1.00  0.00     0.226 C 
ATOM     20  N   UNL     1      44.053 135.348  21.134  1.00  0.00    -0.351 N 
ATOM     21  O   UNL     1      43.883 137.313  19.900  1.00  0.00    -0.269 OA
ATOM     22  O   UNL     1      44.178 133.302  22.230  1.00  0.00    -0.275 OA
ATOM     23  O   UNL     1      43.869 136.011  22.301  1.00  0.00    -0.749 OA
BRANCH  11  24
ATOM     24  N   UNL     1      43.714 133.116  14.986  1.00  0.00    -0.060 NA
BRANCH  24  25
ATOM     25  N   UNL     1      42.621 132.794  14.518  1.00  0.00     0.005 N 
ATOM     26  N   UNL     1      41.530 132.473  14.048  1.00  0.00    -0.003 NA
ENDBRANCH  24  25
ENDBRANCH  11  24
ENDBRANCH   7   8
ENDBRANCH   1   7
TORSDOF 7
ENDMDL
MODEL 6
REMARK VINA RESULT:      -6.9      3.196      6.017
REMARK SMILES C#CCO/C([O-])=C\[C@H]1CC[C@@H]2C(=O)N([O-])C(=O)c3ccc(N=[N+]=[N-])c1c32
REMARK SMILES IDX 5 1 6 2 4 3 3 4 2 5 1 6 7 7 8 8 25 9 9 10 21 11 26 12 10 13
REMARK SMILES IDX 20 14 18 15 11 16 19 17 16 18 12 19 14 20 17 21 13 22 15 23
REMARK SMILES IDX 22 24 23 25 24 26
REMARK H PARENT
ROOT
ATOM      1  C   UNL     1      42.039 133.145  14.973  1.00  0.00     0.049 C 
ATOM      2  O   UNL     1      41.737 132.164  14.033  1.00  0.00    -0.547 OA
ENDROOT
BRANCH   1   3
ATOM      3  O   UNL     1      41.194 133.358  16.063  1.00  0.00    -0.601 OA
BRANCH   3   4
ATOM      4  C   UNL     1      39.967 134.065  15.964  1.00  0.00     0.160 C 
BRANCH   4   5
ATOM      5  C   UNL     1      39.167 133.792  17.158  1.00  0.00    -0.095 C 
ATOM      6  C   UNL     1      38.500 133.565  18.135  1.00  0.00     0.005 C 
ENDBRANCH   4   5
ENDBRANCH   3   4
ENDBRANCH   1   3
BRANCH   1   7
ATOM      7  C   UNL     1      43.152 133.874  14.828  1.00  0.00     0.005 C 
BRANCH   7   8
ATOM      8  C   UNL     1      44.019 134.303  15.995  1.00  0.00     0.044 C 
ATOM      9  C   UNL     1      44.466 133.100  16.834  1.00  0.00    -0.027 A 
ATOM     10  C   UNL     1      43.305 135.430  16.779  1.00  0.00     0.014 C 
ATOM     11  C   UNL     1      45.192 132.054  16.214  1.00  0.00     0.042 A 
ATOM     12  C   UNL     1      44.203 133.033  18.231  1.00  0.00    -0.019 A 
ATOM     13  C   UNL     1      43.734 135.488  18.241  1.00  0.00     0.019 C 
ATOM     14  C   UNL     1      45.568 130.928  16.962  1.00  0.00     0.011 A 
ATOM     15  C   UNL     1      44.605 131.892  18.964  1.00  0.00     0.043 A 
ATOM     16  C   UNL     1      43.417 134.145  18.911  1.00  0.00     0.109 C 
ATOM     17  C   UNL     1      45.270 130.844  18.316  1.00  0.00     0.014 A 
ATOM     18  C   UNL     1      44.382 131.835  20.423  1.00  0.00     0.250 C 
ATOM     19  C   UNL     1      43.655 134.202  20.405  1.00  0.00     0.226 C 
ATOM     20  N   UNL     1      43.982 133.011  21.125  1.00  0.00    -0.351 N 
ATOM     21  O   UNL     1      44.578 130.763  21.060  1.00  0.00    -0.269 OA
ATOM     22  O   UNL     1      43.456 135.274  21.040  1.00  0.00    -0.275 OA
ATOM     23  O   UNL     1      43.947 133.010  22.479  1.00  0.00    -0.749 OA
BRANCH  11  24
ATOM     24  N   UNL     1      45.541 132.156  14.822  1.00  0.00    -0.060 NA
BRANCH  24  25
ATOM     25  N   UNL     1      45.781 131.170  14.123  1.00  0.00     0.005 N 
ATOM     26  N   UNL     1      46.022 130.186  13.424  1.00  0.00    -0.003 NA
ENDBRANCH  24  25
ENDBRANCH  11  24
ENDBRANCH   7   8
ENDBRANCH   1   7
TORSDOF 7
ENDMDL
MODEL 7
REMARK VINA RESULT:      -6.8      2.707      4.826
REMARK SMILES C#CCO/C([O-])=C\[C@H]1CC[C@@H]2C(=O)N([O-])C(=O)c3ccc(N=[N+]=[N-])c1c32
REMARK SMILES IDX 5 1 6 2 4 3 3 4 2 5 1 6 7 7 8 8 25 9 9 10 21 11 26 12 10 13
REMARK SMILES IDX 20 14 18 15 11 16 19 17 16 18 12 19 14 20 17 21 13 22 15 23
REMARK SMILES IDX 22 24 23 25 24 26
REMARK H PARENT
ROOT
ATOM      1  C   UNL     1      45.349 131.638  14.828  1.00  0.00     0.049 C 
ATOM      2  O   UNL     1      46.586 132.269  14.733  1.00  0.00    -0.547 OA
ENDROOT
BRANCH   1   3
ATOM      3  O   UNL     1      45.164 130.366  14.282  1.00  0.00    -0.601 OA
BRANCH   3   4
ATOM      4  C   UNL     1      45.960 129.247  14.641  1.00  0.00     0.160 C 
BRANCH   4   5
ATOM      5  C   UNL     1      47.230 129.320  13.919  1.00  0.00    -0.095 C 
ATOM      6  C   UNL     1      48.282 129.383  13.334  1.00  0.00     0.005 C 
ENDBRANCH   4   5
ENDBRANCH   3   4
ENDBRANCH   1   3
BRANCH   1   7
ATOM      7  C   UNL     1      44.342 132.256  15.455  1.00  0.00     0.005 C 
BRANCH   7   8
ATOM      8  C   UNL     1      43.827 131.830  16.815  1.00  0.00     0.044 C 
ATOM      9  C   UNL     1      42.992 132.936  17.471  1.00  0.00    -0.027 A 
ATOM     10  C   UNL     1      45.005 131.296  17.666  1.00  0.00     0.014 C 
ATOM     11  C   UNL     1      41.850 133.434  16.797  1.00  0.00     0.042 A 
ATOM     12  C   UNL     1      43.316 133.443  18.762  1.00  0.00    -0.019 A 
ATOM     13  C   UNL     1      44.759 131.442  19.163  1.00  0.00     0.019 C 
ATOM     14  C   UNL     1      41.103 134.476  17.367  1.00  0.00     0.011 A 
ATOM     15  C   UNL     1      42.538 134.485  19.319  1.00  0.00     0.043 A 
ATOM     16  C   UNL     1      44.544 132.924  19.496  1.00  0.00     0.109 C 
ATOM     17  C   UNL     1      41.449 135.000  18.606  1.00  0.00     0.014 A 
ATOM     18  C   UNL     1      42.834 134.982  20.677  1.00  0.00     0.250 C 
ATOM     19  C   UNL     1      44.472 133.151  20.990  1.00  0.00     0.226 C 
ATOM     20  N   UNL     1      43.740 134.263  21.513  1.00  0.00    -0.351 N 
ATOM     21  O   UNL     1      42.264 136.017  21.120  1.00  0.00    -0.269 OA
ATOM     22  O   UNL     1      45.147 132.431  21.776  1.00  0.00    -0.275 OA
ATOM     23  O   UNL     1      43.882 134.612  22.814  1.00  0.00    -0.749 OA
BRANCH  11  24
ATOM     24  N   UNL     1      41.464 132.865  15.534  1.00  0.00    -0.060 NA
BRANCH  24  25
ATOM     25  N   UNL     1      41.240 133.553  14.536  1.00  0.00     0.005 N 
ATOM     26  N   UNL     1      41.018 134.238  13.539  1.00  0.00    -0.003 NA
ENDBRANCH  24  25
ENDBRANCH  11  24
ENDBRANCH   7   8
ENDBRANCH   1   7
TORSDOF 7
ENDMDL
MODEL 8
REMARK VINA RESULT:      -6.7      0.968      1.067
REMARK SMILES C#CCO/C([O-])=C\[C@H]1CC[C@@H]2C(=O)N([O-])C(=O)c3ccc(N=[N+]=[N-])c1c32
REMARK SMILES IDX 5 1 6 2 4 3 3 4 2 5 1 6 7 7 8 8 25 9 9 10 21 11 26 12 10 13
REMARK SMILES IDX 20 14 18 15 11 16 19 17 16 18 12 19 14 20 17 21 13 22 15 23
REMARK SMILES IDX 22 24 23 25 24 26
REMARK H PARENT
ROOT
ATOM      1  C   UNL     1      45.521 129.919  15.741  1.00  0.00     0.049 C 
ATOM      2  O   UNL     1      45.225 128.667  15.211  1.00  0.00    -0.547 OA
ENDROOT
BRANCH   1   3
ATOM      3  O   UNL     1      46.780 130.488  15.539  1.00  0.00    -0.601 OA
BRANCH   3   4
ATOM      4  C   UNL     1      47.018 131.528  14.604  1.00  0.00     0.160 C 
BRANCH   4   5
ATOM      5  C   UNL     1      47.055 130.954  13.259  1.00  0.00    -0.095 C 
ATOM      6  C   UNL     1      47.097 130.480  12.151  1.00  0.00     0.005 C 
ENDBRANCH   4   5
ENDBRANCH   3   4
ENDBRANCH   1   3
BRANCH   1   7
ATOM      7  C   UNL     1      44.587 130.576  16.437  1.00  0.00     0.005 C 
BRANCH   7   8
ATOM      8  C   UNL     1      44.138 131.984  16.097  1.00  0.00     0.044 C 
ATOM      9  C   UNL     1      43.125 132.512  17.119  1.00  0.00    -0.027 A 
ATOM     10  C   UNL     1      43.677 132.033  14.620  1.00  0.00     0.014 C 
ATOM     11  C   UNL     1      43.488 132.573  18.487  1.00  0.00     0.042 A 
ATOM     12  C   UNL     1      41.843 132.982  16.716  1.00  0.00    -0.019 A 
ATOM     13  C   UNL     1      42.662 133.140  14.360  1.00  0.00     0.019 C 
ATOM     14  C   UNL     1      42.554 133.014  19.437  1.00  0.00     0.011 A 
ATOM     15  C   UNL     1      40.925 133.433  17.694  1.00  0.00     0.043 A 
ATOM     16  C   UNL     1      41.434 132.915  15.252  1.00  0.00     0.109 C 
ATOM     17  C   UNL     1      41.287 133.429  19.046  1.00  0.00     0.014 A 
ATOM     18  C   UNL     1      39.612 133.970  17.282  1.00  0.00     0.250 C 
ATOM     19  C   UNL     1      40.318 133.879  14.911  1.00  0.00     0.226 C 
ATOM     20  N   UNL     1      39.362 134.251  15.906  1.00  0.00    -0.351 N 
ATOM     21  O   UNL     1      38.722 134.216  18.142  1.00  0.00    -0.269 OA
ATOM     22  O   UNL     1      40.158 134.272  13.722  1.00  0.00    -0.275 OA
ATOM     23  O   UNL     1      38.230 134.904  15.545  1.00  0.00    -0.749 OA
BRANCH  11  24
ATOM     24  N   UNL     1      44.813 132.186  18.890  1.00  0.00    -0.060 NA
BRANCH  24  25
ATOM     25  N   UNL     1      45.055 131.698  19.996  1.00  0.00     0.005 N 
ATOM     26  N   UNL     1      45.295 131.210  21.099  1.00  0.00    -0.003 NA
ENDBRANCH  24  25
ENDBRANCH  11  24
ENDBRANCH   7   8
ENDBRANCH   1   7
TORSDOF 7
ENDMDL
MODEL 9
REMARK VINA RESULT:      -6.6      3.233      5.408
REMARK SMILES C#CCO/C([O-])=C\[C@H]1CC[C@@H]2C(=O)N([O-])C(=O)c3ccc(N=[N+]=[N-])c1c32
REMARK SMILES IDX 5 1 6 2 4 3 3 4 2 5 1 6 7 7 8 8 25 9 9 10 21 11 26 12 10 13
REMARK SMILES IDX 20 14 18 15 11 16 19 17 16 18 12 19 14 20 17 21 13 22 15 23
REMARK SMILES IDX 22 24 23 25 24 26
REMARK H PARENT
ROOT
ATOM      1  C   UNL     1      44.039 131.613  14.538  1.00  0.00     0.049 C 
ATOM      2  O   UNL     1      44.080 130.308  14.056  1.00  0.00    -0.547 OA
ENDROOT
BRANCH   1   3
ATOM      3  O   UNL     1      45.221 132.276  14.877  1.00  0.00    -0.601 OA
BRANCH   3   4
ATOM      4  C   UNL     1      46.421 131.595  15.211  1.00  0.00     0.160 C 
BRANCH   4   5
ATOM      5  C   UNL     1      47.162 131.314  13.981  1.00  0.00    -0.095 C 
ATOM      6  C   UNL     1      47.764 131.077  12.964  1.00  0.00     0.005 C 
ENDBRANCH   4   5
ENDBRANCH   3   4
ENDBRANCH   1   3
BRANCH   1   7
ATOM      7  C   UNL     1      42.859 132.231  14.665  1.00  0.00     0.005 C 
BRANCH   7   8
ATOM      8  C   UNL     1      42.351 132.785  15.981  1.00  0.00     0.044 C 
ATOM      9  C   UNL     1      42.703 134.268  16.140  1.00  0.00    -0.027 A 
ATOM     10  C   UNL     1      42.814 131.866  17.138  1.00  0.00     0.014 C 
ATOM     11  C   UNL     1      42.256 135.194  15.165  1.00  0.00     0.042 A 
ATOM     12  C   UNL     1      43.434 134.740  17.266  1.00  0.00    -0.019 A 
ATOM     13  C   UNL     1      42.923 132.607  18.465  1.00  0.00     0.019 C 
ATOM     14  C   UNL     1      42.609 136.548  15.277  1.00  0.00     0.011 A 
ATOM     15  C   UNL     1      43.765 136.112  17.360  1.00  0.00     0.043 A 
ATOM     16  C   UNL     1      43.929 133.757  18.318  1.00  0.00     0.109 C 
ATOM     17  C   UNL     1      43.362 136.998  16.354  1.00  0.00     0.014 A 
ATOM     18  C   UNL     1      44.478 136.620  18.549  1.00  0.00     0.250 C 
ATOM     19  C   UNL     1      44.214 134.417  19.649  1.00  0.00     0.226 C 
ATOM     20  N   UNL     1      44.624 135.786  19.698  1.00  0.00    -0.351 N 
ATOM     21  O   UNL     1      44.929 137.799  18.573  1.00  0.00    -0.269 OA
ATOM     22  O   UNL     1      44.202 133.737  20.712  1.00  0.00    -0.275 OA
ATOM     23  O   UNL     1      45.119 136.302  20.849  1.00  0.00    -0.749 OA
BRANCH  11  24
ATOM     24  N   UNL     1      41.441 134.740  14.071  1.00  0.00    -0.060 NA
BRANCH  24  25
ATOM     25  N   UNL     1      40.378 135.283  13.764  1.00  0.00     0.005 N 
ATOM     26  N   UNL     1      39.317 135.824  13.456  1.00  0.00    -0.003 NA
ENDBRANCH  24  25
ENDBRANCH  11  24
ENDBRANCH   7   8
ENDBRANCH   1   7
TORSDOF 7
ENDMDL


