MODEL 1
REMARK VINA RESULT:      -8.3      0.000      0.000
REMARK SMILES C=C(C)C(OC(=O)[C@H]1C[C@@H]2C[C@@H]2C1)=[N+]1C[C@@H]2CC[C@H](Oc3ccc4c5c(ccc(N=[N+]=[N-])c35)CC4)[C@@H]2C1
REMARK SMILES IDX 14 1 37 2 36 3 19 4 18 5 17 6 16 7 15 8 4 9 2 10 1 11 3 12
REMARK SMILES IDX 5 13 6 14 7 15 8 16 9 17 13 18 10 19 12 20 11 21 20 22 21 23
REMARK SMILES IDX 22 24 33 25 23 26 29 27 25 28 24 29 28 30 26 31 35 32 27 33
REMARK SMILES IDX 34 34 30 35 31 36 32 37
REMARK H PARENT
ROOT
ATOM      1  N   UNL     1      43.624 133.209  17.125  1.00  0.00    -0.197 N 
ATOM      2  C   UNL     1      44.282 134.157  18.015  1.00  0.00     0.362 C 
ATOM      3  C   UNL     1      44.439 133.425  19.363  1.00  0.00     0.105 C 
ATOM      4  C   UNL     1      44.007 134.242  20.580  1.00  0.00     0.183 C 
ATOM      5  C   UNL     1      42.488 134.112  20.602  1.00  0.00     0.046 C 
ATOM      6  C   UNL     1      42.186 132.733  20.019  1.00  0.00     0.014 C 
ATOM      7  C   UNL     1      43.463 132.256  19.297  1.00  0.00     0.068 C 
ATOM      8  C   UNL     1      43.253 131.977  17.808  1.00  0.00     0.358 C 
ENDROOT
BRANCH   1   9
ATOM      9  C   UNL     1      43.423 133.445  15.853  1.00  0.00     0.372 C 
BRANCH   9  10
ATOM     10  C   UNL     1      42.299 134.279  15.381  1.00  0.00     0.054 C 
ATOM     11  C   UNL     1      41.042 133.958  15.696  1.00  0.00     0.023 C 
ATOM     12  C   UNL     1      42.583 135.496  14.555  1.00  0.00     0.055 C 
ENDBRANCH   9  10
BRANCH   9  13
ATOM     13  O   UNL     1      44.268 132.887  14.892  1.00  0.00    -0.371 OA
BRANCH  13  14
ATOM     14  C   UNL     1      44.040 131.612  14.362  1.00  0.00     0.318 C 
ATOM     15  O   UNL     1      42.880 131.261  14.011  1.00  0.00    -0.251 OA
BRANCH  14  16
ATOM     16  C   UNL     1      45.186 130.653  14.201  1.00  0.00     0.100 C 
ATOM     17  C   UNL     1      45.682 130.585  12.756  1.00  0.00     0.019 C 
ATOM     18  C   UNL     1      46.398 131.045  15.054  1.00  0.00     0.019 C 
ATOM     19  C   UNL     1      47.203 130.482  12.802  1.00  0.00    -0.007 C 
ATOM     20  C   UNL     1      47.644 130.767  14.222  1.00  0.00    -0.007 C 
ATOM     21  C   UNL     1      47.794 129.361  13.650  1.00  0.00     0.007 C 
ENDBRANCH  14  16
ENDBRANCH  13  14
ENDBRANCH   9  13
ENDBRANCH   1   9
BRANCH   4  22
ATOM     22  O   UNL     1      44.453 135.597  20.470  1.00  0.00    -0.489 OA
BRANCH  22  23
ATOM     23  C   UNL     1      45.767 136.054  20.669  1.00  0.00     0.128 A 
ATOM     24  C   UNL     1      46.689 135.353  21.500  1.00  0.00     0.047 A 
ATOM     25  C   UNL     1      46.191 137.253  20.037  1.00  0.00     0.034 A 
ATOM     26  C   UNL     1      47.982 135.860  21.743  1.00  0.00     0.008 A 
ATOM     27  C   UNL     1      45.431 138.008  19.102  1.00  0.00     0.049 A 
ATOM     28  C   UNL     1      47.476 137.713  20.330  1.00  0.00    -0.008 A 
ATOM     29  C   UNL     1      48.347 137.063  21.146  1.00  0.00    -0.039 A 
ATOM     30  C   UNL     1      45.992 139.200  18.558  1.00  0.00     0.011 A 
ATOM     31  C   UNL     1      48.019 138.843  19.806  1.00  0.00    -0.039 A 
ATOM     32  C   UNL     1      49.641 137.809  21.232  1.00  0.00     0.041 C 
ATOM     33  C   UNL     1      47.286 139.624  18.914  1.00  0.00     0.005 A 
ATOM     34  C   UNL     1      49.419 139.032  20.300  1.00  0.00     0.041 C 
BRANCH  27  35
ATOM     35  N   UNL     1      44.149 137.538  18.662  1.00  0.00    -0.060 NA
BRANCH  35  36
ATOM     36  N   UNL     1      43.570 138.024  17.689  1.00  0.00     0.005 N 
ATOM     37  N   UNL     1      42.994 138.506  16.715  1.00  0.00    -0.003 NA
ENDBRANCH  35  36
ENDBRANCH  27  35
ENDBRANCH  22  23
ENDBRANCH   4  22
TORSDOF 9
ENDMDL
MODEL 2
REMARK VINA RESULT:      -7.5      3.208      7.201
REMARK SMILES C=C(C)C(OC(=O)[C@H]1C[C@@H]2C[C@@H]2C1)=[N+]1C[C@@H]2CC[C@H](Oc3ccc4c5c(ccc(N=[N+]=[N-])c35)CC4)[C@@H]2C1
REMARK SMILES IDX 14 1 37 2 36 3 19 4 18 5 17 6 16 7 15 8 4 9 2 10 1 11 3 12
REMARK SMILES IDX 5 13 6 14 7 15 8 16 9 17 13 18 10 19 12 20 11 21 20 22 21 23
REMARK SMILES IDX 22 24 33 25 23 26 29 27 25 28 24 29 28 30 26 31 35 32 27 33
REMARK SMILES IDX 34 34 30 35 31 36 32 37
REMARK H PARENT
ROOT
ATOM      1  N   UNL     1      43.601 134.387  18.487  1.00  0.00    -0.197 N 
ATOM      2  C   UNL     1      42.505 134.870  17.657  1.00  0.00     0.362 C 
ATOM      3  C   UNL     1      42.281 136.336  18.074  1.00  0.00     0.105 C 
ATOM      4  C   UNL     1      40.820 136.708  18.322  1.00  0.00     0.183 C 
ATOM      5  C   UNL     1      40.532 136.187  19.727  1.00  0.00     0.046 C 
ATOM      6  C   UNL     1      41.855 136.295  20.482  1.00  0.00     0.014 C 
ATOM      7  C   UNL     1      42.967 136.475  19.428  1.00  0.00     0.068 C 
ATOM      8  C   UNL     1      44.028 135.375  19.467  1.00  0.00     0.358 C 
ENDROOT
BRANCH   1   9
ATOM      9  C   UNL     1      44.143 133.204  18.336  1.00  0.00     0.372 C 
BRANCH   9  10
ATOM     10  C   UNL     1      44.049 132.162  19.379  1.00  0.00     0.054 C 
ATOM     11  C   UNL     1      42.870 131.859  19.926  1.00  0.00     0.023 C 
ATOM     12  C   UNL     1      45.289 131.439  19.809  1.00  0.00     0.055 C 
ENDBRANCH   9  10
BRANCH   9  13
ATOM     13  O   UNL     1      44.855 132.900  17.175  1.00  0.00    -0.371 OA
BRANCH  13  14
ATOM     14  C   UNL     1      44.578 131.755  16.419  1.00  0.00     0.318 C 
ATOM     15  O   UNL     1      43.388 131.368  16.255  1.00  0.00    -0.251 OA
BRANCH  14  16
ATOM     16  C   UNL     1      45.702 130.983  15.790  1.00  0.00     0.100 C 
ATOM     17  C   UNL     1      45.200 129.779  14.991  1.00  0.00     0.019 C 
ATOM     18  C   UNL     1      46.519 131.836  14.813  1.00  0.00     0.019 C 
ATOM     19  C   UNL     1      46.057 129.678  13.735  1.00  0.00    -0.007 C 
ATOM     20  C   UNL     1      46.872 130.949  13.625  1.00  0.00    -0.007 C 
ATOM     21  C   UNL     1      47.568 129.628  13.930  1.00  0.00     0.007 C 
ENDBRANCH  14  16
ENDBRANCH  13  14
ENDBRANCH   9  13
ENDBRANCH   1   9
BRANCH   4  22
ATOM     22  O   UNL     1      39.970 136.132  17.326  1.00  0.00    -0.489 OA
BRANCH  22  23
ATOM     23  C   UNL     1      39.724 136.656  16.045  1.00  0.00     0.128 A 
ATOM     24  C   UNL     1      39.994 138.019  15.726  1.00  0.00     0.047 A 
ATOM     25  C   UNL     1      39.181 135.813  15.039  1.00  0.00     0.034 A 
ATOM     26  C   UNL     1      39.680 138.546  14.457  1.00  0.00     0.008 A 
ATOM     27  C   UNL     1      38.954 134.415  15.166  1.00  0.00     0.049 A 
ATOM     28  C   UNL     1      38.875 136.397  13.809  1.00  0.00    -0.008 A 
ATOM     29  C   UNL     1      39.103 137.703  13.511  1.00  0.00    -0.039 A 
ATOM     30  C   UNL     1      38.392 133.703  14.067  1.00  0.00     0.011 A 
ATOM     31  C   UNL     1      38.349 135.721  12.754  1.00  0.00    -0.039 A 
ATOM     32  C   UNL     1      38.683 138.002  12.107  1.00  0.00     0.041 C 
ATOM     33  C   UNL     1      38.082 134.357  12.859  1.00  0.00     0.005 A 
ATOM     34  C   UNL     1      38.171 136.632  11.581  1.00  0.00     0.041 C 
BRANCH  27  35
ATOM     35  N   UNL     1      39.350 133.722  16.358  1.00  0.00    -0.060 NA
BRANCH  35  36
ATOM     36  N   UNL     1      38.535 133.352  17.204  1.00  0.00     0.005 N 
ATOM     37  N   UNL     1      37.719 132.986  18.050  1.00  0.00    -0.003 NA
ENDBRANCH  35  36
ENDBRANCH  27  35
ENDBRANCH  22  23
ENDBRANCH   4  22
TORSDOF 9
ENDMDL
MODEL 3
REMARK VINA RESULT:      -7.4      2.978      4.538
REMARK SMILES C=C(C)C(OC(=O)[C@H]1C[C@@H]2C[C@@H]2C1)=[N+]1C[C@@H]2CC[C@H](Oc3ccc4c5c(ccc(N=[N+]=[N-])c35)CC4)[C@@H]2C1
REMARK SMILES IDX 14 1 37 2 36 3 19 4 18 5 17 6 16 7 15 8 4 9 2 10 1 11 3 12
REMARK SMILES IDX 5 13 6 14 7 15 8 16 9 17 13 18 10 19 12 20 11 21 20 22 21 23
REMARK SMILES IDX 22 24 33 25 23 26 29 27 25 28 24 29 28 30 26 31 35 32 27 33
REMARK SMILES IDX 34 34 30 35 31 36 32 37
REMARK H PARENT
ROOT
ATOM      1  N   UNL     1      44.346 131.936  18.439  1.00  0.00    -0.197 N 
ATOM      2  C   UNL     1      44.293 133.310  18.922  1.00  0.00     0.362 C 
ATOM      3  C   UNL     1      44.912 133.281  20.333  1.00  0.00     0.105 C 
ATOM      4  C   UNL     1      44.101 134.022  21.395  1.00  0.00     0.183 C 
ATOM      5  C   UNL     1      42.996 133.042  21.778  1.00  0.00     0.046 C 
ATOM      6  C   UNL     1      43.605 131.652  21.607  1.00  0.00     0.014 C 
ATOM      7  C   UNL     1      44.878 131.816  20.752  1.00  0.00     0.068 C 
ATOM      8  C   UNL     1      44.845 131.014  19.451  1.00  0.00     0.358 C 
ENDROOT
BRANCH   1   9
ATOM      9  C   UNL     1      44.004 131.593  17.223  1.00  0.00     0.372 C 
BRANCH   9  10
ATOM     10  C   UNL     1      43.044 132.384  16.428  1.00  0.00     0.054 C 
ATOM     11  C   UNL     1      43.303 132.674  15.151  1.00  0.00     0.023 C 
ATOM     12  C   UNL     1      41.770 132.849  17.065  1.00  0.00     0.055 C 
ENDBRANCH   9  10
BRANCH   9  13
ATOM     13  O   UNL     1      44.532 130.437  16.644  1.00  0.00    -0.371 OA
BRANCH  13  14
ATOM     14  C   UNL     1      45.833 130.400  16.128  1.00  0.00     0.318 C 
ATOM     15  O   UNL     1      46.826 130.307  16.901  1.00  0.00    -0.251 OA
BRANCH  14  16
ATOM     16  C   UNL     1      46.051 130.461  14.643  1.00  0.00     0.100 C 
ATOM     17  C   UNL     1      46.918 131.655  14.236  1.00  0.00     0.019 C 
ATOM     18  C   UNL     1      46.761 129.213  14.107  1.00  0.00     0.019 C 
ATOM     19  C   UNL     1      47.842 131.185  13.119  1.00  0.00    -0.007 C 
ATOM     20  C   UNL     1      47.745 129.677  13.039  1.00  0.00    -0.007 C 
ATOM     21  C   UNL     1      47.186 130.532  11.907  1.00  0.00     0.007 C 
ENDBRANCH  14  16
ENDBRANCH  13  14
ENDBRANCH   9  13
ENDBRANCH   1   9
BRANCH   4  22
ATOM     22  O   UNL     1      43.599 135.260  20.883  1.00  0.00    -0.489 OA
BRANCH  22  23
ATOM     23  C   UNL     1      42.368 135.449  20.232  1.00  0.00     0.128 A 
ATOM     24  C   UNL     1      41.145 134.969  20.785  1.00  0.00     0.047 A 
ATOM     25  C   UNL     1      42.337 136.124  18.983  1.00  0.00     0.034 A 
ATOM     26  C   UNL     1      39.928 135.108  20.088  1.00  0.00     0.008 A 
ATOM     27  C   UNL     1      43.447 136.749  18.352  1.00  0.00     0.049 A 
ATOM     28  C   UNL     1      41.104 136.214  18.334  1.00  0.00    -0.008 A 
ATOM     29  C   UNL     1      39.940 135.731  18.843  1.00  0.00    -0.039 A 
ATOM     30  C   UNL     1      43.259 137.383  17.090  1.00  0.00     0.011 A 
ATOM     31  C   UNL     1      40.917 136.826  17.135  1.00  0.00    -0.039 A 
ATOM     32  C   UNL     1      38.804 136.008  17.911  1.00  0.00     0.041 C 
ATOM     33  C   UNL     1      41.992 137.417  16.475  1.00  0.00     0.005 A 
ATOM     34  C   UNL     1      39.476 136.772  16.736  1.00  0.00     0.041 C 
BRANCH  27  35
ATOM     35  N   UNL     1      44.720 136.800  19.012  1.00  0.00    -0.060 NA
BRANCH  35  36
ATOM     36  N   UNL     1      45.470 137.773  18.915  1.00  0.00     0.005 N 
ATOM     37  N   UNL     1      46.222 138.742  18.819  1.00  0.00    -0.003 NA
ENDBRANCH  35  36
ENDBRANCH  27  35
ENDBRANCH  22  23
ENDBRANCH   4  22
TORSDOF 9
ENDMDL
MODEL 4
REMARK VINA RESULT:      -7.2      2.186      3.262
REMARK SMILES C=C(C)C(OC(=O)[C@H]1C[C@@H]2C[C@@H]2C1)=[N+]1C[C@@H]2CC[C@H](Oc3ccc4c5c(ccc(N=[N+]=[N-])c35)CC4)[C@@H]2C1
REMARK SMILES IDX 14 1 37 2 36 3 19 4 18 5 17 6 16 7 15 8 4 9 2 10 1 11 3 12
REMARK SMILES IDX 5 13 6 14 7 15 8 16 9 17 13 18 10 19 12 20 11 21 20 22 21 23
REMARK SMILES IDX 22 24 33 25 23 26 29 27 25 28 24 29 28 30 26 31 35 32 27 33
REMARK SMILES IDX 34 34 30 35 31 36 32 37
REMARK H PARENT
ROOT
ATOM      1  N   UNL     1      42.096 133.680  17.349  1.00  0.00    -0.197 N 
ATOM      2  C   UNL     1      43.069 133.942  18.401  1.00  0.00     0.362 C 
ATOM      3  C   UNL     1      42.251 134.413  19.619  1.00  0.00     0.105 C 
ATOM      4  C   UNL     1      42.794 135.669  20.299  1.00  0.00     0.183 C 
ATOM      5  C   UNL     1      42.296 136.816  19.427  1.00  0.00     0.046 C 
ATOM      6  C   UNL     1      40.960 136.346  18.855  1.00  0.00     0.014 C 
ATOM      7  C   UNL     1      40.894 134.817  19.054  1.00  0.00     0.068 C 
ATOM      8  C   UNL     1      40.742 134.039  17.747  1.00  0.00     0.358 C 
ENDROOT
BRANCH   1   9
ATOM      9  C   UNL     1      42.418 133.156  16.193  1.00  0.00     0.372 C 
BRANCH   9  10
ATOM     10  C   UNL     1      42.340 133.928  14.936  1.00  0.00     0.054 C 
ATOM     11  C   UNL     1      41.908 133.348  13.814  1.00  0.00     0.023 C 
ATOM     12  C   UNL     1      42.739 135.372  14.935  1.00  0.00     0.055 C 
ENDBRANCH   9  10
BRANCH   9  13
ATOM     13  O   UNL     1      42.831 131.825  16.114  1.00  0.00    -0.371 OA
BRANCH  13  14
ATOM     14  C   UNL     1      44.163 131.453  16.328  1.00  0.00     0.318 C 
ATOM     15  O   UNL     1      44.533 131.013  17.452  1.00  0.00    -0.251 OA
BRANCH  14  16
ATOM     16  C   UNL     1      45.161 131.568  15.211  1.00  0.00     0.100 C 
ATOM     17  C   UNL     1      46.541 131.043  15.614  1.00  0.00     0.019 C 
ATOM     18  C   UNL     1      44.743 130.770  13.972  1.00  0.00     0.019 C 
ATOM     19  C   UNL     1      47.115 130.305  14.411  1.00  0.00    -0.007 C 
ATOM     20  C   UNL     1      46.004 130.136  13.396  1.00  0.00    -0.007 C 
ATOM     21  C   UNL     1      47.171 131.070  13.092  1.00  0.00     0.007 C 
ENDBRANCH  14  16
ENDBRANCH  13  14
ENDBRANCH   9  13
ENDBRANCH   1   9
BRANCH   4  22
ATOM     22  O   UNL     1      44.221 135.618  20.400  1.00  0.00    -0.489 OA
BRANCH  22  23
ATOM     23  C   UNL     1      45.107 136.673  20.122  1.00  0.00     0.128 A 
ATOM     24  C   UNL     1      44.680 137.858  19.455  1.00  0.00     0.047 A 
ATOM     25  C   UNL     1      46.471 136.555  20.503  1.00  0.00     0.034 A 
ATOM     26  C   UNL     1      45.596 138.877  19.124  1.00  0.00     0.008 A 
ATOM     27  C   UNL     1      47.029 135.490  21.262  1.00  0.00     0.049 A 
ATOM     28  C   UNL     1      47.331 137.590  20.132  1.00  0.00    -0.008 A 
ATOM     29  C   UNL     1      46.934 138.707  19.469  1.00  0.00    -0.039 A 
ATOM     30  C   UNL     1      48.422 135.509  21.559  1.00  0.00     0.011 A 
ATOM     31  C   UNL     1      48.658 137.618  20.422  1.00  0.00    -0.039 A 
ATOM     32  C   UNL     1      48.094 139.625  19.243  1.00  0.00     0.041 C 
ATOM     33  C   UNL     1      49.242 136.572  21.134  1.00  0.00     0.005 A 
ATOM     34  C   UNL     1      49.283 138.877  19.909  1.00  0.00     0.041 C 
BRANCH  27  35
ATOM     35  N   UNL     1      46.186 134.450  21.779  1.00  0.00    -0.060 NA
BRANCH  35  36
ATOM     36  N   UNL     1      46.137 134.182  22.981  1.00  0.00     0.005 N 
ATOM     37  N   UNL     1      46.090 133.918  24.181  1.00  0.00    -0.003 NA
ENDBRANCH  35  36
ENDBRANCH  27  35
ENDBRANCH  22  23
ENDBRANCH   4  22
TORSDOF 9
ENDMDL
MODEL 5
REMARK VINA RESULT:      -7.1      2.195      4.084
REMARK SMILES C=C(C)C(OC(=O)[C@H]1C[C@@H]2C[C@@H]2C1)=[N+]1C[C@@H]2CC[C@H](Oc3ccc4c5c(ccc(N=[N+]=[N-])c35)CC4)[C@@H]2C1
REMARK SMILES IDX 14 1 37 2 36 3 19 4 18 5 17 6 16 7 15 8 4 9 2 10 1 11 3 12
REMARK SMILES IDX 5 13 6 14 7 15 8 16 9 17 13 18 10 19 12 20 11 21 20 22 21 23
REMARK SMILES IDX 22 24 33 25 23 26 29 27 25 28 24 29 28 30 26 31 35 32 27 33
REMARK SMILES IDX 34 34 30 35 31 36 32 37
REMARK H PARENT
ROOT
ATOM      1  N   UNL     1      42.640 133.046  17.098  1.00  0.00    -0.197 N 
ATOM      2  C   UNL     1      42.193 134.274  17.742  1.00  0.00     0.362 C 
ATOM      3  C   UNL     1      41.437 135.064  16.656  1.00  0.00     0.105 C 
ATOM      4  C   UNL     1      41.826 136.538  16.559  1.00  0.00     0.183 C 
ATOM      5  C   UNL     1      43.123 136.533  15.757  1.00  0.00     0.046 C 
ATOM      6  C   UNL     1      43.012 135.343  14.806  1.00  0.00     0.014 C 
ATOM      7  C   UNL     1      41.876 134.444  15.335  1.00  0.00     0.068 C 
ATOM      8  C   UNL     1      42.330 133.025  15.675  1.00  0.00     0.358 C 
ENDROOT
BRANCH   1   9
ATOM      9  C   UNL     1      43.229 132.072  17.746  1.00  0.00     0.372 C 
BRANCH   9  10
ATOM     10  C   UNL     1      43.456 132.130  19.205  1.00  0.00     0.054 C 
ATOM     11  C   UNL     1      42.683 131.429  20.036  1.00  0.00     0.023 C 
ATOM     12  C   UNL     1      44.573 132.973  19.741  1.00  0.00     0.055 C 
ENDBRANCH   9  10
BRANCH   9  13
ATOM     13  O   UNL     1      43.683 130.944  17.060  1.00  0.00    -0.371 OA
BRANCH  13  14
ATOM     14  C   UNL     1      45.015 130.820  16.648  1.00  0.00     0.318 C 
ATOM     15  O   UNL     1      45.939 130.693  17.498  1.00  0.00    -0.251 OA
BRANCH  14  16
ATOM     16  C   UNL     1      45.349 130.828  15.184  1.00  0.00     0.100 C 
ATOM     17  C   UNL     1      46.486 131.798  14.857  1.00  0.00     0.019 C 
ATOM     18  C   UNL     1      45.799 129.453  14.681  1.00  0.00     0.019 C 
ATOM     19  C   UNL     1      47.361 131.132  13.801  1.00  0.00    -0.007 C 
ATOM     20  C   UNL     1      46.937 129.683  13.693  1.00  0.00    -0.007 C 
ATOM     21  C   UNL     1      46.666 130.640  12.537  1.00  0.00     0.007 C 
ENDBRANCH  14  16
ENDBRANCH  13  14
ENDBRANCH   9  13
ENDBRANCH   1   9
BRANCH   4  22
ATOM     22  O   UNL     1      41.973 137.114  17.861  1.00  0.00    -0.489 OA
BRANCH  22  23
ATOM     23  C   UNL     1      43.163 137.182  18.606  1.00  0.00     0.128 A 
ATOM     24  C   UNL     1      44.352 137.756  18.072  1.00  0.00     0.047 A 
ATOM     25  C   UNL     1      43.189 136.655  19.925  1.00  0.00     0.034 A 
ATOM     26  C   UNL     1      45.555 137.756  18.807  1.00  0.00     0.008 A 
ATOM     27  C   UNL     1      42.067 136.146  20.636  1.00  0.00     0.049 A 
ATOM     28  C   UNL     1      44.414 136.668  20.596  1.00  0.00    -0.008 A 
ATOM     29  C   UNL     1      45.557 137.187  20.078  1.00  0.00    -0.039 A 
ATOM     30  C   UNL     1      42.256 135.642  21.955  1.00  0.00     0.011 A 
ATOM     31  C   UNL     1      44.596 136.197  21.857  1.00  0.00    -0.039 A 
ATOM     32  C   UNL     1      46.681 137.062  21.057  1.00  0.00     0.041 C 
ATOM     33  C   UNL     1      43.523 135.661  22.567  1.00  0.00     0.005 A 
ATOM     34  C   UNL     1      46.016 136.388  22.289  1.00  0.00     0.041 C 
BRANCH  27  35
ATOM     35  N   UNL     1      40.756 136.207  20.057  1.00  0.00    -0.060 NA
BRANCH  35  36
ATOM     36  N   UNL     1      39.849 136.874  20.557  1.00  0.00     0.005 N 
ATOM     37  N   UNL     1      38.946 137.543  21.058  1.00  0.00    -0.003 NA
ENDBRANCH  35  36
ENDBRANCH  27  35
ENDBRANCH  22  23
ENDBRANCH   4  22
TORSDOF 9
ENDMDL
MODEL 6
REMARK VINA RESULT:      -6.9      2.801      4.247
REMARK SMILES C=C(C)C(OC(=O)[C@H]1C[C@@H]2C[C@@H]2C1)=[N+]1C[C@@H]2CC[C@H](Oc3ccc4c5c(ccc(N=[N+]=[N-])c35)CC4)[C@@H]2C1
REMARK SMILES IDX 14 1 37 2 36 3 19 4 18 5 17 6 16 7 15 8 4 9 2 10 1 11 3 12
REMARK SMILES IDX 5 13 6 14 7 15 8 16 9 17 13 18 10 19 12 20 11 21 20 22 21 23
REMARK SMILES IDX 22 24 33 25 23 26 29 27 25 28 24 29 28 30 26 31 35 32 27 33
REMARK SMILES IDX 34 34 30 35 31 36 32 37
REMARK H PARENT
ROOT
ATOM      1  N   UNL     1      44.356 132.619  19.193  1.00  0.00    -0.197 N 
ATOM      2  C   UNL     1      43.982 133.935  19.694  1.00  0.00     0.362 C 
ATOM      3  C   UNL     1      44.013 133.821  21.230  1.00  0.00     0.105 C 
ATOM      4  C   UNL     1      42.786 134.401  21.933  1.00  0.00     0.183 C 
ATOM      5  C   UNL     1      41.726 133.313  21.799  1.00  0.00     0.046 C 
ATOM      6  C   UNL     1      42.492 131.992  21.801  1.00  0.00     0.014 C 
ATOM      7  C   UNL     1      43.972 132.325  21.520  1.00  0.00     0.068 C 
ATOM      8  C   UNL     1      44.521 131.647  20.265  1.00  0.00     0.358 C 
ENDROOT
BRANCH   1   9
ATOM      9  C   UNL     1      44.542 132.365  17.922  1.00  0.00     0.372 C 
BRANCH   9  10
ATOM     10  C   UNL     1      43.551 132.744  16.895  1.00  0.00     0.054 C 
ATOM     11  C   UNL     1      42.365 132.134  16.845  1.00  0.00     0.023 C 
ATOM     12  C   UNL     1      43.884 133.829  15.916  1.00  0.00     0.055 C 
ENDBRANCH   9  10
BRANCH   9  13
ATOM     13  O   UNL     1      45.694 131.698  17.500  1.00  0.00    -0.371 OA
BRANCH  13  14
ATOM     14  C   UNL     1      45.661 130.746  16.475  1.00  0.00     0.318 C 
ATOM     15  O   UNL     1      45.000 129.680  16.612  1.00  0.00    -0.251 OA
BRANCH  14  16
ATOM     16  C   UNL     1      46.409 130.996  15.196  1.00  0.00     0.100 C 
ATOM     17  C   UNL     1      47.399 129.873  14.878  1.00  0.00     0.019 C 
ATOM     18  C   UNL     1      45.475 131.101  13.986  1.00  0.00     0.019 C 
ATOM     19  C   UNL     1      47.353 129.640  13.373  1.00  0.00    -0.007 C 
ATOM     20  C   UNL     1      46.165 130.398  12.822  1.00  0.00    -0.007 C 
ATOM     21  C   UNL     1      47.579 130.854  12.478  1.00  0.00     0.007 C 
ENDBRANCH  14  16
ENDBRANCH  13  14
ENDBRANCH   9  13
ENDBRANCH   1   9
BRANCH   4  22
ATOM     22  O   UNL     1      42.396 135.642  21.337  1.00  0.00    -0.489 OA
BRANCH  22  23
ATOM     23  C   UNL     1      41.928 135.818  20.023  1.00  0.00     0.128 A 
ATOM     24  C   UNL     1      40.828 135.072  19.510  1.00  0.00     0.047 A 
ATOM     25  C   UNL     1      42.575 136.755  19.173  1.00  0.00     0.034 A 
ATOM     26  C   UNL     1      40.414 135.212  18.170  1.00  0.00     0.008 A 
ATOM     27  C   UNL     1      43.613 137.645  19.562  1.00  0.00     0.049 A 
ATOM     28  C   UNL     1      42.131 136.835  17.852  1.00  0.00    -0.008 A 
ATOM     29  C   UNL     1      41.101 136.104  17.351  1.00  0.00    -0.039 A 
ATOM     30  C   UNL     1      44.170 138.525  18.589  1.00  0.00     0.011 A 
ATOM     31  C   UNL     1      42.652 137.679  16.923  1.00  0.00    -0.039 A 
ATOM     32  C   UNL     1      40.868 136.442  15.913  1.00  0.00     0.041 C 
ATOM     33  C   UNL     1      43.694 138.539  17.264  1.00  0.00     0.005 A 
ATOM     34  C   UNL     1      41.931 137.536  15.620  1.00  0.00     0.041 C 
BRANCH  27  35
ATOM     35  N   UNL     1      44.043 137.703  20.930  1.00  0.00    -0.060 NA
BRANCH  35  36
ATOM     36  N   UNL     1      45.226 137.581  21.252  1.00  0.00     0.005 N 
ATOM     37  N   UNL     1      46.407 137.463  21.575  1.00  0.00    -0.003 NA
ENDBRANCH  35  36
ENDBRANCH  27  35
ENDBRANCH  22  23
ENDBRANCH   4  22
TORSDOF 9
ENDMDL
MODEL 7
REMARK VINA RESULT:      -6.7      2.009      3.706
REMARK SMILES C=C(C)C(OC(=O)[C@H]1C[C@@H]2C[C@@H]2C1)=[N+]1C[C@@H]2CC[C@H](Oc3ccc4c5c(ccc(N=[N+]=[N-])c35)CC4)[C@@H]2C1
REMARK SMILES IDX 14 1 37 2 36 3 19 4 18 5 17 6 16 7 15 8 4 9 2 10 1 11 3 12
REMARK SMILES IDX 5 13 6 14 7 15 8 16 9 17 13 18 10 19 12 20 11 21 20 22 21 23
REMARK SMILES IDX 22 24 33 25 23 26 29 27 25 28 24 29 28 30 26 31 35 32 27 33
REMARK SMILES IDX 34 34 30 35 31 36 32 37
REMARK H PARENT
ROOT
ATOM      1  N   UNL     1      43.232 133.637  17.277  1.00  0.00    -0.197 N 
ATOM      2  C   UNL     1      42.892 134.708  18.205  1.00  0.00     0.362 C 
ATOM      3  C   UNL     1      41.773 135.516  17.518  1.00  0.00     0.105 C 
ATOM      4  C   UNL     1      41.978 137.030  17.542  1.00  0.00     0.183 C 
ATOM      5  C   UNL     1      42.965 137.294  16.410  1.00  0.00     0.046 C 
ATOM      6  C   UNL     1      42.680 136.223  15.359  1.00  0.00     0.014 C 
ATOM      7  C   UNL     1      41.844 135.124  16.047  1.00  0.00     0.068 C 
ATOM      8  C   UNL     1      42.507 133.746  16.019  1.00  0.00     0.358 C 
ENDROOT
BRANCH   1   9
ATOM      9  C   UNL     1      44.076 132.680  17.570  1.00  0.00     0.372 C 
BRANCH   9  10
ATOM     10  C   UNL     1      43.972 131.902  18.821  1.00  0.00     0.054 C 
ATOM     11  C   UNL     1      45.053 131.318  19.344  1.00  0.00     0.023 C 
ATOM     12  C   UNL     1      42.645 131.785  19.506  1.00  0.00     0.055 C 
ENDBRANCH   9  10
BRANCH   9  13
ATOM     13  O   UNL     1      45.127 132.379  16.701  1.00  0.00    -0.371 OA
BRANCH  13  14
ATOM     14  C   UNL     1      45.058 131.306  15.806  1.00  0.00     0.318 C 
ATOM     15  O   UNL     1      43.942 130.821  15.471  1.00  0.00    -0.251 OA
BRANCH  14  16
ATOM     16  C   UNL     1      46.320 130.729  15.230  1.00  0.00     0.100 C 
ATOM     17  C   UNL     1      46.046 129.515  14.340  1.00  0.00     0.019 C 
ATOM     18  C   UNL     1      47.077 131.738  14.360  1.00  0.00     0.019 C 
ATOM     19  C   UNL     1      46.995 129.602  13.150  1.00  0.00    -0.007 C 
ATOM     20  C   UNL     1      47.632 130.975  13.163  1.00  0.00    -0.007 C 
ATOM     21  C   UNL     1      48.482 129.744  13.460  1.00  0.00     0.007 C 
ENDBRANCH  14  16
ENDBRANCH  13  14
ENDBRANCH   9  13
ENDBRANCH   1   9
BRANCH   4  22
ATOM     22  O   UNL     1      42.461 137.459  18.819  1.00  0.00    -0.489 OA
BRANCH  22  23
ATOM     23  C   UNL     1      43.808 137.537  19.210  1.00  0.00     0.128 A 
ATOM     24  C   UNL     1      44.786 138.198  18.412  1.00  0.00     0.047 A 
ATOM     25  C   UNL     1      44.216 136.932  20.430  1.00  0.00     0.034 A 
ATOM     26  C   UNL     1      46.145 138.210  18.786  1.00  0.00     0.008 A 
ATOM     27  C   UNL     1      43.350 136.329  21.383  1.00  0.00     0.049 A 
ATOM     28  C   UNL     1      45.577 136.962  20.736  1.00  0.00    -0.008 A 
ATOM     29  C   UNL     1      46.517 137.565  19.962  1.00  0.00    -0.039 A 
ATOM     30  C   UNL     1      43.912 135.754  22.560  1.00  0.00     0.011 A 
ATOM     31  C   UNL     1      46.116 136.424  21.862  1.00  0.00    -0.039 A 
ATOM     32  C   UNL     1      47.872 137.434  20.583  1.00  0.00     0.041 C 
ATOM     33  C   UNL     1      45.299 135.795  22.799  1.00  0.00     0.005 A 
ATOM     34  C   UNL     1      47.594 136.655  21.899  1.00  0.00     0.041 C 
BRANCH  27  35
ATOM     35  N   UNL     1      41.929 136.363  21.194  1.00  0.00    -0.060 NA
BRANCH  35  36
ATOM     36  N   UNL     1      41.242 135.339  21.196  1.00  0.00     0.005 N 
ATOM     37  N   UNL     1      40.557 134.318  21.200  1.00  0.00    -0.003 NA
ENDBRANCH  35  36
ENDBRANCH  27  35
ENDBRANCH  22  23
ENDBRANCH   4  22
TORSDOF 9
ENDMDL
MODEL 8
REMARK VINA RESULT:      -6.6      2.697      5.267
REMARK SMILES C=C(C)C(OC(=O)[C@H]1C[C@@H]2C[C@@H]2C1)=[N+]1C[C@@H]2CC[C@H](Oc3ccc4c5c(ccc(N=[N+]=[N-])c35)CC4)[C@@H]2C1
REMARK SMILES IDX 14 1 37 2 36 3 19 4 18 5 17 6 16 7 15 8 4 9 2 10 1 11 3 12
REMARK SMILES IDX 5 13 6 14 7 15 8 16 9 17 13 18 10 19 12 20 11 21 20 22 21 23
REMARK SMILES IDX 22 24 33 25 23 26 29 27 25 28 24 29 28 30 26 31 35 32 27 33
REMARK SMILES IDX 34 34 30 35 31 36 32 37
REMARK H PARENT
ROOT
ATOM      1  N   UNL     1      43.811 132.308  17.162  1.00  0.00    -0.197 N 
ATOM      2  C   UNL     1      43.924 132.328  18.615  1.00  0.00     0.362 C 
ATOM      3  C   UNL     1      42.557 131.852  19.146  1.00  0.00     0.105 C 
ATOM      4  C   UNL     1      41.976 132.718  20.263  1.00  0.00     0.183 C 
ATOM      5  C   UNL     1      41.362 133.909  19.536  1.00  0.00     0.046 C 
ATOM      6  C   UNL     1      40.897 133.370  18.185  1.00  0.00     0.014 C 
ATOM      7  C   UNL     1      41.597 132.012  17.973  1.00  0.00     0.068 C 
ATOM      8  C   UNL     1      42.468 131.965  16.717  1.00  0.00     0.358 C 
ENDROOT
BRANCH   1   9
ATOM      9  C   UNL     1      44.821 132.550  16.364  1.00  0.00     0.372 C 
BRANCH   9  10
ATOM     10  C   UNL     1      45.728 131.479  15.904  1.00  0.00     0.054 C 
ATOM     11  C   UNL     1      46.392 131.605  14.754  1.00  0.00     0.023 C 
ATOM     12  C   UNL     1      45.905 130.253  16.748  1.00  0.00     0.055 C 
ENDBRANCH   9  10
BRANCH   9  13
ATOM     13  O   UNL     1      45.085 133.853  15.938  1.00  0.00    -0.371 OA
BRANCH  13  14
ATOM     14  C   UNL     1      44.056 134.742  15.607  1.00  0.00     0.318 C 
ATOM     15  O   UNL     1      43.244 134.466  14.681  1.00  0.00    -0.251 OA
BRANCH  14  16
ATOM     16  C   UNL     1      43.908 136.032  16.363  1.00  0.00     0.100 C 
ATOM     17  C   UNL     1      42.462 136.530  16.378  1.00  0.00     0.019 C 
ATOM     18  C   UNL     1      44.333 135.899  17.829  1.00  0.00     0.019 C 
ATOM     19  C   UNL     1      42.196 137.109  17.763  1.00  0.00    -0.007 C 
ATOM     20  C   UNL     1      43.351 136.718  18.659  1.00  0.00    -0.007 C 
ATOM     21  C   UNL     1      43.160 138.178  18.263  1.00  0.00     0.007 C 
ENDBRANCH  14  16
ENDBRANCH  13  14
ENDBRANCH   9  13
ENDBRANCH   1   9
BRANCH   4  22
ATOM     22  O   UNL     1      42.991 133.093  21.198  1.00  0.00    -0.489 OA
BRANCH  22  23
ATOM     23  C   UNL     1      43.314 134.405  21.586  1.00  0.00     0.128 A 
ATOM     24  C   UNL     1      42.309 135.375  21.866  1.00  0.00     0.047 A 
ATOM     25  C   UNL     1      44.679 134.783  21.694  1.00  0.00     0.034 A 
ATOM     26  C   UNL     1      42.649 136.704  22.189  1.00  0.00     0.008 A 
ATOM     27  C   UNL     1      45.793 133.911  21.551  1.00  0.00     0.049 A 
ATOM     28  C   UNL     1      44.952 136.118  22.000  1.00  0.00    -0.008 A 
ATOM     29  C   UNL     1      43.996 137.053  22.237  1.00  0.00    -0.039 A 
ATOM     30  C   UNL     1      47.109 134.443  21.679  1.00  0.00     0.011 A 
ATOM     31  C   UNL     1      46.205 136.628  22.133  1.00  0.00    -0.039 A 
ATOM     32  C   UNL     1      44.621 138.374  22.556  1.00  0.00     0.041 C 
ATOM     33  C   UNL     1      47.317 135.806  21.964  1.00  0.00     0.005 A 
ATOM     34  C   UNL     1      46.146 138.079  22.494  1.00  0.00     0.041 C 
BRANCH  27  35
ATOM     35  N   UNL     1      45.591 132.505  21.352  1.00  0.00    -0.060 NA
BRANCH  35  36
ATOM     36  N   UNL     1      45.382 131.732  22.289  1.00  0.00     0.005 N 
ATOM     37  N   UNL     1      45.177 130.961  23.225  1.00  0.00    -0.003 NA
ENDBRANCH  35  36
ENDBRANCH  27  35
ENDBRANCH  22  23
ENDBRANCH   4  22
TORSDOF 9
ENDMDL
MODEL 9
REMARK VINA RESULT:      -6.5      2.696      6.984
REMARK SMILES C=C(C)C(OC(=O)[C@H]1C[C@@H]2C[C@@H]2C1)=[N+]1C[C@@H]2CC[C@H](Oc3ccc4c5c(ccc(N=[N+]=[N-])c35)CC4)[C@@H]2C1
REMARK SMILES IDX 14 1 37 2 36 3 19 4 18 5 17 6 16 7 15 8 4 9 2 10 1 11 3 12
REMARK SMILES IDX 5 13 6 14 7 15 8 16 9 17 13 18 10 19 12 20 11 21 20 22 21 23
REMARK SMILES IDX 22 24 33 25 23 26 29 27 25 28 24 29 28 30 26 31 35 32 27 33
REMARK SMILES IDX 34 34 30 35 31 36 32 37
REMARK H PARENT
ROOT
ATOM      1  N   UNL     1      44.752 131.647  19.206  1.00  0.00    -0.197 N 
ATOM      2  C   UNL     1      43.669 132.243  18.435  1.00  0.00     0.362 C 
ATOM      3  C   UNL     1      43.679 131.521  17.074  1.00  0.00     0.105 C 
ATOM      4  C   UNL     1      43.598 132.450  15.863  1.00  0.00     0.183 C 
ATOM      5  C   UNL     1      45.024 132.961  15.685  1.00  0.00     0.046 C 
ATOM      6  C   UNL     1      45.929 131.828  16.164  1.00  0.00     0.014 C 
ATOM      7  C   UNL     1      45.049 130.860  16.983  1.00  0.00     0.068 C 
ATOM      8  C   UNL     1      45.519 130.684  18.427  1.00  0.00     0.358 C 
ENDROOT
BRANCH   1   9
ATOM      9  C   UNL     1      44.979 131.938  20.462  1.00  0.00     0.372 C 
BRANCH   9  10
ATOM     10  C   UNL     1      44.400 131.144  21.565  1.00  0.00     0.054 C 
ATOM     11  C   UNL     1      45.194 130.532  22.445  1.00  0.00     0.023 C 
ATOM     12  C   UNL     1      42.910 131.043  21.694  1.00  0.00     0.055 C 
ENDBRANCH   9  10
BRANCH   9  13
ATOM     13  O   UNL     1      45.770 133.038  20.798  1.00  0.00    -0.371 OA
BRANCH  13  14
ATOM     14  C   UNL     1      45.214 134.221  21.297  1.00  0.00     0.318 C 
ATOM     15  O   UNL     1      43.971 134.427  21.221  1.00  0.00    -0.251 OA
BRANCH  14  16
ATOM     16  C   UNL     1      46.099 135.252  21.938  1.00  0.00     0.100 C 
ATOM     17  C   UNL     1      47.270 134.619  22.692  1.00  0.00     0.019 C 
ATOM     18  C   UNL     1      46.716 136.209  20.911  1.00  0.00     0.019 C 
ATOM     19  C   UNL     1      48.493 135.497  22.450  1.00  0.00    -0.007 C 
ATOM     20  C   UNL     1      48.150 136.478  21.350  1.00  0.00    -0.007 C 
ATOM     21  C   UNL     1      48.355 136.980  22.775  1.00  0.00     0.007 C 
ENDBRANCH  14  16
ENDBRANCH  13  14
ENDBRANCH   9  13
ENDBRANCH   1   9
BRANCH   4  22
ATOM     22  O   UNL     1      42.649 133.497  16.086  1.00  0.00    -0.489 OA
BRANCH  22  23
ATOM     23  C   UNL     1      42.951 134.833  16.401  1.00  0.00     0.128 A 
ATOM     24  C   UNL     1      43.943 135.172  17.366  1.00  0.00     0.047 A 
ATOM     25  C   UNL     1      42.242 135.879  15.752  1.00  0.00     0.034 A 
ATOM     26  C   UNL     1      44.187 136.515  17.719  1.00  0.00     0.008 A 
ATOM     27  C   UNL     1      41.302 135.712  14.698  1.00  0.00     0.049 A 
ATOM     28  C   UNL     1      42.516 137.187  16.157  1.00  0.00    -0.008 A 
ATOM     29  C   UNL     1      43.440 137.512  17.099  1.00  0.00    -0.039 A 
ATOM     30  C   UNL     1      40.664 136.863  14.152  1.00  0.00     0.011 A 
ATOM     31  C   UNL     1      41.918 138.288  15.632  1.00  0.00    -0.039 A 
ATOM     32  C   UNL     1      43.502 138.995  17.284  1.00  0.00     0.041 C 
ATOM     33  C   UNL     1      40.966 138.154  14.623  1.00  0.00     0.005 A 
ATOM     34  C   UNL     1      42.458 139.532  16.265  1.00  0.00     0.041 C 
BRANCH  27  35
ATOM     35  N   UNL     1      41.055 134.410  14.148  1.00  0.00    -0.060 NA
BRANCH  35  36
ATOM     36  N   UNL     1      39.922 133.929  14.084  1.00  0.00     0.005 N 
ATOM     37  N   UNL     1      38.790 133.453  14.019  1.00  0.00    -0.003 NA
ENDBRANCH  35  36
ENDBRANCH  27  35
ENDBRANCH  22  23
ENDBRANCH   4  22
TORSDOF 9
ENDMDL


