MODEL 1
REMARK VINA RESULT:      -7.4      0.000      0.000
REMARK SMILES C#CCO/C([O-])=C\[C@H]1CC[C@@H]2C(O)=Nc3c(N=[N+]=[N-])cc(Cl)c1c32
REMARK SMILES IDX 5 1 6 2 4 3 3 4 2 5 1 6 7 7 8 8 23 9 9 10 21 11 24 12 10 13
REMARK SMILES IDX 20 14 15 15 11 16 16 17 14 18 12 19 22 20 17 21 18 22 19 23
REMARK SMILES IDX 13 24
REMARK H PARENT 13 25
ROOT
ATOM      1  C   UNL     1      46.187 129.571  15.810  1.00  0.00     0.049 C 
ATOM      2  O   UNL     1      45.397 128.649  15.129  1.00  0.00    -0.547 OA
ENDROOT
BRANCH   1   3
ATOM      3  O   UNL     1      47.478 129.858  15.359  1.00  0.00    -0.601 OA
BRANCH   3   4
ATOM      4  C   UNL     1      48.000 129.336  14.146  1.00  0.00     0.160 C 
BRANCH   4   5
ATOM      5  C   UNL     1      47.439 130.088  13.023  1.00  0.00    -0.095 C 
ATOM      6  C   UNL     1      46.971 130.706  12.101  1.00  0.00     0.005 C 
ENDBRANCH   4   5
ENDBRANCH   3   4
ENDBRANCH   1   3
BRANCH   1   7
ATOM      7  C   UNL     1      45.696 130.182  16.893  1.00  0.00     0.005 C 
BRANCH   7   8
ATOM      8  C   UNL     1      45.242 131.625  16.904  1.00  0.00     0.045 C 
ATOM      9  C   UNL     1      44.144 131.853  17.938  1.00  0.00    -0.016 A 
ATOM     10  C   UNL     1      44.881 132.104  15.456  1.00  0.00     0.014 C 
ATOM     11  C   UNL     1      44.378 131.810  19.334  1.00  0.00     0.045 A 
ATOM     12  C   UNL     1      42.903 132.324  17.511  1.00  0.00    -0.004 A 
ATOM     13  C   UNL     1      43.786 133.191  15.413  1.00  0.00     0.019 C 
ATOM     14  C   UNL     1      43.412 132.322  20.228  1.00  0.00     0.033 A 
ATOM     15  C   UNL     1      42.024 132.938  18.362  1.00  0.00     0.081 A 
ATOM     16  C   UNL     1      42.543 132.651  16.119  1.00  0.00     0.108 C 
ATOM     17  C   UNL     1      42.239 132.937  19.749  1.00  0.00     0.065 A 
ATOM     18  N   UNL     1      41.125 133.767  17.636  1.00  0.00    -0.217 NA
ATOM     19  C   UNL     1      41.440 133.641  16.381  1.00  0.00     0.193 C 
ATOM     20  Cl  UNL     1      45.897 131.218  19.994  1.00  0.00    -0.084 Cl
BRANCH  17  21
ATOM     21  N   UNL     1      41.347 133.567  20.679  1.00  0.00    -0.058 NA
BRANCH  21  22
ATOM     22  N   UNL     1      41.744 134.156  21.686  1.00  0.00     0.005 N 
ATOM     23  N   UNL     1      42.140 134.747  22.689  1.00  0.00    -0.003 NA
ENDBRANCH  21  22
ENDBRANCH  17  21
BRANCH  19  24
ATOM     24  O   UNL     1      40.777 134.334  15.375  1.00  0.00    -0.496 OA
ATOM     25  H   UNL     1      41.101 135.243  15.070  1.00  0.00     0.294 HD
ENDBRANCH  19  24
ENDBRANCH   7   8
ENDBRANCH   1   7
TORSDOF 8
ENDMDL
MODEL 2
REMARK VINA RESULT:      -7.3      2.407      4.008
REMARK SMILES C#CCO/C([O-])=C\[C@H]1CC[C@@H]2C(O)=Nc3c(N=[N+]=[N-])cc(Cl)c1c32
REMARK SMILES IDX 5 1 6 2 4 3 3 4 2 5 1 6 7 7 8 8 23 9 9 10 21 11 24 12 10 13
REMARK SMILES IDX 20 14 15 15 11 16 16 17 14 18 12 19 22 20 17 21 18 22 19 23
REMARK SMILES IDX 13 24
REMARK H PARENT 13 25
ROOT
ATOM      1  C   UNL     1      46.594 129.831  15.377  1.00  0.00     0.049 C 
ATOM      2  O   UNL     1      45.728 128.768  15.136  1.00  0.00    -0.547 OA
ENDROOT
BRANCH   1   3
ATOM      3  O   UNL     1      47.958 129.703  15.101  1.00  0.00    -0.601 OA
BRANCH   3   4
ATOM      4  C   UNL     1      48.452 129.398  13.806  1.00  0.00     0.160 C 
BRANCH   4   5
ATOM      5  C   UNL     1      47.640 130.097  12.809  1.00  0.00    -0.095 C 
ATOM      6  C   UNL     1      46.966 130.667  11.989  1.00  0.00     0.005 C 
ENDBRANCH   4   5
ENDBRANCH   3   4
ENDBRANCH   1   3
BRANCH   1   7
ATOM      7  C   UNL     1      46.107 130.975  15.869  1.00  0.00     0.005 C 
BRANCH   7   8
ATOM      8  C   UNL     1      44.831 131.060  16.678  1.00  0.00     0.045 C 
ATOM      9  C   UNL     1      43.932 132.187  16.179  1.00  0.00    -0.016 A 
ATOM     10  C   UNL     1      45.149 131.113  18.212  1.00  0.00     0.014 C 
ATOM     11  C   UNL     1      43.259 132.143  14.934  1.00  0.00     0.045 A 
ATOM     12  C   UNL     1      43.587 133.213  17.057  1.00  0.00    -0.004 A 
ATOM     13  C   UNL     1      44.107 131.895  19.039  1.00  0.00     0.019 C 
ATOM     14  C   UNL     1      42.217 133.057  14.663  1.00  0.00     0.033 A 
ATOM     15  C   UNL     1      42.495 134.013  16.852  1.00  0.00     0.081 A 
ATOM     16  C   UNL     1      44.002 133.309  18.470  1.00  0.00     0.108 C 
ATOM     17  C   UNL     1      41.788 133.976  15.640  1.00  0.00     0.065 A 
ATOM     18  N   UNL     1      42.059 134.585  18.078  1.00  0.00    -0.217 NA
ATOM     19  C   UNL     1      42.877 134.159  18.995  1.00  0.00     0.193 C 
ATOM     20  Cl  UNL     1      43.622 130.908  13.735  1.00  0.00    -0.084 Cl
BRANCH  17  21
ATOM     21  N   UNL     1      40.639 134.794  15.378  1.00  0.00    -0.058 NA
BRANCH  21  22
ATOM     22  N   UNL     1      40.249 135.045  14.238  1.00  0.00     0.005 N 
ATOM     23  N   UNL     1      39.855 135.298  13.100  1.00  0.00    -0.003 NA
ENDBRANCH  21  22
ENDBRANCH  17  21
BRANCH  19  24
ATOM     24  O   UNL     1      42.738 134.505  20.335  1.00  0.00    -0.496 OA
ATOM     25  H   UNL     1      43.114 133.913  21.065  1.00  0.00     0.294 HD
ENDBRANCH  19  24
ENDBRANCH   7   8
ENDBRANCH   1   7
TORSDOF 8
ENDMDL
MODEL 3
REMARK VINA RESULT:      -6.8      1.151      1.251
REMARK SMILES C#CCO/C([O-])=C\[C@H]1CC[C@@H]2C(O)=Nc3c(N=[N+]=[N-])cc(Cl)c1c32
REMARK SMILES IDX 5 1 6 2 4 3 3 4 2 5 1 6 7 7 8 8 23 9 9 10 21 11 24 12 10 13
REMARK SMILES IDX 20 14 15 15 11 16 16 17 14 18 12 19 22 20 17 21 18 22 19 23
REMARK SMILES IDX 13 24
REMARK H PARENT 13 25
ROOT
ATOM      1  C   UNL     1      45.927 129.724  15.901  1.00  0.00     0.049 C 
ATOM      2  O   UNL     1      45.190 128.737  15.253  1.00  0.00    -0.547 OA
ENDROOT
BRANCH   1   3
ATOM      3  O   UNL     1      47.093 130.226  15.317  1.00  0.00    -0.601 OA
BRANCH   3   4
ATOM      4  C   UNL     1      47.091 131.331  14.425  1.00  0.00     0.160 C 
BRANCH   4   5
ATOM      5  C   UNL     1      47.225 130.837  13.055  1.00  0.00    -0.095 C 
ATOM      6  C   UNL     1      47.331 130.434  11.924  1.00  0.00     0.005 C 
ENDBRANCH   4   5
ENDBRANCH   3   4
ENDBRANCH   1   3
BRANCH   1   7
ATOM      7  C   UNL     1      45.505 130.191  17.080  1.00  0.00     0.005 C 
BRANCH   7   8
ATOM      8  C   UNL     1      44.972 131.593  17.281  1.00  0.00     0.045 C 
ATOM      9  C   UNL     1      44.129 131.689  18.549  1.00  0.00    -0.016 A 
ATOM     10  C   UNL     1      44.256 132.106  15.984  1.00  0.00     0.014 C 
ATOM     11  C   UNL     1      44.681 131.604  19.851  1.00  0.00     0.045 A 
ATOM     12  C   UNL     1      42.795 132.081  18.444  1.00  0.00    -0.004 A 
ATOM     13  C   UNL     1      43.111 133.105  16.257  1.00  0.00     0.019 C 
ATOM     14  C   UNL     1      43.915 131.999  20.969  1.00  0.00     0.033 A 
ATOM     15  C   UNL     1      42.097 132.587  19.507  1.00  0.00     0.081 A 
ATOM     16  C   UNL     1      42.103 132.440  17.192  1.00  0.00     0.108 C 
ATOM     17  C   UNL     1      42.626 132.542  20.807  1.00  0.00     0.065 A 
ATOM     18  N   UNL     1      41.003 133.374  19.056  1.00  0.00    -0.217 NA
ATOM     19  C   UNL     1      41.028 133.329  17.757  1.00  0.00     0.193 C 
ATOM     20  Cl  UNL     1      46.347 131.103  20.112  1.00  0.00    -0.084 Cl
BRANCH  17  21
ATOM     21  N   UNL     1      41.933 133.059  21.952  1.00  0.00    -0.058 NA
BRANCH  21  22
ATOM     22  N   UNL     1      42.211 132.724  23.104  1.00  0.00     0.005 N 
ATOM     23  N   UNL     1      42.489 132.386  24.254  1.00  0.00    -0.003 NA
ENDBRANCH  21  22
ENDBRANCH  17  21
BRANCH  19  24
ATOM     24  O   UNL     1      40.106 134.012  16.971  1.00  0.00    -0.496 OA
ATOM     25  H   UNL     1      39.742 133.599  16.121  1.00  0.00     0.294 HD
ENDBRANCH  19  24
ENDBRANCH   7   8
ENDBRANCH   1   7
TORSDOF 8
ENDMDL
MODEL 4
REMARK VINA RESULT:      -6.8      2.479      4.097
REMARK SMILES C#CCO/C([O-])=C\[C@H]1CC[C@@H]2C(O)=Nc3c(N=[N+]=[N-])cc(Cl)c1c32
REMARK SMILES IDX 5 1 6 2 4 3 3 4 2 5 1 6 7 7 8 8 23 9 9 10 21 11 24 12 10 13
REMARK SMILES IDX 20 14 15 15 11 16 16 17 14 18 12 19 22 20 17 21 18 22 19 23
REMARK SMILES IDX 13 24
REMARK H PARENT 13 25
ROOT
ATOM      1  C   UNL     1      45.947 130.560  16.142  1.00  0.00     0.049 C 
ATOM      2  O   UNL     1      45.450 129.284  16.388  1.00  0.00    -0.547 OA
ENDROOT
BRANCH   1   3
ATOM      3  O   UNL     1      47.092 130.729  15.359  1.00  0.00    -0.601 OA
BRANCH   3   4
ATOM      4  C   UNL     1      47.553 129.740  14.451  1.00  0.00     0.160 C 
BRANCH   4   5
ATOM      5  C   UNL     1      47.299 130.195  13.083  1.00  0.00    -0.095 C 
ATOM      6  C   UNL     1      47.093 130.575  11.958  1.00  0.00     0.005 C 
ENDBRANCH   4   5
ENDBRANCH   3   4
ENDBRANCH   1   3
BRANCH   1   7
ATOM      7  C   UNL     1      45.315 131.621  16.656  1.00  0.00     0.005 C 
BRANCH   7   8
ATOM      8  C   UNL     1      43.853 131.614  17.044  1.00  0.00     0.045 C 
ATOM      9  C   UNL     1      43.054 132.613  16.213  1.00  0.00    -0.016 A 
ATOM     10  C   UNL     1      43.688 131.779  18.594  1.00  0.00     0.014 C 
ATOM     11  C   UNL     1      42.793 132.434  14.832  1.00  0.00     0.045 A 
ATOM     12  C   UNL     1      42.375 133.641  16.864  1.00  0.00    -0.004 A 
ATOM     13  C   UNL     1      42.383 132.490  19.011  1.00  0.00     0.019 C 
ATOM     14  C   UNL     1      41.808 133.218  14.193  1.00  0.00     0.033 A 
ATOM     15  C   UNL     1      41.332 134.311  16.283  1.00  0.00     0.081 A 
ATOM     16  C   UNL     1      42.336 133.854  18.323  1.00  0.00     0.108 C 
ATOM     17  C   UNL     1      41.030 134.137  14.922  1.00  0.00     0.065 A 
ATOM     18  N   UNL     1      40.501 134.897  17.275  1.00  0.00    -0.217 NA
ATOM     19  C   UNL     1      41.037 134.608  18.423  1.00  0.00     0.193 C 
ATOM     20  Cl  UNL     1      43.604 131.183  13.898  1.00  0.00    -0.084 Cl
BRANCH  17  21
ATOM     21  N   UNL     1      39.948 134.815  14.269  1.00  0.00    -0.058 NA
BRANCH  21  22
ATOM     22  N   UNL     1      38.766 134.553  14.495  1.00  0.00     0.005 N 
ATOM     23  N   UNL     1      37.587 134.287  14.723  1.00  0.00    -0.003 NA
ENDBRANCH  21  22
ENDBRANCH  17  21
BRANCH  19  24
ATOM     24  O   UNL     1      40.473 135.006  19.630  1.00  0.00    -0.496 OA
ATOM     25  H   UNL     1      40.024 134.334  20.240  1.00  0.00     0.294 HD
ENDBRANCH  19  24
ENDBRANCH   7   8
ENDBRANCH   1   7
TORSDOF 8
ENDMDL
MODEL 5
REMARK VINA RESULT:      -6.7      1.047      1.324
REMARK SMILES C#CCO/C([O-])=C\[C@H]1CC[C@@H]2C(O)=Nc3c(N=[N+]=[N-])cc(Cl)c1c32
REMARK SMILES IDX 5 1 6 2 4 3 3 4 2 5 1 6 7 7 8 8 23 9 9 10 21 11 24 12 10 13
REMARK SMILES IDX 20 14 15 15 11 16 16 17 14 18 12 19 22 20 17 21 18 22 19 23
REMARK SMILES IDX 13 24
REMARK H PARENT 13 25
ROOT
ATOM      1  C   UNL     1      45.884 130.017  16.015  1.00  0.00     0.049 C 
ATOM      2  O   UNL     1      47.272 129.927  15.958  1.00  0.00    -0.547 OA
ENDROOT
BRANCH   1   3
ATOM      3  O   UNL     1      45.108 129.573  14.941  1.00  0.00    -0.601 OA
BRANCH   3   4
ATOM      4  C   UNL     1      44.873 130.365  13.786  1.00  0.00     0.160 C 
BRANCH   4   5
ATOM      5  C   UNL     1      46.121 130.488  13.031  1.00  0.00    -0.095 C 
ATOM      6  C   UNL     1      47.145 130.592  12.405  1.00  0.00     0.005 C 
ENDBRANCH   4   5
ENDBRANCH   3   4
ENDBRANCH   1   3
BRANCH   1   7
ATOM      7  C   UNL     1      45.304 130.523  17.107  1.00  0.00     0.005 C 
BRANCH   7   8
ATOM      8  C   UNL     1      45.088 132.004  17.326  1.00  0.00     0.045 C 
ATOM      9  C   UNL     1      43.846 132.264  18.175  1.00  0.00    -0.016 A 
ATOM     10  C   UNL     1      45.117 132.778  15.963  1.00  0.00     0.014 C 
ATOM     11  C   UNL     1      43.773 131.946  19.553  1.00  0.00     0.045 A 
ATOM     12  C   UNL     1      42.811 133.029  17.639  1.00  0.00    -0.004 A 
ATOM     13  C   UNL     1      44.238 134.047  15.947  1.00  0.00     0.019 C 
ATOM     14  C   UNL     1      42.732 132.478  20.345  1.00  0.00     0.033 A 
ATOM     15  C   UNL     1      41.880 133.650  18.426  1.00  0.00     0.081 A 
ATOM     16  C   UNL     1      42.806 133.646  16.299  1.00  0.00     0.108 C 
ATOM     17  C   UNL     1      41.796 133.378  19.801  1.00  0.00     0.065 A 
ATOM     18  N   UNL     1      41.293 134.745  17.734  1.00  0.00    -0.217 NA
ATOM     19  C   UNL     1      41.841 134.772  16.556  1.00  0.00     0.193 C 
ATOM     20  Cl  UNL     1      45.009 130.971  20.339  1.00  0.00    -0.084 Cl
BRANCH  17  21
ATOM     21  N   UNL     1      40.838 134.003  20.665  1.00  0.00    -0.058 NA
BRANCH  21  22
ATOM     22  N   UNL     1      41.094 135.018  21.316  1.00  0.00     0.005 N 
ATOM     23  N   UNL     1      41.345 136.032  21.966  1.00  0.00    -0.003 NA
ENDBRANCH  21  22
ENDBRANCH  17  21
BRANCH  19  24
ATOM     24  O   UNL     1      41.519 135.737  15.607  1.00  0.00    -0.496 OA
ATOM     25  H   UNL     1      41.341 136.695  15.882  1.00  0.00     0.294 HD
ENDBRANCH  19  24
ENDBRANCH   7   8
ENDBRANCH   1   7
TORSDOF 8
ENDMDL
MODEL 6
REMARK VINA RESULT:      -6.6      1.418      1.492
REMARK SMILES C#CCO/C([O-])=C\[C@H]1CC[C@@H]2C(O)=Nc3c(N=[N+]=[N-])cc(Cl)c1c32
REMARK SMILES IDX 5 1 6 2 4 3 3 4 2 5 1 6 7 7 8 8 23 9 9 10 21 11 24 12 10 13
REMARK SMILES IDX 20 14 15 15 11 16 16 17 14 18 12 19 22 20 17 21 18 22 19 23
REMARK SMILES IDX 13 24
REMARK H PARENT 13 25
ROOT
ATOM      1  C   UNL     1      45.685 129.714  15.870  1.00  0.00     0.049 C 
ATOM      2  O   UNL     1      45.212 128.511  15.352  1.00  0.00    -0.547 OA
ENDROOT
BRANCH   1   3
ATOM      3  O   UNL     1      47.037 130.048  15.747  1.00  0.00    -0.601 OA
BRANCH   3   4
ATOM      4  C   UNL     1      47.818 129.678  14.621  1.00  0.00     0.160 C 
BRANCH   4   5
ATOM      5  C   UNL     1      47.196 130.216  13.411  1.00  0.00    -0.095 C 
ATOM      6  C   UNL     1      46.677 130.655  12.415  1.00  0.00     0.005 C 
ENDBRANCH   4   5
ENDBRANCH   3   4
ENDBRANCH   1   3
BRANCH   1   7
ATOM      7  C   UNL     1      44.834 130.546  16.478  1.00  0.00     0.005 C 
BRANCH   7   8
ATOM      8  C   UNL     1      45.160 131.989  16.793  1.00  0.00     0.045 C 
ATOM      9  C   UNL     1      44.430 132.462  18.047  1.00  0.00    -0.016 A 
ATOM     10  C   UNL     1      44.942 132.896  15.533  1.00  0.00     0.014 C 
ATOM     11  C   UNL     1      44.752 132.000  19.347  1.00  0.00     0.045 A 
ATOM     12  C   UNL     1      43.552 133.540  17.949  1.00  0.00    -0.004 A 
ATOM     13  C   UNL     1      44.533 134.346  15.870  1.00  0.00     0.019 C 
ATOM     14  C   UNL     1      44.262 132.686  20.480  1.00  0.00     0.033 A 
ATOM     15  C   UNL     1      43.183 134.282  19.039  1.00  0.00     0.081 A 
ATOM     16  C   UNL     1      43.263 134.304  16.721  1.00  0.00     0.108 C 
ATOM     17  C   UNL     1      43.508 133.867  20.340  1.00  0.00     0.065 A 
ATOM     18  N   UNL     1      42.748 135.574  18.638  1.00  0.00    -0.217 NA
ATOM     19  C   UNL     1      42.831 135.605  17.341  1.00  0.00     0.193 C 
ATOM     20  Cl  UNL     1      45.833 130.636  19.597  1.00  0.00    -0.084 Cl
BRANCH  17  21
ATOM     21  N   UNL     1      43.145 134.611  21.512  1.00  0.00    -0.058 NA
BRANCH  21  22
ATOM     22  N   UNL     1      42.904 134.071  22.593  1.00  0.00     0.005 N 
ATOM     23  N   UNL     1      42.659 133.533  23.672  1.00  0.00    -0.003 NA
ENDBRANCH  21  22
ENDBRANCH  17  21
BRANCH  19  24
ATOM     24  O   UNL     1      42.502 136.735  16.600  1.00  0.00    -0.496 OA
ATOM     25  H   UNL     1      41.553 136.889  16.283  1.00  0.00     0.294 HD
ENDBRANCH  19  24
ENDBRANCH   7   8
ENDBRANCH   1   7
TORSDOF 8
ENDMDL
MODEL 7
REMARK VINA RESULT:      -6.5      2.827      4.288
REMARK SMILES C#CCO/C([O-])=C\[C@H]1CC[C@@H]2C(O)=Nc3c(N=[N+]=[N-])cc(Cl)c1c32
REMARK SMILES IDX 5 1 6 2 4 3 3 4 2 5 1 6 7 7 8 8 23 9 9 10 21 11 24 12 10 13
REMARK SMILES IDX 20 14 15 15 11 16 16 17 14 18 12 19 22 20 17 21 18 22 19 23
REMARK SMILES IDX 13 24
REMARK H PARENT 13 25
ROOT
ATOM      1  C   UNL     1      45.997 130.492  15.875  1.00  0.00     0.049 C 
ATOM      2  O   UNL     1      45.251 129.444  16.405  1.00  0.00    -0.547 OA
ENDROOT
BRANCH   1   3
ATOM      3  O   UNL     1      47.328 130.287  15.500  1.00  0.00    -0.601 OA
BRANCH   3   4
ATOM      4  C   UNL     1      47.699 129.449  14.415  1.00  0.00     0.160 C 
BRANCH   4   5
ATOM      5  C   UNL     1      47.350 130.115  13.160  1.00  0.00    -0.095 C 
ATOM      6  C   UNL     1      47.060 130.659  12.124  1.00  0.00     0.005 C 
ENDBRANCH   4   5
ENDBRANCH   3   4
ENDBRANCH   1   3
BRANCH   1   7
ATOM      7  C   UNL     1      45.428 131.692  15.722  1.00  0.00     0.005 C 
BRANCH   7   8
ATOM      8  C   UNL     1      44.236 132.159  16.529  1.00  0.00     0.045 C 
ATOM      9  C   UNL     1      43.466 133.254  15.796  1.00  0.00    -0.016 A 
ATOM     10  C   UNL     1      44.665 132.533  17.989  1.00  0.00     0.014 C 
ATOM     11  C   UNL     1      42.707 133.011  14.625  1.00  0.00     0.045 A 
ATOM     12  C   UNL     1      43.326 134.501  16.403  1.00  0.00    -0.004 A 
ATOM     13  C   UNL     1      43.800 133.638  18.631  1.00  0.00     0.019 C 
ATOM     14  C   UNL     1      41.783 133.978  14.171  1.00  0.00     0.033 A 
ATOM     15  C   UNL     1      42.341 135.381  16.042  1.00  0.00     0.081 A 
ATOM     16  C   UNL     1      43.848 134.873  17.731  1.00  0.00     0.108 C 
ATOM     17  C   UNL     1      41.553 135.158  14.902  1.00  0.00     0.065 A 
ATOM     18  N   UNL     1      42.074 136.291  17.101  1.00  0.00    -0.217 NA
ATOM     19  C   UNL     1      42.889 135.982  18.066  1.00  0.00     0.193 C 
ATOM     20  Cl  UNL     1      42.814 131.483  13.760  1.00  0.00    -0.084 Cl
BRANCH  17  21
ATOM     21  N   UNL     1      40.511 136.051  14.485  1.00  0.00    -0.058 NA
BRANCH  21  22
ATOM     22  N   UNL     1      39.331 135.705  14.411  1.00  0.00     0.005 N 
ATOM     23  N   UNL     1      38.151 135.364  14.336  1.00  0.00    -0.003 NA
ENDBRANCH  21  22
ENDBRANCH  17  21
BRANCH  19  24
ATOM     24  O   UNL     1      42.893 136.658  19.282  1.00  0.00    -0.496 OA
ATOM     25  H   UNL     1      42.444 137.560  19.376  1.00  0.00     0.294 HD
ENDBRANCH  19  24
ENDBRANCH   7   8
ENDBRANCH   1   7
TORSDOF 8
ENDMDL
MODEL 8
REMARK VINA RESULT:      -6.5      2.618      3.982
REMARK SMILES C#CCO/C([O-])=C\[C@H]1CC[C@@H]2C(O)=Nc3c(N=[N+]=[N-])cc(Cl)c1c32
REMARK SMILES IDX 5 1 6 2 4 3 3 4 2 5 1 6 7 7 8 8 23 9 9 10 21 11 24 12 10 13
REMARK SMILES IDX 20 14 15 15 11 16 16 17 14 18 12 19 22 20 17 21 18 22 19 23
REMARK SMILES IDX 13 24
REMARK H PARENT 13 25
ROOT
ATOM      1  C   UNL     1      45.288 130.170  14.585  1.00  0.00     0.049 C 
ATOM      2  O   UNL     1      45.228 128.882  15.109  1.00  0.00    -0.547 OA
ENDROOT
BRANCH   1   3
ATOM      3  O   UNL     1      45.352 130.363  13.202  1.00  0.00    -0.601 OA
BRANCH   3   4
ATOM      4  C   UNL     1      46.551 130.724  12.533  1.00  0.00     0.160 C 
BRANCH   4   5
ATOM      5  C   UNL     1      47.663 129.962  13.104  1.00  0.00    -0.095 C 
ATOM      6  C   UNL     1      48.583 129.339  13.571  1.00  0.00     0.005 C 
ENDBRANCH   4   5
ENDBRANCH   3   4
ENDBRANCH   1   3
BRANCH   1   7
ATOM      7  C   UNL     1      45.277 131.218  15.415  1.00  0.00     0.005 C 
BRANCH   7   8
ATOM      8  C   UNL     1      44.266 131.391  16.527  1.00  0.00     0.045 C 
ATOM      9  C   UNL     1      43.557 132.738  16.427  1.00  0.00    -0.016 A 
ATOM     10  C   UNL     1      44.919 131.102  17.922  1.00  0.00     0.014 C 
ATOM     11  C   UNL     1      42.633 133.049  15.400  1.00  0.00     0.045 A 
ATOM     12  C   UNL     1      43.656 133.633  17.492  1.00  0.00    -0.004 A 
ATOM     13  C   UNL     1      44.291 131.901  19.084  1.00  0.00     0.019 C 
ATOM     14  C   UNL     1      41.791 134.176  15.527  1.00  0.00     0.033 A 
ATOM     15  C   UNL     1      42.756 134.647  17.679  1.00  0.00     0.081 A 
ATOM     16  C   UNL     1      44.385 133.390  18.751  1.00  0.00     0.108 C 
ATOM     17  C   UNL     1      41.809 134.965  16.693  1.00  0.00     0.065 A 
ATOM     18  N   UNL     1      42.744 135.057  19.040  1.00  0.00    -0.217 NA
ATOM     19  C   UNL     1      43.626 134.325  19.653  1.00  0.00     0.193 C 
ATOM     20  Cl  UNL     1      42.432 132.008  13.996  1.00  0.00    -0.084 Cl
BRANCH  17  21
ATOM     21  N   UNL     1      40.846 136.017  16.844  1.00  0.00    -0.058 NA
BRANCH  21  22
ATOM     22  N   UNL     1      40.202 136.469  15.896  1.00  0.00     0.005 N 
ATOM     23  N   UNL     1      39.555 136.920  14.951  1.00  0.00    -0.003 NA
ENDBRANCH  21  22
ENDBRANCH  17  21
BRANCH  19  24
ATOM     24  O   UNL     1      43.870 134.440  21.018  1.00  0.00    -0.496 OA
ATOM     25  H   UNL     1      43.659 133.676  21.648  1.00  0.00     0.294 HD
ENDBRANCH  19  24
ENDBRANCH   7   8
ENDBRANCH   1   7
TORSDOF 8
ENDMDL
MODEL 9
REMARK VINA RESULT:      -6.4      2.522      3.867
REMARK SMILES C#CCO/C([O-])=C\[C@H]1CC[C@@H]2C(O)=Nc3c(N=[N+]=[N-])cc(Cl)c1c32
REMARK SMILES IDX 5 1 6 2 4 3 3 4 2 5 1 6 7 7 8 8 23 9 9 10 21 11 24 12 10 13
REMARK SMILES IDX 20 14 15 15 11 16 16 17 14 18 12 19 22 20 17 21 18 22 19 23
REMARK SMILES IDX 13 24
REMARK H PARENT 13 25
ROOT
ATOM      1  C   UNL     1      45.853 131.594  15.738  1.00  0.00     0.049 C 
ATOM      2  O   UNL     1      46.559 130.604  16.414  1.00  0.00    -0.547 OA
ENDROOT
BRANCH   1   3
ATOM      3  O   UNL     1      45.970 131.716  14.350  1.00  0.00    -0.601 OA
BRANCH   3   4
ATOM      4  C   UNL     1      45.814 130.615  13.468  1.00  0.00     0.160 C 
BRANCH   4   5
ATOM      5  C   UNL     1      47.111 129.963  13.285  1.00  0.00    -0.095 C 
ATOM      6  C   UNL     1      48.177 129.420  13.135  1.00  0.00     0.005 C 
ENDBRANCH   4   5
ENDBRANCH   3   4
ENDBRANCH   1   3
BRANCH   1   7
ATOM      7  C   UNL     1      45.060 132.421  16.426  1.00  0.00     0.005 C 
BRANCH   7   8
ATOM      8  C   UNL     1      43.856 131.957  17.216  1.00  0.00     0.045 C 
ATOM      9  C   UNL     1      42.702 132.949  17.101  1.00  0.00    -0.016 A 
ATOM     10  C   UNL     1      44.260 131.598  18.687  1.00  0.00     0.014 C 
ATOM     11  C   UNL     1      41.969 133.144  15.905  1.00  0.00     0.045 A 
ATOM     12  C   UNL     1      42.205 133.542  18.260  1.00  0.00    -0.004 A 
ATOM     13  C   UNL     1      43.134 131.825  19.718  1.00  0.00     0.019 C 
ATOM     14  C   UNL     1      40.738 133.836  15.937  1.00  0.00     0.033 A 
ATOM     15  C   UNL     1      40.955 134.096  18.319  1.00  0.00     0.081 A 
ATOM     16  C   UNL     1      42.687 133.284  19.631  1.00  0.00     0.108 C 
ATOM     17  C   UNL     1      40.190 134.281  17.156  1.00  0.00     0.065 A 
ATOM     18  N   UNL     1      40.492 134.142  19.662  1.00  0.00    -0.217 NA
ATOM     19  C   UNL     1      41.444 133.649  20.397  1.00  0.00     0.193 C 
ATOM     20  Cl  UNL     1      42.506 132.462  14.375  1.00  0.00    -0.084 Cl
BRANCH  17  21
ATOM     21  N   UNL     1      38.876 134.856  17.166  1.00  0.00    -0.058 NA
BRANCH  21  22
ATOM     22  N   UNL     1      38.683 136.070  17.253  1.00  0.00     0.005 N 
ATOM     23  N   UNL     1      38.491 137.282  17.336  1.00  0.00    -0.003 NA
ENDBRANCH  21  22
ENDBRANCH  17  21
BRANCH  19  24
ATOM     24  O   UNL     1      41.327 133.517  21.776  1.00  0.00    -0.496 OA
ATOM     25  H   UNL     1      40.627 132.909  22.182  1.00  0.00     0.294 HD
ENDBRANCH  19  24
ENDBRANCH   7   8
ENDBRANCH   1   7
TORSDOF 8
ENDMDL


