REMARK SMILES C#C/C(O)=N\[C@H](c1c(C)nnn1-c1c2ccccc2c(C(=O)N=[N+]=[N-])c2ccccc12)C(C)C
REMARK SMILES IDX 7 1 8 2 9 3 10 4 11 5 12 6 6 7 5 8 3 9 2 10 1 11 4 12 32 14
REMARK SMILES IDX 33 15 34 16 13 17 14 18 31 19 15 20 19 21 30 22 26 23 16 24
REMARK SMILES IDX 18 25 20 26 29 27 27 28 17 29 28 30 21 31 22 32 23 33 24 34
REMARK SMILES IDX 25 35
REMARK H PARENT 4 13
ROOT
ATOM      1  C   UNL     1       1.963   0.071  -0.424  1.00  0.00     0.092 A 
ATOM      2  C   UNL     1       3.339   0.216  -0.336  1.00  0.00     0.086 A 
ATOM      3  C   UNL     1       4.127   1.479  -0.207  1.00  0.00     0.071 C 
ATOM      4  N   UNL     1       3.898  -1.008  -0.432  1.00  0.00    -0.135 NA
ATOM      5  N   UNL     1       2.906  -1.880  -0.547  1.00  0.00    -0.062 NA
ATOM      6  N   UNL     1       1.741  -1.254  -0.540  1.00  0.00    -0.214 N 
ENDROOT
BRANCH   1   7
ATOM      7  C   UNL     1       0.885   1.131  -0.338  1.00  0.00     0.163 C 
BRANCH   7   8
ATOM      8  N   UNL     1       0.947   1.746   0.994  1.00  0.00    -0.234 NA
BRANCH   8   9
ATOM      9  C   UNL     1      -0.011   1.797   1.875  1.00  0.00     0.261 C 
BRANCH   9  10
ATOM     10  C   UNL     1      -1.315   1.226   1.628  1.00  0.00    -0.012 C 
ATOM     11  C   UNL     1      -2.401   0.745   1.419  1.00  0.00     0.015 C 
ENDBRANCH   9  10
BRANCH   9  12
ATOM     12  O   UNL     1       0.234   2.422   3.094  1.00  0.00    -0.487 OA
ATOM     13  H   UNL     1      -0.484   2.481   3.807  1.00  0.00     0.296 HD
ENDBRANCH   9  12
ENDBRANCH   8   9
ENDBRANCH   7   8
BRANCH   7  14
ATOM     14  C   UNL     1       1.013   2.215  -1.440  1.00  0.00     0.014 C 
ATOM     15  C   UNL     1      -0.144   3.223  -1.349  1.00  0.00     0.010 C 
ATOM     16  C   UNL     1       1.036   1.593  -2.846  1.00  0.00     0.010 C 
ENDBRANCH   7  14
ENDBRANCH   1   7
BRANCH   6  17
ATOM     17  C   UNL     1       0.469  -1.918  -0.593  1.00  0.00     0.082 A 
ATOM     18  C   UNL     1      -0.100  -2.246  -1.840  1.00  0.00     0.009 A 
ATOM     19  C   UNL     1      -0.241  -2.169   0.600  1.00  0.00     0.009 A 
ATOM     20  C   UNL     1       0.609  -2.012  -3.037  1.00  0.00     0.011 A 
ATOM     21  C   UNL     1      -1.404  -2.805  -1.901  1.00  0.00    -0.005 A 
ATOM     22  C   UNL     1       0.328  -1.860   1.854  1.00  0.00     0.011 A 
ATOM     23  C   UNL     1      -1.548  -2.722   0.547  1.00  0.00    -0.005 A 
ATOM     24  C   UNL     1       0.044  -2.325  -4.272  1.00  0.00     0.001 A 
ATOM     25  C   UNL     1      -1.949  -3.123  -3.167  1.00  0.00     0.009 A 
ATOM     26  C   UNL     1      -2.132  -3.033  -0.707  1.00  0.00     0.040 A 
ATOM     27  C   UNL     1      -0.384  -2.077   3.032  1.00  0.00     0.001 A 
ATOM     28  C   UNL     1      -2.250  -2.926   1.758  1.00  0.00     0.009 A 
ATOM     29  C   UNL     1      -1.229  -2.881  -4.337  1.00  0.00     0.001 A 
ATOM     30  C   UNL     1      -1.669  -2.605   2.984  1.00  0.00     0.001 A 
BRANCH  26  31
ATOM     31  C   UNL     1      -3.514  -3.571  -0.769  1.00  0.00     0.250 C 
ATOM     32  O   UNL     1      -3.724  -4.774  -0.462  1.00  0.00    -0.287 OA
BRANCH  31  33
ATOM     33  N   UNL     1      -4.614  -2.747  -1.165  1.00  0.00    -0.017 NA
BRANCH  33  34
ATOM     34  N   UNL     1      -4.461  -1.555  -1.435  1.00  0.00     0.009 N 
ATOM     35  N   UNL     1      -4.306  -0.365  -1.705  1.00  0.00    -0.003 NA
ENDBRANCH  33  34
ENDBRANCH  31  33
ENDBRANCH  26  31
ENDBRANCH   6  17
TORSDOF 10


