REMARK SMILES C#C[C@](O)(c1cc(N)cc(SC(C)(C)CNC[C@](C)(O)C=C)ccc2cc1CC2)C(C)(C)C
REMARK SMILES IDX 12 1 13 2 14 3 11 4 10 5 5 6 6 7 27 8 7 9 26 10 28 11 9 12
REMARK SMILES IDX 25 13 29 14 24 15 23 16 3 17 2 18 1 19 4 20 30 22 31 23
REMARK SMILES IDX 32 24 33 25 8 26 15 29 16 30 17 32 18 33 19 34 20 35 21 37
REMARK SMILES IDX 22 38
REMARK H PARENT 4 21 8 27 8 28 16 31 20 36
ROOT
ATOM      1  C   UNL     1       1.135   2.731   2.189  1.00  0.00     0.027 C 
ATOM      2  C   UNL     1       1.886   1.523   2.783  1.00  0.00     0.024 C 
ATOM      3  C   UNL     1       1.204   3.898   3.193  1.00  0.00     0.024 C 
ENDROOT
BRANCH   1   4
ATOM      4  S   UNL     1       2.026   3.307   0.665  1.00  0.00    -0.118 SA
BRANCH   4   5
ATOM      5  C   UNL     1       1.283   2.288  -0.637  1.00  0.00     0.010 A 
ATOM      6  C   UNL     1       1.598  -1.645  -2.146  1.00  0.00     0.002 A 
ATOM      7  C   UNL     1       2.673  -0.724  -2.302  1.00  0.00     0.033 A 
ATOM      8  C   UNL     1       0.258  -1.148  -2.179  1.00  0.00    -0.040 A 
ATOM      9  C   UNL     1       2.573   0.630  -1.926  1.00  0.00     0.033 A 
ATOM     10  C   UNL     1      -0.064   0.052  -2.784  1.00  0.00     0.007 A 
ATOM     11  C   UNL     1      -0.806  -1.493  -1.175  1.00  0.00     0.041 C 
ATOM     12  C   UNL     1       1.785   1.003  -0.821  1.00  0.00     0.040 A 
ATOM     13  C   UNL     1      -1.020   0.703  -2.058  1.00  0.00    -0.047 A 
ATOM     14  C   UNL     1      -1.706  -0.248  -1.136  1.00  0.00     0.040 C 
ATOM     15  C   UNL     1      -0.972   2.076  -1.825  1.00  0.00     0.005 A 
ATOM     16  C   UNL     1       0.113   2.792  -1.254  1.00  0.00     0.015 A 
BRANCH   6  17
ATOM     17  C   UNL     1       1.908  -3.157  -2.115  1.00  0.00     0.155 C 
BRANCH  17  18
ATOM     18  C   UNL     1       1.112  -3.811  -1.053  1.00  0.00    -0.066 C 
ATOM     19  C   UNL     1       0.466  -4.363  -0.194  1.00  0.00     0.007 C 
ENDBRANCH  17  18
BRANCH  17  20
ATOM     20  O   UNL     1       3.247  -3.351  -1.703  1.00  0.00    -0.373 OA
ATOM     21  H   UNL     1       3.858  -3.255  -2.479  1.00  0.00     0.213 HD
ENDBRANCH  17  20
BRANCH  17  22
ATOM     22  C   UNL     1       1.625  -3.872  -3.517  1.00  0.00     0.006 C 
ATOM     23  C   UNL     1       0.111  -3.885  -3.867  1.00  0.00     0.015 C 
ATOM     24  C   UNL     1       2.359  -3.174  -4.691  1.00  0.00     0.015 C 
ATOM     25  C   UNL     1       2.110  -5.346  -3.461  1.00  0.00     0.015 C 
ENDBRANCH  17  22
ENDBRANCH   6  17
BRANCH   9  26
ATOM     26  N   UNL     1       3.255   1.626  -2.699  1.00  0.00    -0.399 N 
ATOM     27  H   UNL     1       3.269   2.627  -2.412  1.00  0.00     0.156 HD
ATOM     28  H   UNL     1       3.671   1.386  -3.631  1.00  0.00     0.156 HD
ENDBRANCH   9  26
ENDBRANCH   4   5
ENDBRANCH   1   4
BRANCH   1  29
ATOM     29  C   UNL     1      -0.348   2.380   1.904  1.00  0.00     0.098 C 
BRANCH  29  30
ATOM     30  N   UNL     1      -1.056   1.952   3.119  1.00  0.00    -0.312 NA
ATOM     31  H   UNL     1      -0.669   1.014   3.366  1.00  0.00     0.122 HD
BRANCH  30  32
ATOM     32  C   UNL     1      -2.493   1.797   2.844  1.00  0.00     0.120 C 
BRANCH  32  33
ATOM     33  C   UNL     1      -3.282   1.117   4.007  1.00  0.00     0.092 C 
ATOM     34  C   UNL     1      -2.799  -0.332   4.233  1.00  0.00     0.048 C 
BRANCH  33  35
ATOM     35  O   UNL     1      -4.638   1.033   3.621  1.00  0.00    -0.385 OA
ATOM     36  H   UNL     1      -4.984   1.955   3.490  1.00  0.00     0.211 HD
ENDBRANCH  33  35
BRANCH  33  37
ATOM     37  C   UNL     1      -3.191   1.917   5.304  1.00  0.00     0.001 C 
ATOM     38  C   UNL     1      -2.055   2.062   6.013  1.00  0.00     0.007 C 
ENDBRANCH  33  37
ENDBRANCH  32  33
ENDBRANCH  30  32
ENDBRANCH  29  30
ENDBRANCH   1  29
TORSDOF 13


