REMARK SMILES C#C/C(=N\[C@H](c1c(C)n[nH+]n1-c1c2ccccc2c(C=O)c2ccccc12)C(C)C)OC(=O)C=C
REMARK SMILES IDX 4 1 3 2 2 3 1 4 31 5 32 6 33 7 34 8 35 9 5 10 6 11 7 12
REMARK SMILES IDX 11 13 9 14 10 15 8 16 12 18 13 19 27 20 14 21 18 22 26 23
REMARK SMILES IDX 22 24 15 25 17 26 19 27 25 28 23 29 16 30 24 31 20 32 21 33
REMARK SMILES IDX 28 34 29 35 30 36
REMARK H PARENT 10 17
ROOT
ATOM      1  N   UNL     1       2.387  -0.305  -0.352  1.00  0.00    -0.233 NA
ENDROOT
BRANCH   1   2
ATOM      2  C   UNL     1       2.832  -0.528  -1.557  1.00  0.00     0.272 C 
BRANCH   2   3
ATOM      3  C   UNL     1       1.942  -0.642  -2.684  1.00  0.00    -0.011 C 
ATOM      4  C   UNL     1       1.217  -0.745  -3.640  1.00  0.00     0.015 C 
ENDBRANCH   2   3
BRANCH   2   5
ATOM      5  O   UNL     1       4.206  -0.666  -1.799  1.00  0.00    -0.396 OA
BRANCH   5   6
ATOM      6  C   UNL     1       5.221  -0.562  -0.837  1.00  0.00     0.337 C 
ATOM      7  O   UNL     1       4.952  -0.327   0.373  1.00  0.00    -0.246 OA
BRANCH   6   8
ATOM      8  C   UNL     1       6.617  -0.732  -1.269  1.00  0.00     0.086 C 
ATOM      9  C   UNL     1       7.645  -0.648  -0.426  1.00  0.00     0.016 C 
ENDBRANCH   6   8
ENDBRANCH   5   6
ENDBRANCH   2   5
ENDBRANCH   1   2
BRANCH   1  10
ATOM     10  C   UNL     1       0.988  -0.125   0.052  1.00  0.00     0.168 C 
BRANCH  10  11
ATOM     11  C   UNL     1       0.485   1.274  -0.273  1.00  0.00     0.137 A 
ATOM     12  C   UNL     1       1.207   2.456  -0.440  1.00  0.00     0.135 A 
ATOM     13  N   UNL     1      -0.817   1.626  -0.364  1.00  0.00    -0.097 N 
ATOM     14  N   UNL     1       0.333   3.461  -0.654  1.00  0.00     0.020 NA
ATOM     15  N   UNL     1      -0.876   2.926  -0.599  1.00  0.00    -0.012 N 
ATOM     16  C   UNL     1       2.689   2.656  -0.415  1.00  0.00     0.076 C 
ATOM     17  H   UNL     1      -1.761   3.470  -0.705  1.00  0.00     0.527 HD
BRANCH  13  18
ATOM     18  C   UNL     1      -1.972   0.794  -0.156  1.00  0.00     0.123 A 
ATOM     19  C   UNL     1      -2.617   0.788   1.099  1.00  0.00     0.013 A 
ATOM     20  C   UNL     1      -2.472   0.005  -1.211  1.00  0.00     0.013 A 
ATOM     21  C   UNL     1      -2.159   1.620   2.144  1.00  0.00     0.011 A 
ATOM     22  C   UNL     1      -3.719  -0.079   1.330  1.00  0.00    -0.005 A 
ATOM     23  C   UNL     1      -1.895   0.084  -2.496  1.00  0.00     0.011 A 
ATOM     24  C   UNL     1      -3.584  -0.854  -0.996  1.00  0.00    -0.005 A 
ATOM     25  C   UNL     1      -2.765   1.589   3.398  1.00  0.00     0.001 A 
ATOM     26  C   UNL     1      -4.304  -0.099   2.619  1.00  0.00     0.009 A 
ATOM     27  C   UNL     1      -4.188  -0.921   0.288  1.00  0.00     0.030 A 
ATOM     28  C   UNL     1      -2.403  -0.668  -3.553  1.00  0.00     0.001 A 
ATOM     29  C   UNL     1      -4.088  -1.593  -2.093  1.00  0.00     0.009 A 
ATOM     30  C   UNL     1      -3.831   0.730   3.636  1.00  0.00     0.001 A 
ATOM     31  C   UNL     1      -3.496  -1.504  -3.352  1.00  0.00     0.001 A 
BRANCH  27  32
ATOM     32  C   UNL     1      -5.309  -1.858   0.547  1.00  0.00     0.261 C 
ATOM     33  O   UNL     1      -5.195  -3.085   0.288  1.00  0.00    -0.298 OA
ENDBRANCH  27  32
ENDBRANCH  13  18
ENDBRANCH  10  11
BRANCH  10  34
ATOM     34  C   UNL     1       0.833  -0.457   1.559  1.00  0.00     0.014 C 
ATOM     35  C   UNL     1       1.656   0.473   2.464  1.00  0.00     0.010 C 
ATOM     36  C   UNL     1       1.195  -1.923   1.838  1.00  0.00     0.010 C 
ENDBRANCH  10  34
ENDBRANCH   1  10
TORSDOF 10


