MODEL 1
REMARK VINA RESULT:      -7.7      0.000      0.000
REMARK SMILES C#CCO[C@]1(O)O[C@H]1[C@H]1CC[C@@H]2C(=O)N(O)C(=O)c3ccc(N=[N+]=[N-])c1c32
REMARK SMILES IDX 5 1 7 2 8 3 4 4 3 5 2 6 1 7 6 8 9 10 26 11 10 12 22 13 27 14
REMARK SMILES IDX 11 15 21 16 19 17 12 18 20 19 17 20 13 21 15 22 18 23 14 24
REMARK SMILES IDX 23 25 24 26 25 27 16 28
REMARK H PARENT 6 9 16 29
ROOT
ATOM      1  C   UNL     1      41.161 133.407  14.099  1.00  0.00     0.310 C 
ATOM      2  O   UNL     1      41.730 132.119  14.033  1.00  0.00    -0.313 OA
ATOM      3  C   UNL     1      42.029 132.876  15.184  1.00  0.00     0.222 C 
ENDROOT
BRANCH   1   4
ATOM      4  O   UNL     1      39.762 133.320  14.215  1.00  0.00    -0.312 OA
BRANCH   4   5
ATOM      5  C   UNL     1      39.214 134.589  13.947  1.00  0.00     0.255 C 
BRANCH   5   6
ATOM      6  C   UNL     1      38.092 134.435  13.021  1.00  0.00    -0.078 C 
ATOM      7  C   UNL     1      37.166 134.308  12.259  1.00  0.00     0.006 C 
ENDBRANCH   5   6
ENDBRANCH   4   5
ENDBRANCH   1   4
BRANCH   1   8
ATOM      8  O   UNL     1      41.676 134.218  13.081  1.00  0.00    -0.341 OA
ATOM      9  H   UNL     1      42.038 133.594  12.402  1.00  0.00     0.216 HD
ENDBRANCH   1   8
BRANCH   3  10
ATOM     10  C   UNL     1      43.499 133.335  15.216  1.00  0.00     0.058 C 
ATOM     11  C   UNL     1      44.296 132.351  16.060  1.00  0.00    -0.028 A 
ATOM     12  C   UNL     1      43.597 134.806  15.719  1.00  0.00     0.012 C 
ATOM     13  C   UNL     1      44.869 131.200  15.475  1.00  0.00     0.041 A 
ATOM     14  C   UNL     1      44.384 132.547  17.460  1.00  0.00    -0.019 A 
ATOM     15  C   UNL     1      44.063 134.981  17.178  1.00  0.00     0.019 C 
ATOM     16  C   UNL     1      45.544 130.275  16.287  1.00  0.00     0.011 A 
ATOM     17  C   UNL     1      45.072 131.611  18.258  1.00  0.00     0.047 A 
ATOM     18  C   UNL     1      43.708 133.769  18.053  1.00  0.00     0.112 C 
ATOM     19  C   UNL     1      45.647 130.480  17.661  1.00  0.00     0.015 A 
ATOM     20  C   UNL     1      45.215 131.838  19.708  1.00  0.00     0.284 C 
ATOM     21  C   UNL     1      44.064 134.033  19.499  1.00  0.00     0.261 C 
ATOM     22  N   UNL     1      44.755 133.059  20.289  1.00  0.00    -0.151 N 
ATOM     23  O   UNL     1      45.758 130.966  20.440  1.00  0.00    -0.266 OA
ATOM     24  O   UNL     1      43.679 135.104  20.044  1.00  0.00    -0.271 OA
BRANCH  13  25
ATOM     25  N   UNL     1      44.744 130.981  14.060  1.00  0.00    -0.060 NA
BRANCH  25  26
ATOM     26  N   UNL     1      45.704 130.681  13.347  1.00  0.00     0.005 N 
ATOM     27  N   UNL     1      46.662 130.381  12.637  1.00  0.00    -0.003 NA
ENDBRANCH  25  26
ENDBRANCH  13  25
BRANCH  22  28
ATOM     28  O   UNL     1      44.953 133.287  21.612  1.00  0.00    -0.278 OA
ATOM     29  H   UNL     1      44.043 133.319  22.006  1.00  0.00     0.247 HD
ENDBRANCH  22  28
ENDBRANCH   3  10
TORSDOF 8
ENDMDL
MODEL 2
REMARK VINA RESULT:      -7.7      3.215      6.068
REMARK SMILES C#CCO[C@]1(O)O[C@H]1[C@H]1CC[C@@H]2C(=O)N(O)C(=O)c3ccc(N=[N+]=[N-])c1c32
REMARK SMILES IDX 5 1 7 2 8 3 4 4 3 5 2 6 1 7 6 8 9 10 26 11 10 12 22 13 27 14
REMARK SMILES IDX 11 15 21 16 19 17 12 18 20 19 17 20 13 21 15 22 18 23 14 24
REMARK SMILES IDX 23 25 24 26 25 27 16 28
REMARK H PARENT 6 9 16 29
ROOT
ATOM      1  C   UNL     1      45.966 130.013  15.704  1.00  0.00     0.310 C 
ATOM      2  O   UNL     1      44.699 129.893  16.310  1.00  0.00    -0.313 OA
ATOM      3  C   UNL     1      44.919 131.058  15.547  1.00  0.00     0.222 C 
ENDROOT
BRANCH   1   4
ATOM      4  O   UNL     1      46.129 129.031  14.710  1.00  0.00    -0.312 OA
BRANCH   4   5
ATOM      5  C   UNL     1      47.412 129.177  14.147  1.00  0.00     0.255 C 
BRANCH   5   6
ATOM      6  C   UNL     1      47.312 130.012  12.950  1.00  0.00    -0.078 C 
ATOM      7  C   UNL     1      47.231 130.699  11.964  1.00  0.00     0.006 C 
ENDBRANCH   5   6
ENDBRANCH   4   5
ENDBRANCH   1   4
BRANCH   1   8
ATOM      8  O   UNL     1      46.964 130.117  16.680  1.00  0.00    -0.341 OA
ATOM      9  H   UNL     1      47.799 129.818  16.238  1.00  0.00     0.216 HD
ENDBRANCH   1   8
BRANCH   3  10
ATOM     10  C   UNL     1      45.028 132.319  16.426  1.00  0.00     0.058 C 
ATOM     11  C   UNL     1      43.861 132.331  17.403  1.00  0.00    -0.028 A 
ATOM     12  C   UNL     1      45.105 133.595  15.536  1.00  0.00     0.012 C 
ATOM     13  C   UNL     1      43.964 131.684  18.655  1.00  0.00     0.041 A 
ATOM     14  C   UNL     1      42.633 132.918  17.013  1.00  0.00    -0.019 A 
ATOM     15  C   UNL     1      43.806 134.418  15.438  1.00  0.00     0.019 C 
ATOM     16  C   UNL     1      42.851 131.655  19.511  1.00  0.00     0.011 A 
ATOM     17  C   UNL     1      41.529 132.885  17.889  1.00  0.00     0.047 A 
ATOM     18  C   UNL     1      42.552 133.554  15.638  1.00  0.00     0.112 C 
ATOM     19  C   UNL     1      41.651 132.250  19.134  1.00  0.00     0.015 A 
ATOM     20  C   UNL     1      40.265 133.543  17.512  1.00  0.00     0.284 C 
ATOM     21  C   UNL     1      41.299 134.371  15.406  1.00  0.00     0.261 C 
ATOM     22  N   UNL     1      40.189 134.309  16.308  1.00  0.00    -0.151 N 
ATOM     23  O   UNL     1      39.249 133.448  18.254  1.00  0.00    -0.266 OA
ATOM     24  O   UNL     1      41.200 135.065  14.357  1.00  0.00    -0.271 OA
BRANCH  13  25
ATOM     25  N   UNL     1      45.199 131.053  19.034  1.00  0.00    -0.060 NA
BRANCH  25  26
ATOM     26  N   UNL     1      45.706 131.201  20.147  1.00  0.00     0.005 N 
ATOM     27  N   UNL     1      46.212 131.351  21.258  1.00  0.00    -0.003 NA
ENDBRANCH  25  26
ENDBRANCH  13  25
BRANCH  22  28
ATOM     28  O   UNL     1      39.042 134.967  16.005  1.00  0.00    -0.278 OA
ATOM     29  H   UNL     1      38.673 134.489  15.219  1.00  0.00     0.247 HD
ENDBRANCH  22  28
ENDBRANCH   3  10
TORSDOF 8
ENDMDL
MODEL 3
REMARK VINA RESULT:      -7.3      3.233      5.408
REMARK SMILES C#CCO[C@]1(O)O[C@H]1[C@H]1CC[C@@H]2C(=O)N(O)C(=O)c3ccc(N=[N+]=[N-])c1c32
REMARK SMILES IDX 5 1 7 2 8 3 4 4 3 5 2 6 1 7 6 8 9 10 26 11 10 12 22 13 27 14
REMARK SMILES IDX 11 15 21 16 19 17 12 18 20 19 17 20 13 21 15 22 18 23 14 24
REMARK SMILES IDX 23 25 24 26 25 27 16 28
REMARK H PARENT 6 9 16 29
ROOT
ATOM      1  C   UNL     1      45.321 131.194  15.605  1.00  0.00     0.310 C 
ATOM      2  O   UNL     1      45.527 132.588  15.561  1.00  0.00    -0.313 OA
ATOM      3  C   UNL     1      45.160 132.050  16.811  1.00  0.00     0.222 C 
ENDROOT
BRANCH   1   4
ATOM      4  O   UNL     1      46.531 130.512  15.387  1.00  0.00    -0.312 OA
BRANCH   4   5
ATOM      5  C   UNL     1      46.339 129.586  14.344  1.00  0.00     0.255 C 
BRANCH   5   6
ATOM      6  C   UNL     1      46.856 130.159  13.101  1.00  0.00    -0.078 C 
ATOM      7  C   UNL     1      47.281 130.631  12.077  1.00  0.00     0.006 C 
ENDBRANCH   5   6
ENDBRANCH   4   5
ENDBRANCH   1   4
BRANCH   1   8
ATOM      8  O   UNL     1      44.227 130.840  14.807  1.00  0.00    -0.341 OA
ATOM      9  H   UNL     1      43.901 129.979  15.172  1.00  0.00     0.216 HD
ENDBRANCH   1   8
BRANCH   3  10
ATOM     10  C   UNL     1      43.729 132.449  17.220  1.00  0.00     0.058 C 
ATOM     11  C   UNL     1      43.580 133.955  17.055  1.00  0.00    -0.028 A 
ATOM     12  C   UNL     1      43.419 131.950  18.663  1.00  0.00     0.012 C 
ATOM     13  C   UNL     1      43.174 134.506  15.818  1.00  0.00     0.041 A 
ATOM     14  C   UNL     1      43.940 134.812  18.123  1.00  0.00    -0.019 A 
ATOM     15  C   UNL     1      43.467 133.027  19.765  1.00  0.00     0.019 C 
ATOM     16  C   UNL     1      43.107 135.901  15.673  1.00  0.00     0.011 A 
ATOM     17  C   UNL     1      43.859 136.209  17.960  1.00  0.00     0.047 A 
ATOM     18  C   UNL     1      44.422 134.177  19.414  1.00  0.00     0.112 C 
ATOM     19  C   UNL     1      43.442 136.741  16.731  1.00  0.00     0.015 A 
ATOM     20  C   UNL     1      44.180 137.105  19.086  1.00  0.00     0.284 C 
ATOM     21  C   UNL     1      44.541 135.144  20.572  1.00  0.00     0.261 C 
ATOM     22  N   UNL     1      44.465 136.560  20.375  1.00  0.00    -0.151 N 
ATOM     23  O   UNL     1      44.188 138.356  18.924  1.00  0.00    -0.266 OA
ATOM     24  O   UNL     1      44.787 134.697  21.727  1.00  0.00    -0.271 OA
BRANCH  13  25
ATOM     25  N   UNL     1      42.847 133.636  14.721  1.00  0.00    -0.060 NA
BRANCH  25  26
ATOM     26  N   UNL     1      41.685 133.401  14.385  1.00  0.00     0.005 N 
ATOM     27  N   UNL     1      40.526 133.163  14.049  1.00  0.00    -0.003 NA
ENDBRANCH  25  26
ENDBRANCH  13  25
BRANCH  22  28
ATOM     28  O   UNL     1      44.691 137.395  21.420  1.00  0.00    -0.278 OA
ATOM     29  H   UNL     1      45.280 138.106  21.057  1.00  0.00     0.247 HD
ENDBRANCH  22  28
ENDBRANCH   3  10
TORSDOF 8
ENDMDL
MODEL 4
REMARK VINA RESULT:      -7.2      1.179      1.383
REMARK SMILES C#CCO[C@]1(O)O[C@H]1[C@H]1CC[C@@H]2C(=O)N(O)C(=O)c3ccc(N=[N+]=[N-])c1c32
REMARK SMILES IDX 5 1 7 2 8 3 4 4 3 5 2 6 1 7 6 8 9 10 26 11 10 12 22 13 27 14
REMARK SMILES IDX 11 15 21 16 19 17 12 18 20 19 17 20 13 21 15 22 18 23 14 24
REMARK SMILES IDX 23 25 24 26 25 27 16 28
REMARK H PARENT 6 9 16 29
ROOT
ATOM      1  C   UNL     1      41.261 133.420  14.342  1.00  0.00     0.310 C 
ATOM      2  O   UNL     1      42.110 132.297  14.278  1.00  0.00    -0.313 OA
ATOM      3  C   UNL     1      41.978 132.909  15.541  1.00  0.00     0.222 C 
ENDROOT
BRANCH   1   4
ATOM      4  O   UNL     1      39.927 133.040  14.109  1.00  0.00    -0.312 OA
BRANCH   4   5
ATOM      5  C   UNL     1      39.126 134.199  14.115  1.00  0.00     0.255 C 
BRANCH   5   6
ATOM      6  C   UNL     1      38.442 134.296  15.404  1.00  0.00    -0.078 C 
ATOM      7  C   UNL     1      37.878 134.378  16.466  1.00  0.00     0.006 C 
ENDBRANCH   5   6
ENDBRANCH   4   5
ENDBRANCH   1   4
BRANCH   1   8
ATOM      8  O   UNL     1      41.779 134.466  13.569  1.00  0.00    -0.341 OA
ATOM      9  H   UNL     1      41.001 135.032  13.334  1.00  0.00     0.216 HD
ENDBRANCH   1   8
BRANCH   3  10
ATOM     10  C   UNL     1      43.263 133.641  15.972  1.00  0.00     0.058 C 
ATOM     11  C   UNL     1      44.119 132.679  16.784  1.00  0.00    -0.028 A 
ATOM     12  C   UNL     1      42.911 134.952  16.736  1.00  0.00     0.012 C 
ATOM     13  C   UNL     1      45.048 131.827  16.144  1.00  0.00     0.041 A 
ATOM     14  C   UNL     1      43.915 132.574  18.181  1.00  0.00    -0.019 A 
ATOM     15  C   UNL     1      43.062 134.892  18.269  1.00  0.00     0.019 C 
ATOM     16  C   UNL     1      45.779 130.904  16.909  1.00  0.00     0.011 A 
ATOM     17  C   UNL     1      44.663 131.646  18.933  1.00  0.00     0.047 A 
ATOM     18  C   UNL     1      42.869 133.471  18.818  1.00  0.00     0.112 C 
ATOM     19  C   UNL     1      45.590 130.816  18.286  1.00  0.00     0.015 A 
ATOM     20  C   UNL     1      44.495 131.571  20.396  1.00  0.00     0.284 C 
ATOM     21  C   UNL     1      42.895 133.475  20.331  1.00  0.00     0.261 C 
ATOM     22  N   UNL     1      43.657 132.513  21.068  1.00  0.00    -0.151 N 
ATOM     23  O   UNL     1      45.100 130.689  21.064  1.00  0.00    -0.266 OA
ATOM     24  O   UNL     1      42.172 134.297  20.958  1.00  0.00    -0.271 OA
BRANCH  13  25
ATOM     25  N   UNL     1      45.226 131.906  14.720  1.00  0.00    -0.060 NA
BRANCH  25  26
ATOM     26  N   UNL     1      45.686 130.974  14.056  1.00  0.00     0.005 N 
ATOM     27  N   UNL     1      46.143 130.044  13.395  1.00  0.00    -0.003 NA
ENDBRANCH  25  26
ENDBRANCH  13  25
BRANCH  22  28
ATOM     28  O   UNL     1      43.563 132.478  22.421  1.00  0.00    -0.278 OA
ATOM     29  H   UNL     1      42.970 131.708  22.617  1.00  0.00     0.247 HD
ENDBRANCH  22  28
ENDBRANCH   3  10
TORSDOF 8
ENDMDL
MODEL 5
REMARK VINA RESULT:      -7.0      3.163      5.365
REMARK SMILES C#CCO[C@]1(O)O[C@H]1[C@H]1CC[C@@H]2C(=O)N(O)C(=O)c3ccc(N=[N+]=[N-])c1c32
REMARK SMILES IDX 5 1 7 2 8 3 4 4 3 5 2 6 1 7 6 8 9 10 26 11 10 12 22 13 27 14
REMARK SMILES IDX 11 15 21 16 19 17 12 18 20 19 17 20 13 21 15 22 18 23 14 24
REMARK SMILES IDX 23 25 24 26 25 27 16 28
REMARK H PARENT 6 9 16 29
ROOT
ATOM      1  C   UNL     1      45.563 131.760  14.949  1.00  0.00     0.310 C 
ATOM      2  O   UNL     1      45.128 133.009  15.437  1.00  0.00    -0.313 OA
ATOM      3  C   UNL     1      45.583 132.087  16.400  1.00  0.00     0.222 C 
ENDROOT
BRANCH   1   4
ATOM      4  O   UNL     1      46.730 131.913  14.180  1.00  0.00    -0.312 OA
BRANCH   4   5
ATOM      5  C   UNL     1      46.669 131.017  13.095  1.00  0.00     0.255 C 
BRANCH   5   6
ATOM      6  C   UNL     1      47.693 129.988  13.272  1.00  0.00    -0.078 C 
ATOM      7  C   UNL     1      48.536 129.139  13.417  1.00  0.00     0.006 C 
ENDBRANCH   5   6
ENDBRANCH   4   5
ENDBRANCH   1   4
BRANCH   1   8
ATOM      8  O   UNL     1      44.493 131.066  14.370  1.00  0.00    -0.341 OA
ATOM      9  H   UNL     1      44.459 131.371  13.428  1.00  0.00     0.216 HD
ENDBRANCH   1   8
BRANCH   3  10
ATOM     10  C   UNL     1      44.438 131.542  17.274  1.00  0.00     0.058 C 
ATOM     11  C   UNL     1      43.560 132.708  17.705  1.00  0.00    -0.028 A 
ATOM     12  C   UNL     1      45.009 130.721  18.468  1.00  0.00     0.012 C 
ATOM     13  C   UNL     1      42.482 133.135  16.896  1.00  0.00     0.041 A 
ATOM     14  C   UNL     1      43.885 133.426  18.881  1.00  0.00    -0.019 A 
ATOM     15  C   UNL     1      45.001 131.437  19.833  1.00  0.00     0.019 C 
ATOM     16  C   UNL     1      41.728 134.254  17.285  1.00  0.00     0.011 A 
ATOM     17  C   UNL     1      43.112 134.542  19.259  1.00  0.00     0.047 A 
ATOM     18  C   UNL     1      45.083 132.964  19.690  1.00  0.00     0.112 C 
ATOM     19  C   UNL     1      42.038 134.947  18.453  1.00  0.00     0.015 A 
ATOM     20  C   UNL     1      43.411 135.260  20.512  1.00  0.00     0.284 C 
ATOM     21  C   UNL     1      45.204 133.621  21.048  1.00  0.00     0.261 C 
ATOM     22  N   UNL     1      44.412 134.761  21.400  1.00  0.00    -0.151 N 
ATOM     23  O   UNL     1      42.777 136.307  20.815  1.00  0.00    -0.266 OA
ATOM     24  O   UNL     1      46.073 133.202  21.861  1.00  0.00    -0.271 OA
BRANCH  13  25
ATOM     25  N   UNL     1      42.178 132.430  15.681  1.00  0.00    -0.060 NA
BRANCH  25  26
ATOM     26  N   UNL     1      41.508 132.929  14.775  1.00  0.00     0.005 N 
ATOM     27  N   UNL     1      40.838 133.427  13.872  1.00  0.00    -0.003 NA
ENDBRANCH  25  26
ENDBRANCH  13  25
BRANCH  22  28
ATOM     28  O   UNL     1      44.632 135.390  22.582  1.00  0.00    -0.278 OA
ATOM     29  H   UNL     1      43.737 135.466  23.002  1.00  0.00     0.247 HD
ENDBRANCH  22  28
ENDBRANCH   3  10
TORSDOF 8
ENDMDL
MODEL 6
REMARK VINA RESULT:      -6.9      3.411      6.648
REMARK SMILES C#CCO[C@]1(O)O[C@H]1[C@H]1CC[C@@H]2C(=O)N(O)C(=O)c3ccc(N=[N+]=[N-])c1c32
REMARK SMILES IDX 5 1 7 2 8 3 4 4 3 5 2 6 1 7 6 8 9 10 26 11 10 12 22 13 27 14
REMARK SMILES IDX 11 15 21 16 19 17 12 18 20 19 17 20 13 21 15 22 18 23 14 24
REMARK SMILES IDX 23 25 24 26 25 27 16 28
REMARK H PARENT 6 9 16 29
ROOT
ATOM      1  C   UNL     1      44.424 131.730  15.041  1.00  0.00     0.310 C 
ATOM      2  O   UNL     1      43.834 131.477  16.296  1.00  0.00    -0.313 OA
ATOM      3  C   UNL     1      43.062 132.221  15.381  1.00  0.00     0.222 C 
ENDROOT
BRANCH   1   4
ATOM      4  O   UNL     1      44.577 130.531  14.321  1.00  0.00    -0.312 OA
BRANCH   4   5
ATOM      5  C   UNL     1      45.918 130.115  14.428  1.00  0.00     0.255 C 
BRANCH   5   6
ATOM      6  C   UNL     1      46.590 130.349  13.150  1.00  0.00    -0.078 C 
ATOM      7  C   UNL     1      47.145 130.540  12.098  1.00  0.00     0.006 C 
ENDBRANCH   5   6
ENDBRANCH   4   5
ENDBRANCH   1   4
BRANCH   1   8
ATOM      8  O   UNL     1      45.555 132.542  15.191  1.00  0.00    -0.341 OA
ATOM      9  H   UNL     1      46.243 132.150  14.596  1.00  0.00     0.216 HD
ENDBRANCH   1   8
BRANCH   3  10
ATOM     10  C   UNL     1      42.917 133.696  15.803  1.00  0.00     0.058 C 
ATOM     11  C   UNL     1      41.761 133.808  16.785  1.00  0.00    -0.028 A 
ATOM     12  C   UNL     1      42.755 134.605  14.548  1.00  0.00     0.012 C 
ATOM     13  C   UNL     1      41.975 133.632  18.172  1.00  0.00     0.041 A 
ATOM     14  C   UNL     1      40.446 133.998  16.295  1.00  0.00    -0.019 A 
ATOM     15  C   UNL     1      41.322 135.097  14.263  1.00  0.00     0.019 C 
ATOM     16  C   UNL     1      40.881 133.676  19.050  1.00  0.00     0.011 A 
ATOM     17  C   UNL     1      39.361 134.046  17.194  1.00  0.00     0.047 A 
ATOM     18  C   UNL     1      40.257 134.127  14.795  1.00  0.00     0.112 C 
ATOM     19  C   UNL     1      39.591 133.883  18.568  1.00  0.00     0.015 A 
ATOM     20  C   UNL     1      37.997 134.299  16.694  1.00  0.00     0.284 C 
ATOM     21  C   UNL     1      38.873 134.578  14.382  1.00  0.00     0.261 C 
ATOM     22  N   UNL     1      37.787 134.607  15.315  1.00  0.00    -0.151 N 
ATOM     23  O   UNL     1      37.012 134.263  17.481  1.00  0.00    -0.266 OA
ATOM     24  O   UNL     1      38.651 134.863  13.173  1.00  0.00    -0.271 OA
BRANCH  13  25
ATOM     25  N   UNL     1      43.304 133.399  18.665  1.00  0.00    -0.060 NA
BRANCH  25  26
ATOM     26  N   UNL     1      43.569 132.492  19.456  1.00  0.00     0.005 N 
ATOM     27  N   UNL     1      43.832 131.585  20.245  1.00  0.00    -0.003 NA
ENDBRANCH  25  26
ENDBRANCH  13  25
BRANCH  22  28
ATOM     28  O   UNL     1      36.537 134.905  14.879  1.00  0.00    -0.278 OA
ATOM     29  H   UNL     1      36.570 135.869  14.647  1.00  0.00     0.247 HD
ENDBRANCH  22  28
ENDBRANCH   3  10
TORSDOF 8
ENDMDL
MODEL 7
REMARK VINA RESULT:      -6.9      3.287      6.220
REMARK SMILES C#CCO[C@]1(O)O[C@H]1[C@H]1CC[C@@H]2C(=O)N(O)C(=O)c3ccc(N=[N+]=[N-])c1c32
REMARK SMILES IDX 5 1 7 2 8 3 4 4 3 5 2 6 1 7 6 8 9 10 26 11 10 12 22 13 27 14
REMARK SMILES IDX 11 15 21 16 19 17 12 18 20 19 17 20 13 21 15 22 18 23 14 24
REMARK SMILES IDX 23 25 24 26 25 27 16 28
REMARK H PARENT 6 9 16 29
ROOT
ATOM      1  C   UNL     1      44.772 131.700  14.869  1.00  0.00     0.310 C 
ATOM      2  O   UNL     1      43.859 131.327  15.877  1.00  0.00    -0.313 OA
ATOM      3  C   UNL     1      43.431 132.332  14.985  1.00  0.00     0.222 C 
ENDROOT
BRANCH   1   4
ATOM      4  O   UNL     1      44.970 130.637  13.969  1.00  0.00    -0.312 OA
BRANCH   4   5
ATOM      5  C   UNL     1      45.804 129.683  14.584  1.00  0.00     0.255 C 
BRANCH   5   6
ATOM      6  C   UNL     1      47.050 129.582  13.823  1.00  0.00    -0.078 C 
ATOM      7  C   UNL     1      48.075 129.497  13.196  1.00  0.00     0.006 C 
ENDBRANCH   5   6
ENDBRANCH   4   5
ENDBRANCH   1   4
BRANCH   1   8
ATOM      8  O   UNL     1      45.909 132.285  15.438  1.00  0.00    -0.341 OA
ATOM      9  H   UNL     1      45.765 133.263  15.371  1.00  0.00     0.216 HD
ENDBRANCH   1   8
BRANCH   3  10
ATOM     10  C   UNL     1      43.346 133.713  15.661  1.00  0.00     0.058 C 
ATOM     11  C   UNL     1      42.429 133.606  16.871  1.00  0.00    -0.028 A 
ATOM     12  C   UNL     1      42.892 134.793  14.634  1.00  0.00     0.012 C 
ATOM     13  C   UNL     1      42.944 133.233  18.134  1.00  0.00     0.041 A 
ATOM     14  C   UNL     1      41.035 133.791  16.707  1.00  0.00    -0.019 A 
ATOM     15  C   UNL     1      41.420 135.237  14.741  1.00  0.00     0.019 C 
ATOM     16  C   UNL     1      42.067 133.078  19.219  1.00  0.00     0.011 A 
ATOM     17  C   UNL     1      40.171 133.638  17.810  1.00  0.00     0.047 A 
ATOM     18  C   UNL     1      40.520 134.137  15.322  1.00  0.00     0.112 C 
ATOM     19  C   UNL     1      40.698 133.280  19.060  1.00  0.00     0.015 A 
ATOM     20  C   UNL     1      38.725 133.884  17.658  1.00  0.00     0.284 C 
ATOM     21  C   UNL     1      39.068 134.563  15.290  1.00  0.00     0.261 C 
ATOM     22  N   UNL     1      38.211 134.385  16.423  1.00  0.00    -0.151 N 
ATOM     23  O   UNL     1      37.936 133.670  18.619  1.00  0.00    -0.266 OA
ATOM     24  O   UNL     1      38.582 135.016  14.217  1.00  0.00    -0.271 OA
BRANCH  13  25
ATOM     25  N   UNL     1      44.354 133.006  18.290  1.00  0.00    -0.060 NA
BRANCH  25  26
ATOM     26  N   UNL     1      44.807 131.996  18.832  1.00  0.00     0.005 N 
ATOM     27  N   UNL     1      45.261 130.989  19.374  1.00  0.00    -0.003 NA
ENDBRANCH  25  26
ENDBRANCH  13  25
BRANCH  22  28
ATOM     28  O   UNL     1      36.890 134.673  16.315  1.00  0.00    -0.278 OA
ATOM     29  H   UNL     1      36.681 134.564  15.352  1.00  0.00     0.247 HD
ENDBRANCH  22  28
ENDBRANCH   3  10
TORSDOF 8
ENDMDL
MODEL 8
REMARK VINA RESULT:      -6.9      3.365      6.162
REMARK SMILES C#CCO[C@]1(O)O[C@H]1[C@H]1CC[C@@H]2C(=O)N(O)C(=O)c3ccc(N=[N+]=[N-])c1c32
REMARK SMILES IDX 5 1 7 2 8 3 4 4 3 5 2 6 1 7 6 8 9 10 26 11 10 12 22 13 27 14
REMARK SMILES IDX 11 15 21 16 19 17 12 18 20 19 17 20 13 21 15 22 18 23 14 24
REMARK SMILES IDX 23 25 24 26 25 27 16 28
REMARK H PARENT 6 9 16 29
ROOT
ATOM      1  C   UNL     1      45.293 131.782  15.901  1.00  0.00     0.310 C 
ATOM      2  O   UNL     1      44.721 132.619  14.921  1.00  0.00    -0.313 OA
ATOM      3  C   UNL     1      44.947 133.201  16.185  1.00  0.00     0.222 C 
ENDROOT
BRANCH   1   4
ATOM      4  O   UNL     1      46.610 131.440  15.547  1.00  0.00    -0.312 OA
BRANCH   4   5
ATOM      5  C   UNL     1      46.684 130.040  15.407  1.00  0.00     0.255 C 
BRANCH   5   6
ATOM      6  C   UNL     1      47.453 129.724  14.204  1.00  0.00    -0.078 C 
ATOM      7  C   UNL     1      48.086 129.462  13.212  1.00  0.00     0.006 C 
ENDBRANCH   5   6
ENDBRANCH   4   5
ENDBRANCH   1   4
BRANCH   1   8
ATOM      8  O   UNL     1      44.417 130.737  16.219  1.00  0.00    -0.341 OA
ATOM      9  H   UNL     1      44.116 130.371  15.349  1.00  0.00     0.216 HD
ENDBRANCH   1   8
BRANCH   3  10
ATOM     10  C   UNL     1      43.634 133.480  16.941  1.00  0.00     0.058 C 
ATOM     11  C   UNL     1      43.091 134.828  16.488  1.00  0.00    -0.028 A 
ATOM     12  C   UNL     1      43.865 133.391  18.479  1.00  0.00     0.012 C 
ATOM     13  C   UNL     1      42.238 134.919  15.364  1.00  0.00     0.041 A 
ATOM     14  C   UNL     1      43.519 136.008  17.143  1.00  0.00    -0.019 A 
ATOM     15  C   UNL     1      43.960 134.740  19.218  1.00  0.00     0.019 C 
ATOM     16  C   UNL     1      41.803 136.180  14.928  1.00  0.00     0.011 A 
ATOM     17  C   UNL     1      43.066 137.264  16.695  1.00  0.00     0.047 A 
ATOM     18  C   UNL     1      44.478 135.866  18.311  1.00  0.00     0.112 C 
ATOM     19  C   UNL     1      42.210 137.338  15.586  1.00  0.00     0.015 A 
ATOM     20  C   UNL     1      43.464 138.492  17.407  1.00  0.00     0.284 C 
ATOM     21  C   UNL     1      44.680 137.139  19.104  1.00  0.00     0.261 C 
ATOM     22  N   UNL     1      44.218 138.404  18.618  1.00  0.00    -0.151 N 
ATOM     23  O   UNL     1      43.129 139.625  16.964  1.00  0.00    -0.266 OA
ATOM     24  O   UNL     1      45.336 137.098  20.181  1.00  0.00    -0.271 OA
BRANCH  13  25
ATOM     25  N   UNL     1      41.836 133.724  14.674  1.00  0.00    -0.060 NA
BRANCH  25  26
ATOM     26  N   UNL     1      40.673 133.521  14.320  1.00  0.00     0.005 N 
ATOM     27  N   UNL     1      39.513 133.317  13.966  1.00  0.00    -0.003 NA
ENDBRANCH  25  26
ENDBRANCH  13  25
BRANCH  22  28
ATOM     28  O   UNL     1      44.520 139.536  19.302  1.00  0.00    -0.278 OA
ATOM     29  H   UNL     1      44.539 140.252  18.616  1.00  0.00     0.247 HD
ENDBRANCH  22  28
ENDBRANCH   3  10
TORSDOF 8
ENDMDL
MODEL 9
REMARK VINA RESULT:      -6.9      3.650      6.546
REMARK SMILES C#CCO[C@]1(O)O[C@H]1[C@H]1CC[C@@H]2C(=O)N(O)C(=O)c3ccc(N=[N+]=[N-])c1c32
REMARK SMILES IDX 5 1 7 2 8 3 4 4 3 5 2 6 1 7 6 8 9 10 26 11 10 12 22 13 27 14
REMARK SMILES IDX 11 15 21 16 19 17 12 18 20 19 17 20 13 21 15 22 18 23 14 24
REMARK SMILES IDX 23 25 24 26 25 27 16 28
REMARK H PARENT 6 9 16 29
ROOT
ATOM      1  C   UNL     1      43.743 131.715  14.998  1.00  0.00     0.310 C 
ATOM      2  O   UNL     1      42.377 132.048  14.908  1.00  0.00    -0.313 OA
ATOM      3  C   UNL     1      43.281 133.128  14.972  1.00  0.00     0.222 C 
ENDROOT
BRANCH   1   4
ATOM      4  O   UNL     1      44.177 131.098  13.811  1.00  0.00    -0.312 OA
BRANCH   4   5
ATOM      5  C   UNL     1      45.250 130.240  14.121  1.00  0.00     0.255 C 
BRANCH   5   6
ATOM      6  C   UNL     1      46.314 130.436  13.137  1.00  0.00    -0.078 C 
ATOM      7  C   UNL     1      47.190 130.597  12.325  1.00  0.00     0.006 C 
ENDBRANCH   5   6
ENDBRANCH   4   5
ENDBRANCH   1   4
BRANCH   1   8
ATOM      8  O   UNL     1      44.003 131.051  16.203  1.00  0.00    -0.341 OA
ATOM      9  H   UNL     1      44.330 131.749  16.825  1.00  0.00     0.216 HD
ENDBRANCH   1   8
BRANCH   3  10
ATOM     10  C   UNL     1      43.198 133.879  16.314  1.00  0.00     0.058 C 
ATOM     11  C   UNL     1      41.737 134.193  16.605  1.00  0.00    -0.028 A 
ATOM     12  C   UNL     1      44.109 135.142  16.286  1.00  0.00     0.012 C 
ATOM     13  C   UNL     1      40.925 133.264  17.295  1.00  0.00     0.041 A 
ATOM     14  C   UNL     1      41.167 135.386  16.099  1.00  0.00    -0.019 A 
ATOM     15  C   UNL     1      43.380 136.486  16.093  1.00  0.00     0.019 C 
ATOM     16  C   UNL     1      39.565 133.550  17.493  1.00  0.00     0.011 A 
ATOM     17  C   UNL     1      39.801 135.658  16.314  1.00  0.00     0.047 A 
ATOM     18  C   UNL     1      42.063 136.329  15.317  1.00  0.00     0.112 C 
ATOM     19  C   UNL     1      39.011 134.733  17.011  1.00  0.00     0.015 A 
ATOM     20  C   UNL     1      39.215 136.924  15.837  1.00  0.00     0.284 C 
ATOM     21  C   UNL     1      41.445 137.681  15.037  1.00  0.00     0.261 C 
ATOM     22  N   UNL     1      40.051 137.925  15.256  1.00  0.00    -0.151 N 
ATOM     23  O   UNL     1      37.977 137.139  15.955  1.00  0.00    -0.266 OA
ATOM     24  O   UNL     1      42.156 138.591  14.528  1.00  0.00    -0.271 OA
BRANCH  13  25
ATOM     25  N   UNL     1      41.495 132.034  17.774  1.00  0.00    -0.060 NA
BRANCH  25  26
ATOM     26  N   UNL     1      41.998 131.928  18.893  1.00  0.00     0.005 N 
ATOM     27  N   UNL     1      42.499 131.823  20.012  1.00  0.00    -0.003 NA
ENDBRANCH  25  26
ENDBRANCH  13  25
BRANCH  22  28
ATOM     28  O   UNL     1      39.513 139.114  14.883  1.00  0.00    -0.278 OA
ATOM     29  H   UNL     1      40.273 139.636  14.518  1.00  0.00     0.247 HD
ENDBRANCH  22  28
ENDBRANCH   3  10
TORSDOF 8
ENDMDL


