REMARK SMILES C[N+]1(C)Cc2cc3ccc(-n4cc(CCN5C[C@H](CN=[N+]=[N-])CN5C(=O)c5ccc(N)cc5)n[nH+]4)cc3cc2C1
REMARK SMILES IDX 24 1 16 2 17 3 18 4 23 5 25 6 26 7 27 8 28 9 29 10 30 11
REMARK SMILES IDX 33 12 32 13 31 14 15 17 14 18 13 19 34 20 12 21 35 22 11 23
REMARK SMILES IDX 10 25 9 26 36 27 8 28 37 29 7 30 38 31 6 32 39 33 5 34 40 35
REMARK SMILES IDX 4 36 2 37 1 38 3 39 19 40 20 41 21 42 22 43
REMARK H PARENT 31 15 31 16 35 24
ROOT
ATOM      1  N   UNL     1       3.035   2.902  -2.226  1.00  0.00    -0.271 N 
ATOM      2  N   UNL     1       1.682   2.951  -2.615  1.00  0.00    -0.218 NA
ATOM      3  C   UNL     1       1.625   2.168  -3.864  1.00  0.00     0.114 C 
ATOM      4  C   UNL     1       3.058   2.030  -4.401  1.00  0.00     0.032 C 
ATOM      5  C   UNL     1       3.949   2.371  -3.216  1.00  0.00     0.145 C 
ENDROOT
BRANCH   1   6
ATOM      6  C   UNL     1       3.450   3.096  -0.868  1.00  0.00     0.268 C 
ATOM      7  O   UNL     1       4.486   3.779  -0.635  1.00  0.00    -0.268 OA
BRANCH   6   8
ATOM      8  C   UNL     1       2.731   2.451   0.255  1.00  0.00     0.041 A 
ATOM      9  C   UNL     1       2.821   2.984   1.552  1.00  0.00     0.016 A 
ATOM     10  C   UNL     1       2.196   2.346   2.628  1.00  0.00     0.026 A 
ATOM     11  C   UNL     1       1.497   1.149   2.429  1.00  0.00     0.031 A 
ATOM     12  C   UNL     1       2.010   1.257   0.057  1.00  0.00     0.016 A 
ATOM     13  C   UNL     1       1.403   0.609   1.138  1.00  0.00     0.026 A 
BRANCH  11  14
ATOM     14  N   UNL     1       0.890   0.480   3.536  1.00  0.00    -0.399 N 
ATOM     15  H   UNL     1       0.906   0.903   4.492  1.00  0.00     0.156 HD
ATOM     16  H   UNL     1       0.463  -0.468   3.416  1.00  0.00     0.156 HD
ENDBRANCH  11  14
ENDBRANCH   6   8
ENDBRANCH   1   6
BRANCH   2  17
ATOM     17  C   UNL     1       1.296   4.368  -2.826  1.00  0.00     0.115 C 
BRANCH  17  18
ATOM     18  C   UNL     1       0.612   4.935  -1.575  1.00  0.00     0.082 C 
BRANCH  18  19
ATOM     19  C   UNL     1      -0.545   4.072  -1.165  1.00  0.00     0.134 A 
ATOM     20  N   UNL     1      -1.488   3.614  -2.013  1.00  0.00     0.020 NA
ATOM     21  C   UNL     1      -0.679   3.408   0.039  1.00  0.00     0.190 A 
ATOM     22  N   UNL     1      -2.166   2.694  -1.348  1.00  0.00    -0.012 N 
ATOM     23  N   UNL     1      -1.695   2.542  -0.119  1.00  0.00    -0.104 N 
ATOM     24  H   UNL     1      -2.942   2.133  -1.763  1.00  0.00     0.527 HD
BRANCH  23  25
ATOM     25  C   UNL     1      -2.046   1.476   0.773  1.00  0.00     0.107 A 
ATOM     26  C   UNL     1      -2.065   1.687   2.161  1.00  0.00     0.033 A 
ATOM     27  C   UNL     1      -2.292   0.193   0.262  1.00  0.00     0.041 A 
ATOM     28  C   UNL     1      -2.327   0.629   3.036  1.00  0.00     0.011 A 
ATOM     29  C   UNL     1      -2.531  -0.881   1.127  1.00  0.00    -0.016 A 
ATOM     30  C   UNL     1      -2.549  -0.661   2.535  1.00  0.00    -0.018 A 
ATOM     31  C   UNL     1      -2.728  -2.177   0.615  1.00  0.00     0.019 A 
ATOM     32  C   UNL     1      -2.771  -1.744   3.408  1.00  0.00     0.018 A 
ATOM     33  C   UNL     1      -2.931  -3.225   1.512  1.00  0.00     0.016 A 
ATOM     34  C   UNL     1      -2.953  -3.015   2.860  1.00  0.00     0.016 A 
ATOM     35  C   UNL     1      -3.142  -4.655   1.205  1.00  0.00     0.301 C 
ATOM     36  C   UNL     1      -3.179  -4.292   3.572  1.00  0.00     0.301 C 
ATOM     37  N   UNL     1      -3.073  -5.357   2.525  1.00  0.00    -0.321 N 
ATOM     38  C   UNL     1      -1.778  -6.068   2.653  1.00  0.00     0.334 C 
ATOM     39  C   UNL     1      -4.176  -6.338   2.657  1.00  0.00     0.334 C 
ENDBRANCH  23  25
ENDBRANCH  18  19
ENDBRANCH  17  18
ENDBRANCH   2  17
BRANCH   4  40
ATOM     40  C   UNL     1       3.351   0.646  -5.016  1.00  0.00     0.097 C 
BRANCH  40  41
ATOM     41  N   UNL     1       3.150  -0.421  -4.043  1.00  0.00    -0.094 NA
BRANCH  41  42
ATOM     42  N   UNL     1       3.289  -1.602  -4.366  1.00  0.00     0.001 N 
ATOM     43  N   UNL     1       3.430  -2.781  -4.691  1.00  0.00    -0.003 NA
ENDBRANCH  41  42
ENDBRANCH  40  41
ENDBRANCH   4  40
TORSDOF 10


