MODEL 1
REMARK VINA RESULT:      -8.0      0.000      0.000
REMARK SMILES CC[C@H]1C[C@]1(NC(=O)c1noc(C)c1C)C(=O)Oc1c(Cl)c(Cl)c(N)c2ccccc12
REMARK SMILES IDX 16 1 17 2 5 3 3 4 4 5 2 6 1 7 6 8 7 9 8 11 9 12 10 13 14 14
REMARK SMILES IDX 11 15 12 16 15 17 13 18 18 19 19 20 20 21 31 22 22 23 30 24
REMARK SMILES IDX 26 25 24 26 29 27 27 28 28 29 21 30 23 31 25 32
REMARK H PARENT 6 10 25 33 25 34
ROOT
ATOM      1  C   UNL     1      41.889 133.507  14.824  1.00  0.00     0.337 C 
ATOM      2  O   UNL     1      41.609 132.494  14.127  1.00  0.00    -0.249 OA
ENDROOT
BRANCH   1   3
ATOM      3  C   UNL     1      40.822 134.492  15.174  1.00  0.00     0.142 C 
ATOM      4  C   UNL     1      39.580 134.498  14.283  1.00  0.00     0.029 C 
ATOM      5  C   UNL     1      40.573 135.661  14.229  1.00  0.00     0.047 C 
BRANCH   4   6
ATOM      6  C   UNL     1      38.221 134.874  14.895  1.00  0.00     0.003 C 
ATOM      7  C   UNL     1      37.108 134.681  13.872  1.00  0.00     0.004 C 
ENDBRANCH   4   6
BRANCH   3   8
ATOM      8  N   UNL     1      40.626 134.773  16.595  1.00  0.00    -0.334 N 
ATOM      9  C   UNL     1      40.237 133.740  17.512  1.00  0.00     0.274 C 
ATOM     10  H   UNL     1      40.530 135.771  16.889  1.00  0.00     0.165 HD
ATOM     11  O   UNL     1      40.290 132.532  17.155  1.00  0.00    -0.267 OA
BRANCH   9  12
ATOM     12  C   UNL     1      39.753 134.088  18.861  1.00  0.00     0.174 A 
ATOM     13  N   UNL     1      40.568 134.293  19.916  1.00  0.00    -0.074 NA
ATOM     14  C   UNL     1      38.441 134.285  19.260  1.00  0.00     0.025 A 
ATOM     15  O   UNL     1      39.815 134.602  20.932  1.00  0.00    -0.361 OA
ATOM     16  C   UNL     1      38.547 134.615  20.597  1.00  0.00     0.137 A 
ATOM     17  C   UNL     1      37.197 134.205  18.429  1.00  0.00     0.051 C 
ATOM     18  C   UNL     1      37.434 134.944  21.537  1.00  0.00     0.091 C 
ENDBRANCH   9  12
ENDBRANCH   3   8
ENDBRANCH   1   3
BRANCH   1  19
ATOM     19  O   UNL     1      43.206 133.764  15.214  1.00  0.00    -0.422 OA
BRANCH  19  20
ATOM     20  C   UNL     1      43.892 132.966  16.136  1.00  0.00     0.159 A 
ATOM     21  C   UNL     1      44.019 133.420  17.453  1.00  0.00     0.105 A 
ATOM     22  C   UNL     1      44.467 131.735  15.753  1.00  0.00     0.028 A 
ATOM     23  C   UNL     1      44.662 132.632  18.419  1.00  0.00     0.087 A 
ATOM     24  C   UNL     1      44.438 131.313  14.408  1.00  0.00     0.013 A 
ATOM     25  C   UNL     1      45.119 130.926  16.726  1.00  0.00     0.010 A 
ATOM     26  C   UNL     1      45.193 131.371  18.073  1.00  0.00     0.060 A 
ATOM     27  C   UNL     1      45.015 130.104  14.030  1.00  0.00     0.001 A 
ATOM     28  C   UNL     1      45.715 129.714  16.309  1.00  0.00     0.011 A 
ATOM     29  C   UNL     1      45.651 129.307  14.977  1.00  0.00     0.001 A 
ATOM     30  Cl  UNL     1      43.320 134.981  17.885  1.00  0.00    -0.078 Cl
ATOM     31  Cl  UNL     1      44.753 133.215  20.084  1.00  0.00    -0.080 Cl
BRANCH  26  32
ATOM     32  N   UNL     1      45.797 130.555  19.091  1.00  0.00    -0.397 N 
ATOM     33  H   UNL     1      46.116 129.581  18.899  1.00  0.00     0.156 HD
ATOM     34  H   UNL     1      45.839 130.868  20.086  1.00  0.00     0.156 HD
ENDBRANCH  26  32
ENDBRANCH  19  20
ENDBRANCH   1  19
TORSDOF 7
ENDMDL
MODEL 2
REMARK VINA RESULT:      -7.6      1.962      2.799
REMARK SMILES CC[C@H]1C[C@]1(NC(=O)c1noc(C)c1C)C(=O)Oc1c(Cl)c(Cl)c(N)c2ccccc12
REMARK SMILES IDX 16 1 17 2 5 3 3 4 4 5 2 6 1 7 6 8 7 9 8 11 9 12 10 13 14 14
REMARK SMILES IDX 11 15 12 16 15 17 13 18 18 19 19 20 20 21 31 22 22 23 30 24
REMARK SMILES IDX 26 25 24 26 29 27 27 28 28 29 21 30 23 31 25 32
REMARK H PARENT 6 10 25 33 25 34
ROOT
ATOM      1  C   UNL     1      42.248 133.986  15.411  1.00  0.00     0.337 C 
ATOM      2  O   UNL     1      43.250 134.446  14.800  1.00  0.00    -0.249 OA
ENDROOT
BRANCH   1   3
ATOM      3  C   UNL     1      41.124 134.892  15.795  1.00  0.00     0.142 C 
ATOM      4  C   UNL     1      39.970 135.007  14.800  1.00  0.00     0.029 C 
ATOM      5  C   UNL     1      40.929 136.181  15.006  1.00  0.00     0.047 C 
BRANCH   4   6
ATOM      6  C   UNL     1      38.550 135.269  15.328  1.00  0.00     0.003 C 
ATOM      7  C   UNL     1      37.547 134.364  14.623  1.00  0.00     0.004 C 
ENDBRANCH   4   6
BRANCH   3   8
ATOM      8  N   UNL     1      40.791 134.964  17.217  1.00  0.00    -0.334 N 
ATOM      9  C   UNL     1      39.987 133.955  17.844  1.00  0.00     0.274 C 
ATOM     10  H   UNL     1      40.934 135.874  17.709  1.00  0.00     0.165 HD
ATOM     11  O   UNL     1      39.756 132.872  17.241  1.00  0.00    -0.267 OA
BRANCH   9  12
ATOM     12  C   UNL     1      39.412 134.190  19.182  1.00  0.00     0.174 A 
ATOM     13  N   UNL     1      40.154 134.333  20.298  1.00  0.00    -0.074 NA
ATOM     14  C   UNL     1      38.073 134.326  19.510  1.00  0.00     0.025 A 
ATOM     15  O   UNL     1      39.332 134.548  21.285  1.00  0.00    -0.361 OA
ATOM     16  C   UNL     1      38.086 134.557  20.872  1.00  0.00     0.137 A 
ATOM     17  C   UNL     1      36.884 134.279  18.599  1.00  0.00     0.051 C 
ATOM     18  C   UNL     1      36.909 134.788  21.761  1.00  0.00     0.091 C 
ENDBRANCH   9  12
ENDBRANCH   3   8
ENDBRANCH   1   3
BRANCH   1  19
ATOM     19  O   UNL     1      42.204 132.645  15.804  1.00  0.00    -0.422 OA
BRANCH  19  20
ATOM     20  C   UNL     1      43.356 131.893  16.059  1.00  0.00     0.159 A 
ATOM     21  C   UNL     1      43.965 131.219  14.996  1.00  0.00     0.105 A 
ATOM     22  C   UNL     1      43.892 131.792  17.361  1.00  0.00     0.028 A 
ATOM     23  C   UNL     1      45.146 130.488  15.199  1.00  0.00     0.087 A 
ATOM     24  C   UNL     1      43.231 132.380  18.460  1.00  0.00     0.013 A 
ATOM     25  C   UNL     1      45.090 131.056  17.578  1.00  0.00     0.010 A 
ATOM     26  C   UNL     1      45.731 130.421  16.481  1.00  0.00     0.060 A 
ATOM     27  C   UNL     1      43.754 132.270  19.745  1.00  0.00     0.001 A 
ATOM     28  C   UNL     1      45.586 130.943  18.896  1.00  0.00     0.011 A 
ATOM     29  C   UNL     1      44.928 131.555  19.963  1.00  0.00     0.001 A 
ATOM     30  Cl  UNL     1      43.247 131.338  13.390  1.00  0.00    -0.078 Cl
ATOM     31  Cl  UNL     1      45.916 129.696  13.820  1.00  0.00    -0.080 Cl
BRANCH  26  32
ATOM     32  N   UNL     1      46.973 129.715  16.655  1.00  0.00    -0.397 N 
ATOM     33  H   UNL     1      47.413 129.176  15.878  1.00  0.00     0.156 HD
ATOM     34  H   UNL     1      47.423 129.628  17.592  1.00  0.00     0.156 HD
ENDBRANCH  26  32
ENDBRANCH  19  20
ENDBRANCH   1  19
TORSDOF 7
ENDMDL
MODEL 3
REMARK VINA RESULT:      -7.5      2.845      3.625
REMARK SMILES CC[C@H]1C[C@]1(NC(=O)c1noc(C)c1C)C(=O)Oc1c(Cl)c(Cl)c(N)c2ccccc12
REMARK SMILES IDX 16 1 17 2 5 3 3 4 4 5 2 6 1 7 6 8 7 9 8 11 9 12 10 13 14 14
REMARK SMILES IDX 11 15 12 16 15 17 13 18 18 19 19 20 20 21 31 22 22 23 30 24
REMARK SMILES IDX 26 25 24 26 29 27 27 28 28 29 21 30 23 31 25 32
REMARK H PARENT 6 10 25 33 25 34
ROOT
ATOM      1  C   UNL     1      41.851 133.675  15.216  1.00  0.00     0.337 C 
ATOM      2  O   UNL     1      42.539 133.945  14.194  1.00  0.00    -0.249 OA
ENDROOT
BRANCH   1   3
ATOM      3  C   UNL     1      41.023 134.736  15.862  1.00  0.00     0.142 C 
ATOM      4  C   UNL     1      39.544 134.413  16.075  1.00  0.00     0.029 C 
ATOM      5  C   UNL     1      39.964 135.443  15.024  1.00  0.00     0.047 C 
BRANCH   4   6
ATOM      6  C   UNL     1      38.810 135.024  17.280  1.00  0.00     0.003 C 
ATOM      7  C   UNL     1      37.475 134.322  17.498  1.00  0.00     0.004 C 
ENDBRANCH   4   6
BRANCH   3   8
ATOM      8  N   UNL     1      41.680 135.559  16.876  1.00  0.00    -0.334 N 
ATOM      9  C   UNL     1      42.637 136.565  16.513  1.00  0.00     0.274 C 
ATOM     10  H   UNL     1      41.633 135.243  17.871  1.00  0.00     0.165 HD
ATOM     11  O   UNL     1      42.749 136.918  15.308  1.00  0.00    -0.267 OA
BRANCH   9  12
ATOM     12  C   UNL     1      43.505 137.169  17.541  1.00  0.00     0.174 A 
ATOM     13  N   UNL     1      44.716 136.679  17.877  1.00  0.00    -0.074 NA
ATOM     14  C   UNL     1      43.257 138.308  18.290  1.00  0.00     0.025 A 
ATOM     15  O   UNL     1      45.211 137.463  18.791  1.00  0.00    -0.361 OA
ATOM     16  C   UNL     1      44.388 138.446  19.070  1.00  0.00     0.137 A 
ATOM     17  C   UNL     1      42.061 139.210  18.238  1.00  0.00     0.051 C 
ATOM     18  C   UNL     1      44.671 139.520  20.068  1.00  0.00     0.091 C 
ENDBRANCH   9  12
ENDBRANCH   3   8
ENDBRANCH   1   3
BRANCH   1  19
ATOM     19  O   UNL     1      41.909 132.407  15.802  1.00  0.00    -0.422 OA
BRANCH  19  20
ATOM     20  C   UNL     1      43.003 131.972  16.559  1.00  0.00     0.159 A 
ATOM     21  C   UNL     1      42.966 132.138  17.947  1.00  0.00     0.105 A 
ATOM     22  C   UNL     1      44.136 131.396  15.944  1.00  0.00     0.028 A 
ATOM     23  C   UNL     1      44.023 131.677  18.748  1.00  0.00     0.087 A 
ATOM     24  C   UNL     1      44.232 131.317  14.540  1.00  0.00     0.013 A 
ATOM     25  C   UNL     1      45.212 130.923  16.747  1.00  0.00     0.010 A 
ATOM     26  C   UNL     1      45.139 131.045  18.160  1.00  0.00     0.060 A 
ATOM     27  C   UNL     1      45.355 130.758  13.935  1.00  0.00     0.001 A 
ATOM     28  C   UNL     1      46.347 130.380  16.105  1.00  0.00     0.011 A 
ATOM     29  C   UNL     1      46.408 130.291  14.714  1.00  0.00     0.001 A 
ATOM     30  Cl  UNL     1      41.550 132.896  18.676  1.00  0.00    -0.078 Cl
ATOM     31  Cl  UNL     1      43.914 131.854  20.502  1.00  0.00    -0.080 Cl
BRANCH  26  32
ATOM     32  N   UNL     1      46.183 130.529  19.004  1.00  0.00    -0.397 N 
ATOM     33  H   UNL     1      47.083 130.175  18.613  1.00  0.00     0.156 HD
ATOM     34  H   UNL     1      46.038 130.390  20.028  1.00  0.00     0.156 HD
ENDBRANCH  26  32
ENDBRANCH  19  20
ENDBRANCH   1  19
TORSDOF 7
ENDMDL
MODEL 4
REMARK VINA RESULT:      -7.4      2.741      7.074
REMARK SMILES CC[C@H]1C[C@]1(NC(=O)c1noc(C)c1C)C(=O)Oc1c(Cl)c(Cl)c(N)c2ccccc12
REMARK SMILES IDX 16 1 17 2 5 3 3 4 4 5 2 6 1 7 6 8 7 9 8 11 9 12 10 13 14 14
REMARK SMILES IDX 11 15 12 16 15 17 13 18 18 19 19 20 20 21 31 22 22 23 30 24
REMARK SMILES IDX 26 25 24 26 29 27 27 28 28 29 21 30 23 31 25 32
REMARK H PARENT 6 10 25 33 25 34
ROOT
ATOM      1  C   UNL     1      42.054 132.745  17.341  1.00  0.00     0.337 C 
ATOM      2  O   UNL     1      40.937 132.463  16.829  1.00  0.00    -0.249 OA
ENDROOT
BRANCH   1   3
ATOM      3  C   UNL     1      43.023 133.602  16.595  1.00  0.00     0.142 C 
ATOM      4  C   UNL     1      43.007 135.095  16.923  1.00  0.00     0.029 C 
ATOM      5  C   UNL     1      42.480 134.597  15.576  1.00  0.00     0.047 C 
BRANCH   4   6
ATOM      6  C   UNL     1      44.313 135.899  16.816  1.00  0.00     0.003 C 
ATOM      7  C   UNL     1      44.665 136.519  18.163  1.00  0.00     0.004 C 
ENDBRANCH   4   6
BRANCH   3   8
ATOM      8  N   UNL     1      44.316 133.004  16.267  1.00  0.00    -0.334 N 
ATOM      9  C   UNL     1      44.417 131.909  15.345  1.00  0.00     0.274 C 
ATOM     10  H   UNL     1      45.127 133.214  16.892  1.00  0.00     0.165 HD
ATOM     11  O   UNL     1      43.429 131.604  14.624  1.00  0.00    -0.267 OA
BRANCH   9  12
ATOM     12  C   UNL     1      45.664 131.127  15.255  1.00  0.00     0.174 A 
ATOM     13  N   UNL     1      46.400 130.771  16.328  1.00  0.00    -0.074 NA
ATOM     14  C   UNL     1      46.259 130.619  14.112  1.00  0.00     0.025 A 
ATOM     15  O   UNL     1      47.410 130.075  15.891  1.00  0.00    -0.361 OA
ATOM     16  C   UNL     1      47.373 129.952  14.585  1.00  0.00     0.137 A 
ATOM     17  C   UNL     1      45.786 130.726  12.694  1.00  0.00     0.051 C 
ATOM     18  C   UNL     1      48.384 129.201  13.783  1.00  0.00     0.091 C 
ENDBRANCH   9  12
ENDBRANCH   3   8
ENDBRANCH   1   3
BRANCH   1  19
ATOM     19  O   UNL     1      42.434 132.203  18.572  1.00  0.00    -0.422 OA
BRANCH  19  20
ATOM     20  C   UNL     1      42.959 132.981  19.611  1.00  0.00     0.159 A 
ATOM     21  C   UNL     1      44.268 132.735  20.037  1.00  0.00     0.105 A 
ATOM     22  C   UNL     1      42.186 133.982  20.239  1.00  0.00     0.028 A 
ATOM     23  C   UNL     1      44.848 133.518  21.046  1.00  0.00     0.087 A 
ATOM     24  C   UNL     1      40.833 134.172  19.892  1.00  0.00     0.013 A 
ATOM     25  C   UNL     1      42.765 134.784  21.262  1.00  0.00     0.010 A 
ATOM     26  C   UNL     1      44.114 134.563  21.648  1.00  0.00     0.060 A 
ATOM     27  C   UNL     1      40.069 135.151  20.520  1.00  0.00     0.001 A 
ATOM     28  C   UNL     1      41.960 135.757  21.896  1.00  0.00     0.011 A 
ATOM     29  C   UNL     1      40.631 135.942  21.518  1.00  0.00     0.001 A 
ATOM     30  Cl  UNL     1      45.190 131.451  19.254  1.00  0.00    -0.078 Cl
ATOM     31  Cl  UNL     1      46.523 133.213  21.518  1.00  0.00    -0.080 Cl
BRANCH  26  32
ATOM     32  N   UNL     1      44.747 135.391  22.639  1.00  0.00    -0.397 N 
ATOM     33  H   UNL     1      45.279 134.984  23.439  1.00  0.00     0.156 HD
ATOM     34  H   UNL     1      44.608 136.425  22.654  1.00  0.00     0.156 HD
ENDBRANCH  26  32
ENDBRANCH  19  20
ENDBRANCH   1  19
TORSDOF 7
ENDMDL
MODEL 5
REMARK VINA RESULT:      -7.4      3.098      6.570
REMARK SMILES CC[C@H]1C[C@]1(NC(=O)c1noc(C)c1C)C(=O)Oc1c(Cl)c(Cl)c(N)c2ccccc12
REMARK SMILES IDX 16 1 17 2 5 3 3 4 4 5 2 6 1 7 6 8 7 9 8 11 9 12 10 13 14 14
REMARK SMILES IDX 11 15 12 16 15 17 13 18 18 19 19 20 20 21 31 22 22 23 30 24
REMARK SMILES IDX 26 25 24 26 29 27 27 28 28 29 21 30 23 31 25 32
REMARK H PARENT 6 10 25 33 25 34
ROOT
ATOM      1  C   UNL     1      41.713 132.617  17.735  1.00  0.00     0.337 C 
ATOM      2  O   UNL     1      41.441 131.402  17.931  1.00  0.00    -0.249 OA
ENDROOT
BRANCH   1   3
ATOM      3  C   UNL     1      42.097 133.087  16.370  1.00  0.00     0.142 C 
ATOM      4  C   UNL     1      42.094 134.598  16.142  1.00  0.00     0.029 C 
ATOM      5  C   UNL     1      41.026 133.718  15.490  1.00  0.00     0.047 C 
BRANCH   4   6
ATOM      6  C   UNL     1      43.089 135.206  15.140  1.00  0.00     0.003 C 
ATOM      7  C   UNL     1      42.978 136.726  15.140  1.00  0.00     0.004 C 
ENDBRANCH   4   6
BRANCH   3   8
ATOM      8  N   UNL     1      43.115 132.307  15.667  1.00  0.00    -0.334 N 
ATOM      9  C   UNL     1      44.435 132.149  16.206  1.00  0.00     0.274 C 
ATOM     10  H   UNL     1      42.949 132.076  14.662  1.00  0.00     0.165 HD
ATOM     11  O   UNL     1      44.668 132.478  17.400  1.00  0.00    -0.267 OA
BRANCH   9  12
ATOM     12  C   UNL     1      45.525 131.628  15.360  1.00  0.00     0.174 A 
ATOM     13  N   UNL     1      46.436 132.412  14.749  1.00  0.00    -0.074 NA
ATOM     14  C   UNL     1      45.810 130.302  15.077  1.00  0.00     0.025 A 
ATOM     15  O   UNL     1      47.257 131.628  14.111  1.00  0.00    -0.361 OA
ATOM     16  C   UNL     1      46.933 130.367  14.274  1.00  0.00     0.137 A 
ATOM     17  C   UNL     1      45.098 129.076  15.561  1.00  0.00     0.051 C 
ATOM     18  C   UNL     1      47.685 129.224  13.678  1.00  0.00     0.091 C 
ENDBRANCH   9  12
ENDBRANCH   3   8
ENDBRANCH   1   3
BRANCH   1  19
ATOM     19  O   UNL     1      41.732 133.526  18.796  1.00  0.00    -0.422 OA
BRANCH  19  20
ATOM     20  C   UNL     1      42.875 133.762  19.570  1.00  0.00     0.159 A 
ATOM     21  C   UNL     1      43.318 132.756  20.435  1.00  0.00     0.105 A 
ATOM     22  C   UNL     1      43.562 134.994  19.504  1.00  0.00     0.028 A 
ATOM     23  C   UNL     1      44.483 132.935  21.197  1.00  0.00     0.087 A 
ATOM     24  C   UNL     1      43.068 136.053  18.715  1.00  0.00     0.013 A 
ATOM     25  C   UNL     1      44.746 135.184  20.270  1.00  0.00     0.010 A 
ATOM     26  C   UNL     1      45.219 134.136  21.103  1.00  0.00     0.060 A 
ATOM     27  C   UNL     1      43.741 137.271  18.660  1.00  0.00     0.001 A 
ATOM     28  C   UNL     1      45.396 136.437  20.210  1.00  0.00     0.011 A 
ATOM     29  C   UNL     1      44.901 137.462  19.404  1.00  0.00     0.001 A 
ATOM     30  Cl  UNL     1      42.412 131.246  20.518  1.00  0.00    -0.078 Cl
ATOM     31  Cl  UNL     1      45.043 131.621  22.236  1.00  0.00    -0.080 Cl
BRANCH  26  32
ATOM     32  N   UNL     1      46.442 134.275  21.848  1.00  0.00    -0.397 N 
ATOM     33  H   UNL     1      47.091 133.472  21.995  1.00  0.00     0.156 HD
ATOM     34  H   UNL     1      46.670 135.155  22.360  1.00  0.00     0.156 HD
ENDBRANCH  26  32
ENDBRANCH  19  20
ENDBRANCH   1  19
TORSDOF 7
ENDMDL
MODEL 6
REMARK VINA RESULT:      -7.4      3.358      6.414
REMARK SMILES CC[C@H]1C[C@]1(NC(=O)c1noc(C)c1C)C(=O)Oc1c(Cl)c(Cl)c(N)c2ccccc12
REMARK SMILES IDX 16 1 17 2 5 3 3 4 4 5 2 6 1 7 6 8 7 9 8 11 9 12 10 13 14 14
REMARK SMILES IDX 11 15 12 16 15 17 13 18 18 19 19 20 20 21 31 22 22 23 30 24
REMARK SMILES IDX 26 25 24 26 29 27 27 28 28 29 21 30 23 31 25 32
REMARK H PARENT 6 10 25 33 25 34
ROOT
ATOM      1  C   UNL     1      43.025 132.940  15.412  1.00  0.00     0.337 C 
ATOM      2  O   UNL     1      41.845 132.533  15.596  1.00  0.00    -0.249 OA
ENDROOT
BRANCH   1   3
ATOM      3  C   UNL     1      44.182 132.078  15.800  1.00  0.00     0.142 C 
ATOM      4  C   UNL     1      45.125 131.656  14.673  1.00  0.00     0.029 C 
ATOM      5  C   UNL     1      44.199 130.629  15.328  1.00  0.00     0.047 C 
BRANCH   4   6
ATOM      6  C   UNL     1      46.613 131.434  14.987  1.00  0.00     0.003 C 
ATOM      7  C   UNL     1      47.407 131.267  13.697  1.00  0.00     0.004 C 
ENDBRANCH   4   6
BRANCH   3   8
ATOM      8  N   UNL     1      44.776 132.324  17.112  1.00  0.00    -0.334 N 
ATOM      9  C   UNL     1      44.017 132.149  18.317  1.00  0.00     0.274 C 
ATOM     10  H   UNL     1      45.672 132.861  17.153  1.00  0.00     0.165 HD
ATOM     11  O   UNL     1      42.906 131.555  18.278  1.00  0.00    -0.267 OA
BRANCH   9  12
ATOM     12  C   UNL     1      44.522 132.684  19.596  1.00  0.00     0.174 A 
ATOM     13  N   UNL     1      45.655 132.256  20.188  1.00  0.00    -0.074 NA
ATOM     14  C   UNL     1      43.963 133.690  20.367  1.00  0.00     0.025 A 
ATOM     15  O   UNL     1      45.810 132.952  21.278  1.00  0.00    -0.361 OA
ATOM     16  C   UNL     1      44.836 133.819  21.430  1.00  0.00     0.137 A 
ATOM     17  C   UNL     1      42.724 134.489  20.094  1.00  0.00     0.051 C 
ATOM     18  C   UNL     1      44.732 134.772  22.574  1.00  0.00     0.091 C 
ENDBRANCH   9  12
ENDBRANCH   3   8
ENDBRANCH   1   3
BRANCH   1  19
ATOM     19  O   UNL     1      43.269 134.224  14.917  1.00  0.00    -0.422 OA
BRANCH  19  20
ATOM     20  C   UNL     1      42.551 135.348  15.341  1.00  0.00     0.159 A 
ATOM     21  C   UNL     1      41.376 135.688  14.664  1.00  0.00     0.105 A 
ATOM     22  C   UNL     1      43.004 136.143  16.417  1.00  0.00     0.028 A 
ATOM     23  C   UNL     1      40.603 136.782  15.083  1.00  0.00     0.087 A 
ATOM     24  C   UNL     1      44.239 135.873  17.042  1.00  0.00     0.013 A 
ATOM     25  C   UNL     1      42.227 137.253  16.852  1.00  0.00     0.010 A 
ATOM     26  C   UNL     1      41.006 137.556  16.192  1.00  0.00     0.060 A 
ATOM     27  C   UNL     1      44.689 136.665  18.095  1.00  0.00     0.001 A 
ATOM     28  C   UNL     1      42.719 138.051  17.909  1.00  0.00     0.011 A 
ATOM     29  C   UNL     1      43.932 137.749  18.528  1.00  0.00     0.001 A 
ATOM     30  Cl  UNL     1      40.861 134.693  13.301  1.00  0.00    -0.078 Cl
ATOM     31  Cl  UNL     1      39.096 137.147  14.236  1.00  0.00    -0.080 Cl
BRANCH  26  32
ATOM     32  N   UNL     1      40.169 138.637  16.640  1.00  0.00    -0.397 N 
ATOM     33  H   UNL     1      40.314 139.098  17.565  1.00  0.00     0.156 HD
ATOM     34  H   UNL     1      39.322 138.927  16.106  1.00  0.00     0.156 HD
ENDBRANCH  26  32
ENDBRANCH  19  20
ENDBRANCH   1  19
TORSDOF 7
ENDMDL
MODEL 7
REMARK VINA RESULT:      -7.3      3.420      6.395
REMARK SMILES CC[C@H]1C[C@]1(NC(=O)c1noc(C)c1C)C(=O)Oc1c(Cl)c(Cl)c(N)c2ccccc12
REMARK SMILES IDX 16 1 17 2 5 3 3 4 4 5 2 6 1 7 6 8 7 9 8 11 9 12 10 13 14 14
REMARK SMILES IDX 11 15 12 16 15 17 13 18 18 19 19 20 20 21 31 22 22 23 30 24
REMARK SMILES IDX 26 25 24 26 29 27 27 28 28 29 21 30 23 31 25 32
REMARK H PARENT 6 10 25 33 25 34
ROOT
ATOM      1  C   UNL     1      42.870 132.896  14.898  1.00  0.00     0.337 C 
ATOM      2  O   UNL     1      41.711 132.411  14.787  1.00  0.00    -0.249 OA
ENDROOT
BRANCH   1   3
ATOM      3  C   UNL     1      43.986 132.053  15.422  1.00  0.00     0.142 C 
ATOM      4  C   UNL     1      45.055 131.633  14.414  1.00  0.00     0.029 C 
ATOM      5  C   UNL     1      44.074 130.600  14.971  1.00  0.00     0.047 C 
BRANCH   4   6
ATOM      6  C   UNL     1      46.501 131.433  14.896  1.00  0.00     0.003 C 
ATOM      7  C   UNL     1      47.441 131.286  13.704  1.00  0.00     0.004 C 
ENDBRANCH   4   6
BRANCH   3   8
ATOM      8  N   UNL     1      44.426 132.319  16.791  1.00  0.00    -0.334 N 
ATOM      9  C   UNL     1      43.527 132.184  17.901  1.00  0.00     0.274 C 
ATOM     10  H   UNL     1      45.320 132.842  16.926  1.00  0.00     0.165 HD
ATOM     11  O   UNL     1      42.417 131.607  17.742  1.00  0.00    -0.267 OA
BRANCH   9  12
ATOM     12  C   UNL     1      43.886 132.739  19.219  1.00  0.00     0.174 A 
ATOM     13  N   UNL     1      43.271 133.803  19.774  1.00  0.00    -0.074 NA
ATOM     14  C   UNL     1      44.854 132.272  20.093  1.00  0.00     0.025 A 
ATOM     15  O   UNL     1      43.819 134.004  20.938  1.00  0.00    -0.361 OA
ATOM     16  C   UNL     1      44.761 133.122  21.178  1.00  0.00     0.137 A 
ATOM     17  C   UNL     1      45.764 131.092  19.927  1.00  0.00     0.051 C 
ATOM     18  C   UNL     1      45.569 133.078  22.433  1.00  0.00     0.091 C 
ENDBRANCH   9  12
ENDBRANCH   3   8
ENDBRANCH   1   3
BRANCH   1  19
ATOM     19  O   UNL     1      43.113 134.241  14.607  1.00  0.00    -0.422 OA
BRANCH  19  20
ATOM     20  C   UNL     1      42.379 135.285  15.183  1.00  0.00     0.159 A 
ATOM     21  C   UNL     1      41.161 135.649  14.601  1.00  0.00     0.105 A 
ATOM     22  C   UNL     1      42.858 135.977  16.317  1.00  0.00     0.028 A 
ATOM     23  C   UNL     1      40.373 136.661  15.171  1.00  0.00     0.087 A 
ATOM     24  C   UNL     1      44.130 135.690  16.852  1.00  0.00     0.013 A 
ATOM     25  C   UNL     1      42.066 137.003  16.905  1.00  0.00     0.010 A 
ATOM     26  C   UNL     1      40.804 137.327  16.338  1.00  0.00     0.060 A 
ATOM     27  C   UNL     1      44.606 136.382  17.963  1.00  0.00     0.001 A 
ATOM     28  C   UNL     1      42.583 137.702  18.019  1.00  0.00     0.011 A 
ATOM     29  C   UNL     1      43.834 137.383  18.545  1.00  0.00     0.001 A 
ATOM     30  Cl  UNL     1      40.613 134.787  13.163  1.00  0.00    -0.078 Cl
ATOM     31  Cl  UNL     1      38.815 137.055  14.439  1.00  0.00    -0.080 Cl
BRANCH  26  32
ATOM     32  N   UNL     1      39.955 138.321  16.939  1.00  0.00    -0.397 N 
ATOM     33  H   UNL     1      40.194 138.774  17.847  1.00  0.00     0.156 HD
ATOM     34  H   UNL     1      39.016 138.546  16.542  1.00  0.00     0.156 HD
ENDBRANCH  26  32
ENDBRANCH  19  20
ENDBRANCH   1  19
TORSDOF 7
ENDMDL
MODEL 8
REMARK VINA RESULT:      -7.3      2.342      2.828
REMARK SMILES CC[C@H]1C[C@]1(NC(=O)c1noc(C)c1C)C(=O)Oc1c(Cl)c(Cl)c(N)c2ccccc12
REMARK SMILES IDX 16 1 17 2 5 3 3 4 4 5 2 6 1 7 6 8 7 9 8 11 9 12 10 13 14 14
REMARK SMILES IDX 11 15 12 16 15 17 13 18 18 19 19 20 20 21 31 22 22 23 30 24
REMARK SMILES IDX 26 25 24 26 29 27 27 28 28 29 21 30 23 31 25 32
REMARK H PARENT 6 10 25 33 25 34
ROOT
ATOM      1  C   UNL     1      42.025 133.737  15.417  1.00  0.00     0.337 C 
ATOM      2  O   UNL     1      41.732 133.776  14.191  1.00  0.00    -0.249 OA
ENDROOT
BRANCH   1   3
ATOM      3  C   UNL     1      42.501 134.971  16.112  1.00  0.00     0.142 C 
ATOM      4  C   UNL     1      43.016 136.100  15.220  1.00  0.00     0.029 C 
ATOM      5  C   UNL     1      43.989 135.294  16.082  1.00  0.00     0.047 C 
BRANCH   4   6
ATOM      6  C   UNL     1      42.843 137.557  15.681  1.00  0.00     0.003 C 
ATOM      7  C   UNL     1      42.367 138.426  14.523  1.00  0.00     0.004 C 
ENDBRANCH   4   6
BRANCH   3   8
ATOM      8  N   UNL     1      41.794 135.353  17.333  1.00  0.00    -0.334 N 
ATOM      9  C   UNL     1      40.418 135.757  17.301  1.00  0.00     0.274 C 
ATOM     10  H   UNL     1      42.364 135.566  18.183  1.00  0.00     0.165 HD
ATOM     11  O   UNL     1      39.731 135.562  16.263  1.00  0.00    -0.267 OA
BRANCH   9  12
ATOM     12  C   UNL     1      39.812 136.422  18.470  1.00  0.00     0.174 A 
ATOM     13  N   UNL     1      39.101 135.770  19.413  1.00  0.00    -0.074 NA
ATOM     14  C   UNL     1      39.886 137.763  18.808  1.00  0.00     0.025 A 
ATOM     15  O   UNL     1      38.739 136.650  20.302  1.00  0.00    -0.361 OA
ATOM     16  C   UNL     1      39.181 137.847  19.994  1.00  0.00     0.137 A 
ATOM     17  C   UNL     1      40.599 138.865  18.085  1.00  0.00     0.051 C 
ATOM     18  C   UNL     1      38.943 139.068  20.819  1.00  0.00     0.091 C 
ENDBRANCH   9  12
ENDBRANCH   3   8
ENDBRANCH   1   3
BRANCH   1  19
ATOM     19  O   UNL     1      41.983 132.532  16.124  1.00  0.00    -0.422 OA
BRANCH  19  20
ATOM     20  C   UNL     1      43.073 132.046  16.856  1.00  0.00     0.159 A 
ATOM     21  C   UNL     1      43.027 132.115  18.252  1.00  0.00     0.105 A 
ATOM     22  C   UNL     1      44.209 131.511  16.210  1.00  0.00     0.028 A 
ATOM     23  C   UNL     1      44.079 131.600  19.025  1.00  0.00     0.087 A 
ATOM     24  C   UNL     1      44.313 131.529  14.804  1.00  0.00     0.013 A 
ATOM     25  C   UNL     1      45.279 130.984  16.984  1.00  0.00     0.010 A 
ATOM     26  C   UNL     1      45.199 131.008  18.402  1.00  0.00     0.060 A 
ATOM     27  C   UNL     1      45.439 131.013  14.168  1.00  0.00     0.001 A 
ATOM     28  C   UNL     1      46.418 130.485  16.313  1.00  0.00     0.011 A 
ATOM     29  C   UNL     1      46.487 130.492  14.920  1.00  0.00     0.001 A 
ATOM     30  Cl  UNL     1      41.608 132.823  19.023  1.00  0.00    -0.078 Cl
ATOM     31  Cl  UNL     1      43.960 131.656  20.787  1.00  0.00    -0.080 Cl
BRANCH  26  32
ATOM     32  N   UNL     1      46.238 130.435  19.214  1.00  0.00    -0.397 N 
ATOM     33  H   UNL     1      46.050 130.073  20.174  1.00  0.00     0.156 HD
ATOM     34  H   UNL     1      47.238 130.456  18.915  1.00  0.00     0.156 HD
ENDBRANCH  26  32
ENDBRANCH  19  20
ENDBRANCH   1  19
TORSDOF 7
ENDMDL
MODEL 9
REMARK VINA RESULT:      -7.3      3.240      6.519
REMARK SMILES CC[C@H]1C[C@]1(NC(=O)c1noc(C)c1C)C(=O)Oc1c(Cl)c(Cl)c(N)c2ccccc12
REMARK SMILES IDX 16 1 17 2 5 3 3 4 4 5 2 6 1 7 6 8 7 9 8 11 9 12 10 13 14 14
REMARK SMILES IDX 11 15 12 16 15 17 13 18 18 19 19 20 20 21 31 22 22 23 30 24
REMARK SMILES IDX 26 25 24 26 29 27 27 28 28 29 21 30 23 31 25 32
REMARK H PARENT 6 10 25 33 25 34
ROOT
ATOM      1  C   UNL     1      42.863 132.989  15.341  1.00  0.00     0.337 C 
ATOM      2  O   UNL     1      41.703 132.604  15.649  1.00  0.00    -0.249 OA
ENDROOT
BRANCH   1   3
ATOM      3  C   UNL     1      44.055 132.216  15.802  1.00  0.00     0.142 C 
ATOM      4  C   UNL     1      44.989 131.688  14.713  1.00  0.00     0.029 C 
ATOM      5  C   UNL     1      44.110 130.721  15.509  1.00  0.00     0.047 C 
BRANCH   4   6
ATOM      6  C   UNL     1      46.490 131.549  15.016  1.00  0.00     0.003 C 
ATOM      7  C   UNL     1      47.264 131.261  13.735  1.00  0.00     0.004 C 
ENDBRANCH   4   6
BRANCH   3   8
ATOM      8  N   UNL     1      44.667 132.637  17.061  1.00  0.00    -0.334 N 
ATOM      9  C   UNL     1      43.980 132.483  18.310  1.00  0.00     0.274 C 
ATOM     10  H   UNL     1      45.496 133.272  17.015  1.00  0.00     0.165 HD
ATOM     11  O   UNL     1      42.944 131.768  18.372  1.00  0.00    -0.267 OA
BRANCH   9  12
ATOM     12  C   UNL     1      44.468 133.177  19.517  1.00  0.00     0.174 A 
ATOM     13  N   UNL     1      44.120 134.438  19.844  1.00  0.00    -0.074 NA
ATOM     14  C   UNL     1      45.309 132.673  20.496  1.00  0.00     0.025 A 
ATOM     15  O   UNL     1      44.708 134.722  20.970  1.00  0.00    -0.361 OA
ATOM     16  C   UNL     1      45.423 133.710  21.402  1.00  0.00     0.137 A 
ATOM     17  C   UNL     1      45.921 131.308  20.581  1.00  0.00     0.051 C 
ATOM     18  C   UNL     1      46.209 133.718  22.671  1.00  0.00     0.091 C 
ENDBRANCH   9  12
ENDBRANCH   3   8
ENDBRANCH   1   3
BRANCH   1  19
ATOM     19  O   UNL     1      43.057 134.177  14.631  1.00  0.00    -0.422 OA
BRANCH  19  20
ATOM     20  C   UNL     1      42.405 135.371  14.961  1.00  0.00     0.159 A 
ATOM     21  C   UNL     1      42.985 136.210  15.918  1.00  0.00     0.105 A 
ATOM     22  C   UNL     1      41.176 135.723  14.362  1.00  0.00     0.028 A 
ATOM     23  C   UNL     1      42.386 137.436  16.247  1.00  0.00     0.087 A 
ATOM     24  C   UNL     1      40.528 134.840  13.474  1.00  0.00     0.013 A 
ATOM     25  C   UNL     1      40.561 136.965  14.687  1.00  0.00     0.010 A 
ATOM     26  C   UNL     1      41.188 137.835  15.619  1.00  0.00     0.060 A 
ATOM     27  C   UNL     1      39.310 135.184  12.893  1.00  0.00     0.001 A 
ATOM     28  C   UNL     1      39.316 137.278  14.098  1.00  0.00     0.011 A 
ATOM     29  C   UNL     1      38.706 136.398  13.204  1.00  0.00     0.001 A 
ATOM     30  Cl  UNL     1      44.502 135.719  16.672  1.00  0.00    -0.078 Cl
ATOM     31  Cl  UNL     1      43.178 138.493  17.420  1.00  0.00    -0.080 Cl
BRANCH  26  32
ATOM     32  N   UNL     1      40.622 139.121  15.928  1.00  0.00    -0.397 N 
ATOM     33  H   UNL     1      40.851 139.972  15.370  1.00  0.00     0.156 HD
ATOM     34  H   UNL     1      40.048 139.271  16.786  1.00  0.00     0.156 HD
ENDBRANCH  26  32
ENDBRANCH  19  20
ENDBRANCH   1  19
TORSDOF 7
ENDMDL


