MODEL 1
REMARK VINA RESULT:      -5.9      0.000      0.000
REMARK SMILES [N-]=[N+]=Nc1cc(Cl)cc2c(CNO)c(OCCc3cn(C[C@H](N=[N+]=[N-])C(=O)[O-])nn3)ccc12
REMARK SMILES IDX 16 1 15 2 14 3 10 4 9 5 31 6 8 7 33 8 32 9 6 10 4 11 5 12
REMARK SMILES IDX 7 13 11 14 12 15 13 17 3 19 2 20 1 21 17 22 18 23 30 24
REMARK SMILES IDX 19 25 29 26 20 27 21 28 22 29 23 30 24 31 25 32 26 33 27 34
REMARK SMILES IDX 28 35
REMARK H PARENT 12 16 13 18
ROOT
ATOM      1  C   UNL     1      41.230 134.378  14.145  1.00  0.00     0.236 C 
ENDROOT
BRANCH   1   2
ATOM      2  O   UNL     1      41.343 132.961  14.008  1.00  0.00    -0.493 OA
BRANCH   2   3
ATOM      3  C   UNL     1      42.444 132.177  14.403  1.00  0.00     0.124 A 
ATOM      4  C   UNL     1      42.879 132.232  15.750  1.00  0.00     0.018 A 
ATOM      5  C   UNL     1      44.011 131.463  16.159  1.00  0.00    -0.008 A 
ATOM      6  C   UNL     1      43.115 131.348  13.489  1.00  0.00     0.047 A 
ATOM      7  C   UNL     1      44.521 131.517  17.478  1.00  0.00     0.029 A 
ATOM      8  C   UNL     1      44.658 130.611  15.217  1.00  0.00    -0.008 A 
ATOM      9  C   UNL     1      44.193 130.568  13.891  1.00  0.00     0.013 A 
ATOM     10  C   UNL     1      45.614 130.735  17.860  1.00  0.00     0.042 A 
ATOM     11  C   UNL     1      45.761 129.815  15.614  1.00  0.00     0.047 A 
ATOM     12  C   UNL     1      46.225 129.887  16.940  1.00  0.00     0.031 A 
ATOM     13  Cl  UNL     1      46.222 130.821  19.506  1.00  0.00    -0.084 Cl
BRANCH   4  14
ATOM     14  C   UNL     1      42.138 133.146  16.712  1.00  0.00     0.151 C 
BRANCH  14  15
ATOM     15  N   UNL     1      40.970 132.460  17.263  1.00  0.00    -0.201 NA
ATOM     16  H   UNL     1      40.107 132.897  16.859  1.00  0.00     0.155 HD
BRANCH  15  17
ATOM     17  O   UNL     1      40.934 132.703  18.598  1.00  0.00    -0.316 OA
ATOM     18  H   UNL     1      40.454 131.923  18.980  1.00  0.00     0.238 HD
ENDBRANCH  15  17
ENDBRANCH  14  15
ENDBRANCH   4  14
BRANCH  11  19
ATOM     19  N   UNL     1      46.395 128.940  14.661  1.00  0.00    -0.060 NA
BRANCH  19  20
ATOM     20  N   UNL     1      47.458 129.221  14.101  1.00  0.00     0.005 N 
ATOM     21  N   UNL     1      48.519 129.501  13.547  1.00  0.00    -0.003 NA
ENDBRANCH  19  20
ENDBRANCH  11  19
ENDBRANCH   2   3
ENDBRANCH   1   2
BRANCH   1  22
ATOM     22  C   UNL     1      39.764 134.823  14.163  1.00  0.00     0.101 C 
BRANCH  22  23
ATOM     23  C   UNL     1      39.193 134.800  15.548  1.00  0.00     0.086 A 
ATOM     24  N   UNL     1      38.596 133.727  16.110  1.00  0.00    -0.135 NA
ATOM     25  C   UNL     1      39.208 135.822  16.470  1.00  0.00     0.134 A 
ATOM     26  N   UNL     1      38.252 134.084  17.339  1.00  0.00    -0.067 NA
ATOM     27  N   UNL     1      38.605 135.339  17.570  1.00  0.00    -0.251 N 
BRANCH  27  28
ATOM     28  C   UNL     1      38.416 136.027  18.846  1.00  0.00     0.161 C 
BRANCH  28  29
ATOM     29  C   UNL     1      39.752 136.213  19.598  1.00  0.00     0.141 C 
BRANCH  29  30
ATOM     30  N   UNL     1      40.869 135.659  18.832  1.00  0.00    -0.083 NA
BRANCH  30  31
ATOM     31  N   UNL     1      42.034 135.810  19.204  1.00  0.00     0.002 N 
ATOM     32  N   UNL     1      43.199 135.962  19.573  1.00  0.00    -0.003 NA
ENDBRANCH  30  31
ENDBRANCH  29  30
BRANCH  29  33
ATOM     33  C   UNL     1      39.691 135.578  20.959  1.00  0.00     0.052 C 
ATOM     34  O   UNL     1      39.612 134.323  21.081  1.00  0.00    -0.550 OA
ATOM     35  O   UNL     1      39.622 136.378  22.094  1.00  0.00    -0.550 OA
ENDBRANCH  29  33
ENDBRANCH  28  29
ENDBRANCH  27  28
ENDBRANCH  22  23
ENDBRANCH   1  22
TORSDOF 14
ENDMDL
MODEL 2
REMARK VINA RESULT:      -4.9      4.407      5.939
REMARK SMILES [N-]=[N+]=Nc1cc(Cl)cc2c(CNO)c(OCCc3cn(C[C@H](N=[N+]=[N-])C(=O)[O-])nn3)ccc12
REMARK SMILES IDX 16 1 15 2 14 3 10 4 9 5 31 6 8 7 33 8 32 9 6 10 4 11 5 12
REMARK SMILES IDX 7 13 11 14 12 15 13 17 3 19 2 20 1 21 17 22 18 23 30 24
REMARK SMILES IDX 19 25 29 26 20 27 21 28 22 29 23 30 24 31 25 32 26 33 27 34
REMARK SMILES IDX 28 35
REMARK H PARENT 12 16 13 18
ROOT
ATOM      1  C   UNL     1      42.544 137.183  18.449  1.00  0.00     0.236 C 
ENDROOT
BRANCH   1   2
ATOM      2  O   UNL     1      42.278 136.015  17.671  1.00  0.00    -0.493 OA
BRANCH   2   3
ATOM      3  C   UNL     1      43.034 134.827  17.677  1.00  0.00     0.124 A 
ATOM      4  C   UNL     1      43.733 134.451  16.504  1.00  0.00     0.018 A 
ATOM      5  C   UNL     1      44.482 133.235  16.487  1.00  0.00    -0.008 A 
ATOM      6  C   UNL     1      43.104 134.013  18.820  1.00  0.00     0.047 A 
ATOM      7  C   UNL     1      45.159 132.783  15.329  1.00  0.00     0.029 A 
ATOM      8  C   UNL     1      44.558 132.440  17.668  1.00  0.00    -0.008 A 
ATOM      9  C   UNL     1      43.864 132.849  18.821  1.00  0.00     0.013 A 
ATOM     10  C   UNL     1      45.907 131.604  15.346  1.00  0.00     0.042 A 
ATOM     11  C   UNL     1      45.325 131.249  17.680  1.00  0.00     0.047 A 
ATOM     12  C   UNL     1      45.995 130.846  16.510  1.00  0.00     0.031 A 
ATOM     13  Cl  UNL     1      46.739 131.071  13.893  1.00  0.00    -0.084 Cl
BRANCH   4  14
ATOM     14  C   UNL     1      43.629 135.348  15.281  1.00  0.00     0.151 C 
BRANCH  14  15
ATOM     15  N   UNL     1      42.325 135.180  14.641  1.00  0.00    -0.201 NA
ATOM     16  H   UNL     1      42.469 135.127  13.604  1.00  0.00     0.155 HD
BRANCH  15  17
ATOM     17  O   UNL     1      41.599 136.303  14.870  1.00  0.00    -0.316 OA
ATOM     18  H   UNL     1      41.286 136.584  13.971  1.00  0.00     0.238 HD
ENDBRANCH  15  17
ENDBRANCH  14  15
ENDBRANCH   4  14
BRANCH  11  19
ATOM     19  N   UNL     1      45.413 130.464  18.885  1.00  0.00    -0.060 NA
BRANCH  19  20
ATOM     20  N   UNL     1      45.956 130.878  19.913  1.00  0.00     0.005 N 
ATOM     21  N   UNL     1      46.497 131.295  20.935  1.00  0.00    -0.003 NA
ENDBRANCH  19  20
ENDBRANCH  11  19
ENDBRANCH   2   3
ENDBRANCH   1   2
BRANCH   1  22
ATOM     22  C   UNL     1      43.802 137.908  17.958  1.00  0.00     0.101 C 
BRANCH  22  23
ATOM     23  C   UNL     1      44.839 138.011  19.033  1.00  0.00     0.086 A 
ATOM     24  N   UNL     1      46.030 138.630  18.888  1.00  0.00    -0.135 NA
ATOM     25  C   UNL     1      44.748 137.539  20.324  1.00  0.00     0.134 A 
ATOM     26  N   UNL     1      46.652 138.537  20.055  1.00  0.00    -0.067 NA
ATOM     27  N   UNL     1      45.901 137.880  20.925  1.00  0.00    -0.251 N 
BRANCH  27  28
ATOM     28  C   UNL     1      46.269 137.645  22.320  1.00  0.00     0.161 C 
BRANCH  28  29
ATOM     29  C   UNL     1      46.708 136.184  22.556  1.00  0.00     0.141 C 
BRANCH  29  30
ATOM     30  N   UNL     1      47.621 135.731  21.506  1.00  0.00    -0.083 NA
BRANCH  30  31
ATOM     31  N   UNL     1      48.789 136.121  21.463  1.00  0.00     0.002 N 
ATOM     32  N   UNL     1      49.956 136.513  21.418  1.00  0.00    -0.003 NA
ENDBRANCH  30  31
ENDBRANCH  29  30
BRANCH  29  33
ATOM     33  C   UNL     1      45.515 135.273  22.635  1.00  0.00     0.052 C 
ATOM     34  O   UNL     1      45.407 134.285  21.855  1.00  0.00    -0.550 OA
ATOM     35  O   UNL     1      44.472 135.571  23.504  1.00  0.00    -0.550 OA
ENDBRANCH  29  33
ENDBRANCH  28  29
ENDBRANCH  27  28
ENDBRANCH  22  23
ENDBRANCH   1  22
TORSDOF 14
ENDMDL
MODEL 3
REMARK VINA RESULT:      -4.8      3.640      6.395
REMARK SMILES [N-]=[N+]=Nc1cc(Cl)cc2c(CNO)c(OCCc3cn(C[C@H](N=[N+]=[N-])C(=O)[O-])nn3)ccc12
REMARK SMILES IDX 16 1 15 2 14 3 10 4 9 5 31 6 8 7 33 8 32 9 6 10 4 11 5 12
REMARK SMILES IDX 7 13 11 14 12 15 13 17 3 19 2 20 1 21 17 22 18 23 30 24
REMARK SMILES IDX 19 25 29 26 20 27 21 28 22 29 23 30 24 31 25 32 26 33 27 34
REMARK SMILES IDX 28 35
REMARK H PARENT 12 16 13 18
ROOT
ATOM      1  C   UNL     1      44.019 132.790  14.888  1.00  0.00     0.236 C 
ENDROOT
BRANCH   1   2
ATOM      2  O   UNL     1      44.652 132.159  16.002  1.00  0.00    -0.493 OA
BRANCH   2   3
ATOM      3  C   UNL     1      44.530 132.546  17.350  1.00  0.00     0.124 A 
ATOM      4  C   UNL     1      44.894 131.627  18.365  1.00  0.00     0.018 A 
ATOM      5  C   UNL     1      44.750 131.996  19.738  1.00  0.00    -0.008 A 
ATOM      6  C   UNL     1      44.055 133.820  17.703  1.00  0.00     0.047 A 
ATOM      7  C   UNL     1      45.050 131.103  20.793  1.00  0.00     0.029 A 
ATOM      8  C   UNL     1      44.289 133.304  20.068  1.00  0.00    -0.008 A 
ATOM      9  C   UNL     1      43.950 134.198  19.037  1.00  0.00     0.013 A 
ATOM     10  C   UNL     1      44.926 131.496  22.127  1.00  0.00     0.042 A 
ATOM     11  C   UNL     1      44.173 133.699  21.424  1.00  0.00     0.047 A 
ATOM     12  C   UNL     1      44.498 132.784  22.442  1.00  0.00     0.031 A 
ATOM     13  Cl  UNL     1      45.309 130.365  23.416  1.00  0.00    -0.084 Cl
BRANCH   4  14
ATOM     14  C   UNL     1      45.396 130.253  17.951  1.00  0.00     0.151 C 
BRANCH  14  15
ATOM     15  N   UNL     1      46.540 130.384  17.050  1.00  0.00    -0.201 NA
ATOM     16  H   UNL     1      46.510 131.335  16.610  1.00  0.00     0.155 HD
BRANCH  15  17
ATOM     17  O   UNL     1      46.382 129.490  16.041  1.00  0.00    -0.316 OA
ATOM     18  H   UNL     1      46.719 128.634  16.412  1.00  0.00     0.238 HD
ENDBRANCH  15  17
ENDBRANCH  14  15
ENDBRANCH   4  14
BRANCH  11  19
ATOM     19  N   UNL     1      43.728 135.030  21.748  1.00  0.00    -0.060 NA
BRANCH  19  20
ATOM     20  N   UNL     1      44.496 135.916  22.132  1.00  0.00     0.005 N 
ATOM     21  N   UNL     1      45.258 136.802  22.515  1.00  0.00    -0.003 NA
ENDBRANCH  19  20
ENDBRANCH  11  19
ENDBRANCH   2   3
ENDBRANCH   1   2
BRANCH   1  22
ATOM     22  C   UNL     1      42.503 132.569  14.906  1.00  0.00     0.101 C 
BRANCH  22  23
ATOM     23  C   UNL     1      41.753 133.858  14.764  1.00  0.00     0.086 A 
ATOM     24  N   UNL     1      42.330 135.077  14.724  1.00  0.00    -0.135 NA
ATOM     25  C   UNL     1      40.392 134.015  14.622  1.00  0.00     0.134 A 
ATOM     26  N   UNL     1      41.351 135.957  14.564  1.00  0.00    -0.067 NA
ATOM     27  N   UNL     1      40.182 135.338  14.508  1.00  0.00    -0.251 N 
BRANCH  27  28
ATOM     28  C   UNL     1      38.903 136.011  14.288  1.00  0.00     0.161 C 
BRANCH  28  29
ATOM     29  C   UNL     1      38.879 136.766  12.941  1.00  0.00     0.141 C 
BRANCH  29  30
ATOM     30  N   UNL     1      38.726 138.206  13.147  1.00  0.00    -0.083 NA
BRANCH  30  31
ATOM     31  N   UNL     1      39.684 138.911  13.467  1.00  0.00     0.002 N 
ATOM     32  N   UNL     1      40.642 139.615  13.790  1.00  0.00    -0.003 NA
ENDBRANCH  30  31
ENDBRANCH  29  30
BRANCH  29  33
ATOM     33  C   UNL     1      37.779 136.247  12.057  1.00  0.00     0.052 C 
ATOM     34  O   UNL     1      36.954 137.042  11.524  1.00  0.00    -0.550 OA
ATOM     35  O   UNL     1      37.604 134.877  11.900  1.00  0.00    -0.550 OA
ENDBRANCH  29  33
ENDBRANCH  28  29
ENDBRANCH  27  28
ENDBRANCH  22  23
ENDBRANCH   1  22
TORSDOF 14
ENDMDL
MODEL 4
REMARK VINA RESULT:      -4.7      3.511      6.547
REMARK SMILES [N-]=[N+]=Nc1cc(Cl)cc2c(CNO)c(OCCc3cn(C[C@H](N=[N+]=[N-])C(=O)[O-])nn3)ccc12
REMARK SMILES IDX 16 1 15 2 14 3 10 4 9 5 31 6 8 7 33 8 32 9 6 10 4 11 5 12
REMARK SMILES IDX 7 13 11 14 12 15 13 17 3 19 2 20 1 21 17 22 18 23 30 24
REMARK SMILES IDX 19 25 29 26 20 27 21 28 22 29 23 30 24 31 25 32 26 33 27 34
REMARK SMILES IDX 28 35
REMARK H PARENT 12 16 13 18
ROOT
ATOM      1  C   UNL     1      45.198 132.165  15.978  1.00  0.00     0.236 C 
ENDROOT
BRANCH   1   2
ATOM      2  O   UNL     1      44.782 131.928  17.324  1.00  0.00    -0.493 OA
BRANCH   2   3
ATOM      3  C   UNL     1      44.453 132.914  18.273  1.00  0.00     0.124 A 
ATOM      4  C   UNL     1      44.388 132.556  19.642  1.00  0.00     0.018 A 
ATOM      5  C   UNL     1      44.028 133.540  20.614  1.00  0.00    -0.008 A 
ATOM      6  C   UNL     1      44.188 134.239  17.887  1.00  0.00     0.047 A 
ATOM      7  C   UNL     1      43.898 133.229  21.988  1.00  0.00     0.029 A 
ATOM      8  C   UNL     1      43.789 134.883  20.198  1.00  0.00    -0.008 A 
ATOM      9  C   UNL     1      43.876 135.209  18.833  1.00  0.00     0.013 A 
ATOM     10  C   UNL     1      43.571 134.214  22.922  1.00  0.00     0.042 A 
ATOM     11  C   UNL     1      43.466 135.879  21.153  1.00  0.00     0.047 A 
ATOM     12  C   UNL     1      43.363 135.528  22.511  1.00  0.00     0.031 A 
ATOM     13  Cl  UNL     1      43.421 133.797  24.622  1.00  0.00    -0.084 Cl
BRANCH   4  14
ATOM     14  C   UNL     1      44.670 131.113  20.026  1.00  0.00     0.151 C 
BRANCH  14  15
ATOM     15  N   UNL     1      46.058 130.770  19.717  1.00  0.00    -0.201 NA
ATOM     16  H   UNL     1      46.145 129.726  19.698  1.00  0.00     0.155 HD
BRANCH  15  17
ATOM     17  O   UNL     1      46.834 131.201  20.743  1.00  0.00    -0.316 OA
ATOM     18  H   UNL     1      47.395 130.418  20.976  1.00  0.00     0.238 HD
ENDBRANCH  15  17
ENDBRANCH  14  15
ENDBRANCH   4  14
BRANCH  11  19
ATOM     19  N   UNL     1      43.247 137.237  20.726  1.00  0.00    -0.060 NA
BRANCH  19  20
ATOM     20  N   UNL     1      43.902 138.187  21.163  1.00  0.00     0.005 N 
ATOM     21  N   UNL     1      44.556 139.135  21.594  1.00  0.00    -0.003 NA
ENDBRANCH  19  20
ENDBRANCH  11  19
ENDBRANCH   2   3
ENDBRANCH   1   2
BRANCH   1  22
ATOM     22  C   UNL     1      44.269 131.474  14.975  1.00  0.00     0.101 C 
BRANCH  22  23
ATOM     23  C   UNL     1      43.092 132.332  14.625  1.00  0.00     0.086 A 
ATOM     24  N   UNL     1      42.045 131.924  13.877  1.00  0.00    -0.135 NA
ATOM     25  C   UNL     1      42.864 133.632  15.020  1.00  0.00     0.134 A 
ATOM     26  N   UNL     1      41.202 132.945  13.813  1.00  0.00    -0.067 NA
ATOM     27  N   UNL     1      41.681 133.979  14.488  1.00  0.00    -0.251 N 
BRANCH  27  28
ATOM     28  C   UNL     1      40.976 135.249  14.659  1.00  0.00     0.161 C 
BRANCH  28  29
ATOM     29  C   UNL     1      39.559 135.042  15.233  1.00  0.00     0.141 C 
BRANCH  29  30
ATOM     30  N   UNL     1      39.517 133.887  16.131  1.00  0.00    -0.083 NA
BRANCH  30  31
ATOM     31  N   UNL     1      39.973 133.950  17.274  1.00  0.00     0.002 N 
ATOM     32  N   UNL     1      40.428 134.016  18.417  1.00  0.00    -0.003 NA
ENDBRANCH  30  31
ENDBRANCH  29  30
BRANCH  29  33
ATOM     33  C   UNL     1      38.553 134.877  14.128  1.00  0.00     0.052 C 
ATOM     34  O   UNL     1      37.566 134.101  14.267  1.00  0.00    -0.550 OA
ATOM     35  O   UNL     1      38.758 135.505  12.905  1.00  0.00    -0.550 OA
ENDBRANCH  29  33
ENDBRANCH  28  29
ENDBRANCH  27  28
ENDBRANCH  22  23
ENDBRANCH   1  22
TORSDOF 14
ENDMDL
MODEL 5
REMARK VINA RESULT:      -4.6      3.268      6.168
REMARK SMILES [N-]=[N+]=Nc1cc(Cl)cc2c(CNO)c(OCCc3cn(C[C@H](N=[N+]=[N-])C(=O)[O-])nn3)ccc12
REMARK SMILES IDX 16 1 15 2 14 3 10 4 9 5 31 6 8 7 33 8 32 9 6 10 4 11 5 12
REMARK SMILES IDX 7 13 11 14 12 15 13 17 3 19 2 20 1 21 17 22 18 23 30 24
REMARK SMILES IDX 19 25 29 26 20 27 21 28 22 29 23 30 24 31 25 32 26 33 27 34
REMARK SMILES IDX 28 35
REMARK H PARENT 12 16 13 18
ROOT
ATOM      1  C   UNL     1      44.971 132.396  15.500  1.00  0.00     0.236 C 
ENDROOT
BRANCH   1   2
ATOM      2  O   UNL     1      45.226 132.246  16.897  1.00  0.00    -0.493 OA
BRANCH   2   3
ATOM      3  C   UNL     1      44.505 132.858  17.940  1.00  0.00     0.124 A 
ATOM      4  C   UNL     1      44.274 132.132  19.134  1.00  0.00     0.018 A 
ATOM      5  C   UNL     1      43.521 132.731  20.190  1.00  0.00    -0.008 A 
ATOM      6  C   UNL     1      44.012 134.167  17.815  1.00  0.00     0.047 A 
ATOM      7  C   UNL     1      43.216 132.037  21.385  1.00  0.00     0.029 A 
ATOM      8  C   UNL     1      43.053 134.070  20.048  1.00  0.00    -0.008 A 
ATOM      9  C   UNL     1      43.312 134.768  18.855  1.00  0.00     0.013 A 
ATOM     10  C   UNL     1      42.500 132.653  22.414  1.00  0.00     0.042 A 
ATOM     11  C   UNL     1      42.335 134.692  21.099  1.00  0.00     0.047 A 
ATOM     12  C   UNL     1      42.068 133.970  22.276  1.00  0.00     0.031 A 
ATOM     13  Cl  UNL     1      42.141 131.766  23.887  1.00  0.00    -0.084 Cl
BRANCH   4  14
ATOM     14  C   UNL     1      44.812 130.714  19.235  1.00  0.00     0.151 C 
BRANCH  14  15
ATOM     15  N   UNL     1      46.275 130.726  19.215  1.00  0.00    -0.201 NA
ATOM     16  H   UNL     1      46.611 129.767  18.960  1.00  0.00     0.155 HD
BRANCH  15  17
ATOM     17  O   UNL     1      46.707 130.960  20.480  1.00  0.00    -0.316 OA
ATOM     18  H   UNL     1      46.173 131.738  20.786  1.00  0.00     0.238 HD
ENDBRANCH  15  17
ENDBRANCH  14  15
ENDBRANCH   4  14
BRANCH  11  19
ATOM     19  N   UNL     1      41.886 136.053  20.955  1.00  0.00    -0.060 NA
BRANCH  19  20
ATOM     20  N   UNL     1      42.542 137.018  21.355  1.00  0.00     0.005 N 
ATOM     21  N   UNL     1      43.198 137.980  21.749  1.00  0.00    -0.003 NA
ENDBRANCH  19  20
ENDBRANCH  11  19
ENDBRANCH   2   3
ENDBRANCH   1   2
BRANCH   1  22
ATOM     22  C   UNL     1      43.694 131.661  15.081  1.00  0.00     0.101 C 
BRANCH  22  23
ATOM     23  C   UNL     1      42.625 132.613  14.639  1.00  0.00     0.086 A 
ATOM     24  N   UNL     1      41.562 132.269  13.881  1.00  0.00    -0.135 NA
ATOM     25  C   UNL     1      42.526 133.952  14.945  1.00  0.00     0.134 A 
ATOM     26  N   UNL     1      40.834 133.366  13.725  1.00  0.00    -0.067 NA
ATOM     27  N   UNL     1      41.401 134.386  14.351  1.00  0.00    -0.251 N 
BRANCH  27  28
ATOM     28  C   UNL     1      40.831 135.730  14.419  1.00  0.00     0.161 C 
BRANCH  28  29
ATOM     29  C   UNL     1      40.561 136.163  15.876  1.00  0.00     0.141 C 
BRANCH  29  30
ATOM     30  N   UNL     1      39.229 135.743  16.312  1.00  0.00    -0.083 NA
BRANCH  30  31
ATOM     31  N   UNL     1      38.984 134.564  16.572  1.00  0.00     0.002 N 
ATOM     32  N   UNL     1      38.742 133.384  16.830  1.00  0.00    -0.003 NA
ENDBRANCH  30  31
ENDBRANCH  29  30
BRANCH  29  33
ATOM     33  C   UNL     1      40.712 137.651  16.028  1.00  0.00     0.052 C 
ATOM     34  O   UNL     1      41.632 138.269  15.421  1.00  0.00    -0.550 OA
ATOM     35  O   UNL     1      39.899 138.343  16.917  1.00  0.00    -0.550 OA
ENDBRANCH  29  33
ENDBRANCH  28  29
ENDBRANCH  27  28
ENDBRANCH  22  23
ENDBRANCH   1  22
TORSDOF 14
ENDMDL
MODEL 6
REMARK VINA RESULT:      -4.4      3.404      6.937
REMARK SMILES [N-]=[N+]=Nc1cc(Cl)cc2c(CNO)c(OCCc3cn(C[C@H](N=[N+]=[N-])C(=O)[O-])nn3)ccc12
REMARK SMILES IDX 16 1 15 2 14 3 10 4 9 5 31 6 8 7 33 8 32 9 6 10 4 11 5 12
REMARK SMILES IDX 7 13 11 14 12 15 13 17 3 19 2 20 1 21 17 22 18 23 30 24
REMARK SMILES IDX 19 25 29 26 20 27 21 28 22 29 23 30 24 31 25 32 26 33 27 34
REMARK SMILES IDX 28 35
REMARK H PARENT 12 16 13 18
ROOT
ATOM      1  C   UNL     1      44.439 131.078  17.026  1.00  0.00     0.236 C 
ENDROOT
BRANCH   1   2
ATOM      2  O   UNL     1      44.458 131.610  18.352  1.00  0.00    -0.493 OA
BRANCH   2   3
ATOM      3  C   UNL     1      43.418 132.332  18.968  1.00  0.00     0.124 A 
ATOM      4  C   UNL     1      43.570 132.742  20.315  1.00  0.00     0.018 A 
ATOM      5  C   UNL     1      42.512 133.451  20.962  1.00  0.00    -0.008 A 
ATOM      6  C   UNL     1      42.239 132.649  18.273  1.00  0.00     0.047 A 
ATOM      7  C   UNL     1      42.587 133.842  22.320  1.00  0.00     0.029 A 
ATOM      8  C   UNL     1      41.336 133.782  20.226  1.00  0.00    -0.008 A 
ATOM      9  C   UNL     1      41.223 133.373  18.886  1.00  0.00     0.013 A 
ATOM     10  C   UNL     1      41.551 134.558  22.922  1.00  0.00     0.042 A 
ATOM     11  C   UNL     1      40.292 134.516  20.842  1.00  0.00     0.047 A 
ATOM     12  C   UNL     1      40.416 134.898  22.190  1.00  0.00     0.031 A 
ATOM     13  Cl  UNL     1      41.675 135.031  24.609  1.00  0.00    -0.084 Cl
BRANCH   4  14
ATOM     14  C   UNL     1      44.854 132.375  21.042  1.00  0.00     0.151 C 
BRANCH  14  15
ATOM     15  N   UNL     1      45.773 133.512  21.050  1.00  0.00    -0.201 NA
ATOM     16  H   UNL     1      46.494 133.362  20.304  1.00  0.00     0.155 HD
BRANCH  15  17
ATOM     17  O   UNL     1      46.438 133.504  22.232  1.00  0.00    -0.316 OA
ATOM     18  H   UNL     1      46.296 132.590  22.591  1.00  0.00     0.238 HD
ENDBRANCH  15  17
ENDBRANCH  14  15
ENDBRANCH   4  14
BRANCH  11  19
ATOM     19  N   UNL     1      39.117 134.865  20.084  1.00  0.00    -0.060 NA
BRANCH  19  20
ATOM     20  N   UNL     1      38.617 135.993  20.110  1.00  0.00     0.005 N 
ATOM     21  N   UNL     1      38.116 137.115  20.140  1.00  0.00    -0.003 NA
ENDBRANCH  19  20
ENDBRANCH  11  19
ENDBRANCH   2   3
ENDBRANCH   1   2
BRANCH   1  22
ATOM     22  C   UNL     1      45.197 131.982  16.049  1.00  0.00     0.101 C 
BRANCH  22  23
ATOM     23  C   UNL     1      44.352 133.129  15.584  1.00  0.00     0.086 A 
ATOM     24  N   UNL     1      44.689 134.429  15.721  1.00  0.00    -0.135 NA
ATOM     25  C   UNL     1      43.143 133.059  14.930  1.00  0.00     0.134 A 
ATOM     26  N   UNL     1      43.712 135.135  15.168  1.00  0.00    -0.067 NA
ATOM     27  N   UNL     1      42.774 134.330  14.695  1.00  0.00    -0.251 N 
BRANCH  27  28
ATOM     28  C   UNL     1      41.582 134.784  13.980  1.00  0.00     0.161 C 
BRANCH  28  29
ATOM     29  C   UNL     1      40.415 135.079  14.946  1.00  0.00     0.141 C 
BRANCH  29  30
ATOM     30  N   UNL     1      40.909 135.446  16.274  1.00  0.00    -0.083 NA
BRANCH  30  31
ATOM     31  N   UNL     1      40.630 136.533  16.782  1.00  0.00     0.002 N 
ATOM     32  N   UNL     1      40.351 137.622  17.286  1.00  0.00    -0.003 NA
ENDBRANCH  30  31
ENDBRANCH  29  30
BRANCH  29  33
ATOM     33  C   UNL     1      39.491 133.897  15.045  1.00  0.00     0.052 C 
ATOM     34  O   UNL     1      39.038 133.527  16.165  1.00  0.00    -0.550 OA
ATOM     35  O   UNL     1      39.206 133.144  13.912  1.00  0.00    -0.550 OA
ENDBRANCH  29  33
ENDBRANCH  28  29
ENDBRANCH  27  28
ENDBRANCH  22  23
ENDBRANCH   1  22
TORSDOF 14
ENDMDL
MODEL 7
REMARK VINA RESULT:      -4.4      3.596      6.134
REMARK SMILES [N-]=[N+]=Nc1cc(Cl)cc2c(CNO)c(OCCc3cn(C[C@H](N=[N+]=[N-])C(=O)[O-])nn3)ccc12
REMARK SMILES IDX 16 1 15 2 14 3 10 4 9 5 31 6 8 7 33 8 32 9 6 10 4 11 5 12
REMARK SMILES IDX 7 13 11 14 12 15 13 17 3 19 2 20 1 21 17 22 18 23 30 24
REMARK SMILES IDX 19 25 29 26 20 27 21 28 22 29 23 30 24 31 25 32 26 33 27 34
REMARK SMILES IDX 28 35
REMARK H PARENT 12 16 13 18
ROOT
ATOM      1  C   UNL     1      44.617 131.989  16.381  1.00  0.00     0.236 C 
ENDROOT
BRANCH   1   2
ATOM      2  O   UNL     1      43.640 131.665  17.371  1.00  0.00    -0.493 OA
BRANCH   2   3
ATOM      3  C   UNL     1      43.712 131.985  18.740  1.00  0.00     0.124 A 
ATOM      4  C   UNL     1      42.620 132.652  19.348  1.00  0.00     0.018 A 
ATOM      5  C   UNL     1      42.690 133.007  20.730  1.00  0.00    -0.008 A 
ATOM      6  C   UNL     1      44.842 131.657  19.507  1.00  0.00     0.047 A 
ATOM      7  C   UNL     1      41.653 133.719  21.378  1.00  0.00     0.029 A 
ATOM      8  C   UNL     1      43.839 132.641  21.492  1.00  0.00    -0.008 A 
ATOM      9  C   UNL     1      44.898 131.966  20.861  1.00  0.00     0.013 A 
ATOM     10  C   UNL     1      41.734 134.031  22.737  1.00  0.00     0.042 A 
ATOM     11  C   UNL     1      43.909 132.954  22.872  1.00  0.00     0.047 A 
ATOM     12  C   UNL     1      42.848 133.648  23.480  1.00  0.00     0.031 A 
ATOM     13  Cl  UNL     1      40.428 134.912  23.514  1.00  0.00    -0.084 Cl
BRANCH   4  14
ATOM     14  C   UNL     1      41.416 133.002  18.488  1.00  0.00     0.151 C 
BRANCH  14  15
ATOM     15  N   UNL     1      41.186 131.956  17.492  1.00  0.00    -0.201 NA
ATOM     16  H   UNL     1      40.479 132.306  16.802  1.00  0.00     0.155 HD
BRANCH  15  17
ATOM     17  O   UNL     1      40.616 130.898  18.122  1.00  0.00    -0.316 OA
ATOM     18  H   UNL     1      40.420 131.229  19.036  1.00  0.00     0.238 HD
ENDBRANCH  15  17
ENDBRANCH  14  15
ENDBRANCH   4  14
BRANCH  11  19
ATOM     19  N   UNL     1      45.064 132.560  23.639  1.00  0.00    -0.060 NA
BRANCH  19  20
ATOM     20  N   UNL     1      45.848 133.375  24.131  1.00  0.00     0.005 N 
ATOM     21  N   UNL     1      46.629 134.186  24.625  1.00  0.00    -0.003 NA
ENDBRANCH  19  20
ENDBRANCH  11  19
ENDBRANCH   2   3
ENDBRANCH   1   2
BRANCH   1  22
ATOM     22  C   UNL     1      44.387 133.389  15.804  1.00  0.00     0.101 C 
BRANCH  22  23
ATOM     23  C   UNL     1      43.103 133.470  15.037  1.00  0.00     0.086 A 
ATOM     24  N   UNL     1      42.377 132.401  14.649  1.00  0.00    -0.135 NA
ATOM     25  C   UNL     1      42.445 134.612  14.636  1.00  0.00     0.134 A 
ATOM     26  N   UNL     1      41.306 132.873  14.026  1.00  0.00    -0.067 NA
ATOM     27  N   UNL     1      41.334 134.197  14.003  1.00  0.00    -0.251 N 
BRANCH  27  28
ATOM     28  C   UNL     1      40.279 135.034  13.435  1.00  0.00     0.161 C 
BRANCH  28  29
ATOM     29  C   UNL     1      39.239 135.443  14.501  1.00  0.00     0.141 C 
BRANCH  29  30
ATOM     30  N   UNL     1      39.354 136.864  14.832  1.00  0.00    -0.083 NA
BRANCH  30  31
ATOM     31  N   UNL     1      40.410 137.475  14.663  1.00  0.00     0.002 N 
ATOM     32  N   UNL     1      41.466 138.088  14.497  1.00  0.00    -0.003 NA
ENDBRANCH  30  31
ENDBRANCH  29  30
BRANCH  29  33
ATOM     33  C   UNL     1      39.389 134.607  15.742  1.00  0.00     0.052 C 
ATOM     34  O   UNL     1      40.023 135.049  16.742  1.00  0.00    -0.550 OA
ATOM     35  O   UNL     1      38.914 133.301  15.759  1.00  0.00    -0.550 OA
ENDBRANCH  29  33
ENDBRANCH  28  29
ENDBRANCH  27  28
ENDBRANCH  22  23
ENDBRANCH   1  22
TORSDOF 14
ENDMDL
MODEL 8
REMARK VINA RESULT:      -4.3      4.127      5.824
REMARK SMILES [N-]=[N+]=Nc1cc(Cl)cc2c(CNO)c(OCCc3cn(C[C@H](N=[N+]=[N-])C(=O)[O-])nn3)ccc12
REMARK SMILES IDX 16 1 15 2 14 3 10 4 9 5 31 6 8 7 33 8 32 9 6 10 4 11 5 12
REMARK SMILES IDX 7 13 11 14 12 15 13 17 3 19 2 20 1 21 17 22 18 23 30 24
REMARK SMILES IDX 19 25 29 26 20 27 21 28 22 29 23 30 24 31 25 32 26 33 27 34
REMARK SMILES IDX 28 35
REMARK H PARENT 12 16 13 18
ROOT
ATOM      1  C   UNL     1      44.255 132.904  15.331  1.00  0.00     0.236 C 
ENDROOT
BRANCH   1   2
ATOM      2  O   UNL     1      44.500 133.639  16.531  1.00  0.00    -0.493 OA
BRANCH   2   3
ATOM      3  C   UNL     1      44.270 133.182  17.842  1.00  0.00     0.124 A 
ATOM      4  C   UNL     1      43.642 134.047  18.772  1.00  0.00     0.018 A 
ATOM      5  C   UNL     1      43.428 133.607  20.114  1.00  0.00    -0.008 A 
ATOM      6  C   UNL     1      44.653 131.892  18.242  1.00  0.00     0.047 A 
ATOM      7  C   UNL     1      42.851 134.444  21.098  1.00  0.00     0.029 A 
ATOM      8  C   UNL     1      43.803 132.283  20.487  1.00  0.00    -0.008 A 
ATOM      9  C   UNL     1      44.411 131.444  19.536  1.00  0.00     0.013 A 
ATOM     10  C   UNL     1      42.628 133.981  22.397  1.00  0.00     0.042 A 
ATOM     11  C   UNL     1      43.566 131.818  21.804  1.00  0.00     0.047 A 
ATOM     12  C   UNL     1      42.975 132.679  22.746  1.00  0.00     0.031 A 
ATOM     13  Cl  UNL     1      41.907 135.044  23.596  1.00  0.00    -0.084 Cl
BRANCH   4  14
ATOM     14  C   UNL     1      43.249 135.441  18.311  1.00  0.00     0.151 C 
BRANCH  14  15
ATOM     15  N   UNL     1      44.411 136.140  17.764  1.00  0.00    -0.201 NA
ATOM     16  H   UNL     1      45.263 135.556  17.942  1.00  0.00     0.155 HD
BRANCH  15  17
ATOM     17  O   UNL     1      44.578 137.287  18.468  1.00  0.00    -0.316 OA
ATOM     18  H   UNL     1      45.143 137.025  19.241  1.00  0.00     0.238 HD
ENDBRANCH  15  17
ENDBRANCH  14  15
ENDBRANCH   4  14
BRANCH  11  19
ATOM     19  N   UNL     1      43.928 130.471  22.166  1.00  0.00    -0.060 NA
BRANCH  19  20
ATOM     20  N   UNL     1      44.628 130.209  23.148  1.00  0.00     0.005 N 
ATOM     21  N   UNL     1      45.323 129.944  24.126  1.00  0.00    -0.003 NA
ENDBRANCH  19  20
ENDBRANCH  11  19
ENDBRANCH   2   3
ENDBRANCH   1   2
BRANCH   1  22
ATOM     22  C   UNL     1      42.813 132.389  15.275  1.00  0.00     0.101 C 
BRANCH  22  23
ATOM     23  C   UNL     1      41.860 133.453  14.824  1.00  0.00     0.086 A 
ATOM     24  N   UNL     1      41.503 133.664  13.540  1.00  0.00    -0.135 NA
ATOM     25  C   UNL     1      41.179 134.349  15.618  1.00  0.00     0.134 A 
ATOM     26  N   UNL     1      40.631 134.663  13.546  1.00  0.00    -0.067 NA
ATOM     27  N   UNL     1      40.430 135.090  14.783  1.00  0.00    -0.251 N 
BRANCH  27  28
ATOM     28  C   UNL     1      39.490 136.148  15.148  1.00  0.00     0.161 C 
BRANCH  28  29
ATOM     29  C   UNL     1      39.967 137.531  14.654  1.00  0.00     0.141 C 
BRANCH  29  30
ATOM     30  N   UNL     1      40.489 138.334  15.760  1.00  0.00    -0.083 NA
BRANCH  30  31
ATOM     31  N   UNL     1      41.697 138.386  15.998  1.00  0.00     0.002 N 
ATOM     32  N   UNL     1      42.905 138.440  16.234  1.00  0.00    -0.003 NA
ENDBRANCH  30  31
ENDBRANCH  29  30
BRANCH  29  33
ATOM     33  C   UNL     1      38.853 138.264  13.960  1.00  0.00     0.052 C 
ATOM     34  O   UNL     1      38.823 139.527  13.951  1.00  0.00    -0.550 OA
ATOM     35  O   UNL     1      37.794 137.553  13.408  1.00  0.00    -0.550 OA
ENDBRANCH  29  33
ENDBRANCH  28  29
ENDBRANCH  27  28
ENDBRANCH  22  23
ENDBRANCH   1  22
TORSDOF 14
ENDMDL
MODEL 9
REMARK VINA RESULT:      -4.2      3.862      5.920
REMARK SMILES [N-]=[N+]=Nc1cc(Cl)cc2c(CNO)c(OCCc3cn(C[C@H](N=[N+]=[N-])C(=O)[O-])nn3)ccc12
REMARK SMILES IDX 16 1 15 2 14 3 10 4 9 5 31 6 8 7 33 8 32 9 6 10 4 11 5 12
REMARK SMILES IDX 7 13 11 14 12 15 13 17 3 19 2 20 1 21 17 22 18 23 30 24
REMARK SMILES IDX 19 25 29 26 20 27 21 28 22 29 23 30 24 31 25 32 26 33 27 34
REMARK SMILES IDX 28 35
REMARK H PARENT 12 16 13 18
ROOT
ATOM      1  C   UNL     1      44.053 132.479  15.398  1.00  0.00     0.236 C 
ENDROOT
BRANCH   1   2
ATOM      2  O   UNL     1      44.003 133.385  16.501  1.00  0.00    -0.493 OA
BRANCH   2   3
ATOM      3  C   UNL     1      44.279 133.069  17.844  1.00  0.00     0.124 A 
ATOM      4  C   UNL     1      44.283 134.107  18.808  1.00  0.00     0.018 A 
ATOM      5  C   UNL     1      44.588 133.804  20.171  1.00  0.00    -0.008 A 
ATOM      6  C   UNL     1      44.551 131.749  18.242  1.00  0.00     0.047 A 
ATOM      7  C   UNL     1      44.655 134.807  21.168  1.00  0.00     0.029 A 
ATOM      8  C   UNL     1      44.835 132.453  20.552  1.00  0.00    -0.008 A 
ATOM      9  C   UNL     1      44.810 131.444  19.573  1.00  0.00     0.013 A 
ATOM     10  C   UNL     1      44.929 134.482  22.498  1.00  0.00     0.042 A 
ATOM     11  C   UNL     1      45.104 132.131  21.905  1.00  0.00     0.047 A 
ATOM     12  C   UNL     1      45.146 133.157  22.866  1.00  0.00     0.031 A 
ATOM     13  Cl  UNL     1      45.003 135.749  23.713  1.00  0.00    -0.084 Cl
BRANCH   4  14
ATOM     14  C   UNL     1      43.994 135.525  18.344  1.00  0.00     0.151 C 
BRANCH  14  15
ATOM     15  N   UNL     1      42.564 135.693  18.090  1.00  0.00    -0.201 NA
ATOM     16  H   UNL     1      42.240 136.561  18.581  1.00  0.00     0.155 HD
BRANCH  15  17
ATOM     17  O   UNL     1      41.912 134.656  18.674  1.00  0.00    -0.316 OA
ATOM     18  H   UNL     1      41.183 135.082  19.195  1.00  0.00     0.238 HD
ENDBRANCH  15  17
ENDBRANCH  14  15
ENDBRANCH   4  14
BRANCH  11  19
ATOM     19  N   UNL     1      45.331 130.759  22.285  1.00  0.00    -0.060 NA
BRANCH  19  20
ATOM     20  N   UNL     1      45.265 130.371  23.454  1.00  0.00     0.005 N 
ATOM     21  N   UNL     1      45.203 129.985  24.620  1.00  0.00    -0.003 NA
ENDBRANCH  19  20
ENDBRANCH  11  19
ENDBRANCH   2   3
ENDBRANCH   1   2
BRANCH   1  22
ATOM     22  C   UNL     1      42.823 132.627  14.495  1.00  0.00     0.101 C 
BRANCH  22  23
ATOM     23  C   UNL     1      41.695 133.314  15.202  1.00  0.00     0.086 A 
ATOM     24  N   UNL     1      41.109 132.857  16.329  1.00  0.00    -0.135 NA
ATOM     25  C   UNL     1      41.101 134.507  14.856  1.00  0.00     0.134 A 
ATOM     26  N   UNL     1      40.182 133.743  16.663  1.00  0.00    -0.067 NA
ATOM     27  N   UNL     1      40.158 134.735  15.786  1.00  0.00    -0.251 N 
BRANCH  27  28
ATOM     28  C   UNL     1      39.285 135.903  15.887  1.00  0.00     0.161 C 
BRANCH  28  29
ATOM     29  C   UNL     1      38.062 135.783  14.952  1.00  0.00     0.141 C 
BRANCH  29  30
ATOM     30  N   UNL     1      37.998 134.458  14.334  1.00  0.00    -0.083 NA
BRANCH  30  31
ATOM     31  N   UNL     1      37.603 134.312  13.176  1.00  0.00     0.002 N 
ATOM     32  N   UNL     1      37.209 134.169  12.018  1.00  0.00    -0.003 NA
ENDBRANCH  30  31
ENDBRANCH  29  30
BRANCH  29  33
ATOM     33  C   UNL     1      38.092 136.850  13.893  1.00  0.00     0.052 C 
ATOM     34  O   UNL     1      39.189 137.227  13.391  1.00  0.00    -0.550 OA
ATOM     35  O   UNL     1      36.918 137.498  13.529  1.00  0.00    -0.550 OA
ENDBRANCH  29  33
ENDBRANCH  28  29
ENDBRANCH  27  28
ENDBRANCH  22  23
ENDBRANCH   1  22
TORSDOF 14
ENDMDL


