MODEL 1
REMARK VINA RESULT:      -8.1      0.000      0.000
REMARK SMILES [H]/N=C/N(C(=O)/C(C)=C\n1n[nH+]c(C)c1-c1c2ccccc2cc2c(N=[N+]=[N-])cccc12)C(O)=C1CC1
REMARK SMILES IDX 7 1 8 2 5 3 6 4 4 5 3 6 2 7 1 8 33 9 34 10 35 12 36 13 37 14
REMARK SMILES IDX 9 15 10 16 11 17 15 18 12 19 13 20 14 22 16 23 17 24 32 25
REMARK SMILES IDX 18 26 22 27 31 28 24 29 19 30 21 31 23 32 30 33 25 34 20 35
REMARK SMILES IDX 29 36 26 37 27 38 28 39
REMARK H PARENT 34 11 12 21
ROOT
ATOM      1  C   UNL     1      44.089 132.366  15.070  1.00  0.00     0.057 C 
ATOM      2  C   UNL     1      45.221 132.845  15.939  1.00  0.00     0.054 C 
ENDROOT
BRANCH   1   3
ATOM      3  C   UNL     1      44.213 131.063  14.369  1.00  0.00     0.265 C 
ATOM      4  O   UNL     1      43.517 130.867  13.334  1.00  0.00    -0.268 OA
BRANCH   3   5
ATOM      5  N   UNL     1      45.057 129.998  14.867  1.00  0.00    -0.238 N 
BRANCH   5   6
ATOM      6  C   UNL     1      44.503 128.817  15.485  1.00  0.00     0.201 C 
BRANCH   6   7
ATOM      7  N   UNL     1      45.214 127.750  15.652  1.00  0.00    -0.291 NA
ATOM      8  H   UNL     1      45.784 127.618  16.516  1.00  0.00     0.189 HD
ENDBRANCH   6   7
ENDBRANCH   5   6
BRANCH   5   9
ATOM      9  C   UNL     1      46.489 130.134  14.750  1.00  0.00     0.198 C 
BRANCH   9  10
ATOM     10  O   UNL     1      47.300 129.873  15.854  1.00  0.00    -0.494 OA
ATOM     11  H   UNL     1      48.166 130.377  16.009  1.00  0.00     0.295 HD
ENDBRANCH   9  10
BRANCH   9  12
ATOM     12  C   UNL     1      47.060 130.487  13.599  1.00  0.00    -0.009 C 
ATOM     13  C   UNL     1      48.165 131.144  12.776  1.00  0.00     0.041 C 
ATOM     14  C   UNL     1      47.083 130.537  12.075  1.00  0.00     0.041 C 
ENDBRANCH   9  12
ENDBRANCH   5   9
ENDBRANCH   3   5
ENDBRANCH   1   3
BRANCH   1  15
ATOM     15  C   UNL     1      42.958 133.094  15.038  1.00  0.00     0.242 C 
BRANCH  15  16
ATOM     16  N   UNL     1      41.967 133.058  16.075  1.00  0.00    -0.101 N 
ATOM     17  N   UNL     1      41.992 132.179  17.065  1.00  0.00     0.093 NA
ATOM     18  C   UNL     1      40.977 133.947  16.328  1.00  0.00     0.207 A 
ATOM     19  N   UNL     1      41.035 132.454  17.938  1.00  0.00    -0.147 N 
ATOM     20  C   UNL     1      40.394 133.561  17.521  1.00  0.00     0.170 A 
ATOM     21  H   UNL     1      40.848 131.906  18.807  1.00  0.00     0.342 HD
ATOM     22  C   UNL     1      39.267 134.222  18.247  1.00  0.00     0.100 C 
BRANCH  18  23
ATOM     23  C   UNL     1      40.689 135.192  15.566  1.00  0.00     0.044 A 
ATOM     24  C   UNL     1      41.434 136.372  15.824  1.00  0.00    -0.006 A 
ATOM     25  C   UNL     1      39.694 135.196  14.549  1.00  0.00    -0.006 A 
ATOM     26  C   UNL     1      42.441 136.421  16.816  1.00  0.00     0.009 A 
ATOM     27  C   UNL     1      41.161 137.549  15.085  1.00  0.00    -0.017 A 
ATOM     28  C   UNL     1      38.969 134.029  14.224  1.00  0.00     0.009 A 
ATOM     29  C   UNL     1      39.427 136.388  13.823  1.00  0.00    -0.007 A 
ATOM     30  C   UNL     1      43.146 137.599  17.061  1.00  0.00     0.001 A 
ATOM     31  C   UNL     1      41.884 138.726  15.341  1.00  0.00     0.009 A 
ATOM     32  C   UNL     1      40.167 137.547  14.102  1.00  0.00     0.018 A 
ATOM     33  C   UNL     1      37.985 134.049  13.240  1.00  0.00     0.001 A 
ATOM     34  C   UNL     1      38.419 136.403  12.827  1.00  0.00     0.045 A 
ATOM     35  C   UNL     1      42.871 138.747  16.324  1.00  0.00     0.001 A 
ATOM     36  C   UNL     1      37.706 135.225  12.551  1.00  0.00     0.011 A 
BRANCH  34  37
ATOM     37  N   UNL     1      38.133 137.615  12.111  1.00  0.00    -0.060 NA
BRANCH  37  38
ATOM     38  N   UNL     1      37.459 137.635  11.079  1.00  0.00     0.005 N 
ATOM     39  N   UNL     1      36.785 137.653  10.051  1.00  0.00    -0.003 NA
ENDBRANCH  37  38
ENDBRANCH  34  37
ENDBRANCH  18  23
ENDBRANCH  15  16
ENDBRANCH   1  15
TORSDOF 12
ENDMDL
MODEL 2
REMARK VINA RESULT:      -7.7      4.188      7.071
REMARK SMILES [H]/N=C/N(C(=O)/C(C)=C\n1n[nH+]c(C)c1-c1c2ccccc2cc2c(N=[N+]=[N-])cccc12)C(O)=C1CC1
REMARK SMILES IDX 7 1 8 2 5 3 6 4 4 5 3 6 2 7 1 8 33 9 34 10 35 12 36 13 37 14
REMARK SMILES IDX 9 15 10 16 11 17 15 18 12 19 13 20 14 22 16 23 17 24 32 25
REMARK SMILES IDX 18 26 22 27 31 28 24 29 19 30 21 31 23 32 30 33 25 34 20 35
REMARK SMILES IDX 29 36 26 37 27 38 28 39
REMARK H PARENT 34 11 12 21
ROOT
ATOM      1  C   UNL     1      44.183 132.628  16.324  1.00  0.00     0.057 C 
ATOM      2  C   UNL     1      43.991 134.069  15.933  1.00  0.00     0.054 C 
ENDROOT
BRANCH   1   3
ATOM      3  C   UNL     1      45.428 131.925  15.922  1.00  0.00     0.265 C 
ATOM      4  O   UNL     1      46.288 132.559  15.253  1.00  0.00    -0.268 OA
BRANCH   3   5
ATOM      5  N   UNL     1      45.653 130.527  16.225  1.00  0.00    -0.238 N 
BRANCH   5   6
ATOM      6  C   UNL     1      45.828 130.063  17.581  1.00  0.00     0.201 C 
BRANCH   6   7
ATOM      7  N   UNL     1      46.362 130.817  18.485  1.00  0.00    -0.291 NA
ATOM      8  H   UNL     1      46.642 130.425  19.410  1.00  0.00     0.189 HD
ENDBRANCH   6   7
ENDBRANCH   5   6
BRANCH   5   9
ATOM      9  C   UNL     1      45.715 129.581  15.137  1.00  0.00     0.198 C 
BRANCH   9  10
ATOM     10  O   UNL     1      44.922 128.435  15.172  1.00  0.00    -0.494 OA
ATOM     11  H   UNL     1      43.932 128.466  14.954  1.00  0.00     0.295 HD
ENDBRANCH   9  10
BRANCH   9  12
ATOM     12  C   UNL     1      46.504 129.788  14.083  1.00  0.00    -0.009 C 
ATOM     13  C   UNL     1      46.805 130.372  12.705  1.00  0.00     0.041 C 
ATOM     14  C   UNL     1      47.822 129.601  13.339  1.00  0.00     0.041 C 
ENDBRANCH   9  12
ENDBRANCH   5   9
ENDBRANCH   3   5
ENDBRANCH   1   3
BRANCH   1  15
ATOM     15  C   UNL     1      43.256 132.053  17.113  1.00  0.00     0.242 C 
BRANCH  15  16
ATOM     16  N   UNL     1      42.140 132.764  17.666  1.00  0.00    -0.101 N 
ATOM     17  N   UNL     1      40.914 132.673  17.175  1.00  0.00     0.093 NA
ATOM     18  C   UNL     1      42.081 133.483  18.812  1.00  0.00     0.207 A 
ATOM     19  N   UNL     1      40.066 133.331  17.950  1.00  0.00    -0.147 N 
ATOM     20  C   UNL     1      40.754 133.833  18.991  1.00  0.00     0.170 A 
ATOM     21  H   UNL     1      39.039 133.409  17.776  1.00  0.00     0.342 HD
ATOM     22  C   UNL     1      40.156 134.616  20.115  1.00  0.00     0.100 C 
BRANCH  18  23
ATOM     23  C   UNL     1      43.190 133.703  19.778  1.00  0.00     0.044 A 
ATOM     24  C   UNL     1      43.495 132.714  20.749  1.00  0.00    -0.006 A 
ATOM     25  C   UNL     1      43.975 134.887  19.709  1.00  0.00    -0.006 A 
ATOM     26  C   UNL     1      42.754 131.514  20.854  1.00  0.00     0.009 A 
ATOM     27  C   UNL     1      44.562 132.927  21.655  1.00  0.00    -0.017 A 
ATOM     28  C   UNL     1      43.740 135.871  18.724  1.00  0.00     0.009 A 
ATOM     29  C   UNL     1      45.037 135.089  20.633  1.00  0.00    -0.007 A 
ATOM     30  C   UNL     1      43.064 130.565  21.828  1.00  0.00     0.001 A 
ATOM     31  C   UNL     1      44.865 131.959  22.628  1.00  0.00     0.009 A 
ATOM     32  C   UNL     1      45.314 134.103  21.592  1.00  0.00     0.018 A 
ATOM     33  C   UNL     1      44.503 137.034  18.678  1.00  0.00     0.001 A 
ATOM     34  C   UNL     1      45.805 136.279  20.584  1.00  0.00     0.045 A 
ATOM     35  C   UNL     1      44.118 130.785  22.710  1.00  0.00     0.001 A 
ATOM     36  C   UNL     1      45.522 137.242  19.602  1.00  0.00     0.011 A 
BRANCH  34  37
ATOM     37  N   UNL     1      46.862 136.492  21.535  1.00  0.00    -0.060 NA
BRANCH  37  38
ATOM     38  N   UNL     1      46.745 137.251  22.498  1.00  0.00     0.005 N 
ATOM     39  N   UNL     1      46.630 138.010  23.459  1.00  0.00    -0.003 NA
ENDBRANCH  37  38
ENDBRANCH  34  37
ENDBRANCH  18  23
ENDBRANCH  15  16
ENDBRANCH   1  15
TORSDOF 12
ENDMDL
MODEL 3
REMARK VINA RESULT:      -7.5      3.039      5.379
REMARK SMILES [H]/N=C/N(C(=O)/C(C)=C\n1n[nH+]c(C)c1-c1c2ccccc2cc2c(N=[N+]=[N-])cccc12)C(O)=C1CC1
REMARK SMILES IDX 7 1 8 2 5 3 6 4 4 5 3 6 2 7 1 8 33 9 34 10 35 12 36 13 37 14
REMARK SMILES IDX 9 15 10 16 11 17 15 18 12 19 13 20 14 22 16 23 17 24 32 25
REMARK SMILES IDX 18 26 22 27 31 28 24 29 19 30 21 31 23 32 30 33 25 34 20 35
REMARK SMILES IDX 29 36 26 37 27 38 28 39
REMARK H PARENT 34 11 12 21
ROOT
ATOM      1  C   UNL     1      43.560 132.435  14.740  1.00  0.00     0.057 C 
ATOM      2  C   UNL     1      43.060 131.151  14.134  1.00  0.00     0.054 C 
ENDROOT
BRANCH   1   3
ATOM      3  C   UNL     1      44.845 132.435  15.485  1.00  0.00     0.265 C 
ATOM      4  O   UNL     1      45.505 133.509  15.548  1.00  0.00    -0.268 OA
BRANCH   3   5
ATOM      5  N   UNL     1      45.385 131.235  16.086  1.00  0.00    -0.238 N 
BRANCH   5   6
ATOM      6  C   UNL     1      45.528 131.100  17.516  1.00  0.00     0.201 C 
BRANCH   6   7
ATOM      7  N   UNL     1      45.877 129.977  18.053  1.00  0.00    -0.291 NA
ATOM      8  H   UNL     1      46.857 129.627  17.971  1.00  0.00     0.189 HD
ENDBRANCH   6   7
ENDBRANCH   5   6
BRANCH   5   9
ATOM      9  C   UNL     1      45.800 130.153  15.225  1.00  0.00     0.198 C 
BRANCH   9  10
ATOM     10  O   UNL     1      45.274 128.876  15.418  1.00  0.00    -0.494 OA
ATOM     11  H   UNL     1      44.457 128.719  15.997  1.00  0.00     0.295 HD
ENDBRANCH   9  10
BRANCH   9  12
ATOM     12  C   UNL     1      46.667 130.351  14.232  1.00  0.00    -0.009 C 
ATOM     13  C   UNL     1      47.491 131.242  13.307  1.00  0.00     0.041 C 
ATOM     14  C   UNL     1      47.595 129.830  13.141  1.00  0.00     0.041 C 
ENDBRANCH   9  12
ENDBRANCH   5   9
ENDBRANCH   3   5
ENDBRANCH   1   3
BRANCH   1  15
ATOM     15  C   UNL     1      42.871 133.565  14.498  1.00  0.00     0.242 C 
BRANCH  15  16
ATOM     16  N   UNL     1      41.566 133.824  15.035  1.00  0.00    -0.101 N 
ATOM     17  N   UNL     1      40.453 133.389  14.462  1.00  0.00     0.093 NA
ATOM     18  C   UNL     1      41.236 134.375  16.227  1.00  0.00     0.207 A 
ATOM     19  N   UNL     1      39.412 133.664  15.232  1.00  0.00    -0.147 N 
ATOM     20  C   UNL     1      39.864 134.261  16.349  1.00  0.00     0.170 A 
ATOM     21  H   UNL     1      38.422 133.422  15.001  1.00  0.00     0.342 HD
ATOM     22  C   UNL     1      39.006 134.700  17.492  1.00  0.00     0.100 C 
BRANCH  18  23
ATOM     23  C   UNL     1      42.181 134.850  17.274  1.00  0.00     0.044 A 
ATOM     24  C   UNL     1      42.628 133.959  18.284  1.00  0.00    -0.006 A 
ATOM     25  C   UNL     1      42.669 136.185  17.246  1.00  0.00    -0.006 A 
ATOM     26  C   UNL     1      42.183 132.618  18.353  1.00  0.00     0.009 A 
ATOM     27  C   UNL     1      43.537 134.416  19.269  1.00  0.00    -0.017 A 
ATOM     28  C   UNL     1      42.291 137.086  16.227  1.00  0.00     0.009 A 
ATOM     29  C   UNL     1      43.574 136.630  18.248  1.00  0.00    -0.007 A 
ATOM     30  C   UNL     1      42.625 131.769  19.367  1.00  0.00     0.001 A 
ATOM     31  C   UNL     1      43.978 133.547  20.281  1.00  0.00     0.009 A 
ATOM     32  C   UNL     1      43.996 135.736  19.244  1.00  0.00     0.018 A 
ATOM     33  C   UNL     1      42.761 138.396  16.220  1.00  0.00     0.001 A 
ATOM     34  C   UNL     1      44.044 137.967  18.238  1.00  0.00     0.045 A 
ATOM     35  C   UNL     1      43.523 132.230  20.325  1.00  0.00     0.001 A 
ATOM     36  C   UNL     1      43.624 138.837  17.218  1.00  0.00     0.011 A 
BRANCH  34  37
ATOM     37  N   UNL     1      44.939 138.423  19.265  1.00  0.00    -0.060 NA
BRANCH  37  38
ATOM     38  N   UNL     1      44.542 138.930  20.316  1.00  0.00     0.005 N 
ATOM     39  N   UNL     1      44.147 139.434  21.365  1.00  0.00    -0.003 NA
ENDBRANCH  37  38
ENDBRANCH  34  37
ENDBRANCH  18  23
ENDBRANCH  15  16
ENDBRANCH   1  15
TORSDOF 12
ENDMDL
MODEL 4
REMARK VINA RESULT:      -7.4      3.199      6.364
REMARK SMILES [H]/N=C/N(C(=O)/C(C)=C\n1n[nH+]c(C)c1-c1c2ccccc2cc2c(N=[N+]=[N-])cccc12)C(O)=C1CC1
REMARK SMILES IDX 7 1 8 2 5 3 6 4 4 5 3 6 2 7 1 8 33 9 34 10 35 12 36 13 37 14
REMARK SMILES IDX 9 15 10 16 11 17 15 18 12 19 13 20 14 22 16 23 17 24 32 25
REMARK SMILES IDX 18 26 22 27 31 28 24 29 19 30 21 31 23 32 30 33 25 34 20 35
REMARK SMILES IDX 29 36 26 37 27 38 28 39
REMARK H PARENT 34 11 12 21
ROOT
ATOM      1  C   UNL     1      44.482 132.172  16.009  1.00  0.00     0.057 C 
ATOM      2  C   UNL     1      44.987 131.832  17.386  1.00  0.00     0.054 C 
ENDROOT
BRANCH   1   3
ATOM      3  C   UNL     1      44.456 131.118  14.963  1.00  0.00     0.265 C 
ATOM      4  O   UNL     1      43.710 131.283  13.959  1.00  0.00    -0.268 OA
BRANCH   3   5
ATOM      5  N   UNL     1      45.212 129.890  15.091  1.00  0.00    -0.238 N 
BRANCH   5   6
ATOM      6  C   UNL     1      44.562 128.612  15.255  1.00  0.00     0.201 C 
BRANCH   6   7
ATOM      7  N   UNL     1      45.129 127.648  15.903  1.00  0.00    -0.291 NA
ATOM      8  H   UNL     1      45.354 126.746  15.429  1.00  0.00     0.189 HD
ENDBRANCH   6   7
ENDBRANCH   5   6
BRANCH   5   9
ATOM      9  C   UNL     1      46.654 129.955  15.063  1.00  0.00     0.198 C 
BRANCH   9  10
ATOM     10  O   UNL     1      47.377 129.749  16.238  1.00  0.00    -0.494 OA
ATOM     11  H   UNL     1      48.377 129.584  16.225  1.00  0.00     0.295 HD
ENDBRANCH   9  10
BRANCH   9  12
ATOM     12  C   UNL     1      47.315 130.192  13.931  1.00  0.00    -0.009 C 
ATOM     13  C   UNL     1      47.867 131.115  12.848  1.00  0.00     0.041 C 
ATOM     14  C   UNL     1      48.103 129.716  12.715  1.00  0.00     0.041 C 
ENDBRANCH   9  12
ENDBRANCH   5   9
ENDBRANCH   3   5
ENDBRANCH   1   3
BRANCH   1  15
ATOM     15  C   UNL     1      43.975 133.401  15.802  1.00  0.00     0.242 C 
BRANCH  15  16
ATOM     16  N   UNL     1      42.641 133.778  16.173  1.00  0.00    -0.101 N 
ATOM     17  N   UNL     1      41.586 133.535  15.410  1.00  0.00     0.093 NA
ATOM     18  C   UNL     1      42.200 134.268  17.356  1.00  0.00     0.207 A 
ATOM     19  N   UNL     1      40.478 133.877  16.049  1.00  0.00    -0.147 N 
ATOM     20  C   UNL     1      40.821 134.319  17.272  1.00  0.00     0.170 A 
ATOM     21  H   UNL     1      39.513 133.782  15.660  1.00  0.00     0.342 HD
ATOM     22  C   UNL     1      39.856 134.770  18.321  1.00  0.00     0.100 C 
BRANCH  18  23
ATOM     23  C   UNL     1      43.023 134.533  18.566  1.00  0.00     0.044 A 
ATOM     24  C   UNL     1      43.686 135.780  18.717  1.00  0.00    -0.006 A 
ATOM     25  C   UNL     1      43.120 133.556  19.595  1.00  0.00    -0.006 A 
ATOM     26  C   UNL     1      43.615 136.790  17.730  1.00  0.00     0.009 A 
ATOM     27  C   UNL     1      44.456 136.027  19.878  1.00  0.00    -0.017 A 
ATOM     28  C   UNL     1      42.432 132.326  19.509  1.00  0.00     0.009 A 
ATOM     29  C   UNL     1      43.905 133.818  20.751  1.00  0.00    -0.007 A 
ATOM     30  C   UNL     1      44.290 137.999  17.895  1.00  0.00     0.001 A 
ATOM     31  C   UNL     1      45.127 137.253  20.032  1.00  0.00     0.009 A 
ATOM     32  C   UNL     1      44.561 135.053  20.874  1.00  0.00     0.018 A 
ATOM     33  C   UNL     1      42.549 131.370  20.514  1.00  0.00     0.001 A 
ATOM     34  C   UNL     1      44.024 132.837  21.766  1.00  0.00     0.045 A 
ATOM     35  C   UNL     1      45.040 138.232  19.043  1.00  0.00     0.001 A 
ATOM     36  C   UNL     1      43.341 131.618  21.630  1.00  0.00     0.011 A 
BRANCH  34  37
ATOM     37  N   UNL     1      44.839 133.094  22.922  1.00  0.00    -0.060 NA
BRANCH  37  38
ATOM     38  N   UNL     1      45.074 132.235  23.773  1.00  0.00     0.005 N 
ATOM     39  N   UNL     1      45.310 131.379  24.624  1.00  0.00    -0.003 NA
ENDBRANCH  37  38
ENDBRANCH  34  37
ENDBRANCH  18  23
ENDBRANCH  15  16
ENDBRANCH   1  15
TORSDOF 12
ENDMDL
MODEL 5
REMARK VINA RESULT:      -7.3      2.310      3.477
REMARK SMILES [H]/N=C/N(C(=O)/C(C)=C\n1n[nH+]c(C)c1-c1c2ccccc2cc2c(N=[N+]=[N-])cccc12)C(O)=C1CC1
REMARK SMILES IDX 7 1 8 2 5 3 6 4 4 5 3 6 2 7 1 8 33 9 34 10 35 12 36 13 37 14
REMARK SMILES IDX 9 15 10 16 11 17 15 18 12 19 13 20 14 22 16 23 17 24 32 25
REMARK SMILES IDX 18 26 22 27 31 28 24 29 19 30 21 31 23 32 30 33 25 34 20 35
REMARK SMILES IDX 29 36 26 37 27 38 28 39
REMARK H PARENT 34 11 12 21
ROOT
ATOM      1  C   UNL     1      44.495 131.508  18.189  1.00  0.00     0.057 C 
ATOM      2  C   UNL     1      45.386 131.773  19.373  1.00  0.00     0.054 C 
ENDROOT
BRANCH   1   3
ATOM      3  C   UNL     1      45.091 130.984  16.933  1.00  0.00     0.265 C 
ATOM      4  O   UNL     1      45.621 129.839  16.951  1.00  0.00    -0.268 OA
BRANCH   3   5
ATOM      5  N   UNL     1      45.131 131.766  15.716  1.00  0.00    -0.238 N 
BRANCH   5   6
ATOM      6  C   UNL     1      45.171 133.209  15.743  1.00  0.00     0.201 C 
BRANCH   6   7
ATOM      7  N   UNL     1      44.129 133.915  15.449  1.00  0.00    -0.291 NA
ATOM      8  H   UNL     1      43.187 133.472  15.375  1.00  0.00     0.189 HD
ENDBRANCH   6   7
ENDBRANCH   5   6
BRANCH   5   9
ATOM      9  C   UNL     1      45.120 131.078  14.447  1.00  0.00     0.198 C 
BRANCH   9  10
ATOM     10  O   UNL     1      43.936 130.507  13.982  1.00  0.00    -0.494 OA
ATOM     11  H   UNL     1      43.471 130.849  13.149  1.00  0.00     0.295 HD
ENDBRANCH   9  10
BRANCH   9  12
ATOM     12  C   UNL     1      46.218 130.992  13.696  1.00  0.00    -0.009 C 
ATOM     13  C   UNL     1      47.707 131.202  13.440  1.00  0.00     0.041 C 
ATOM     14  C   UNL     1      46.931 130.600  12.407  1.00  0.00     0.041 C 
ENDBRANCH   9  12
ENDBRANCH   5   9
ENDBRANCH   3   5
ENDBRANCH   1   3
BRANCH   1  15
ATOM     15  C   UNL     1      43.167 131.664  18.343  1.00  0.00     0.242 C 
BRANCH  15  16
ATOM     16  N   UNL     1      42.566 132.174  19.541  1.00  0.00    -0.101 N 
ATOM     17  N   UNL     1      42.622 131.537  20.702  1.00  0.00     0.093 NA
ATOM     18  C   UNL     1      42.008 133.389  19.755  1.00  0.00     0.207 A 
ATOM     19  N   UNL     1      42.095 132.290  21.655  1.00  0.00    -0.147 N 
ATOM     20  C   UNL     1      41.719 133.458  21.106  1.00  0.00     0.170 A 
ATOM     21  H   UNL     1      42.022 132.012  22.659  1.00  0.00     0.342 HD
ATOM     22  C   UNL     1      41.109 134.599  21.855  1.00  0.00     0.100 C 
BRANCH  18  23
ATOM     23  C   UNL     1      41.889 134.495  18.768  1.00  0.00     0.044 A 
ATOM     24  C   UNL     1      42.899 135.490  18.691  1.00  0.00    -0.006 A 
ATOM     25  C   UNL     1      40.787 134.540  17.871  1.00  0.00    -0.006 A 
ATOM     26  C   UNL     1      44.021 135.487  19.551  1.00  0.00     0.009 A 
ATOM     27  C   UNL     1      42.784 136.532  17.739  1.00  0.00    -0.017 A 
ATOM     28  C   UNL     1      39.790 133.540  17.878  1.00  0.00     0.009 A 
ATOM     29  C   UNL     1      40.682 135.598  16.927  1.00  0.00    -0.007 A 
ATOM     30  C   UNL     1      44.990 136.487  19.466  1.00  0.00     0.001 A 
ATOM     31  C   UNL     1      43.771 137.529  17.662  1.00  0.00     0.009 A 
ATOM     32  C   UNL     1      41.686 136.578  16.876  1.00  0.00     0.018 A 
ATOM     33  C   UNL     1      38.706 133.604  17.008  1.00  0.00     0.001 A 
ATOM     34  C   UNL     1      39.572 135.661  16.050  1.00  0.00     0.045 A 
ATOM     35  C   UNL     1      44.868 137.503  18.522  1.00  0.00     0.001 A 
ATOM     36  C   UNL     1      38.591 134.657  16.106  1.00  0.00     0.011 A 
BRANCH  34  37
ATOM     37  N   UNL     1      39.455 136.745  15.113  1.00  0.00    -0.060 NA
BRANCH  37  38
ATOM     38  N   UNL     1      39.157 136.572  13.930  1.00  0.00     0.005 N 
ATOM     39  N   UNL     1      38.857 136.401  12.750  1.00  0.00    -0.003 NA
ENDBRANCH  37  38
ENDBRANCH  34  37
ENDBRANCH  18  23
ENDBRANCH  15  16
ENDBRANCH   1  15
TORSDOF 12
ENDMDL
MODEL 6
REMARK VINA RESULT:      -7.3      4.204      6.928
REMARK SMILES [H]/N=C/N(C(=O)/C(C)=C\n1n[nH+]c(C)c1-c1c2ccccc2cc2c(N=[N+]=[N-])cccc12)C(O)=C1CC1
REMARK SMILES IDX 7 1 8 2 5 3 6 4 4 5 3 6 2 7 1 8 33 9 34 10 35 12 36 13 37 14
REMARK SMILES IDX 9 15 10 16 11 17 15 18 12 19 13 20 14 22 16 23 17 24 32 25
REMARK SMILES IDX 18 26 22 27 31 28 24 29 19 30 21 31 23 32 30 33 25 34 20 35
REMARK SMILES IDX 29 36 26 37 27 38 28 39
REMARK H PARENT 34 11 12 21
ROOT
ATOM      1  C   UNL     1      44.957 131.331  18.293  1.00  0.00     0.057 C 
ATOM      2  C   UNL     1      45.714 130.921  19.527  1.00  0.00     0.054 C 
ENDROOT
BRANCH   1   3
ATOM      3  C   UNL     1      45.417 130.851  16.965  1.00  0.00     0.265 C 
ATOM      4  O   UNL     1      45.979 129.724  16.893  1.00  0.00    -0.268 OA
BRANCH   3   5
ATOM      5  N   UNL     1      45.293 131.659  15.770  1.00  0.00    -0.238 N 
BRANCH   5   6
ATOM      6  C   UNL     1      45.276 133.101  15.827  1.00  0.00     0.201 C 
BRANCH   6   7
ATOM      7  N   UNL     1      44.295 133.781  15.333  1.00  0.00    -0.291 NA
ATOM      8  H   UNL     1      43.502 134.092  15.936  1.00  0.00     0.189 HD
ENDBRANCH   6   7
ENDBRANCH   5   6
BRANCH   5   9
ATOM      9  C   UNL     1      45.171 130.997  14.493  1.00  0.00     0.198 C 
BRANCH   9  10
ATOM     10  O   UNL     1      43.907 130.779  13.946  1.00  0.00    -0.494 OA
ATOM     11  H   UNL     1      43.306 130.032  14.274  1.00  0.00     0.295 HD
ENDBRANCH   9  10
BRANCH   9  12
ATOM     12  C   UNL     1      46.246 130.602  13.812  1.00  0.00    -0.009 C 
ATOM     13  C   UNL     1      47.451 129.693  13.584  1.00  0.00     0.041 C 
ATOM     14  C   UNL     1      47.216 130.739  12.644  1.00  0.00     0.041 C 
ENDBRANCH   9  12
ENDBRANCH   5   9
ENDBRANCH   3   5
ENDBRANCH   1   3
BRANCH   1  15
ATOM     15  C   UNL     1      43.824 132.042  18.446  1.00  0.00     0.242 C 
BRANCH  15  16
ATOM     16  N   UNL     1      43.196 132.263  19.717  1.00  0.00    -0.101 N 
ATOM     17  N   UNL     1      42.658 131.287  20.432  1.00  0.00     0.093 NA
ATOM     18  C   UNL     1      43.174 133.392  20.464  1.00  0.00     0.207 A 
ATOM     19  N   UNL     1      42.264 131.752  21.608  1.00  0.00    -0.147 N 
ATOM     20  C   UNL     1      42.587 133.057  21.670  1.00  0.00     0.170 A 
ATOM     21  H   UNL     1      41.809 131.179  22.352  1.00  0.00     0.342 HD
ATOM     22  C   UNL     1      42.343 133.944  22.848  1.00  0.00     0.100 C 
BRANCH  18  23
ATOM     23  C   UNL     1      43.813 134.692  20.122  1.00  0.00     0.044 A 
ATOM     24  C   UNL     1      43.129 135.626  19.301  1.00  0.00    -0.006 A 
ATOM     25  C   UNL     1      45.092 135.021  20.647  1.00  0.00    -0.006 A 
ATOM     26  C   UNL     1      41.850 135.354  18.761  1.00  0.00     0.009 A 
ATOM     27  C   UNL     1      43.739 136.865  18.992  1.00  0.00    -0.017 A 
ATOM     28  C   UNL     1      45.782 134.143  21.512  1.00  0.00     0.009 A 
ATOM     29  C   UNL     1      45.695 136.267  20.319  1.00  0.00    -0.007 A 
ATOM     30  C   UNL     1      41.207 136.282  17.942  1.00  0.00     0.001 A 
ATOM     31  C   UNL     1      43.077 137.793  18.169  1.00  0.00     0.009 A 
ATOM     32  C   UNL     1      45.006 137.171  19.496  1.00  0.00     0.018 A 
ATOM     33  C   UNL     1      47.042 134.469  22.005  1.00  0.00     0.001 A 
ATOM     34  C   UNL     1      46.981 136.588  20.820  1.00  0.00     0.045 A 
ATOM     35  C   UNL     1      41.816 137.499  17.650  1.00  0.00     0.001 A 
ATOM     36  C   UNL     1      47.641 135.676  21.659  1.00  0.00     0.011 A 
BRANCH  34  37
ATOM     37  N   UNL     1      47.598 137.836  20.468  1.00  0.00    -0.060 NA
BRANCH  37  38
ATOM     38  N   UNL     1      48.436 137.933  19.569  1.00  0.00     0.005 N 
ATOM     39  N   UNL     1      49.272 138.032  18.673  1.00  0.00    -0.003 NA
ENDBRANCH  37  38
ENDBRANCH  34  37
ENDBRANCH  18  23
ENDBRANCH  15  16
ENDBRANCH   1  15
TORSDOF 12
ENDMDL
MODEL 7
REMARK VINA RESULT:      -7.3      4.103      7.664
REMARK SMILES [H]/N=C/N(C(=O)/C(C)=C\n1n[nH+]c(C)c1-c1c2ccccc2cc2c(N=[N+]=[N-])cccc12)C(O)=C1CC1
REMARK SMILES IDX 7 1 8 2 5 3 6 4 4 5 3 6 2 7 1 8 33 9 34 10 35 12 36 13 37 14
REMARK SMILES IDX 9 15 10 16 11 17 15 18 12 19 13 20 14 22 16 23 17 24 32 25
REMARK SMILES IDX 18 26 22 27 31 28 24 29 19 30 21 31 23 32 30 33 25 34 20 35
REMARK SMILES IDX 29 36 26 37 27 38 28 39
REMARK H PARENT 34 11 12 21
ROOT
ATOM      1  C   UNL     1      43.925 133.093  16.126  1.00  0.00     0.057 C 
ATOM      2  C   UNL     1      45.265 132.497  15.786  1.00  0.00     0.054 C 
ENDROOT
BRANCH   1   3
ATOM      3  C   UNL     1      43.528 134.386  15.511  1.00  0.00     0.265 C 
ATOM      4  O   UNL     1      44.348 135.343  15.539  1.00  0.00    -0.268 OA
BRANCH   3   5
ATOM      5  N   UNL     1      42.215 134.593  14.938  1.00  0.00    -0.238 N 
BRANCH   5   6
ATOM      6  C   UNL     1      41.682 133.714  13.925  1.00  0.00     0.201 C 
BRANCH   6   7
ATOM      7  N   UNL     1      40.542 133.125  14.079  1.00  0.00    -0.291 NA
ATOM      8  H   UNL     1      39.651 133.667  14.042  1.00  0.00     0.189 HD
ENDBRANCH   6   7
ENDBRANCH   5   6
BRANCH   5   9
ATOM      9  C   UNL     1      41.430 135.717  15.388  1.00  0.00     0.198 C 
BRANCH   9  10
ATOM     10  O   UNL     1      40.321 135.502  16.205  1.00  0.00    -0.494 OA
ATOM     11  H   UNL     1      40.372 135.613  17.212  1.00  0.00     0.295 HD
ENDBRANCH   9  10
BRANCH   9  12
ATOM     12  C   UNL     1      41.752 136.966  15.053  1.00  0.00    -0.009 C 
ATOM     13  C   UNL     1      41.407 138.390  14.623  1.00  0.00     0.041 C 
ATOM     14  C   UNL     1      42.782 138.063  14.803  1.00  0.00     0.041 C 
ENDBRANCH   9  12
ENDBRANCH   5   9
ENDBRANCH   3   5
ENDBRANCH   1   3
BRANCH   1  15
ATOM     15  C   UNL     1      43.088 132.381  16.902  1.00  0.00     0.242 C 
BRANCH  15  16
ATOM     16  N   UNL     1      41.990 132.962  17.620  1.00  0.00    -0.101 N 
ATOM     17  N   UNL     1      40.724 132.727  17.310  1.00  0.00     0.093 NA
ATOM     18  C   UNL     1      42.016 133.676  18.770  1.00  0.00     0.207 A 
ATOM     19  N   UNL     1      39.928 133.288  18.207  1.00  0.00    -0.147 N 
ATOM     20  C   UNL     1      40.699 133.872  19.143  1.00  0.00     0.170 A 
ATOM     21  H   UNL     1      38.885 133.246  18.186  1.00  0.00     0.342 HD
ATOM     22  C   UNL     1      40.185 134.588  20.350  1.00  0.00     0.100 C 
BRANCH  18  23
ATOM     23  C   UNL     1      43.222 134.029  19.566  1.00  0.00     0.044 A 
ATOM     24  C   UNL     1      43.791 133.078  20.453  1.00  0.00    -0.006 A 
ATOM     25  C   UNL     1      43.833 135.304  19.415  1.00  0.00    -0.006 A 
ATOM     26  C   UNL     1      43.231 131.792  20.634  1.00  0.00     0.009 A 
ATOM     27  C   UNL     1      44.947 133.419  21.197  1.00  0.00    -0.017 A 
ATOM     28  C   UNL     1      43.330 136.258  18.503  1.00  0.00     0.009 A 
ATOM     29  C   UNL     1      44.987 135.633  20.177  1.00  0.00    -0.007 A 
ATOM     30  C   UNL     1      43.800 130.883  21.525  1.00  0.00     0.001 A 
ATOM     31  C   UNL     1      45.511 132.490  22.088  1.00  0.00     0.009 A 
ATOM     32  C   UNL     1      45.527 134.681  21.056  1.00  0.00     0.018 A 
ATOM     33  C   UNL     1      43.926 137.509  18.377  1.00  0.00     0.001 A 
ATOM     34  C   UNL     1      45.584 136.911  20.047  1.00  0.00     0.045 A 
ATOM     35  C   UNL     1      44.938 131.228  22.247  1.00  0.00     0.001 A 
ATOM     36  C   UNL     1      45.038 137.839  19.145  1.00  0.00     0.011 A 
BRANCH  34  37
ATOM     37  N   UNL     1      46.736 137.250  20.837  1.00  0.00    -0.060 NA
BRANCH  37  38
ATOM     38  N   UNL     1      47.864 137.359  20.353  1.00  0.00     0.005 N 
ATOM     39  N   UNL     1      48.990 137.464  19.871  1.00  0.00    -0.003 NA
ENDBRANCH  37  38
ENDBRANCH  34  37
ENDBRANCH  18  23
ENDBRANCH  15  16
ENDBRANCH   1  15
TORSDOF 12
ENDMDL
MODEL 8
REMARK VINA RESULT:      -6.9      2.964      6.248
REMARK SMILES [H]/N=C/N(C(=O)/C(C)=C\n1n[nH+]c(C)c1-c1c2ccccc2cc2c(N=[N+]=[N-])cccc12)C(O)=C1CC1
REMARK SMILES IDX 7 1 8 2 5 3 6 4 4 5 3 6 2 7 1 8 33 9 34 10 35 12 36 13 37 14
REMARK SMILES IDX 9 15 10 16 11 17 15 18 12 19 13 20 14 22 16 23 17 24 32 25
REMARK SMILES IDX 18 26 22 27 31 28 24 29 19 30 21 31 23 32 30 33 25 34 20 35
REMARK SMILES IDX 29 36 26 37 27 38 28 39
REMARK H PARENT 34 11 12 21
ROOT
ATOM      1  C   UNL     1      43.823 133.669  15.595  1.00  0.00     0.057 C 
ATOM      2  C   UNL     1      45.172 134.280  15.869  1.00  0.00     0.054 C 
ENDROOT
BRANCH   1   3
ATOM      3  C   UNL     1      43.582 132.249  15.956  1.00  0.00     0.265 C 
ATOM      4  O   UNL     1      42.570 131.969  16.656  1.00  0.00    -0.268 OA
BRANCH   3   5
ATOM      5  N   UNL     1      44.497 131.193  15.579  1.00  0.00    -0.238 N 
BRANCH   5   6
ATOM      6  C   UNL     1      45.255 130.459  16.564  1.00  0.00     0.201 C 
BRANCH   6   7
ATOM      7  N   UNL     1      45.285 130.830  17.802  1.00  0.00    -0.291 NA
ATOM      8  H   UNL     1      46.124 131.309  18.196  1.00  0.00     0.189 HD
ENDBRANCH   6   7
ENDBRANCH   5   6
BRANCH   5   9
ATOM      9  C   UNL     1      44.660 130.881  14.179  1.00  0.00     0.198 C 
BRANCH   9  10
ATOM     10  O   UNL     1      43.536 130.637  13.391  1.00  0.00    -0.494 OA
ATOM     11  H   UNL     1      42.645 131.083  13.581  1.00  0.00     0.295 HD
ENDBRANCH   9  10
BRANCH   9  12
ATOM     12  C   UNL     1      45.866 130.837  13.615  1.00  0.00    -0.009 C 
ATOM     13  C   UNL     1      46.816 130.514  12.465  1.00  0.00     0.041 C 
ATOM     14  C   UNL     1      47.371 131.077  13.651  1.00  0.00     0.041 C 
ENDBRANCH   9  12
ENDBRANCH   5   9
ENDBRANCH   3   5
ENDBRANCH   1   3
BRANCH   1  15
ATOM     15  C   UNL     1      42.848 134.465  15.121  1.00  0.00     0.242 C 
BRANCH  15  16
ATOM     16  N   UNL     1      42.680 135.833  15.521  1.00  0.00    -0.101 N 
ATOM     17  N   UNL     1      42.910 136.853  14.708  1.00  0.00     0.093 NA
ATOM     18  C   UNL     1      42.137 136.319  16.663  1.00  0.00     0.207 A 
ATOM     19  N   UNL     1      42.558 137.987  15.296  1.00  0.00    -0.147 N 
ATOM     20  C   UNL     1      42.054 137.690  16.507  1.00  0.00     0.170 A 
ATOM     21  H   UNL     1      42.641 138.933  14.861  1.00  0.00     0.342 HD
ATOM     22  C   UNL     1      41.511 138.691  17.476  1.00  0.00     0.100 C 
BRANCH  18  23
ATOM     23  C   UNL     1      41.580 135.521  17.787  1.00  0.00     0.044 A 
ATOM     24  C   UNL     1      40.230 135.084  17.748  1.00  0.00    -0.006 A 
ATOM     25  C   UNL     1      42.406 135.158  18.887  1.00  0.00    -0.006 A 
ATOM     26  C   UNL     1      39.368 135.407  16.674  1.00  0.00     0.009 A 
ATOM     27  C   UNL     1      39.712 134.314  18.818  1.00  0.00    -0.017 A 
ATOM     28  C   UNL     1      43.768 135.525  18.937  1.00  0.00     0.009 A 
ATOM     29  C   UNL     1      41.867 134.392  19.956  1.00  0.00    -0.007 A 
ATOM     30  C   UNL     1      38.040 134.980  16.670  1.00  0.00     0.001 A 
ATOM     31  C   UNL     1      38.373 133.887  18.796  1.00  0.00     0.009 A 
ATOM     32  C   UNL     1      40.526 133.980  19.903  1.00  0.00     0.018 A 
ATOM     33  C   UNL     1      44.561 135.180  20.027  1.00  0.00     0.001 A 
ATOM     34  C   UNL     1      42.679 134.050  21.065  1.00  0.00     0.045 A 
ATOM     35  C   UNL     1      37.545 134.220  17.725  1.00  0.00     0.001 A 
ATOM     36  C   UNL     1      44.024 134.455  21.086  1.00  0.00     0.011 A 
BRANCH  34  37
ATOM     37  N   UNL     1      42.126 133.297  22.157  1.00  0.00    -0.060 NA
BRANCH  37  38
ATOM     38  N   UNL     1      42.411 132.116  22.362  1.00  0.00     0.005 N 
ATOM     39  N   UNL     1      42.698 130.938  22.566  1.00  0.00    -0.003 NA
ENDBRANCH  37  38
ENDBRANCH  34  37
ENDBRANCH  18  23
ENDBRANCH  15  16
ENDBRANCH   1  15
TORSDOF 12
ENDMDL
MODEL 9
REMARK VINA RESULT:      -6.8      3.747      6.822
REMARK SMILES [H]/N=C/N(C(=O)/C(C)=C\n1n[nH+]c(C)c1-c1c2ccccc2cc2c(N=[N+]=[N-])cccc12)C(O)=C1CC1
REMARK SMILES IDX 7 1 8 2 5 3 6 4 4 5 3 6 2 7 1 8 33 9 34 10 35 12 36 13 37 14
REMARK SMILES IDX 9 15 10 16 11 17 15 18 12 19 13 20 14 22 16 23 17 24 32 25
REMARK SMILES IDX 18 26 22 27 31 28 24 29 19 30 21 31 23 32 30 33 25 34 20 35
REMARK SMILES IDX 29 36 26 37 27 38 28 39
REMARK H PARENT 34 11 12 21
ROOT
ATOM      1  C   UNL     1      44.166 132.410  15.707  1.00  0.00     0.057 C 
ATOM      2  C   UNL     1      44.849 133.751  15.710  1.00  0.00     0.054 C 
ENDROOT
BRANCH   1   3
ATOM      3  C   UNL     1      44.716 131.316  14.867  1.00  0.00     0.265 C 
ATOM      4  O   UNL     1      43.920 130.646  14.153  1.00  0.00    -0.268 OA
BRANCH   3   5
ATOM      5  N   UNL     1      46.120 130.962  14.887  1.00  0.00    -0.238 N 
BRANCH   5   6
ATOM      6  C   UNL     1      46.983 131.217  13.759  1.00  0.00     0.201 C 
BRANCH   6   7
ATOM      7  N   UNL     1      46.735 130.709  12.596  1.00  0.00    -0.291 NA
ATOM      8  H   UNL     1      47.078 129.756  12.345  1.00  0.00     0.189 HD
ENDBRANCH   6   7
ENDBRANCH   5   6
BRANCH   5   9
ATOM      9  C   UNL     1      46.659 130.328  16.066  1.00  0.00     0.198 C 
BRANCH   9  10
ATOM     10  O   UNL     1      47.820 129.561  15.968  1.00  0.00    -0.494 OA
ATOM     11  H   UNL     1      48.058 129.063  15.118  1.00  0.00     0.295 HD
ENDBRANCH   9  10
BRANCH   9  12
ATOM     12  C   UNL     1      46.081 130.475  17.258  1.00  0.00    -0.009 C 
ATOM     13  C   UNL     1      46.023 131.024  18.681  1.00  0.00     0.041 C 
ATOM     14  C   UNL     1      44.947 130.199  18.240  1.00  0.00     0.041 C 
ENDBRANCH   9  12
ENDBRANCH   5   9
ENDBRANCH   3   5
ENDBRANCH   1   3
BRANCH   1  15
ATOM     15  C   UNL     1      43.132 132.219  16.547  1.00  0.00     0.242 C 
BRANCH  15  16
ATOM     16  N   UNL     1      42.139 133.218  16.816  1.00  0.00    -0.101 N 
ATOM     17  N   UNL     1      40.984 133.277  16.170  1.00  0.00     0.093 NA
ATOM     18  C   UNL     1      42.107 134.130  17.817  1.00  0.00     0.207 A 
ATOM     19  N   UNL     1      40.215 134.214  16.703  1.00  0.00    -0.147 N 
ATOM     20  C   UNL     1      40.875 134.753  17.744  1.00  0.00     0.170 A 
ATOM     21  H   UNL     1      39.254 134.454  16.372  1.00  0.00     0.342 HD
ATOM     22  C   UNL     1      40.336 135.826  18.636  1.00  0.00     0.100 C 
BRANCH  18  23
ATOM     23  C   UNL     1      43.124 134.304  18.888  1.00  0.00     0.044 A 
ATOM     24  C   UNL     1      43.299 133.296  19.873  1.00  0.00    -0.006 A 
ATOM     25  C   UNL     1      43.951 135.460  18.911  1.00  0.00    -0.006 A 
ATOM     26  C   UNL     1      42.512 132.121  19.891  1.00  0.00     0.009 A 
ATOM     27  C   UNL     1      44.278 133.464  20.881  1.00  0.00    -0.017 A 
ATOM     28  C   UNL     1      43.845 136.460  17.919  1.00  0.00     0.009 A 
ATOM     29  C   UNL     1      44.923 135.618  19.936  1.00  0.00    -0.007 A 
ATOM     30  C   UNL     1      42.693 131.154  20.879  1.00  0.00     0.001 A 
ATOM     31  C   UNL     1      44.452 132.479  21.867  1.00  0.00     0.009 A 
ATOM     32  C   UNL     1      45.072 134.614  20.906  1.00  0.00     0.018 A 
ATOM     33  C   UNL     1      44.647 137.597  17.962  1.00  0.00     0.001 A 
ATOM     34  C   UNL     1      45.731 136.781  19.977  1.00  0.00     0.045 A 
ATOM     35  C   UNL     1      43.662 131.330  21.862  1.00  0.00     0.001 A 
ATOM     36  C   UNL     1      45.578 137.762  18.983  1.00  0.00     0.011 A 
BRANCH  34  37
ATOM     37  N   UNL     1      46.696 136.950  21.028  1.00  0.00    -0.060 NA
BRANCH  37  38
ATOM     38  N   UNL     1      47.856 136.544  20.937  1.00  0.00     0.005 N 
ATOM     39  N   UNL     1      49.013 136.138  20.845  1.00  0.00    -0.003 NA
ENDBRANCH  37  38
ENDBRANCH  34  37
ENDBRANCH  18  23
ENDBRANCH  15  16
ENDBRANCH   1  15
TORSDOF 12
ENDMDL


