MODEL 1
REMARK VINA RESULT:      -7.3      0.000      0.000
REMARK SMILES C#CC[N+](C)(C)Cc1c(C)cc(N2C[C@@H](C)[C@@H](C)[C@@H]2C)c2ccccc12
REMARK SMILES IDX 4 1 5 2 6 3 3 4 2 5 1 6 7 7 8 8 9 9 26 10 11 11 25 12 21 13
REMARK SMILES IDX 12 14 24 15 22 16 23 17 10 18 13 19 14 20 19 21 15 22 17 23
REMARK SMILES IDX 20 24 16 25 18 26
REMARK H PARENT
ROOT
ATOM      1  N   UNL     1      45.559 130.791  15.269  1.00  0.00    -0.315 N 
ATOM      2  C   UNL     1      46.137 132.157  15.191  1.00  0.00     0.335 C 
ATOM      3  C   UNL     1      46.602 129.891  15.823  1.00  0.00     0.335 C 
ENDROOT
BRANCH   1   4
ATOM      4  C   UNL     1      45.246 130.302  13.890  1.00  0.00     0.355 C 
BRANCH   4   5
ATOM      5  C   UNL     1      46.363 130.462  12.936  1.00  0.00    -0.047 C 
ATOM      6  C   UNL     1      47.274 130.593  12.157  1.00  0.00     0.010 C 
ENDBRANCH   4   5
ENDBRANCH   1   4
BRANCH   1   7
ATOM      7  C   UNL     1      44.318 130.735  16.120  1.00  0.00     0.302 C 
BRANCH   7   8
ATOM      8  C   UNL     1      43.875 132.078  16.737  1.00  0.00     0.017 A 
ATOM      9  C   UNL     1      44.269 132.420  18.065  1.00  0.00    -0.040 A 
ATOM     10  C   UNL     1      43.077 133.018  16.007  1.00  0.00    -0.007 A 
ATOM     11  C   UNL     1      44.068 133.721  18.541  1.00  0.00     0.030 A 
ATOM     12  C   UNL     1      42.438 132.685  14.786  1.00  0.00     0.009 A 
ATOM     13  C   UNL     1      42.890 134.335  16.517  1.00  0.00     0.006 A 
ATOM     14  C   UNL     1      43.418 134.681  17.773  1.00  0.00     0.045 A 
ATOM     15  C   UNL     1      41.717 133.636  14.065  1.00  0.00     0.001 A 
ATOM     16  C   UNL     1      42.173 135.286  15.761  1.00  0.00     0.011 A 
ATOM     17  C   UNL     1      41.599 134.936  14.542  1.00  0.00     0.001 A 
ATOM     18  C   UNL     1      44.867 131.418  19.026  1.00  0.00     0.045 C 
BRANCH  14  19
ATOM     19  N   UNL     1      43.240 135.996  18.320  1.00  0.00    -0.368 N 
ATOM     20  C   UNL     1      44.158 137.083  18.028  1.00  0.00     0.120 C 
ATOM     21  C   UNL     1      41.975 136.451  18.881  1.00  0.00     0.082 C 
ATOM     22  C   UNL     1      43.542 138.305  18.703  1.00  0.00     0.010 C 
ATOM     23  C   UNL     1      42.030 137.991  18.802  1.00  0.00     0.013 C 
ATOM     24  C   UNL     1      41.841 135.958  20.325  1.00  0.00     0.031 C 
ATOM     25  C   UNL     1      43.917 139.622  18.009  1.00  0.00     0.010 C 
ATOM     26  C   UNL     1      41.214 138.492  17.595  1.00  0.00     0.010 C 
ENDBRANCH  14  19
ENDBRANCH   7   8
ENDBRANCH   1   7
TORSDOF 5
ENDMDL
MODEL 2
REMARK VINA RESULT:      -7.2      1.307      2.226
REMARK SMILES C#CC[N+](C)(C)Cc1c(C)cc(N2C[C@@H](C)[C@@H](C)[C@@H]2C)c2ccccc12
REMARK SMILES IDX 4 1 5 2 6 3 3 4 2 5 1 6 7 7 8 8 9 9 26 10 11 11 25 12 21 13
REMARK SMILES IDX 12 14 24 15 22 16 23 17 10 18 13 19 14 20 19 21 15 22 17 23
REMARK SMILES IDX 20 24 16 25 18 26
REMARK H PARENT
ROOT
ATOM      1  N   UNL     1      45.796 130.764  15.074  1.00  0.00    -0.315 N 
ATOM      2  C   UNL     1      46.222 132.186  15.141  1.00  0.00     0.335 C 
ATOM      3  C   UNL     1      46.973 129.924  15.410  1.00  0.00     0.335 C 
ENDROOT
BRANCH   1   4
ATOM      4  C   UNL     1      45.405 130.427  13.670  1.00  0.00     0.355 C 
BRANCH   4   5
ATOM      5  C   UNL     1      46.525 130.493  12.709  1.00  0.00    -0.047 C 
ATOM      6  C   UNL     1      47.439 130.547  11.925  1.00  0.00     0.010 C 
ENDBRANCH   4   5
ENDBRANCH   1   4
BRANCH   1   7
ATOM      7  C   UNL     1      44.654 130.457  16.005  1.00  0.00     0.302 C 
BRANCH   7   8
ATOM      8  C   UNL     1      44.194 131.627  16.900  1.00  0.00     0.017 A 
ATOM      9  C   UNL     1      44.693 131.749  18.231  1.00  0.00    -0.040 A 
ATOM     10  C   UNL     1      43.276 132.622  16.430  1.00  0.00    -0.007 A 
ATOM     11  C   UNL     1      44.463 132.922  18.959  1.00  0.00     0.030 A 
ATOM     12  C   UNL     1      42.544 132.471  15.226  1.00  0.00     0.009 A 
ATOM     13  C   UNL     1      43.062 133.806  17.194  1.00  0.00     0.006 A 
ATOM     14  C   UNL     1      43.687 133.955  18.444  1.00  0.00     0.045 A 
ATOM     15  C   UNL     1      41.702 133.481  14.760  1.00  0.00     0.001 A 
ATOM     16  C   UNL     1      42.221 134.822  16.693  1.00  0.00     0.011 A 
ATOM     17  C   UNL     1      41.554 134.658  15.483  1.00  0.00     0.001 A 
ATOM     18  C   UNL     1      45.439 130.636  18.933  1.00  0.00     0.045 C 
BRANCH  14  19
ATOM     19  N   UNL     1      43.486 135.130  19.243  1.00  0.00    -0.368 N 
ATOM     20  C   UNL     1      42.369 135.256  20.161  1.00  0.00     0.120 C 
ATOM     21  C   UNL     1      44.541 136.106  19.487  1.00  0.00     0.082 C 
ATOM     22  C   UNL     1      42.600 136.584  20.876  1.00  0.00     0.010 C 
ATOM     23  C   UNL     1      44.124 136.832  20.784  1.00  0.00     0.013 C 
ATOM     24  C   UNL     1      44.640 137.070  18.301  1.00  0.00     0.031 C 
ATOM     25  C   UNL     1      41.992 136.616  22.286  1.00  0.00     0.010 C 
ATOM     26  C   UNL     1      44.915 136.275  21.982  1.00  0.00     0.010 C 
ENDBRANCH  14  19
ENDBRANCH   7   8
ENDBRANCH   1   7
TORSDOF 5
ENDMDL
MODEL 3
REMARK VINA RESULT:      -7.1      1.490      3.953
REMARK SMILES C#CC[N+](C)(C)Cc1c(C)cc(N2C[C@@H](C)[C@@H](C)[C@@H]2C)c2ccccc12
REMARK SMILES IDX 4 1 5 2 6 3 3 4 2 5 1 6 7 7 8 8 9 9 26 10 11 11 25 12 21 13
REMARK SMILES IDX 12 14 24 15 22 16 23 17 10 18 13 19 14 20 19 21 15 22 17 23
REMARK SMILES IDX 20 24 16 25 18 26
REMARK H PARENT
ROOT
ATOM      1  N   UNL     1      45.604 130.736  15.158  1.00  0.00    -0.315 N 
ATOM      2  C   UNL     1      46.065 132.142  15.291  1.00  0.00     0.335 C 
ATOM      3  C   UNL     1      46.736 129.852  15.534  1.00  0.00     0.335 C 
ENDROOT
BRANCH   1   4
ATOM      4  C   UNL     1      45.283 130.450  13.726  1.00  0.00     0.355 C 
BRANCH   4   5
ATOM      5  C   UNL     1      46.453 130.532  12.827  1.00  0.00    -0.047 C 
ATOM      6  C   UNL     1      47.407 130.600  12.094  1.00  0.00     0.010 C 
ENDBRANCH   4   5
ENDBRANCH   1   4
BRANCH   1   7
ATOM      7  C   UNL     1      44.403 130.438  16.016  1.00  0.00     0.302 C 
BRANCH   7   8
ATOM      8  C   UNL     1      43.953 131.581  16.950  1.00  0.00     0.017 A 
ATOM      9  C   UNL     1      43.016 132.553  16.490  1.00  0.00    -0.040 A 
ATOM     10  C   UNL     1      44.443 131.697  18.292  1.00  0.00    -0.007 A 
ATOM     11  C   UNL     1      42.434 133.447  17.396  1.00  0.00     0.030 A 
ATOM     12  C   UNL     1      45.541 130.937  18.768  1.00  0.00     0.009 A 
ATOM     13  C   UNL     1      43.831 132.617  19.192  1.00  0.00     0.006 A 
ATOM     14  C   UNL     1      42.805 133.464  18.737  1.00  0.00     0.045 A 
ATOM     15  C   UNL     1      45.958 131.025  20.096  1.00  0.00     0.001 A 
ATOM     16  C   UNL     1      44.257 132.674  20.535  1.00  0.00     0.011 A 
ATOM     17  C   UNL     1      45.308 131.878  20.980  1.00  0.00     0.001 A 
ATOM     18  C   UNL     1      42.640 132.705  15.033  1.00  0.00     0.045 C 
BRANCH  14  19
ATOM     19  N   UNL     1      42.174 134.408  19.615  1.00  0.00    -0.368 N 
ATOM     20  C   UNL     1      41.011 134.061  20.411  1.00  0.00     0.120 C 
ATOM     21  C   UNL     1      42.832 135.627  20.065  1.00  0.00     0.082 C 
ATOM     22  C   UNL     1      40.743 135.294  21.269  1.00  0.00     0.010 C 
ATOM     23  C   UNL     1      42.107 136.018  21.370  1.00  0.00     0.013 C 
ATOM     24  C   UNL     1      42.702 136.713  18.993  1.00  0.00     0.031 C 
ATOM     25  C   UNL     1      40.054 134.958  22.599  1.00  0.00     0.010 C 
ATOM     26  C   UNL     1      42.943 135.593  22.591  1.00  0.00     0.010 C 
ENDBRANCH  14  19
ENDBRANCH   7   8
ENDBRANCH   1   7
TORSDOF 5
ENDMDL
MODEL 4
REMARK VINA RESULT:      -7.0      1.389      3.302
REMARK SMILES C#CC[N+](C)(C)Cc1c(C)cc(N2C[C@@H](C)[C@@H](C)[C@@H]2C)c2ccccc12
REMARK SMILES IDX 4 1 5 2 6 3 3 4 2 5 1 6 7 7 8 8 9 9 26 10 11 11 25 12 21 13
REMARK SMILES IDX 12 14 24 15 22 16 23 17 10 18 13 19 14 20 19 21 15 22 17 23
REMARK SMILES IDX 20 24 16 25 18 26
REMARK H PARENT
ROOT
ATOM      1  N   UNL     1      45.510 130.776  15.214  1.00  0.00    -0.315 N 
ATOM      2  C   UNL     1      46.167 132.108  15.249  1.00  0.00     0.335 C 
ATOM      3  C   UNL     1      46.494 129.774  15.698  1.00  0.00     0.335 C 
ENDROOT
BRANCH   1   4
ATOM      4  C   UNL     1      45.181 130.419  13.799  1.00  0.00     0.355 C 
BRANCH   4   5
ATOM      5  C   UNL     1      46.337 130.502  12.882  1.00  0.00    -0.047 C 
ATOM      6  C   UNL     1      47.279 130.571  12.134  1.00  0.00     0.010 C 
ENDBRANCH   4   5
ENDBRANCH   1   4
BRANCH   1   7
ATOM      7  C   UNL     1      44.260 130.726  16.053  1.00  0.00     0.302 C 
BRANCH   7   8
ATOM      8  C   UNL     1      44.047 131.925  17.000  1.00  0.00     0.017 A 
ATOM      9  C   UNL     1      43.307 133.062  16.558  1.00  0.00    -0.040 A 
ATOM     10  C   UNL     1      44.565 131.933  18.336  1.00  0.00    -0.007 A 
ATOM     11  C   UNL     1      42.917 134.042  17.479  1.00  0.00     0.030 A 
ATOM     12  C   UNL     1      45.503 130.974  18.793  1.00  0.00     0.009 A 
ATOM     13  C   UNL     1      44.149 132.944  19.250  1.00  0.00     0.006 A 
ATOM     14  C   UNL     1      43.299 133.976  18.814  1.00  0.00     0.045 A 
ATOM     15  C   UNL     1      45.944 130.969  20.116  1.00  0.00     0.001 A 
ATOM     16  C   UNL     1      44.593 132.907  20.588  1.00  0.00     0.011 A 
ATOM     17  C   UNL     1      45.479 131.922  21.014  1.00  0.00     0.001 A 
ATOM     18  C   UNL     1      42.950 133.296  15.108  1.00  0.00     0.045 C 
BRANCH  14  19
ATOM     19  N   UNL     1      42.868 135.015  19.706  1.00  0.00    -0.368 N 
ATOM     20  C   UNL     1      43.619 136.245  19.876  1.00  0.00     0.120 C 
ATOM     21  C   UNL     1      41.505 135.102  20.214  1.00  0.00     0.082 C 
ATOM     22  C   UNL     1      42.763 137.100  20.806  1.00  0.00     0.010 C 
ATOM     23  C   UNL     1      41.318 136.581  20.613  1.00  0.00     0.013 C 
ATOM     24  C   UNL     1      41.337 134.162  21.412  1.00  0.00     0.031 C 
ATOM     25  C   UNL     1      42.975 138.606  20.597  1.00  0.00     0.010 C 
ATOM     26  C   UNL     1      40.532 137.331  19.521  1.00  0.00     0.010 C 
ENDBRANCH  14  19
ENDBRANCH   7   8
ENDBRANCH   1   7
TORSDOF 5
ENDMDL
MODEL 5
REMARK VINA RESULT:      -7.0      1.569      3.800
REMARK SMILES C#CC[N+](C)(C)Cc1c(C)cc(N2C[C@@H](C)[C@@H](C)[C@@H]2C)c2ccccc12
REMARK SMILES IDX 4 1 5 2 6 3 3 4 2 5 1 6 7 7 8 8 9 9 26 10 11 11 25 12 21 13
REMARK SMILES IDX 12 14 24 15 22 16 23 17 10 18 13 19 14 20 19 21 15 22 17 23
REMARK SMILES IDX 20 24 16 25 18 26
REMARK H PARENT
ROOT
ATOM      1  N   UNL     1      45.211 130.798  15.300  1.00  0.00    -0.315 N 
ATOM      2  C   UNL     1      46.256 131.848  15.419  1.00  0.00     0.335 C 
ATOM      3  C   UNL     1      45.792 129.525  15.795  1.00  0.00     0.335 C 
ENDROOT
BRANCH   1   4
ATOM      4  C   UNL     1      44.871 130.594  13.858  1.00  0.00     0.355 C 
BRANCH   4   5
ATOM      5  C   UNL     1      46.053 130.539  12.972  1.00  0.00    -0.047 C 
ATOM      6  C   UNL     1      47.016 130.493  12.249  1.00  0.00     0.010 C 
ENDBRANCH   4   5
ENDBRANCH   1   4
BRANCH   1   7
ATOM      7  C   UNL     1      43.962 131.135  16.071  1.00  0.00     0.302 C 
BRANCH   7   8
ATOM      8  C   UNL     1      44.068 132.358  17.006  1.00  0.00     0.017 A 
ATOM      9  C   UNL     1      43.633 133.641  16.558  1.00  0.00    -0.040 A 
ATOM     10  C   UNL     1      44.587 132.248  18.338  1.00  0.00    -0.007 A 
ATOM     11  C   UNL     1      43.512 134.696  17.470  1.00  0.00     0.030 A 
ATOM     12  C   UNL     1      45.260 131.088  18.798  1.00  0.00     0.009 A 
ATOM     13  C   UNL     1      44.450 133.340  19.244  1.00  0.00     0.006 A 
ATOM     14  C   UNL     1      43.881 134.548  18.803  1.00  0.00     0.045 A 
ATOM     15  C   UNL     1      45.701 130.985  20.116  1.00  0.00     0.001 A 
ATOM     16  C   UNL     1      44.886 133.204  20.578  1.00  0.00     0.011 A 
ATOM     17  C   UNL     1      45.501 132.032  21.007  1.00  0.00     0.001 A 
ATOM     18  C   UNL     1      43.328 133.943  15.108  1.00  0.00     0.045 C 
BRANCH  14  19
ATOM     19  N   UNL     1      43.736 135.669  19.687  1.00  0.00    -0.368 N 
ATOM     20  C   UNL     1      42.540 135.873  20.484  1.00  0.00     0.120 C 
ATOM     21  C   UNL     1      44.869 136.465  20.143  1.00  0.00     0.082 C 
ATOM     22  C   UNL     1      42.849 137.092  21.348  1.00  0.00     0.010 C 
ATOM     23  C   UNL     1      44.393 137.131  21.451  1.00  0.00     0.013 C 
ATOM     24  C   UNL     1      45.237 137.501  19.076  1.00  0.00     0.031 C 
ATOM     25  C   UNL     1      42.082 137.091  22.678  1.00  0.00     0.010 C 
ATOM     26  C   UNL     1      44.951 136.371  22.668  1.00  0.00     0.010 C 
ENDBRANCH  14  19
ENDBRANCH   7   8
ENDBRANCH   1   7
TORSDOF 5
ENDMDL
MODEL 6
REMARK VINA RESULT:      -7.0      2.201      3.836
REMARK SMILES C#CC[N+](C)(C)Cc1c(C)cc(N2C[C@@H](C)[C@@H](C)[C@@H]2C)c2ccccc12
REMARK SMILES IDX 4 1 5 2 6 3 3 4 2 5 1 6 7 7 8 8 9 9 26 10 11 11 25 12 21 13
REMARK SMILES IDX 12 14 24 15 22 16 23 17 10 18 13 19 14 20 19 21 15 22 17 23
REMARK SMILES IDX 20 24 16 25 18 26
REMARK H PARENT
ROOT
ATOM      1  N   UNL     1      45.907 130.407  15.458  1.00  0.00    -0.315 N 
ATOM      2  C   UNL     1      46.253 131.787  15.032  1.00  0.00     0.335 C 
ATOM      3  C   UNL     1      46.787 130.052  16.599  1.00  0.00     0.335 C 
ENDROOT
BRANCH   1   4
ATOM      4  C   UNL     1      46.219 129.450  14.350  1.00  0.00     0.355 C 
BRANCH   4   5
ATOM      5  C   UNL     1      46.782 130.098  13.148  1.00  0.00    -0.047 C 
ATOM      6  C   UNL     1      47.242 130.627  12.167  1.00  0.00     0.010 C 
ENDBRANCH   4   5
ENDBRANCH   1   4
BRANCH   1   7
ATOM      7  C   UNL     1      44.460 130.268  15.853  1.00  0.00     0.302 C 
BRANCH   7   8
ATOM      8  C   UNL     1      43.610 131.549  15.719  1.00  0.00     0.017 A 
ATOM      9  C   UNL     1      42.920 131.826  14.501  1.00  0.00    -0.040 A 
ATOM     10  C   UNL     1      43.475 132.482  16.798  1.00  0.00    -0.007 A 
ATOM     11  C   UNL     1      41.972 132.854  14.453  1.00  0.00     0.030 A 
ATOM     12  C   UNL     1      44.294 132.430  17.954  1.00  0.00     0.009 A 
ATOM     13  C   UNL     1      42.501 133.519  16.721  1.00  0.00     0.006 A 
ATOM     14  C   UNL     1      41.735 133.673  15.552  1.00  0.00     0.045 A 
ATOM     15  C   UNL     1      44.102 133.312  19.016  1.00  0.00     0.001 A 
ATOM     16  C   UNL     1      42.311 134.387  17.815  1.00  0.00     0.011 A 
ATOM     17  C   UNL     1      43.103 134.277  18.954  1.00  0.00     0.001 A 
ATOM     18  C   UNL     1      43.195 131.080  13.215  1.00  0.00     0.045 C 
BRANCH  14  19
ATOM     19  N   UNL     1      40.752 134.713  15.437  1.00  0.00    -0.368 N 
ATOM     20  C   UNL     1      41.091 136.048  14.979  1.00  0.00     0.120 C 
ATOM     21  C   UNL     1      39.320 134.442  15.399  1.00  0.00     0.082 C 
ATOM     22  C   UNL     1      39.757 136.784  14.897  1.00  0.00     0.010 C 
ATOM     23  C   UNL     1      38.696 135.673  14.708  1.00  0.00     0.013 C 
ATOM     24  C   UNL     1      38.790 134.257  16.824  1.00  0.00     0.031 C 
ATOM     25  C   UNL     1      39.758 137.906  13.849  1.00  0.00     0.010 C 
ATOM     26  C   UNL     1      38.388 135.357  13.233  1.00  0.00     0.010 C 
ENDBRANCH  14  19
ENDBRANCH   7   8
ENDBRANCH   1   7
TORSDOF 5
ENDMDL
MODEL 7
REMARK VINA RESULT:      -6.9      1.298      3.235
REMARK SMILES C#CC[N+](C)(C)Cc1c(C)cc(N2C[C@@H](C)[C@@H](C)[C@@H]2C)c2ccccc12
REMARK SMILES IDX 4 1 5 2 6 3 3 4 2 5 1 6 7 7 8 8 9 9 26 10 11 11 25 12 21 13
REMARK SMILES IDX 12 14 24 15 22 16 23 17 10 18 13 19 14 20 19 21 15 22 17 23
REMARK SMILES IDX 20 24 16 25 18 26
REMARK H PARENT
ROOT
ATOM      1  N   UNL     1      45.167 130.819  15.351  1.00  0.00    -0.315 N 
ATOM      2  C   UNL     1      46.214 131.869  15.443  1.00  0.00     0.335 C 
ATOM      3  C   UNL     1      45.749 129.553  15.864  1.00  0.00     0.335 C 
ENDROOT
BRANCH   1   4
ATOM      4  C   UNL     1      44.818 130.588  13.914  1.00  0.00     0.355 C 
BRANCH   4   5
ATOM      5  C   UNL     1      45.993 130.541  13.019  1.00  0.00    -0.047 C 
ATOM      6  C   UNL     1      46.951 130.502  12.289  1.00  0.00     0.010 C 
ENDBRANCH   4   5
ENDBRANCH   1   4
BRANCH   1   7
ATOM      7  C   UNL     1      43.923 131.171  16.123  1.00  0.00     0.302 C 
BRANCH   7   8
ATOM      8  C   UNL     1      44.044 132.397  17.053  1.00  0.00     0.017 A 
ATOM      9  C   UNL     1      43.622 133.682  16.602  1.00  0.00    -0.040 A 
ATOM     10  C   UNL     1      44.564 132.286  18.384  1.00  0.00    -0.007 A 
ATOM     11  C   UNL     1      43.514 134.742  17.510  1.00  0.00     0.030 A 
ATOM     12  C   UNL     1      45.224 131.120  18.847  1.00  0.00     0.009 A 
ATOM     13  C   UNL     1      44.440 133.381  19.287  1.00  0.00     0.006 A 
ATOM     14  C   UNL     1      43.884 134.594  18.843  1.00  0.00     0.045 A 
ATOM     15  C   UNL     1      45.667 131.015  20.165  1.00  0.00     0.001 A 
ATOM     16  C   UNL     1      44.877 133.245  20.621  1.00  0.00     0.011 A 
ATOM     17  C   UNL     1      45.479 132.068  21.053  1.00  0.00     0.001 A 
ATOM     18  C   UNL     1      43.319 133.984  15.151  1.00  0.00     0.045 C 
BRANCH  14  19
ATOM     19  N   UNL     1      43.753 135.720  19.723  1.00  0.00    -0.368 N 
ATOM     20  C   UNL     1      44.824 136.683  19.909  1.00  0.00     0.120 C 
ATOM     21  C   UNL     1      42.462 136.202  20.198  1.00  0.00     0.082 C 
ATOM     22  C   UNL     1      44.230 137.756  20.817  1.00  0.00     0.010 C 
ATOM     23  C   UNL     1      42.702 137.676  20.590  1.00  0.00     0.013 C 
ATOM     24  C   UNL     1      42.002 135.361  21.393  1.00  0.00     0.031 C 
ATOM     25  C   UNL     1      44.874 139.135  20.610  1.00  0.00     0.010 C 
ATOM     26  C   UNL     1      42.191 138.612  19.479  1.00  0.00     0.010 C 
ENDBRANCH  14  19
ENDBRANCH   7   8
ENDBRANCH   1   7
TORSDOF 5
ENDMDL
MODEL 8
REMARK VINA RESULT:      -6.8      1.318      3.136
REMARK SMILES C#CC[N+](C)(C)Cc1c(C)cc(N2C[C@@H](C)[C@@H](C)[C@@H]2C)c2ccccc12
REMARK SMILES IDX 4 1 5 2 6 3 3 4 2 5 1 6 7 7 8 8 9 9 26 10 11 11 25 12 21 13
REMARK SMILES IDX 12 14 24 15 22 16 23 17 10 18 13 19 14 20 19 21 15 22 17 23
REMARK SMILES IDX 20 24 16 25 18 26
REMARK H PARENT
ROOT
ATOM      1  N   UNL     1      45.493 130.721  15.314  1.00  0.00    -0.315 N 
ATOM      2  C   UNL     1      45.980 132.123  15.262  1.00  0.00     0.335 C 
ATOM      3  C   UNL     1      46.596 129.879  15.845  1.00  0.00     0.335 C 
ENDROOT
BRANCH   1   4
ATOM      4  C   UNL     1      45.205 130.241  13.927  1.00  0.00     0.355 C 
BRANCH   4   5
ATOM      5  C   UNL     1      46.322 130.452  12.982  1.00  0.00    -0.047 C 
ATOM      6  C   UNL     1      47.233 130.623  12.212  1.00  0.00     0.010 C 
ENDBRANCH   4   5
ENDBRANCH   1   4
BRANCH   1   7
ATOM      7  C   UNL     1      44.263 130.566  16.168  1.00  0.00     0.302 C 
BRANCH   7   8
ATOM      8  C   UNL     1      43.696 131.875  16.758  1.00  0.00     0.017 A 
ATOM      9  C   UNL     1      42.821 132.690  15.980  1.00  0.00    -0.040 A 
ATOM     10  C   UNL     1      44.012 132.303  18.089  1.00  0.00    -0.007 A 
ATOM     11  C   UNL     1      42.127 133.745  16.584  1.00  0.00     0.030 A 
ATOM     12  C   UNL     1      45.044 131.704  18.854  1.00  0.00     0.009 A 
ATOM     13  C   UNL     1      43.289 133.381  18.677  1.00  0.00     0.006 A 
ATOM     14  C   UNL     1      42.326 134.073  17.921  1.00  0.00     0.045 A 
ATOM     15  C   UNL     1      45.291 132.099  20.168  1.00  0.00     0.001 A 
ATOM     16  C   UNL     1      43.543 133.750  20.014  1.00  0.00     0.011 A 
ATOM     17  C   UNL     1      44.533 133.107  20.751  1.00  0.00     0.001 A 
ATOM     18  C   UNL     1      42.629 132.500  14.492  1.00  0.00     0.045 C 
BRANCH  14  19
ATOM     19  N   UNL     1      41.586 135.168  18.480  1.00  0.00    -0.368 N 
ATOM     20  C   UNL     1      42.086 136.531  18.451  1.00  0.00     0.120 C 
ATOM     21  C   UNL     1      40.161 135.088  18.772  1.00  0.00     0.082 C 
ATOM     22  C   UNL     1      40.956 137.374  19.034  1.00  0.00     0.010 C 
ATOM     23  C   UNL     1      39.669 136.551  18.783  1.00  0.00     0.013 C 
ATOM     24  C   UNL     1      39.946 134.404  20.125  1.00  0.00     0.031 C 
ATOM     25  C   UNL     1      40.952 138.815  18.504  1.00  0.00     0.010 C 
ATOM     26  C   UNL     1      38.969 136.887  17.453  1.00  0.00     0.010 C 
ENDBRANCH  14  19
ENDBRANCH   7   8
ENDBRANCH   1   7
TORSDOF 5
ENDMDL
MODEL 9
REMARK VINA RESULT:      -6.8      1.506      7.435
REMARK SMILES C#CC[N+](C)(C)Cc1c(C)cc(N2C[C@@H](C)[C@@H](C)[C@@H]2C)c2ccccc12
REMARK SMILES IDX 4 1 5 2 6 3 3 4 2 5 1 6 7 7 8 8 9 9 26 10 11 11 25 12 21 13
REMARK SMILES IDX 12 14 24 15 22 16 23 17 10 18 13 19 14 20 19 21 15 22 17 23
REMARK SMILES IDX 20 24 16 25 18 26
REMARK H PARENT
ROOT
ATOM      1  N   UNL     1      42.309 136.106  20.036  1.00  0.00    -0.315 N 
ATOM      2  C   UNL     1      41.276 135.487  19.167  1.00  0.00     0.335 C 
ATOM      3  C   UNL     1      42.260 135.422  21.353  1.00  0.00     0.335 C 
ENDROOT
BRANCH   1   4
ATOM      4  C   UNL     1      41.964 137.542  20.276  1.00  0.00     0.355 C 
BRANCH   4   5
ATOM      5  C   UNL     1      42.814 138.490  19.527  1.00  0.00    -0.047 C 
ATOM      6  C   UNL     1      43.507 139.263  18.916  1.00  0.00     0.010 C 
ENDBRANCH   4   5
ENDBRANCH   1   4
BRANCH   1   7
ATOM      7  C   UNL     1      43.692 136.009  19.450  1.00  0.00     0.302 C 
BRANCH   7   8
ATOM      8  C   UNL     1      43.886 134.912  18.382  1.00  0.00     0.017 A 
ATOM      9  C   UNL     1      43.741 135.227  16.998  1.00  0.00    -0.040 A 
ATOM     10  C   UNL     1      44.225 133.565  18.736  1.00  0.00    -0.007 A 
ATOM     11  C   UNL     1      44.138 134.302  16.026  1.00  0.00     0.030 A 
ATOM     12  C   UNL     1      44.162 133.091  20.071  1.00  0.00     0.009 A 
ATOM     13  C   UNL     1      44.626 132.646  17.723  1.00  0.00     0.006 A 
ATOM     14  C   UNL     1      44.606 133.040  16.374  1.00  0.00     0.045 A 
ATOM     15  C   UNL     1      44.555 131.794  20.396  1.00  0.00     0.001 A 
ATOM     16  C   UNL     1      45.038 131.345  18.079  1.00  0.00     0.011 A 
ATOM     17  C   UNL     1      45.006 130.929  19.406  1.00  0.00     0.001 A 
ATOM     18  C   UNL     1      43.125 136.519  16.512  1.00  0.00     0.045 C 
BRANCH  14  19
ATOM     19  N   UNL     1      44.995 132.136  15.328  1.00  0.00    -0.368 N 
ATOM     20  C   UNL     1      46.378 131.990  14.911  1.00  0.00     0.120 C 
ATOM     21  C   UNL     1      44.140 131.049  14.869  1.00  0.00     0.082 C 
ATOM     22  C   UNL     1      46.356 130.866  13.879  1.00  0.00     0.010 C 
ATOM     23  C   UNL     1      45.100 130.029  14.220  1.00  0.00     0.013 C 
ATOM     24  C   UNL     1      43.114 131.584  13.866  1.00  0.00     0.031 C 
ATOM     25  C   UNL     1      47.683 130.096  13.807  1.00  0.00     0.010 C 
ATOM     26  C   UNL     1      45.377 128.866  15.191  1.00  0.00     0.010 C 
ENDBRANCH  14  19
ENDBRANCH   7   8
ENDBRANCH   1   7
TORSDOF 5
ENDMDL


