MODEL 1
REMARK VINA RESULT:      -8.8      0.000      0.000
REMARK SMILES CC/C=C(/O)OC1=NC(=O)c2ccc(-n3cc(CCc4ccc(F)cc4C)n[nH+]3)c3cccc1c23
REMARK SMILES IDX 7 1 8 2 9 3 10 4 11 5 12 6 13 7 14 8 30 9 31 10 32 11 33 12
REMARK SMILES IDX 34 13 35 14 6 15 4 16 5 17 3 19 2 20 1 21 15 22 16 23 29 24
REMARK SMILES IDX 17 25 28 26 18 28 19 29 20 30 21 31 26 32 22 33 25 34 23 35
REMARK SMILES IDX 27 36 24 37
REMARK H PARENT 5 18 29 27
ROOT
ATOM      1  C   UNL     1      45.690 130.810  17.088  1.00  0.00     0.234 C 
ATOM      2  N   UNL     1      45.919 130.632  18.357  1.00  0.00    -0.172 NA
ATOM      3  C   UNL     1      45.023 131.098  19.372  1.00  0.00     0.280 C 
ATOM      4  O   UNL     1      45.297 130.897  20.585  1.00  0.00    -0.267 OA
ATOM      5  C   UNL     1      43.788 131.805  18.975  1.00  0.00     0.051 A 
ATOM      6  C   UNL     1      42.865 132.260  19.926  1.00  0.00     0.017 A 
ATOM      7  C   UNL     1      41.712 132.930  19.519  1.00  0.00     0.034 A 
ATOM      8  C   UNL     1      41.462 133.173  18.162  1.00  0.00     0.115 A 
ATOM      9  C   UNL     1      42.372 132.695  17.187  1.00  0.00     0.013 A 
ATOM     10  C   UNL     1      42.132 132.853  15.809  1.00  0.00     0.011 A 
ATOM     11  C   UNL     1      43.045 132.372  14.868  1.00  0.00     0.002 A 
ATOM     12  C   UNL     1      44.202 131.714  15.279  1.00  0.00     0.014 A 
ATOM     13  C   UNL     1      44.461 131.522  16.644  1.00  0.00     0.046 A 
ATOM     14  C   UNL     1      43.542 132.009  17.604  1.00  0.00     0.009 A 
ENDROOT
BRANCH   1  15
ATOM     15  O   UNL     1      46.585 130.330  16.121  1.00  0.00    -0.407 OA
BRANCH  15  16
ATOM     16  C   UNL     1      46.325 129.299  15.205  1.00  0.00     0.279 C 
BRANCH  16  17
ATOM     17  O   UNL     1      45.330 128.353  15.461  1.00  0.00    -0.481 OA
ATOM     18  H   UNL     1      45.549 127.403  15.741  1.00  0.00     0.296 HD
ENDBRANCH  16  17
BRANCH  16  19
ATOM     19  C   UNL     1      47.041 129.220  14.077  1.00  0.00     0.061 C 
BRANCH  19  20
ATOM     20  C   UNL     1      46.850 130.170  12.927  1.00  0.00     0.031 C 
ATOM     21  C   UNL     1      47.820 131.346  13.004  1.00  0.00     0.008 C 
ENDBRANCH  19  20
ENDBRANCH  16  19
ENDBRANCH  15  16
ENDBRANCH   1  15
BRANCH   8  22
ATOM     22  N   UNL     1      40.298 133.930  17.802  1.00  0.00    -0.104 N 
ATOM     23  C   UNL     1      39.913 134.282  16.563  1.00  0.00     0.190 A 
ATOM     24  N   UNL     1      39.464 134.495  18.663  1.00  0.00    -0.012 N 
ATOM     25  C   UNL     1      38.796 135.076  16.720  1.00  0.00     0.133 A 
ATOM     26  N   UNL     1      38.527 135.191  18.038  1.00  0.00     0.020 NA
ATOM     27  H   UNL     1      39.522 134.393  19.699  1.00  0.00     0.527 HD
BRANCH  25  28
ATOM     28  C   UNL     1      37.957 135.664  15.628  1.00  0.00     0.069 C 
BRANCH  28  29
ATOM     29  C   UNL     1      38.809 136.129  14.439  1.00  0.00     0.042 C 
BRANCH  29  30
ATOM     30  C   UNL     1      38.180 135.763  13.108  1.00  0.00    -0.044 A 
ATOM     31  C   UNL     1      37.647 134.470  12.956  1.00  0.00     0.007 A 
ATOM     32  C   UNL     1      38.093 136.678  12.024  1.00  0.00    -0.045 A 
ATOM     33  C   UNL     1      37.040 134.083  11.761  1.00  0.00     0.039 A 
ATOM     34  C   UNL     1      37.485 136.266  10.824  1.00  0.00     0.043 A 
ATOM     35  C   UNL     1      36.958 134.980  10.697  1.00  0.00     0.123 A 
ATOM     36  C   UNL     1      38.652 138.075  12.110  1.00  0.00     0.045 C 
ATOM     37  F   UNL     1      36.375 134.600   9.535  1.00  0.00    -0.207 F 
ENDBRANCH  29  30
ENDBRANCH  28  29
ENDBRANCH  25  28
ENDBRANCH   8  22
TORSDOF 9
ENDMDL
MODEL 2
REMARK VINA RESULT:      -8.7      1.507      1.853
REMARK SMILES CC/C=C(/O)OC1=NC(=O)c2ccc(-n3cc(CCc4ccc(F)cc4C)n[nH+]3)c3cccc1c23
REMARK SMILES IDX 7 1 8 2 9 3 10 4 11 5 12 6 13 7 14 8 30 9 31 10 32 11 33 12
REMARK SMILES IDX 34 13 35 14 6 15 4 16 5 17 3 19 2 20 1 21 15 22 16 23 29 24
REMARK SMILES IDX 17 25 28 26 18 28 19 29 20 30 21 31 26 32 22 33 25 34 23 35
REMARK SMILES IDX 27 36 24 37
REMARK H PARENT 5 18 29 27
ROOT
ATOM      1  C   UNL     1      45.500 130.374  16.566  1.00  0.00     0.234 C 
ATOM      2  N   UNL     1      45.705 130.624  17.828  1.00  0.00    -0.172 NA
ATOM      3  C   UNL     1      44.933 131.585  18.556  1.00  0.00     0.280 C 
ATOM      4  O   UNL     1      45.177 131.786  19.776  1.00  0.00    -0.267 OA
ATOM      5  C   UNL     1      43.859 132.324  17.861  1.00  0.00     0.051 A 
ATOM      6  C   UNL     1      43.058 133.257  18.531  1.00  0.00     0.017 A 
ATOM      7  C   UNL     1      42.056 133.943  17.846  1.00  0.00     0.034 A 
ATOM      8  C   UNL     1      41.842 133.725  16.478  1.00  0.00     0.115 A 
ATOM      9  C   UNL     1      42.626 132.765  15.792  1.00  0.00     0.013 A 
ATOM     10  C   UNL     1      42.404 132.460  14.436  1.00  0.00     0.011 A 
ATOM     11  C   UNL     1      43.191 131.508  13.783  1.00  0.00     0.002 A 
ATOM     12  C   UNL     1      44.199 130.834  14.469  1.00  0.00     0.014 A 
ATOM     13  C   UNL     1      44.432 131.100  15.827  1.00  0.00     0.046 A 
ATOM     14  C   UNL     1      43.641 132.064  16.494  1.00  0.00     0.009 A 
ENDROOT
BRANCH   1  15
ATOM     15  O   UNL     1      46.269 129.418  15.888  1.00  0.00    -0.407 OA
BRANCH  15  16
ATOM     16  C   UNL     1      47.137 129.677  14.816  1.00  0.00     0.279 C 
BRANCH  16  17
ATOM     17  O   UNL     1      47.800 128.633  14.167  1.00  0.00    -0.481 OA
ATOM     18  H   UNL     1      48.622 128.189  14.561  1.00  0.00     0.296 HD
ENDBRANCH  16  17
BRANCH  16  19
ATOM     19  C   UNL     1      47.333 130.939  14.414  1.00  0.00     0.061 C 
BRANCH  19  20
ATOM     20  C   UNL     1      47.854 131.283  13.046  1.00  0.00     0.031 C 
ATOM     21  C   UNL     1      46.993 130.664  11.947  1.00  0.00     0.008 C 
ENDBRANCH  19  20
ENDBRANCH  16  19
ENDBRANCH  15  16
ENDBRANCH   1  15
BRANCH   8  22
ATOM     22  N   UNL     1      40.848 134.509  15.804  1.00  0.00    -0.104 N 
ATOM     23  C   UNL     1      41.008 135.732  15.271  1.00  0.00     0.190 A 
ATOM     24  N   UNL     1      39.569 134.180  15.693  1.00  0.00    -0.012 N 
ATOM     25  C   UNL     1      39.762 136.119  14.821  1.00  0.00     0.133 A 
ATOM     26  N   UNL     1      38.879 135.133  15.087  1.00  0.00     0.020 NA
ATOM     27  H   UNL     1      39.157 133.281  16.023  1.00  0.00     0.527 HD
BRANCH  25  28
ATOM     28  C   UNL     1      39.429 137.382  14.087  1.00  0.00     0.069 C 
BRANCH  28  29
ATOM     29  C   UNL     1      38.000 137.358  13.527  1.00  0.00     0.042 C 
BRANCH  29  30
ATOM     30  C   UNL     1      37.976 137.111  12.031  1.00  0.00    -0.044 A 
ATOM     31  C   UNL     1      37.938 135.779  11.577  1.00  0.00     0.007 A 
ATOM     32  C   UNL     1      37.971 138.165  11.079  1.00  0.00    -0.045 A 
ATOM     33  C   UNL     1      37.896 135.489  10.213  1.00  0.00     0.039 A 
ATOM     34  C   UNL     1      37.938 137.852   9.708  1.00  0.00     0.043 A 
ATOM     35  C   UNL     1      37.895 136.524   9.280  1.00  0.00     0.123 A 
ATOM     36  C   UNL     1      38.023 139.614  11.490  1.00  0.00     0.045 C 
ATOM     37  F   UNL     1      37.861 136.242   7.955  1.00  0.00    -0.207 F 
ENDBRANCH  29  30
ENDBRANCH  28  29
ENDBRANCH  25  28
ENDBRANCH   8  22
TORSDOF 9
ENDMDL
MODEL 3
REMARK VINA RESULT:      -8.4      1.791      2.183
REMARK SMILES CC/C=C(/O)OC1=NC(=O)c2ccc(-n3cc(CCc4ccc(F)cc4C)n[nH+]3)c3cccc1c23
REMARK SMILES IDX 7 1 8 2 9 3 10 4 11 5 12 6 13 7 14 8 30 9 31 10 32 11 33 12
REMARK SMILES IDX 34 13 35 14 6 15 4 16 5 17 3 19 2 20 1 21 15 22 16 23 29 24
REMARK SMILES IDX 17 25 28 26 18 28 19 29 20 30 21 31 26 32 22 33 25 34 23 35
REMARK SMILES IDX 27 36 24 37
REMARK H PARENT 5 18 29 27
ROOT
ATOM      1  C   UNL     1      45.090 130.720  16.689  1.00  0.00     0.234 C 
ATOM      2  N   UNL     1      45.586 130.483  17.870  1.00  0.00    -0.172 NA
ATOM      3  C   UNL     1      45.239 131.263  19.020  1.00  0.00     0.280 C 
ATOM      4  O   UNL     1      45.752 130.989  20.137  1.00  0.00    -0.267 OA
ATOM      5  C   UNL     1      44.280 132.378  18.873  1.00  0.00     0.051 A 
ATOM      6  C   UNL     1      43.887 133.157  19.969  1.00  0.00     0.017 A 
ATOM      7  C   UNL     1      42.985 134.205  19.797  1.00  0.00     0.034 A 
ATOM      8  C   UNL     1      42.469 134.509  18.530  1.00  0.00     0.115 A 
ATOM      9  C   UNL     1      42.836 133.714  17.417  1.00  0.00     0.013 A 
ATOM     10  C   UNL     1      42.291 133.935  16.137  1.00  0.00     0.011 A 
ATOM     11  C   UNL     1      42.669 133.136  15.056  1.00  0.00     0.002 A 
ATOM     12  C   UNL     1      43.580 132.096  15.230  1.00  0.00     0.014 A 
ATOM     13  C   UNL     1      44.125 131.836  16.496  1.00  0.00     0.046 A 
ATOM     14  C   UNL     1      43.749 132.643  17.596  1.00  0.00     0.009 A 
ENDROOT
BRANCH   1  15
ATOM     15  O   UNL     1      45.445 129.928  15.588  1.00  0.00    -0.407 OA
BRANCH  15  16
ATOM     16  C   UNL     1      46.670 129.979  14.906  1.00  0.00     0.279 C 
BRANCH  16  17
ATOM     17  O   UNL     1      47.850 129.565  15.527  1.00  0.00    -0.481 OA
ATOM     18  H   UNL     1      47.862 128.831  16.227  1.00  0.00     0.296 HD
ENDBRANCH  16  17
BRANCH  16  19
ATOM     19  C   UNL     1      46.708 130.432  13.647  1.00  0.00     0.061 C 
BRANCH  19  20
ATOM     20  C   UNL     1      47.755 129.999  12.659  1.00  0.00     0.031 C 
ATOM     21  C   UNL     1      47.451 130.517  11.255  1.00  0.00     0.008 C 
ENDBRANCH  19  20
ENDBRANCH  16  19
ENDBRANCH  15  16
ENDBRANCH   1  15
BRANCH   8  22
ATOM     22  N   UNL     1      41.601 135.644  18.395  1.00  0.00    -0.104 N 
ATOM     23  C   UNL     1      40.267 135.626  18.231  1.00  0.00     0.190 A 
ATOM     24  N   UNL     1      42.006 136.902  18.308  1.00  0.00    -0.012 N 
ATOM     25  C   UNL     1      39.886 136.941  18.055  1.00  0.00     0.133 A 
ATOM     26  N   UNL     1      40.985 137.722  18.114  1.00  0.00     0.020 NA
ATOM     27  H   UNL     1      42.997 137.215  18.397  1.00  0.00     0.527 HD
BRANCH  25  28
ATOM     28  C   UNL     1      38.487 137.453  17.899  1.00  0.00     0.069 C 
BRANCH  28  29
ATOM     29  C   UNL     1      38.196 137.890  16.457  1.00  0.00     0.042 C 
BRANCH  29  30
ATOM     30  C   UNL     1      38.174 136.716  15.497  1.00  0.00    -0.044 A 
ATOM     31  C   UNL     1      37.084 135.827  15.556  1.00  0.00     0.007 A 
ATOM     32  C   UNL     1      39.195 136.493  14.534  1.00  0.00    -0.045 A 
ATOM     33  C   UNL     1      37.000 134.740  14.686  1.00  0.00     0.039 A 
ATOM     34  C   UNL     1      39.096 135.386  13.672  1.00  0.00     0.043 A 
ATOM     35  C   UNL     1      38.004 134.520  13.744  1.00  0.00     0.123 A 
ATOM     36  C   UNL     1      40.397 137.395  14.420  1.00  0.00     0.045 C 
ATOM     37  F   UNL     1      37.925 133.460  12.905  1.00  0.00    -0.207 F 
ENDBRANCH  29  30
ENDBRANCH  28  29
ENDBRANCH  25  28
ENDBRANCH   8  22
TORSDOF 9
ENDMDL
MODEL 4
REMARK VINA RESULT:      -8.3      4.991      8.130
REMARK SMILES CC/C=C(/O)OC1=NC(=O)c2ccc(-n3cc(CCc4ccc(F)cc4C)n[nH+]3)c3cccc1c23
REMARK SMILES IDX 7 1 8 2 9 3 10 4 11 5 12 6 13 7 14 8 30 9 31 10 32 11 33 12
REMARK SMILES IDX 34 13 35 14 6 15 4 16 5 17 3 19 2 20 1 21 15 22 16 23 29 24
REMARK SMILES IDX 17 25 28 26 18 28 19 29 20 30 21 31 26 32 22 33 25 34 23 35
REMARK SMILES IDX 27 36 24 37
REMARK H PARENT 5 18 29 27
ROOT
ATOM      1  C   UNL     1      44.324 130.737  15.800  1.00  0.00     0.234 C 
ATOM      2  N   UNL     1      43.542 131.173  14.854  1.00  0.00    -0.172 NA
ATOM      3  C   UNL     1      42.717 132.332  15.013  1.00  0.00     0.280 C 
ATOM      4  O   UNL     1      41.978 132.707  14.063  1.00  0.00    -0.267 OA
ATOM      5  C   UNL     1      42.749 133.071  16.292  1.00  0.00     0.051 A 
ATOM      6  C   UNL     1      41.981 134.225  16.492  1.00  0.00     0.017 A 
ATOM      7  C   UNL     1      42.028 134.897  17.713  1.00  0.00     0.034 A 
ATOM      8  C   UNL     1      42.829 134.425  18.762  1.00  0.00     0.115 A 
ATOM      9  C   UNL     1      43.632 133.275  18.566  1.00  0.00     0.013 A 
ATOM     10  C   UNL     1      44.504 132.803  19.565  1.00  0.00     0.011 A 
ATOM     11  C   UNL     1      45.287 131.666  19.346  1.00  0.00     0.002 A 
ATOM     12  C   UNL     1      45.227 130.991  18.129  1.00  0.00     0.014 A 
ATOM     13  C   UNL     1      44.383 131.448  17.106  1.00  0.00     0.046 A 
ATOM     14  C   UNL     1      43.586 132.597  17.320  1.00  0.00     0.009 A 
ENDROOT
BRANCH   1  15
ATOM     15  O   UNL     1      45.126 129.604  15.605  1.00  0.00    -0.407 OA
BRANCH  15  16
ATOM     16  C   UNL     1      46.473 129.614  15.209  1.00  0.00     0.279 C 
BRANCH  16  17
ATOM     17  O   UNL     1      47.493 129.753  16.152  1.00  0.00    -0.481 OA
ATOM     18  H   UNL     1      48.393 129.300  16.044  1.00  0.00     0.296 HD
ENDBRANCH  16  17
BRANCH  16  19
ATOM     19  C   UNL     1      46.781 129.492  13.912  1.00  0.00     0.061 C 
BRANCH  19  20
ATOM     20  C   UNL     1      46.445 130.547  12.895  1.00  0.00     0.031 C 
ATOM     21  C   UNL     1      47.428 130.533  11.727  1.00  0.00     0.008 C 
ENDBRANCH  19  20
ENDBRANCH  16  19
ENDBRANCH  15  16
ENDBRANCH   1  15
BRANCH   8  22
ATOM     22  N   UNL     1      42.786 135.112  20.021  1.00  0.00    -0.104 N 
ATOM     23  C   UNL     1      43.684 135.995  20.492  1.00  0.00     0.190 A 
ATOM     24  N   UNL     1      41.889 134.897  20.972  1.00  0.00    -0.012 N 
ATOM     25  C   UNL     1      43.274 136.312  21.771  1.00  0.00     0.133 A 
ATOM     26  N   UNL     1      42.147 135.622  22.049  1.00  0.00     0.020 NA
ATOM     27  H   UNL     1      41.072 134.254  20.884  1.00  0.00     0.527 HD
BRANCH  25  28
ATOM     28  C   UNL     1      43.909 137.309  22.691  1.00  0.00     0.069 C 
BRANCH  28  29
ATOM     29  C   UNL     1      45.200 137.891  22.100  1.00  0.00     0.042 C 
BRANCH  29  30
ATOM     30  C   UNL     1      46.383 136.959  22.282  1.00  0.00    -0.044 A 
ATOM     31  C   UNL     1      46.450 136.190  23.459  1.00  0.00     0.007 A 
ATOM     32  C   UNL     1      47.407 136.820  21.307  1.00  0.00    -0.045 A 
ATOM     33  C   UNL     1      47.505 135.302  23.673  1.00  0.00     0.039 A 
ATOM     34  C   UNL     1      48.467 135.927  21.546  1.00  0.00     0.043 A 
ATOM     35  C   UNL     1      48.511 135.170  22.718  1.00  0.00     0.123 A 
ATOM     36  C   UNL     1      47.408 137.619  20.029  1.00  0.00     0.045 C 
ATOM     37  F   UNL     1      49.538 134.313  22.930  1.00  0.00    -0.207 F 
ENDBRANCH  29  30
ENDBRANCH  28  29
ENDBRANCH  25  28
ENDBRANCH   8  22
TORSDOF 9
ENDMDL
MODEL 5
REMARK VINA RESULT:      -8.1      2.243      2.968
REMARK SMILES CC/C=C(/O)OC1=NC(=O)c2ccc(-n3cc(CCc4ccc(F)cc4C)n[nH+]3)c3cccc1c23
REMARK SMILES IDX 7 1 8 2 9 3 10 4 11 5 12 6 13 7 14 8 30 9 31 10 32 11 33 12
REMARK SMILES IDX 34 13 35 14 6 15 4 16 5 17 3 19 2 20 1 21 15 22 16 23 29 24
REMARK SMILES IDX 17 25 28 26 18 28 19 29 20 30 21 31 26 32 22 33 25 34 23 35
REMARK SMILES IDX 27 36 24 37
REMARK H PARENT 5 18 29 27
ROOT
ATOM      1  C   UNL     1      45.393 131.269  16.792  1.00  0.00     0.234 C 
ATOM      2  N   UNL     1      45.935 130.789  17.875  1.00  0.00    -0.172 NA
ATOM      3  C   UNL     1      45.355 130.975  19.171  1.00  0.00     0.280 C 
ATOM      4  O   UNL     1      45.924 130.489  20.184  1.00  0.00    -0.267 OA
ATOM      5  C   UNL     1      44.094 131.735  19.295  1.00  0.00     0.051 A 
ATOM      6  C   UNL     1      43.471 131.927  20.535  1.00  0.00     0.017 A 
ATOM      7  C   UNL     1      42.285 132.654  20.620  1.00  0.00     0.034 A 
ATOM      8  C   UNL     1      41.704 133.217  19.476  1.00  0.00     0.115 A 
ATOM      9  C   UNL     1      42.307 133.010  18.211  1.00  0.00     0.013 A 
ATOM     10  C   UNL     1      41.726 133.496  17.025  1.00  0.00     0.011 A 
ATOM     11  C   UNL     1      42.340 133.278  15.790  1.00  0.00     0.002 A 
ATOM     12  C   UNL     1      43.532 132.561  15.711  1.00  0.00     0.014 A 
ATOM     13  C   UNL     1      44.126 132.045  16.872  1.00  0.00     0.046 A 
ATOM     14  C   UNL     1      43.511 132.264  18.127  1.00  0.00     0.009 A 
ENDROOT
BRANCH   1  15
ATOM     15  O   UNL     1      45.984 131.057  15.538  1.00  0.00    -0.407 OA
BRANCH  15  16
ATOM     16  C   UNL     1      45.723 129.974  14.683  1.00  0.00     0.279 C 
BRANCH  16  17
ATOM     17  O   UNL     1      45.437 128.710  15.202  1.00  0.00    -0.481 OA
ATOM     18  H   UNL     1      46.097 128.203  15.782  1.00  0.00     0.296 HD
ENDBRANCH  16  17
BRANCH  16  19
ATOM     19  C   UNL     1      45.753 130.157  13.358  1.00  0.00     0.061 C 
BRANCH  19  20
ATOM     20  C   UNL     1      47.036 130.216  12.575  1.00  0.00     0.031 C 
ATOM     21  C   UNL     1      47.945 131.337  13.073  1.00  0.00     0.008 C 
ENDBRANCH  19  20
ENDBRANCH  16  19
ENDBRANCH  15  16
ENDBRANCH   1  15
BRANCH   8  22
ATOM     22  N   UNL     1      40.523 134.018  19.628  1.00  0.00    -0.104 N 
ATOM     23  C   UNL     1      39.399 133.948  18.894  1.00  0.00     0.190 A 
ATOM     24  N   UNL     1      40.400 135.036  20.467  1.00  0.00    -0.012 N 
ATOM     25  C   UNL     1      38.585 134.968  19.343  1.00  0.00     0.133 A 
ATOM     26  N   UNL     1      39.225 135.630  20.330  1.00  0.00     0.020 NA
ATOM     27  H   UNL     1      41.123 135.325  21.160  1.00  0.00     0.527 HD
BRANCH  25  28
ATOM     28  C   UNL     1      37.191 135.267  18.884  1.00  0.00     0.069 C 
BRANCH  28  29
ATOM     29  C   UNL     1      37.145 136.483  17.949  1.00  0.00     0.042 C 
BRANCH  29  30
ATOM     30  C   UNL     1      38.290 136.482  16.954  1.00  0.00    -0.044 A 
ATOM     31  C   UNL     1      39.430 137.253  17.251  1.00  0.00     0.007 A 
ATOM     32  C   UNL     1      38.263 135.723  15.753  1.00  0.00    -0.045 A 
ATOM     33  C   UNL     1      40.522 137.278  16.383  1.00  0.00     0.039 A 
ATOM     34  C   UNL     1      39.370 135.768  14.887  1.00  0.00     0.043 A 
ATOM     35  C   UNL     1      40.493 136.536  15.203  1.00  0.00     0.123 A 
ATOM     36  C   UNL     1      37.073 134.885  15.364  1.00  0.00     0.045 C 
ATOM     37  F   UNL     1      41.550 136.565  14.357  1.00  0.00    -0.207 F 
ENDBRANCH  29  30
ENDBRANCH  28  29
ENDBRANCH  25  28
ENDBRANCH   8  22
TORSDOF 9
ENDMDL
MODEL 6
REMARK VINA RESULT:      -7.5      4.275      7.719
REMARK SMILES CC/C=C(/O)OC1=NC(=O)c2ccc(-n3cc(CCc4ccc(F)cc4C)n[nH+]3)c3cccc1c23
REMARK SMILES IDX 7 1 8 2 9 3 10 4 11 5 12 6 13 7 14 8 30 9 31 10 32 11 33 12
REMARK SMILES IDX 34 13 35 14 6 15 4 16 5 17 3 19 2 20 1 21 15 22 16 23 29 24
REMARK SMILES IDX 17 25 28 26 18 28 19 29 20 30 21 31 26 32 22 33 25 34 23 35
REMARK SMILES IDX 27 36 24 37
REMARK H PARENT 5 18 29 27
ROOT
ATOM      1  C   UNL     1      43.915 131.738  14.713  1.00  0.00     0.234 C 
ATOM      2  N   UNL     1      42.880 132.060  13.989  1.00  0.00    -0.172 NA
ATOM      3  C   UNL     1      41.765 132.782  14.522  1.00  0.00     0.280 C 
ATOM      4  O   UNL     1      40.791 133.065  13.775  1.00  0.00    -0.267 OA
ATOM      5  C   UNL     1      41.778 133.184  15.944  1.00  0.00     0.051 A 
ATOM      6  C   UNL     1      40.724 133.912  16.511  1.00  0.00     0.017 A 
ATOM      7  C   UNL     1      40.764 134.271  17.857  1.00  0.00     0.034 A 
ATOM      8  C   UNL     1      41.845 133.901  18.669  1.00  0.00     0.115 A 
ATOM      9  C   UNL     1      42.930 133.188  18.104  1.00  0.00     0.013 A 
ATOM     10  C   UNL     1      44.070 132.853  18.860  1.00  0.00     0.011 A 
ATOM     11  C   UNL     1      45.128 132.150  18.280  1.00  0.00     0.002 A 
ATOM     12  C   UNL     1      45.078 131.782  16.937  1.00  0.00     0.014 A 
ATOM     13  C   UNL     1      43.967 132.119  16.150  1.00  0.00     0.046 A 
ATOM     14  C   UNL     1      42.890 132.829  16.732  1.00  0.00     0.009 A 
ENDROOT
BRANCH   1  15
ATOM     15  O   UNL     1      44.994 131.040  14.153  1.00  0.00    -0.407 OA
BRANCH  15  16
ATOM     16  C   UNL     1      45.561 129.863  14.665  1.00  0.00     0.279 C 
BRANCH  16  17
ATOM     17  O   UNL     1      44.750 128.808  15.090  1.00  0.00    -0.481 OA
ATOM     18  H   UNL     1      44.306 128.172  14.437  1.00  0.00     0.296 HD
ENDBRANCH  16  17
BRANCH  16  19
ATOM     19  C   UNL     1      46.892 129.752  14.751  1.00  0.00     0.061 C 
BRANCH  19  20
ATOM     20  C   UNL     1      47.818 130.252  13.677  1.00  0.00     0.031 C 
ATOM     21  C   UNL     1      47.082 130.465  12.356  1.00  0.00     0.008 C 
ENDBRANCH  19  20
ENDBRANCH  16  19
ENDBRANCH  15  16
ENDBRANCH   1  15
BRANCH   8  22
ATOM     22  N   UNL     1      41.802 134.232  20.064  1.00  0.00    -0.104 N 
ATOM     23  C   UNL     1      41.482 133.413  21.080  1.00  0.00     0.190 A 
ATOM     24  N   UNL     1      41.977 135.448  20.560  1.00  0.00    -0.012 N 
ATOM     25  C   UNL     1      41.486 134.195  22.218  1.00  0.00     0.133 A 
ATOM     26  N   UNL     1      41.806 135.460  21.873  1.00  0.00     0.020 NA
ATOM     27  H   UNL     1      42.235 136.287  19.998  1.00  0.00     0.527 HD
BRANCH  25  28
ATOM     28  C   UNL     1      41.255 133.729  23.622  1.00  0.00     0.069 C 
BRANCH  28  29
ATOM     29  C   UNL     1      42.573 133.450  24.356  1.00  0.00     0.042 C 
BRANCH  29  30
ATOM     30  C   UNL     1      43.561 132.692  23.490  1.00  0.00    -0.044 A 
ATOM     31  C   UNL     1      44.648 133.400  22.944  1.00  0.00     0.007 A 
ATOM     32  C   UNL     1      43.441 131.301  23.227  1.00  0.00    -0.045 A 
ATOM     33  C   UNL     1      45.599 132.753  22.155  1.00  0.00     0.039 A 
ATOM     34  C   UNL     1      44.405 130.668  22.421  1.00  0.00     0.043 A 
ATOM     35  C   UNL     1      45.478 131.389  21.894  1.00  0.00     0.123 A 
ATOM     36  C   UNL     1      42.298 130.481  23.767  1.00  0.00     0.045 C 
ATOM     37  F   UNL     1      46.398 130.763  21.122  1.00  0.00    -0.207 F 
ENDBRANCH  29  30
ENDBRANCH  28  29
ENDBRANCH  25  28
ENDBRANCH   8  22
TORSDOF 9
ENDMDL
MODEL 7
REMARK VINA RESULT:      -7.3      5.284      8.540
REMARK SMILES CC/C=C(/O)OC1=NC(=O)c2ccc(-n3cc(CCc4ccc(F)cc4C)n[nH+]3)c3cccc1c23
REMARK SMILES IDX 7 1 8 2 9 3 10 4 11 5 12 6 13 7 14 8 30 9 31 10 32 11 33 12
REMARK SMILES IDX 34 13 35 14 6 15 4 16 5 17 3 19 2 20 1 21 15 22 16 23 29 24
REMARK SMILES IDX 17 25 28 26 18 28 19 29 20 30 21 31 26 32 22 33 25 34 23 35
REMARK SMILES IDX 27 36 24 37
REMARK H PARENT 5 18 29 27
ROOT
ATOM      1  C   UNL     1      44.805 130.718  15.448  1.00  0.00     0.234 C 
ATOM      2  N   UNL     1      44.031 131.313  14.586  1.00  0.00    -0.172 NA
ATOM      3  C   UNL     1      43.081 132.313  14.970  1.00  0.00     0.280 C 
ATOM      4  O   UNL     1      42.358 132.855  14.092  1.00  0.00    -0.267 OA
ATOM      5  C   UNL     1      42.968 132.694  16.392  1.00  0.00     0.051 A 
ATOM      6  C   UNL     1      42.073 133.683  16.819  1.00  0.00     0.017 A 
ATOM      7  C   UNL     1      41.986 134.015  18.170  1.00  0.00     0.034 A 
ATOM      8  C   UNL     1      42.776 133.360  19.124  1.00  0.00     0.115 A 
ATOM      9  C   UNL     1      43.705 132.377  18.706  1.00  0.00     0.013 A 
ATOM     10  C   UNL     1      44.569 131.739  19.616  1.00  0.00     0.011 A 
ATOM     11  C   UNL     1      45.478 130.773  19.178  1.00  0.00     0.002 A 
ATOM     12  C   UNL     1      45.553 130.436  17.828  1.00  0.00     0.014 A 
ATOM     13  C   UNL     1      44.720 131.067  16.892  1.00  0.00     0.046 A 
ATOM     14  C   UNL     1      43.796 132.045  17.329  1.00  0.00     0.009 A 
ENDROOT
BRANCH   1  15
ATOM     15  O   UNL     1      45.732 129.750  15.035  1.00  0.00    -0.407 OA
BRANCH  15  16
ATOM     16  C   UNL     1      47.126 129.842  15.171  1.00  0.00     0.279 C 
BRANCH  16  17
ATOM     17  O   UNL     1      47.740 129.584  16.399  1.00  0.00    -0.481 OA
ATOM     18  H   UNL     1      47.273 129.070  17.138  1.00  0.00     0.296 HD
ENDBRANCH  16  17
BRANCH  16  19
ATOM     19  C   UNL     1      47.873 130.184  14.115  1.00  0.00     0.061 C 
BRANCH  19  20
ATOM     20  C   UNL     1      47.427 131.201  13.101  1.00  0.00     0.031 C 
ATOM     21  C   UNL     1      46.881 130.534  11.840  1.00  0.00     0.008 C 
ENDBRANCH  19  20
ENDBRANCH  16  19
ENDBRANCH  15  16
ENDBRANCH   1  15
BRANCH   8  22
ATOM     22  N   UNL     1      42.595 133.688  20.509  1.00  0.00    -0.104 N 
ATOM     23  C   UNL     1      43.334 134.539  21.241  1.00  0.00     0.190 A 
ATOM     24  N   UNL     1      41.716 133.113  21.316  1.00  0.00    -0.012 N 
ATOM     25  C   UNL     1      42.847 134.458  22.530  1.00  0.00     0.133 A 
ATOM     26  N   UNL     1      41.832 133.568  22.554  1.00  0.00     0.020 NA
ATOM     27  H   UNL     1      41.010 132.406  21.018  1.00  0.00     0.527 HD
BRANCH  25  28
ATOM     28  C   UNL     1      43.297 135.265  23.708  1.00  0.00     0.069 C 
BRANCH  28  29
ATOM     29  C   UNL     1      43.899 136.611  23.282  1.00  0.00     0.042 C 
BRANCH  29  30
ATOM     30  C   UNL     1      45.368 136.721  23.644  1.00  0.00    -0.044 A 
ATOM     31  C   UNL     1      46.163 135.563  23.557  1.00  0.00     0.007 A 
ATOM     32  C   UNL     1      45.970 137.944  24.045  1.00  0.00    -0.045 A 
ATOM     33  C   UNL     1      47.525 135.606  23.859  1.00  0.00     0.039 A 
ATOM     34  C   UNL     1      47.342 137.965  24.355  1.00  0.00     0.043 A 
ATOM     35  C   UNL     1      48.114 136.806  24.256  1.00  0.00     0.123 A 
ATOM     36  C   UNL     1      45.179 139.220  24.173  1.00  0.00     0.045 C 
ATOM     37  F   UNL     1      49.434 136.845  24.556  1.00  0.00    -0.207 F 
ENDBRANCH  29  30
ENDBRANCH  28  29
ENDBRANCH  25  28
ENDBRANCH   8  22
TORSDOF 9
ENDMDL
MODEL 8
REMARK VINA RESULT:      -7.1      4.138      6.395
REMARK SMILES CC/C=C(/O)OC1=NC(=O)c2ccc(-n3cc(CCc4ccc(F)cc4C)n[nH+]3)c3cccc1c23
REMARK SMILES IDX 7 1 8 2 9 3 10 4 11 5 12 6 13 7 14 8 30 9 31 10 32 11 33 12
REMARK SMILES IDX 34 13 35 14 6 15 4 16 5 17 3 19 2 20 1 21 15 22 16 23 29 24
REMARK SMILES IDX 17 25 28 26 18 28 19 29 20 30 21 31 26 32 22 33 25 34 23 35
REMARK SMILES IDX 27 36 24 37
REMARK H PARENT 5 18 29 27
ROOT
ATOM      1  C   UNL     1      44.612 130.643  15.454  1.00  0.00     0.234 C 
ATOM      2  N   UNL     1      43.812 131.048  14.508  1.00  0.00    -0.172 NA
ATOM      3  C   UNL     1      42.794 132.028  14.732  1.00  0.00     0.280 C 
ATOM      4  O   UNL     1      42.049 132.381  13.779  1.00  0.00    -0.267 OA
ATOM      5  C   UNL     1      42.637 132.612  16.080  1.00  0.00     0.051 A 
ATOM      6  C   UNL     1      41.673 133.593  16.347  1.00  0.00     0.017 A 
ATOM      7  C   UNL     1      41.546 134.119  17.632  1.00  0.00     0.034 A 
ATOM      8  C   UNL     1      42.364 133.671  18.677  1.00  0.00     0.115 A 
ATOM      9  C   UNL     1      43.361 132.699  18.417  1.00  0.00     0.013 A 
ATOM     10  C   UNL     1      44.253 132.267  19.417  1.00  0.00     0.011 A 
ATOM     11  C   UNL     1      45.228 131.308  19.134  1.00  0.00     0.002 A 
ATOM     12  C   UNL     1      45.344 130.775  17.852  1.00  0.00     0.014 A 
ATOM     13  C   UNL     1      44.484 131.200  16.828  1.00  0.00     0.046 A 
ATOM     14  C   UNL     1      43.492 132.169  17.107  1.00  0.00     0.009 A 
ENDROOT
BRANCH   1  15
ATOM     15  O   UNL     1      45.605 129.688  15.196  1.00  0.00    -0.407 OA
BRANCH  15  16
ATOM     16  C   UNL     1      46.990 129.911  15.256  1.00  0.00     0.279 C 
BRANCH  16  17
ATOM     17  O   UNL     1      47.718 129.565  16.397  1.00  0.00    -0.481 OA
ATOM     18  H   UNL     1      47.352 128.933  17.099  1.00  0.00     0.296 HD
ENDBRANCH  16  17
BRANCH  16  19
ATOM     19  C   UNL     1      47.617 130.465  14.211  1.00  0.00     0.061 C 
BRANCH  19  20
ATOM     20  C   UNL     1      47.734 129.778  12.879  1.00  0.00     0.031 C 
ATOM     21  C   UNL     1      47.039 130.574  11.776  1.00  0.00     0.008 C 
ENDBRANCH  19  20
ENDBRANCH  16  19
ENDBRANCH  15  16
ENDBRANCH   1  15
BRANCH   8  22
ATOM     22  N   UNL     1      42.143 134.192  19.995  1.00  0.00    -0.104 N 
ATOM     23  C   UNL     1      41.369 133.660  20.956  1.00  0.00     0.190 A 
ATOM     24  N   UNL     1      42.598 135.355  20.437  1.00  0.00    -0.012 N 
ATOM     25  C   UNL     1      41.392 134.555  22.006  1.00  0.00     0.133 A 
ATOM     26  N   UNL     1      42.171 135.603  21.665  1.00  0.00     0.020 NA
ATOM     27  H   UNL     1      43.227 135.990  19.899  1.00  0.00     0.527 HD
BRANCH  25  28
ATOM     28  C   UNL     1      40.735 134.384  23.341  1.00  0.00     0.069 C 
BRANCH  28  29
ATOM     29  C   UNL     1      39.235 134.707  23.286  1.00  0.00     0.042 C 
BRANCH  29  30
ATOM     30  C   UNL     1      38.961 136.041  22.619  1.00  0.00    -0.044 A 
ATOM     31  C   UNL     1      38.391 136.038  21.332  1.00  0.00     0.007 A 
ATOM     32  C   UNL     1      39.238 137.284  23.249  1.00  0.00    -0.045 A 
ATOM     33  C   UNL     1      38.099 137.234  20.676  1.00  0.00     0.039 A 
ATOM     34  C   UNL     1      38.945 138.480  22.567  1.00  0.00     0.043 A 
ATOM     35  C   UNL     1      38.375 138.453  21.293  1.00  0.00     0.123 A 
ATOM     36  C   UNL     1      39.859 137.366  24.619  1.00  0.00     0.045 C 
ATOM     37  F   UNL     1      38.098 139.614  20.653  1.00  0.00    -0.207 F 
ENDBRANCH  29  30
ENDBRANCH  28  29
ENDBRANCH  25  28
ENDBRANCH   8  22
TORSDOF 9
ENDMDL
MODEL 9
REMARK VINA RESULT:      -6.9      2.356      3.343
REMARK SMILES CC/C=C(/O)OC1=NC(=O)c2ccc(-n3cc(CCc4ccc(F)cc4C)n[nH+]3)c3cccc1c23
REMARK SMILES IDX 7 1 8 2 9 3 10 4 11 5 12 6 13 7 14 8 30 9 31 10 32 11 33 12
REMARK SMILES IDX 34 13 35 14 6 15 4 16 5 17 3 19 2 20 1 21 15 22 16 23 29 24
REMARK SMILES IDX 17 25 28 26 18 28 19 29 20 30 21 31 26 32 22 33 25 34 23 35
REMARK SMILES IDX 27 36 24 37
REMARK H PARENT 5 18 29 27
ROOT
ATOM      1  C   UNL     1      44.670 130.704  16.580  1.00  0.00     0.234 C 
ATOM      2  N   UNL     1      45.484 130.412  17.554  1.00  0.00    -0.172 NA
ATOM      3  C   UNL     1      45.489 131.132  18.792  1.00  0.00     0.280 C 
ATOM      4  O   UNL     1      46.300 130.805  19.699  1.00  0.00    -0.267 OA
ATOM      5  C   UNL     1      44.538 132.245  18.984  1.00  0.00     0.051 A 
ATOM      6  C   UNL     1      44.483 132.966  20.184  1.00  0.00     0.017 A 
ATOM      7  C   UNL     1      43.578 134.016  20.332  1.00  0.00     0.034 A 
ATOM      8  C   UNL     1      42.721 134.379  19.284  1.00  0.00     0.115 A 
ATOM      9  C   UNL     1      42.745 133.642  18.074  1.00  0.00     0.013 A 
ATOM     10  C   UNL     1      41.856 133.923  17.019  1.00  0.00     0.011 A 
ATOM     11  C   UNL     1      41.899 133.182  15.836  1.00  0.00     0.002 A 
ATOM     12  C   UNL     1      42.814 132.141  15.688  1.00  0.00     0.014 A 
ATOM     13  C   UNL     1      43.699 131.822  16.729  1.00  0.00     0.046 A 
ATOM     14  C   UNL     1      43.663 132.570  17.929  1.00  0.00     0.009 A 
ENDROOT
BRANCH   1  15
ATOM     15  O   UNL     1      44.686 129.971  15.385  1.00  0.00    -0.407 OA
BRANCH  15  16
ATOM     16  C   UNL     1      44.918 130.497  14.105  1.00  0.00     0.279 C 
BRANCH  16  17
ATOM     17  O   UNL     1      43.853 130.814  13.260  1.00  0.00    -0.481 OA
ATOM     18  H   UNL     1      43.519 130.172  12.550  1.00  0.00     0.296 HD
ENDBRANCH  16  17
BRANCH  16  19
ATOM     19  C   UNL     1      46.175 130.695  13.690  1.00  0.00     0.061 C 
BRANCH  19  20
ATOM     20  C   UNL     1      47.367 130.137  14.417  1.00  0.00     0.031 C 
ATOM     21  C   UNL     1      48.357 129.484  13.454  1.00  0.00     0.008 C 
ENDBRANCH  19  20
ENDBRANCH  16  19
ENDBRANCH  15  16
ENDBRANCH   1  15
BRANCH   8  22
ATOM     22  N   UNL     1      41.860 135.513  19.462  1.00  0.00    -0.104 N 
ATOM     23  C   UNL     1      40.522 135.540  19.334  1.00  0.00     0.190 A 
ATOM     24  N   UNL     1      42.273 136.751  19.684  1.00  0.00    -0.012 N 
ATOM     25  C   UNL     1      40.149 136.858  19.504  1.00  0.00     0.133 A 
ATOM     26  N   UNL     1      41.255 137.597  19.729  1.00  0.00     0.020 NA
ATOM     27  H   UNL     1      43.269 137.029  19.824  1.00  0.00     0.527 HD
BRANCH  25  28
ATOM     28  C   UNL     1      38.751 137.395  19.519  1.00  0.00     0.069 C 
BRANCH  28  29
ATOM     29  C   UNL     1      37.709 136.286  19.318  1.00  0.00     0.042 C 
BRANCH  29  30
ATOM     30  C   UNL     1      37.357 136.089  17.856  1.00  0.00    -0.044 A 
ATOM     31  C   UNL     1      36.915 137.206  17.122  1.00  0.00     0.007 A 
ATOM     32  C   UNL     1      37.476 134.835  17.200  1.00  0.00    -0.045 A 
ATOM     33  C   UNL     1      36.594 137.091  15.769  1.00  0.00     0.039 A 
ATOM     34  C   UNL     1      37.139 134.737  15.838  1.00  0.00     0.043 A 
ATOM     35  C   UNL     1      36.707 135.858  15.128  1.00  0.00     0.123 A 
ATOM     36  C   UNL     1      37.931 133.594  17.925  1.00  0.00     0.045 C 
ATOM     37  F   UNL     1      36.389 135.746  13.816  1.00  0.00    -0.207 F 
ENDBRANCH  29  30
ENDBRANCH  28  29
ENDBRANCH  25  28
ENDBRANCH   8  22
TORSDOF 9
ENDMDL


