MODEL 1
REMARK VINA RESULT:      -6.5      0.000      0.000
REMARK SMILES C[C@@H](C#N)N(C)CCCCc1cn(-c2cc(N)c3c4c(cccc24)C(=O)[N-]3)nn1
REMARK SMILES IDX 8 1 7 2 5 3 6 4 2 5 1 6 3 7 4 8 9 9 10 10 11 11 12 12 29 13
REMARK SMILES IDX 13 14 28 15 14 16 15 17 24 18 16 19 23 20 19 21 18 22 22 23
REMARK SMILES IDX 20 24 27 25 21 26 25 27 26 28 17 29
REMARK H PARENT 17 30 17 31
ROOT
ATOM      1  C   UNL     1      41.609 136.340  18.731  1.00  0.00     0.016 C 
ENDROOT
BRANCH   1   2
ATOM      2  C   UNL     1      41.592 136.989  17.340  1.00  0.00     0.085 C 
BRANCH   2   3
ATOM      3  N   UNL     1      41.981 135.997  16.308  1.00  0.00    -0.291 NA
ATOM      4  C   UNL     1      43.382 135.569  16.489  1.00  0.00     0.106 C 
BRANCH   3   5
ATOM      5  C   UNL     1      41.748 136.450  14.912  1.00  0.00     0.157 C 
ATOM      6  C   UNL     1      40.301 136.178  14.486  1.00  0.00     0.041 C 
BRANCH   5   7
ATOM      7  C   UNL     1      42.091 137.874  14.704  1.00  0.00     0.081 C 
ATOM      8  N   UNL     1      42.359 138.988  14.537  1.00  0.00    -0.197 NA
ENDBRANCH   5   7
ENDBRANCH   3   5
ENDBRANCH   2   3
ENDBRANCH   1   2
BRANCH   1   9
ATOM      9  C   UNL     1      40.205 136.223  19.356  1.00  0.00     0.008 C 
BRANCH   9  10
ATOM     10  C   UNL     1      39.741 134.777  19.611  1.00  0.00     0.060 C 
BRANCH  10  11
ATOM     11  C   UNL     1      40.480 133.790  18.759  1.00  0.00     0.083 A 
ATOM     12  C   UNL     1      41.771 133.344  18.942  1.00  0.00     0.140 A 
ATOM     13  N   UNL     1      40.006 133.267  17.610  1.00  0.00    -0.135 NA
ATOM     14  N   UNL     1      42.034 132.530  17.903  1.00  0.00    -0.220 N 
ATOM     15  N   UNL     1      40.972 132.509  17.111  1.00  0.00    -0.062 NA
BRANCH  14  16
ATOM     16  C   UNL     1      43.290 131.912  17.578  1.00  0.00     0.076 A 
ATOM     17  C   UNL     1      44.195 131.598  18.635  1.00  0.00     0.053 A 
ATOM     18  C   UNL     1      43.651 131.588  16.241  1.00  0.00     0.007 A 
ATOM     19  C   UNL     1      45.427 130.947  18.382  1.00  0.00     0.019 A 
ATOM     20  C   UNL     1      42.914 131.893  15.071  1.00  0.00     0.011 A 
ATOM     21  C   UNL     1      44.865 130.942  16.056  1.00  0.00    -0.020 A 
ATOM     22  C   UNL     1      45.737 130.622  17.058  1.00  0.00    -0.102 A 
ATOM     23  C   UNL     1      43.409 131.507  13.799  1.00  0.00     0.001 A 
ATOM     24  C   UNL     1      45.354 130.569  14.848  1.00  0.00     0.006 A 
ATOM     25  N   UNL     1      46.913 129.980  16.553  1.00  0.00    -0.620 NA
ATOM     26  C   UNL     1      44.646 130.832  13.679  1.00  0.00     0.011 A 
ATOM     27  C   UNL     1      46.645 129.953  15.141  1.00  0.00     0.086 C 
ATOM     28  O   UNL     1      47.428 129.462  14.290  1.00  0.00    -0.315 OA
BRANCH  19  29
ATOM     29  N   UNL     1      46.316 130.617  19.453  1.00  0.00    -0.400 N 
ATOM     30  H   UNL     1      46.998 129.833  19.357  1.00  0.00     0.156 HD
ATOM     31  H   UNL     1      46.304 131.160  20.345  1.00  0.00     0.156 HD
ENDBRANCH  19  29
ENDBRANCH  14  16
ENDBRANCH  10  11
ENDBRANCH   9  10
ENDBRANCH   1   9
TORSDOF 9
ENDMDL
MODEL 2
REMARK VINA RESULT:      -6.4      3.281      7.285
REMARK SMILES C[C@@H](C#N)N(C)CCCCc1cn(-c2cc(N)c3c4c(cccc24)C(=O)[N-]3)nn1
REMARK SMILES IDX 8 1 7 2 5 3 6 4 2 5 1 6 3 7 4 8 9 9 10 10 11 11 12 12 29 13
REMARK SMILES IDX 13 14 28 15 14 16 15 17 24 18 16 19 23 20 19 21 18 22 22 23
REMARK SMILES IDX 20 24 27 25 21 26 25 27 26 28 17 29
REMARK H PARENT 17 30 17 31
ROOT
ATOM      1  C   UNL     1      45.170 129.289  16.583  1.00  0.00     0.016 C 
ENDROOT
BRANCH   1   2
ATOM      2  C   UNL     1      45.384 129.151  15.069  1.00  0.00     0.085 C 
BRANCH   2   3
ATOM      3  N   UNL     1      45.334 130.485  14.422  1.00  0.00    -0.291 NA
ATOM      4  C   UNL     1      44.101 130.640  13.626  1.00  0.00     0.106 C 
BRANCH   3   5
ATOM      5  C   UNL     1      46.531 130.805  13.600  1.00  0.00     0.157 C 
ATOM      6  C   UNL     1      47.247 132.046  14.144  1.00  0.00     0.041 C 
BRANCH   5   7
ATOM      7  C   UNL     1      47.472 129.670  13.486  1.00  0.00     0.081 C 
ATOM      8  N   UNL     1      48.210 128.783  13.393  1.00  0.00    -0.197 NA
ENDBRANCH   5   7
ENDBRANCH   3   5
ENDBRANCH   2   3
ENDBRANCH   1   2
BRANCH   1   9
ATOM      9  C   UNL     1      45.820 130.558  17.167  1.00  0.00     0.008 C 
BRANCH   9  10
ATOM     10  C   UNL     1      45.146 131.087  18.446  1.00  0.00     0.060 C 
BRANCH  10  11
ATOM     11  C   UNL     1      44.128 132.147  18.149  1.00  0.00     0.083 A 
ATOM     12  C   UNL     1      42.784 131.958  17.913  1.00  0.00     0.140 A 
ATOM     13  N   UNL     1      44.415 133.452  17.967  1.00  0.00    -0.135 NA
ATOM     14  N   UNL     1      42.283 133.172  17.622  1.00  0.00    -0.220 N 
ATOM     15  N   UNL     1      43.277 134.049  17.644  1.00  0.00    -0.062 NA
BRANCH  14  16
ATOM     16  C   UNL     1      40.949 133.482  17.186  1.00  0.00     0.076 A 
ATOM     17  C   UNL     1      39.873 133.341  18.111  1.00  0.00     0.053 A 
ATOM     18  C   UNL     1      40.671 133.941  15.869  1.00  0.00     0.007 A 
ATOM     19  C   UNL     1      38.544 133.675  17.754  1.00  0.00     0.019 A 
ATOM     20  C   UNL     1      41.599 134.067  14.806  1.00  0.00     0.011 A 
ATOM     21  C   UNL     1      39.353 134.263  15.579  1.00  0.00    -0.020 A 
ATOM     22  C   UNL     1      38.313 134.146  16.458  1.00  0.00    -0.102 A 
ATOM     23  C   UNL     1      41.167 134.537  13.538  1.00  0.00     0.001 A 
ATOM     24  C   UNL     1      38.923 134.709  14.374  1.00  0.00     0.006 A 
ATOM     25  N   UNL     1      37.069 134.534  15.863  1.00  0.00    -0.620 NA
ATOM     26  C   UNL     1      39.812 134.867  13.313  1.00  0.00     0.011 A 
ATOM     27  C   UNL     1      37.484 134.893  14.534  1.00  0.00     0.086 C 
ATOM     28  O   UNL     1      36.698 135.307  13.645  1.00  0.00    -0.315 OA
BRANCH  19  29
ATOM     29  N   UNL     1      37.477 133.551  18.698  1.00  0.00    -0.400 N 
ATOM     30  H   UNL     1      36.652 132.945  18.493  1.00  0.00     0.156 HD
ATOM     31  H   UNL     1      37.510 134.055  19.612  1.00  0.00     0.156 HD
ENDBRANCH  19  29
ENDBRANCH  14  16
ENDBRANCH  10  11
ENDBRANCH   9  10
ENDBRANCH   1   9
TORSDOF 9
ENDMDL
MODEL 3
REMARK VINA RESULT:      -6.0      1.937      3.025
REMARK SMILES C[C@@H](C#N)N(C)CCCCc1cn(-c2cc(N)c3c4c(cccc24)C(=O)[N-]3)nn1
REMARK SMILES IDX 8 1 7 2 5 3 6 4 2 5 1 6 3 7 4 8 9 9 10 10 11 11 12 12 29 13
REMARK SMILES IDX 13 14 28 15 14 16 15 17 24 18 16 19 23 20 19 21 18 22 22 23
REMARK SMILES IDX 20 24 27 25 21 26 25 27 26 28 17 29
REMARK H PARENT 17 30 17 31
ROOT
ATOM      1  C   UNL     1      39.834 136.718  17.656  1.00  0.00     0.016 C 
ENDROOT
BRANCH   1   2
ATOM      2  C   UNL     1      40.917 136.332  18.672  1.00  0.00     0.085 C 
BRANCH   2   3
ATOM      3  N   UNL     1      40.321 136.175  20.021  1.00  0.00    -0.291 NA
ATOM      4  C   UNL     1      40.271 134.754  20.415  1.00  0.00     0.106 C 
BRANCH   3   5
ATOM      5  C   UNL     1      38.983 136.807  20.170  1.00  0.00     0.157 C 
ATOM      6  C   UNL     1      38.014 135.865  20.894  1.00  0.00     0.041 C 
BRANCH   5   7
ATOM      7  C   UNL     1      39.038 138.119  20.851  1.00  0.00     0.081 C 
ATOM      8  N   UNL     1      39.080 139.144  21.388  1.00  0.00    -0.197 NA
ENDBRANCH   5   7
ENDBRANCH   3   5
ENDBRANCH   2   3
ENDBRANCH   1   2
BRANCH   1   9
ATOM      9  C   UNL     1      39.719 135.717  16.491  1.00  0.00     0.008 C 
BRANCH   9  10
ATOM     10  C   UNL     1      39.064 134.375  16.867  1.00  0.00     0.060 C 
BRANCH  10  11
ATOM     11  C   UNL     1      40.081 133.334  17.228  1.00  0.00     0.083 A 
ATOM     12  C   UNL     1      41.426 133.354  16.928  1.00  0.00     0.140 A 
ATOM     13  N   UNL     1      39.793 132.159  17.823  1.00  0.00    -0.135 NA
ATOM     14  N   UNL     1      41.925 132.190  17.383  1.00  0.00    -0.220 N 
ATOM     15  N   UNL     1      40.930 131.484  17.899  1.00  0.00    -0.062 NA
BRANCH  14  16
ATOM     16  C   UNL     1      43.258 131.686  17.202  1.00  0.00     0.076 A 
ATOM     17  C   UNL     1      44.089 131.511  18.348  1.00  0.00     0.053 A 
ATOM     18  C   UNL     1      43.769 131.339  15.920  1.00  0.00     0.007 A 
ATOM     19  C   UNL     1      45.395 130.974  18.239  1.00  0.00     0.019 A 
ATOM     20  C   UNL     1      43.117 131.516  14.676  1.00  0.00     0.011 A 
ATOM     21  C   UNL     1      45.051 130.808  15.876  1.00  0.00    -0.020 A 
ATOM     22  C   UNL     1      45.853 130.623  16.966  1.00  0.00    -0.102 A 
ATOM     23  C   UNL     1      43.761 131.124  13.474  1.00  0.00     0.001 A 
ATOM     24  C   UNL     1      45.682 130.432  14.737  1.00  0.00     0.006 A 
ATOM     25  N   UNL     1      47.127 130.078  16.600  1.00  0.00    -0.620 NA
ATOM     26  C   UNL     1      45.061 130.571  13.498  1.00  0.00     0.011 A 
ATOM     27  C   UNL     1      46.992 129.961  15.173  1.00  0.00     0.086 C 
ATOM     28  O   UNL     1      47.894 129.511  14.421  1.00  0.00    -0.315 OA
BRANCH  19  29
ATOM     29  N   UNL     1      46.209 130.783  19.399  1.00  0.00    -0.400 N 
ATOM     30  H   UNL     1      47.240 130.649  19.309  1.00  0.00     0.156 HD
ATOM     31  H   UNL     1      45.787 130.782  20.354  1.00  0.00     0.156 HD
ENDBRANCH  19  29
ENDBRANCH  14  16
ENDBRANCH  10  11
ENDBRANCH   9  10
ENDBRANCH   1   9
TORSDOF 9
ENDMDL
MODEL 4
REMARK VINA RESULT:      -5.8      3.654      7.617
REMARK SMILES C[C@@H](C#N)N(C)CCCCc1cn(-c2cc(N)c3c4c(cccc24)C(=O)[N-]3)nn1
REMARK SMILES IDX 8 1 7 2 5 3 6 4 2 5 1 6 3 7 4 8 9 9 10 10 11 11 12 12 29 13
REMARK SMILES IDX 13 14 28 15 14 16 15 17 24 18 16 19 23 20 19 21 18 22 22 23
REMARK SMILES IDX 20 24 27 25 21 26 25 27 26 28 17 29
REMARK H PARENT 17 30 17 31
ROOT
ATOM      1  C   UNL     1      45.505 131.352  18.916  1.00  0.00     0.016 C 
ENDROOT
BRANCH   1   2
ATOM      2  C   UNL     1      44.699 130.915  20.147  1.00  0.00     0.085 C 
BRANCH   2   3
ATOM      3  N   UNL     1      44.368 132.093  20.986  1.00  0.00    -0.291 NA
ATOM      4  C   UNL     1      45.588 132.687  21.567  1.00  0.00     0.106 C 
BRANCH   3   5
ATOM      5  C   UNL     1      43.363 131.820  22.047  1.00  0.00     0.157 C 
ATOM      6  C   UNL     1      43.644 130.476  22.729  1.00  0.00     0.041 C 
BRANCH   5   7
ATOM      7  C   UNL     1      43.275 132.903  23.050  1.00  0.00     0.081 C 
ATOM      8  N   UNL     1      43.207 133.749  23.838  1.00  0.00    -0.197 NA
ENDBRANCH   5   7
ENDBRANCH   3   5
ENDBRANCH   2   3
ENDBRANCH   1   2
BRANCH   1   9
ATOM      9  C   UNL     1      45.603 130.252  17.842  1.00  0.00     0.008 C 
BRANCH   9  10
ATOM     10  C   UNL     1      45.850 130.775  16.415  1.00  0.00     0.060 C 
BRANCH  10  11
ATOM     11  C   UNL     1      45.002 131.970  16.099  1.00  0.00     0.083 A 
ATOM     12  C   UNL     1      43.628 132.047  16.161  1.00  0.00     0.140 A 
ATOM     13  N   UNL     1      45.474 133.131  15.600  1.00  0.00    -0.135 NA
ATOM     14  N   UNL     1      43.305 133.278  15.723  1.00  0.00    -0.220 N 
ATOM     15  N   UNL     1      44.421 133.904  15.378  1.00  0.00    -0.062 NA
BRANCH  14  16
ATOM     16  C   UNL     1      41.986 133.799  15.487  1.00  0.00     0.076 A 
ATOM     17  C   UNL     1      41.686 134.358  14.210  1.00  0.00     0.053 A 
ATOM     18  C   UNL     1      40.967 133.757  16.479  1.00  0.00     0.007 A 
ATOM     19  C   UNL     1      40.392 134.844  13.902  1.00  0.00     0.019 A 
ATOM     20  C   UNL     1      41.109 133.310  17.815  1.00  0.00     0.011 A 
ATOM     21  C   UNL     1      39.717 134.238  16.117  1.00  0.00    -0.020 A 
ATOM     22  C   UNL     1      39.410 134.764  14.894  1.00  0.00    -0.102 A 
ATOM     23  C   UNL     1      39.995 133.334  18.694  1.00  0.00     0.001 A 
ATOM     24  C   UNL     1      38.644 134.272  16.944  1.00  0.00     0.006 A 
ATOM     25  N   UNL     1      38.046 135.195  14.829  1.00  0.00    -0.620 NA
ATOM     26  C   UNL     1      38.741 133.819  18.258  1.00  0.00     0.011 A 
ATOM     27  C   UNL     1      37.576 134.866  16.147  1.00  0.00     0.086 C 
ATOM     28  O   UNL     1      36.400 135.072  16.541  1.00  0.00    -0.315 OA
BRANCH  19  29
ATOM     29  N   UNL     1      40.099 135.382  12.610  1.00  0.00    -0.400 N 
ATOM     30  H   UNL     1      39.633 136.311  12.513  1.00  0.00     0.156 HD
ATOM     31  H   UNL     1      40.353 134.859  11.742  1.00  0.00     0.156 HD
ENDBRANCH  19  29
ENDBRANCH  14  16
ENDBRANCH  10  11
ENDBRANCH   9  10
ENDBRANCH   1   9
TORSDOF 9
ENDMDL
MODEL 5
REMARK VINA RESULT:      -5.7      1.976      3.100
REMARK SMILES C[C@@H](C#N)N(C)CCCCc1cn(-c2cc(N)c3c4c(cccc24)C(=O)[N-]3)nn1
REMARK SMILES IDX 8 1 7 2 5 3 6 4 2 5 1 6 3 7 4 8 9 9 10 10 11 11 12 12 29 13
REMARK SMILES IDX 13 14 28 15 14 16 15 17 24 18 16 19 23 20 19 21 18 22 22 23
REMARK SMILES IDX 20 24 27 25 21 26 25 27 26 28 17 29
REMARK H PARENT 17 30 17 31
ROOT
ATOM      1  C   UNL     1      37.594 135.489  19.937  1.00  0.00     0.016 C 
ENDROOT
BRANCH   1   2
ATOM      2  C   UNL     1      37.660 136.450  18.741  1.00  0.00     0.085 C 
BRANCH   2   3
ATOM      3  N   UNL     1      38.384 135.814  17.613  1.00  0.00    -0.291 NA
ATOM      4  C   UNL     1      38.678 136.796  16.552  1.00  0.00     0.106 C 
BRANCH   3   5
ATOM      5  C   UNL     1      37.698 134.622  17.048  1.00  0.00     0.157 C 
ATOM      6  C   UNL     1      37.516 134.768  15.533  1.00  0.00     0.041 C 
BRANCH   5   7
ATOM      7  C   UNL     1      38.388 133.354  17.368  1.00  0.00     0.081 C 
ATOM      8  N   UNL     1      38.929 132.362  17.622  1.00  0.00    -0.197 NA
ENDBRANCH   5   7
ENDBRANCH   3   5
ENDBRANCH   2   3
ENDBRANCH   1   2
BRANCH   1   9
ATOM      9  C   UNL     1      38.968 134.901  20.310  1.00  0.00     0.008 C 
BRANCH   9  10
ATOM     10  C   UNL     1      40.121 135.921  20.300  1.00  0.00     0.060 C 
BRANCH  10  11
ATOM     11  C   UNL     1      41.289 135.443  19.492  1.00  0.00     0.083 A 
ATOM     12  C   UNL     1      41.642 134.134  19.244  1.00  0.00     0.140 A 
ATOM     13  N   UNL     1      42.236 136.247  18.966  1.00  0.00    -0.135 NA
ATOM     14  N   UNL     1      42.788 134.184  18.542  1.00  0.00    -0.220 N 
ATOM     15  N   UNL     1      43.135 135.455  18.400  1.00  0.00    -0.062 NA
BRANCH  14  16
ATOM     16  C   UNL     1      43.617 133.078  18.149  1.00  0.00     0.076 A 
ATOM     17  C   UNL     1      44.471 132.478  19.122  1.00  0.00     0.053 A 
ATOM     18  C   UNL     1      43.599 132.550  16.828  1.00  0.00     0.007 A 
ATOM     19  C   UNL     1      45.275 131.356  18.807  1.00  0.00     0.019 A 
ATOM     20  C   UNL     1      42.874 133.063  15.725  1.00  0.00     0.011 A 
ATOM     21  C   UNL     1      44.399 131.443  16.581  1.00  0.00    -0.020 A 
ATOM     22  C   UNL     1      45.213 130.850  17.505  1.00  0.00    -0.102 A 
ATOM     23  C   UNL     1      42.962 132.426  14.460  1.00  0.00     0.001 A 
ATOM     24  C   UNL     1      44.498 130.826  15.379  1.00  0.00     0.006 A 
ATOM     25  N   UNL     1      45.930 129.744  16.947  1.00  0.00    -0.620 NA
ATOM     26  C   UNL     1      43.782 131.290  14.278  1.00  0.00     0.011 A 
ATOM     27  C   UNL     1      45.455 129.745  15.591  1.00  0.00     0.086 C 
ATOM     28  O   UNL     1      45.826 128.918  14.719  1.00  0.00    -0.315 OA
BRANCH  19  29
ATOM     29  N   UNL     1      46.110 130.751  19.798  1.00  0.00    -0.400 N 
ATOM     30  H   UNL     1      47.074 130.430  19.558  1.00  0.00     0.156 HD
ATOM     31  H   UNL     1      45.774 130.628  20.778  1.00  0.00     0.156 HD
ENDBRANCH  19  29
ENDBRANCH  14  16
ENDBRANCH  10  11
ENDBRANCH   9  10
ENDBRANCH   1   9
TORSDOF 9
ENDMDL
MODEL 6
REMARK VINA RESULT:      -5.7      1.771      2.248
REMARK SMILES C[C@@H](C#N)N(C)CCCCc1cn(-c2cc(N)c3c4c(cccc24)C(=O)[N-]3)nn1
REMARK SMILES IDX 8 1 7 2 5 3 6 4 2 5 1 6 3 7 4 8 9 9 10 10 11 11 12 12 29 13
REMARK SMILES IDX 13 14 28 15 14 16 15 17 24 18 16 19 23 20 19 21 18 22 22 23
REMARK SMILES IDX 20 24 27 25 21 26 25 27 26 28 17 29
REMARK H PARENT 17 30 17 31
ROOT
ATOM      1  C   UNL     1      41.490 137.006  16.113  1.00  0.00     0.016 C 
ENDROOT
BRANCH   1   2
ATOM      2  C   UNL     1      41.042 137.430  14.707  1.00  0.00     0.085 C 
BRANCH   2   3
ATOM      3  N   UNL     1      39.825 136.680  14.310  1.00  0.00    -0.291 NA
ATOM      4  C   UNL     1      40.178 135.458  13.563  1.00  0.00     0.106 C 
BRANCH   3   5
ATOM      5  C   UNL     1      38.834 137.489  13.552  1.00  0.00     0.157 C 
ATOM      6  C   UNL     1      39.352 138.914  13.329  1.00  0.00     0.041 C 
BRANCH   5   7
ATOM      7  C   UNL     1      38.448 136.869  12.266  1.00  0.00     0.081 C 
ATOM      8  N   UNL     1      38.146 136.387  11.257  1.00  0.00    -0.197 NA
ENDBRANCH   5   7
ENDBRANCH   3   5
ENDBRANCH   2   3
ENDBRANCH   1   2
BRANCH   1   9
ATOM      9  C   UNL     1      40.475 137.388  17.207  1.00  0.00     0.008 C 
BRANCH   9  10
ATOM     10  C   UNL     1      39.520 136.251  17.615  1.00  0.00     0.060 C 
BRANCH  10  11
ATOM     11  C   UNL     1      40.169 134.905  17.506  1.00  0.00     0.083 A 
ATOM     12  C   UNL     1      41.503 134.613  17.693  1.00  0.00     0.140 A 
ATOM     13  N   UNL     1      39.539 133.783  17.102  1.00  0.00    -0.135 NA
ATOM     14  N   UNL     1      41.638 133.302  17.424  1.00  0.00    -0.220 N 
ATOM     15  N   UNL     1      40.456 132.828  17.057  1.00  0.00    -0.062 NA
BRANCH  14  16
ATOM     16  C   UNL     1      42.860 132.548  17.360  1.00  0.00     0.076 A 
ATOM     17  C   UNL     1      43.595 132.326  18.562  1.00  0.00     0.053 A 
ATOM     18  C   UNL     1      43.350 132.002  16.141  1.00  0.00     0.007 A 
ATOM     19  C   UNL     1      44.781 131.552  18.570  1.00  0.00     0.019 A 
ATOM     20  C   UNL     1      42.794 132.185  14.851  1.00  0.00     0.011 A 
ATOM     21  C   UNL     1      44.510 131.244  16.212  1.00  0.00    -0.020 A 
ATOM     22  C   UNL     1      45.218 131.012  17.357  1.00  0.00    -0.102 A 
ATOM     23  C   UNL     1      43.403 131.577  13.723  1.00  0.00     0.001 A 
ATOM     24  C   UNL     1      45.106 130.660  15.145  1.00  0.00     0.006 A 
ATOM     25  N   UNL     1      46.381 130.213  17.109  1.00  0.00    -0.620 NA
ATOM     26  C   UNL     1      44.575 130.800  13.865  1.00  0.00     0.011 A 
ATOM     27  C   UNL     1      46.286 129.997  15.691  1.00  0.00     0.086 C 
ATOM     28  O   UNL     1      47.118 129.326  15.029  1.00  0.00    -0.315 OA
BRANCH  19  29
ATOM     29  N   UNL     1      45.496 131.318  19.786  1.00  0.00    -0.400 N 
ATOM     30  H   UNL     1      45.930 132.111  20.309  1.00  0.00     0.156 HD
ATOM     31  H   UNL     1      45.588 130.354  20.176  1.00  0.00     0.156 HD
ENDBRANCH  19  29
ENDBRANCH  14  16
ENDBRANCH  10  11
ENDBRANCH   9  10
ENDBRANCH   1   9
TORSDOF 9
ENDMDL
MODEL 7
REMARK VINA RESULT:      -5.5      4.815      6.217
REMARK SMILES C[C@@H](C#N)N(C)CCCCc1cn(-c2cc(N)c3c4c(cccc24)C(=O)[N-]3)nn1
REMARK SMILES IDX 8 1 7 2 5 3 6 4 2 5 1 6 3 7 4 8 9 9 10 10 11 11 12 12 29 13
REMARK SMILES IDX 13 14 28 15 14 16 15 17 24 18 16 19 23 20 19 21 18 22 22 23
REMARK SMILES IDX 20 24 27 25 21 26 25 27 26 28 17 29
REMARK H PARENT 17 30 17 31
ROOT
ATOM      1  C   UNL     1      47.380 134.920  22.985  1.00  0.00     0.016 C 
ENDROOT
BRANCH   1   2
ATOM      2  C   UNL     1      48.571 135.511  23.752  1.00  0.00     0.085 C 
BRANCH   2   3
ATOM      3  N   UNL     1      49.067 136.730  23.066  1.00  0.00    -0.291 NA
ATOM      4  C   UNL     1      49.888 137.551  23.976  1.00  0.00     0.106 C 
BRANCH   3   5
ATOM      5  C   UNL     1      47.997 137.551  22.441  1.00  0.00     0.157 C 
ATOM      6  C   UNL     1      47.305 138.431  23.488  1.00  0.00     0.041 C 
BRANCH   5   7
ATOM      7  C   UNL     1      48.487 138.374  21.314  1.00  0.00     0.081 C 
ATOM      8  N   UNL     1      48.874 139.017  20.432  1.00  0.00    -0.197 NA
ENDBRANCH   5   7
ENDBRANCH   3   5
ENDBRANCH   2   3
ENDBRANCH   1   2
BRANCH   1   9
ATOM      9  C   UNL     1      46.306 134.322  23.914  1.00  0.00     0.008 C 
BRANCH   9  10
ATOM     10  C   UNL     1      44.893 134.274  23.305  1.00  0.00     0.060 C 
BRANCH  10  11
ATOM     11  C   UNL     1      44.769 133.215  22.251  1.00  0.00     0.083 A 
ATOM     12  C   UNL     1      44.982 133.368  20.898  1.00  0.00     0.140 A 
ATOM     13  N   UNL     1      44.324 131.962  22.475  1.00  0.00    -0.135 NA
ATOM     14  N   UNL     1      44.686 132.180  20.339  1.00  0.00    -0.220 N 
ATOM     15  N   UNL     1      44.280 131.359  21.297  1.00  0.00    -0.062 NA
BRANCH  14  16
ATOM     16  C   UNL     1      44.634 131.868  18.938  1.00  0.00     0.076 A 
ATOM     17  C   UNL     1      45.619 130.993  18.392  1.00  0.00     0.053 A 
ATOM     18  C   UNL     1      43.623 132.387  18.083  1.00  0.00     0.007 A 
ATOM     19  C   UNL     1      45.593 130.610  17.028  1.00  0.00     0.019 A 
ATOM     20  C   UNL     1      42.618 133.321  18.435  1.00  0.00     0.011 A 
ATOM     21  C   UNL     1      43.641 131.970  16.759  1.00  0.00    -0.020 A 
ATOM     22  C   UNL     1      44.570 131.122  16.225  1.00  0.00    -0.102 A 
ATOM     23  C   UNL     1      41.677 133.752  17.465  1.00  0.00     0.001 A 
ATOM     24  C   UNL     1      42.753 132.374  15.819  1.00  0.00     0.006 A 
ATOM     25  N   UNL     1      44.339 130.895  14.829  1.00  0.00    -0.620 NA
ATOM     26  C   UNL     1      41.738 133.274  16.136  1.00  0.00     0.011 A 
ATOM     27  C   UNL     1      43.172 131.701  14.594  1.00  0.00     0.086 C 
ATOM     28  O   UNL     1      42.604 131.799  13.477  1.00  0.00    -0.315 OA
BRANCH  19  29
ATOM     29  N   UNL     1      46.574 129.714  16.498  1.00  0.00    -0.400 N 
ATOM     30  H   UNL     1      46.953 128.935  17.080  1.00  0.00     0.156 HD
ATOM     31  H   UNL     1      46.921 129.819  15.519  1.00  0.00     0.156 HD
ENDBRANCH  19  29
ENDBRANCH  14  16
ENDBRANCH  10  11
ENDBRANCH   9  10
ENDBRANCH   1   9
TORSDOF 9
ENDMDL
MODEL 8
REMARK VINA RESULT:      -5.4      3.255      6.151
REMARK SMILES C[C@@H](C#N)N(C)CCCCc1cn(-c2cc(N)c3c4c(cccc24)C(=O)[N-]3)nn1
REMARK SMILES IDX 8 1 7 2 5 3 6 4 2 5 1 6 3 7 4 8 9 9 10 10 11 11 12 12 29 13
REMARK SMILES IDX 13 14 28 15 14 16 15 17 24 18 16 19 23 20 19 21 18 22 22 23
REMARK SMILES IDX 20 24 27 25 21 26 25 27 26 28 17 29
REMARK H PARENT 17 30 17 31
ROOT
ATOM      1  C   UNL     1      42.130 132.884  15.226  1.00  0.00     0.016 C 
ENDROOT
BRANCH   1   2
ATOM      2  C   UNL     1      43.193 132.222  14.338  1.00  0.00     0.085 C 
BRANCH   2   3
ATOM      3  N   UNL     1      44.331 131.753  15.165  1.00  0.00    -0.291 NA
ATOM      4  C   UNL     1      45.090 132.892  15.715  1.00  0.00     0.106 C 
BRANCH   3   5
ATOM      5  C   UNL     1      45.240 130.807  14.465  1.00  0.00     0.157 C 
ATOM      6  C   UNL     1      46.681 131.330  14.476  1.00  0.00     0.041 C 
BRANCH   5   7
ATOM      7  C   UNL     1      45.181 129.436  15.018  1.00  0.00     0.081 C 
ATOM      8  N   UNL     1      45.137 128.362  15.447  1.00  0.00    -0.197 NA
ENDBRANCH   5   7
ENDBRANCH   3   5
ENDBRANCH   2   3
ENDBRANCH   1   2
BRANCH   1   9
ATOM      9  C   UNL     1      41.720 134.284  14.730  1.00  0.00     0.008 C 
BRANCH   9  10
ATOM     10  C   UNL     1      42.266 135.446  15.578  1.00  0.00     0.060 C 
BRANCH  10  11
ATOM     11  C   UNL     1      42.001 135.248  17.040  1.00  0.00     0.083 A 
ATOM     12  C   UNL     1      42.693 134.423  17.901  1.00  0.00     0.140 A 
ATOM     13  N   UNL     1      40.961 135.787  17.709  1.00  0.00    -0.135 NA
ATOM     14  N   UNL     1      42.063 134.511  19.087  1.00  0.00    -0.220 N 
ATOM     15  N   UNL     1      41.022 135.318  18.947  1.00  0.00    -0.062 NA
BRANCH  14  16
ATOM     16  C   UNL     1      42.332 133.745  20.273  1.00  0.00     0.076 A 
ATOM     17  C   UNL     1      41.498 133.931  21.415  1.00  0.00     0.053 A 
ATOM     18  C   UNL     1      43.389 132.796  20.338  1.00  0.00     0.007 A 
ATOM     19  C   UNL     1      41.683 133.172  22.596  1.00  0.00     0.019 A 
ATOM     20  C   UNL     1      44.354 132.538  19.334  1.00  0.00     0.011 A 
ATOM     21  C   UNL     1      43.517 132.075  21.517  1.00  0.00    -0.020 A 
ATOM     22  C   UNL     1      42.718 132.232  22.614  1.00  0.00    -0.102 A 
ATOM     23  C   UNL     1      45.358 131.559  19.548  1.00  0.00     0.001 A 
ATOM     24  C   UNL     1      44.471 131.139  21.740  1.00  0.00     0.006 A 
ATOM     25  N   UNL     1      43.108 131.362  23.683  1.00  0.00    -0.620 NA
ATOM     26  C   UNL     1      45.422 130.843  20.766  1.00  0.00     0.011 A 
ATOM     27  C   UNL     1      44.226 130.672  23.100  1.00  0.00     0.086 C 
ATOM     28  O   UNL     1      44.891 129.788  23.699  1.00  0.00    -0.315 OA
BRANCH  19  29
ATOM     29  N   UNL     1      40.826 133.353  23.726  1.00  0.00    -0.400 N 
ATOM     30  H   UNL     1      39.795 133.212  23.641  1.00  0.00     0.156 HD
ATOM     31  H   UNL     1      41.217 133.620  24.657  1.00  0.00     0.156 HD
ENDBRANCH  19  29
ENDBRANCH  14  16
ENDBRANCH  10  11
ENDBRANCH   9  10
ENDBRANCH   1   9
TORSDOF 9
ENDMDL
MODEL 9
REMARK VINA RESULT:      -5.4      2.703      3.530
REMARK SMILES C[C@@H](C#N)N(C)CCCCc1cn(-c2cc(N)c3c4c(cccc24)C(=O)[N-]3)nn1
REMARK SMILES IDX 8 1 7 2 5 3 6 4 2 5 1 6 3 7 4 8 9 9 10 10 11 11 12 12 29 13
REMARK SMILES IDX 13 14 28 15 14 16 15 17 24 18 16 19 23 20 19 21 18 22 22 23
REMARK SMILES IDX 20 24 27 25 21 26 25 27 26 28 17 29
REMARK H PARENT 17 30 17 31
ROOT
ATOM      1  C   UNL     1      36.714 137.345  15.263  1.00  0.00     0.016 C 
ENDROOT
BRANCH   1   2
ATOM      2  C   UNL     1      37.679 138.137  14.370  1.00  0.00     0.085 C 
BRANCH   2   3
ATOM      3  N   UNL     1      38.652 137.219  13.729  1.00  0.00    -0.291 NA
ATOM      4  C   UNL     1      40.035 137.565  14.110  1.00  0.00     0.106 C 
BRANCH   3   5
ATOM      5  C   UNL     1      38.522 137.135  12.250  1.00  0.00     0.157 C 
ATOM      6  C   UNL     1      38.515 135.673  11.787  1.00  0.00     0.041 C 
BRANCH   5   7
ATOM      7  C   UNL     1      37.334 137.849  11.734  1.00  0.00     0.081 C 
ATOM      8  N   UNL     1      36.402 138.405  11.330  1.00  0.00    -0.197 NA
ENDBRANCH   5   7
ENDBRANCH   3   5
ENDBRANCH   2   3
ENDBRANCH   1   2
BRANCH   1   9
ATOM      9  C   UNL     1      36.959 135.825  15.211  1.00  0.00     0.008 C 
BRANCH   9  10
ATOM     10  C   UNL     1      37.285 135.186  16.573  1.00  0.00     0.060 C 
BRANCH  10  11
ATOM     11  C   UNL     1      38.761 135.110  16.821  1.00  0.00     0.083 A 
ATOM     12  C   UNL     1      39.529 133.967  16.887  1.00  0.00     0.140 A 
ATOM     13  N   UNL     1      39.542 136.168  17.120  1.00  0.00    -0.135 NA
ATOM     14  N   UNL     1      40.774 134.374  17.198  1.00  0.00    -0.220 N 
ATOM     15  N   UNL     1      40.757 135.691  17.348  1.00  0.00    -0.062 NA
BRANCH  14  16
ATOM     16  C   UNL     1      41.910 133.547  17.498  1.00  0.00     0.076 A 
ATOM     17  C   UNL     1      42.325 133.415  18.855  1.00  0.00     0.053 A 
ATOM     18  C   UNL     1      42.620 132.841  16.487  1.00  0.00     0.007 A 
ATOM     19  C   UNL     1      43.408 132.577  19.218  1.00  0.00     0.019 A 
ATOM     20  C   UNL     1      42.395 132.914  15.090  1.00  0.00     0.011 A 
ATOM     21  C   UNL     1      43.665 132.028  16.903  1.00  0.00    -0.020 A 
ATOM     22  C   UNL     1      44.067 131.881  18.201  1.00  0.00    -0.102 A 
ATOM     23  C   UNL     1      43.195 132.150  14.202  1.00  0.00     0.001 A 
ATOM     24  C   UNL     1      44.440 131.295  16.068  1.00  0.00     0.006 A 
ATOM     25  N   UNL     1      45.184 130.992  18.312  1.00  0.00    -0.620 NA
ATOM     26  C   UNL     1      44.232 131.325  14.690  1.00  0.00     0.011 A 
ATOM     27  C   UNL     1      45.402 130.627  16.939  1.00  0.00     0.086 C 
ATOM     28  O   UNL     1      46.305 129.838  16.560  1.00  0.00    -0.315 OA
BRANCH  19  29
ATOM     29  N   UNL     1      43.800 132.436  20.586  1.00  0.00    -0.400 N 
ATOM     30  H   UNL     1      43.084 132.323  21.337  1.00  0.00     0.156 HD
ATOM     31  H   UNL     1      44.809 132.435  20.856  1.00  0.00     0.156 HD
ENDBRANCH  19  29
ENDBRANCH  14  16
ENDBRANCH  10  11
ENDBRANCH   9  10
ENDBRANCH   1   9
TORSDOF 9
ENDMDL


