REMARK SMILES [N-]=[N+]=Nc1c(Cl)c(Cl)c(OC(=O)[C@]2(N)C[C@H](CO)C2)ccccc([O-])c1NC1(CF)COC1
REMARK SMILES IDX 10 1 11 2 12 3 13 4 16 5 15 6 19 7 17 8 18 9 14 11 9 14
REMARK SMILES IDX 20 15 7 16 21 17 5 18 22 19 4 20 23 21 26 22 24 23 8 24 6 25
REMARK SMILES IDX 25 26 3 27 2 28 1 29 27 30 28 32 31 33 33 34 32 35 29 36
REMARK SMILES IDX 30 37
REMARK H PARENT 18 10 14 12 14 13 27 31
ROOT
ATOM      1  O   UNL     1      -0.810  -1.940   1.925  1.00  0.00    -0.424 OA
ENDROOT
BRANCH   1   2
ATOM      2  C   UNL     1      -2.153  -2.325   2.016  1.00  0.00     0.331 C 
ATOM      3  O   UNL     1      -2.626  -3.179   1.216  1.00  0.00    -0.250 OA
BRANCH   2   4
ATOM      4  C   UNL     1      -3.006  -1.795   3.144  1.00  0.00     0.116 C 
ATOM      5  C   UNL     1      -4.078   0.086   3.080  1.00  0.00     0.019 C 
ATOM      6  C   UNL     1      -2.687  -0.348   3.541  1.00  0.00     0.040 C 
ATOM      7  C   UNL     1      -4.412  -1.361   2.710  1.00  0.00     0.040 C 
BRANCH   5   8
ATOM      8  C   UNL     1      -4.043   1.044   1.877  1.00  0.00     0.159 C 
BRANCH   8   9
ATOM      9  O   UNL     1      -5.345   1.377   1.480  1.00  0.00    -0.396 OA
ATOM     10  H   UNL     1      -5.687   0.612   0.949  1.00  0.00     0.210 HD
ENDBRANCH   8   9
ENDBRANCH   5   8
BRANCH   4  11
ATOM     11  N   UNL     1      -3.036  -2.693   4.301  1.00  0.00    -0.316 NA
ATOM     12  H   UNL     1      -3.406  -3.621   3.991  1.00  0.00     0.119 HD
ATOM     13  H   UNL     1      -2.052  -2.845   4.626  1.00  0.00     0.119 HD
ENDBRANCH   4  11
ENDBRANCH   2   4
ENDBRANCH   1   2
BRANCH   1  14
ATOM     14  C   UNL     1      -0.077  -1.866   0.730  1.00  0.00     0.151 A 
ATOM     15  C   UNL     1      -0.765  -1.703  -0.496  1.00  0.00     0.049 A 
ATOM     16  C   UNL     1       1.334  -1.882   0.849  1.00  0.00     0.102 A 
ATOM     17  C   UNL     1      -0.231  -1.961  -1.761  1.00  0.00     0.004 A 
ATOM     18  C   UNL     1       2.227  -1.294  -0.080  1.00  0.00     0.075 A 
ATOM     19  C   UNL     1       0.799  -2.874  -1.973  1.00  0.00    -0.000 A 
ATOM     20  C   UNL     1       1.869  -0.205  -0.910  1.00  0.00     0.080 A 
ATOM     21  C   UNL     1       1.879  -2.608  -2.817  1.00  0.00    -0.006 A 
ATOM     22  C   UNL     1       2.225  -0.169  -2.286  1.00  0.00     0.038 A 
ATOM     23  C   UNL     1       2.414  -1.331  -3.084  1.00  0.00    -0.084 A 
ATOM     24  Cl  UNL     1       2.011  -2.678   2.270  1.00  0.00    -0.079 Cl
ATOM     25  Cl  UNL     1       3.884  -1.891  -0.174  1.00  0.00    -0.082 Cl
ATOM     26  O   UNL     1       3.200  -1.215  -4.226  1.00  0.00    -0.871 OA
BRANCH  20  27
ATOM     27  N   UNL     1       1.143   0.907  -0.363  1.00  0.00    -0.057 NA
BRANCH  27  28
ATOM     28  N   UNL     1       0.987   1.075   0.847  1.00  0.00     0.005 N 
ATOM     29  N   UNL     1       0.826   1.246   2.055  1.00  0.00    -0.003 NA
ENDBRANCH  27  28
ENDBRANCH  20  27
BRANCH  22  30
ATOM     30  N   UNL     1       2.509   1.101  -2.901  1.00  0.00    -0.373 N 
ATOM     31  H   UNL     1       3.434   1.184  -3.380  1.00  0.00     0.161 HD
BRANCH  30  32
ATOM     32  C   UNL     1       1.496   2.145  -3.147  1.00  0.00     0.113 C 
ATOM     33  C   UNL     1       1.980   3.233  -4.096  1.00  0.00     0.193 C 
ATOM     34  C   UNL     1       1.543   3.268  -2.130  1.00  0.00     0.193 C 
ATOM     35  O   UNL     1       1.976   4.211  -3.083  1.00  0.00    -0.376 OA
BRANCH  32  36
ATOM     36  C   UNL     1       0.092   1.601  -3.479  1.00  0.00     0.247 C 
ATOM     37  F   UNL     1      -0.797   2.625  -3.764  1.00  0.00    -0.248 F 
ENDBRANCH  32  36
ENDBRANCH  30  32
ENDBRANCH  22  30
ENDBRANCH   1  14
TORSDOF 11


