MODEL 1
REMARK VINA RESULT:      -5.6      0.000      0.000
REMARK SMILES C[C@@H](C#N)N(C)CCCCc1cn(-c2cc(N=C=O)c3c4c(cccc24)C(=O)[N-]3)nn1
REMARK SMILES IDX 9 1 10 2 11 3 13 4 30 5 12 6 31 7 14 8 24 9 23 10 25 11
REMARK SMILES IDX 22 12 26 13 21 14 27 15 20 16 29 17 15 18 16 19 28 20 17 21
REMARK SMILES IDX 18 22 19 23 8 24 7 25 5 26 6 27 2 28 1 29 3 30 4 31
REMARK H PARENT
ROOT
ATOM      1  C   UNL     1      39.360 135.609  13.492  1.00  0.00     0.008 C 
ENDROOT
BRANCH   1   2
ATOM      2  C   UNL     1      40.801 135.843  13.965  1.00  0.00     0.060 C 
BRANCH   2   3
ATOM      3  C   UNL     1      41.384 134.578  14.510  1.00  0.00     0.083 A 
ATOM      4  N   UNL     1      42.467 133.142  15.734  1.00  0.00    -0.220 N 
ATOM      5  N   UNL     1      41.731 132.490  14.846  1.00  0.00    -0.062 NA
ATOM      6  C   UNL     1      42.279 134.462  15.548  1.00  0.00     0.140 A 
ATOM      7  N   UNL     1      41.046 133.342  14.095  1.00  0.00    -0.135 NA
BRANCH   4   8
ATOM      8  C   UNL     1      43.367 132.521  16.667  1.00  0.00     0.076 A 
ATOM      9  C   UNL     1      42.008 133.241  20.143  1.00  0.00     0.001 A 
ATOM     10  C   UNL     1      42.943 132.514  20.914  1.00  0.00     0.011 A 
ATOM     11  C   UNL     1      42.103 133.275  18.728  1.00  0.00     0.011 A 
ATOM     12  C   UNL     1      43.953 131.838  20.233  1.00  0.00     0.006 A 
ATOM     13  C   UNL     1      43.135 132.564  18.068  1.00  0.00     0.007 A 
ATOM     14  C   UNL     1      44.028 131.877  18.877  1.00  0.00    -0.019 A 
ATOM     15  C   UNL     1      45.098 131.042  20.652  1.00  0.00     0.086 C 
ATOM     16  C   UNL     1      45.117 131.187  18.424  1.00  0.00    -0.098 A 
ATOM     17  N   UNL     1      45.860 130.617  19.511  1.00  0.00    -0.620 NA
ATOM     18  C   UNL     1      44.508 131.818  16.178  1.00  0.00     0.057 A 
ATOM     19  C   UNL     1      45.395 131.141  17.047  1.00  0.00     0.064 A 
ATOM     20  O   UNL     1      45.397 130.757  21.841  1.00  0.00    -0.315 OA
BRANCH  19  21
ATOM     21  N   UNL     1      46.519 130.441  16.488  1.00  0.00    -0.169 NA
BRANCH  21  22
ATOM     22  C   UNL     1      46.701 130.257  15.242  1.00  0.00     0.240 C 
ATOM     23  O   UNL     1      46.881 130.076  14.031  1.00  0.00    -0.211 OA
ENDBRANCH  21  22
ENDBRANCH  19  21
ENDBRANCH   4   8
ENDBRANCH   2   3
ENDBRANCH   1   2
BRANCH   1  24
ATOM     24  C   UNL     1      38.440 136.817  13.753  1.00  0.00     0.016 C 
BRANCH  24  25
ATOM     25  C   UNL     1      38.152 137.052  15.245  1.00  0.00     0.085 C 
BRANCH  25  26
ATOM     26  N   UNL     1      37.775 135.783  15.920  1.00  0.00    -0.291 NA
ATOM     27  C   UNL     1      36.384 135.427  15.566  1.00  0.00     0.106 C 
BRANCH  26  28
ATOM     28  C   UNL     1      37.984 135.857  17.393  1.00  0.00     0.157 C 
ATOM     29  C   UNL     1      39.461 135.688  17.792  1.00  0.00     0.041 C 
BRANCH  28  30
ATOM     30  C   UNL     1      37.548 137.175  17.895  1.00  0.00     0.081 C 
ATOM     31  N   UNL     1      37.204 138.208  18.291  1.00  0.00    -0.197 NA
ENDBRANCH  28  30
ENDBRANCH  26  28
ENDBRANCH  25  26
ENDBRANCH  24  25
ENDBRANCH   1  24
TORSDOF 10
ENDMDL
MODEL 2
REMARK VINA RESULT:      -5.6      1.515      2.056
REMARK SMILES C[C@@H](C#N)N(C)CCCCc1cn(-c2cc(N=C=O)c3c4c(cccc24)C(=O)[N-]3)nn1
REMARK SMILES IDX 9 1 10 2 11 3 13 4 30 5 12 6 31 7 14 8 24 9 23 10 25 11
REMARK SMILES IDX 22 12 26 13 21 14 27 15 20 16 29 17 15 18 16 19 28 20 17 21
REMARK SMILES IDX 18 22 19 23 8 24 7 25 5 26 6 27 2 28 1 29 3 30 4 31
REMARK H PARENT
ROOT
ATOM      1  C   UNL     1      37.743 134.918  16.046  1.00  0.00     0.008 C 
ENDROOT
BRANCH   1   2
ATOM      2  C   UNL     1      38.681 135.271  14.884  1.00  0.00     0.060 C 
BRANCH   2   3
ATOM      3  C   UNL     1      39.843 134.330  14.846  1.00  0.00     0.083 A 
ATOM      4  N   UNL     1      41.581 133.143  15.398  1.00  0.00    -0.220 N 
ATOM      5  N   UNL     1      41.175 132.785  14.189  1.00  0.00    -0.062 NA
ATOM      6  C   UNL     1      40.770 134.120  15.842  1.00  0.00     0.140 A 
ATOM      7  N   UNL     1      40.105 133.482  13.833  1.00  0.00    -0.135 NA
BRANCH   4   8
ATOM      8  C   UNL     1      42.745 132.619  16.061  1.00  0.00     0.076 A 
ATOM      9  C   UNL     1      41.948 132.548  19.777  1.00  0.00     0.001 A 
ATOM     10  C   UNL     1      43.135 131.951  20.258  1.00  0.00     0.011 A 
ATOM     11  C   UNL     1      41.767 132.790  18.391  1.00  0.00     0.011 A 
ATOM     12  C   UNL     1      44.112 131.614  19.323  1.00  0.00     0.006 A 
ATOM     13  C   UNL     1      42.776 132.422  17.467  1.00  0.00     0.007 A 
ATOM     14  C   UNL     1      43.922 131.850  17.999  1.00  0.00    -0.019 A 
ATOM     15  C   UNL     1      45.449 131.045  19.418  1.00  0.00     0.086 C 
ATOM     16  C   UNL     1      45.021 131.487  17.272  1.00  0.00    -0.098 A 
ATOM     17  N   UNL     1      46.051 130.956  18.117  1.00  0.00    -0.620 NA
ATOM     18  C   UNL     1      43.888 132.259  15.288  1.00  0.00     0.057 A 
ATOM     19  C   UNL     1      45.038 131.688  15.881  1.00  0.00     0.064 A 
ATOM     20  O   UNL     1      46.015 130.677  20.480  1.00  0.00    -0.315 OA
BRANCH  19  21
ATOM     21  N   UNL     1      46.153 131.337  15.043  1.00  0.00    -0.169 NA
BRANCH  21  22
ATOM     22  C   UNL     1      46.045 130.909  13.850  1.00  0.00     0.240 C 
ATOM     23  O   UNL     1      45.938 130.491  12.690  1.00  0.00    -0.211 OA
ENDBRANCH  21  22
ENDBRANCH  19  21
ENDBRANCH   4   8
ENDBRANCH   2   3
ENDBRANCH   1   2
BRANCH   1  24
ATOM     24  C   UNL     1      37.024 136.149  16.629  1.00  0.00     0.016 C 
BRANCH  24  25
ATOM     25  C   UNL     1      37.226 136.313  18.144  1.00  0.00     0.085 C 
BRANCH  25  26
ATOM     26  N   UNL     1      38.147 137.441  18.440  1.00  0.00    -0.291 NA
ATOM     27  C   UNL     1      37.961 138.510  17.436  1.00  0.00     0.106 C 
BRANCH  26  28
ATOM     28  C   UNL     1      39.563 136.988  18.531  1.00  0.00     0.157 C 
ATOM     29  C   UNL     1      40.458 137.616  17.447  1.00  0.00     0.041 C 
BRANCH  28  30
ATOM     30  C   UNL     1      40.130 137.374  19.839  1.00  0.00     0.081 C 
ATOM     31  N   UNL     1      40.573 137.675  20.865  1.00  0.00    -0.197 NA
ENDBRANCH  28  30
ENDBRANCH  26  28
ENDBRANCH  25  26
ENDBRANCH  24  25
ENDBRANCH   1  24
TORSDOF 10
ENDMDL
MODEL 3
REMARK VINA RESULT:      -5.3      1.767      4.549
REMARK SMILES C[C@@H](C#N)N(C)CCCCc1cn(-c2cc(N=C=O)c3c4c(cccc24)C(=O)[N-]3)nn1
REMARK SMILES IDX 9 1 10 2 11 3 13 4 30 5 12 6 31 7 14 8 24 9 23 10 25 11
REMARK SMILES IDX 22 12 26 13 21 14 27 15 20 16 29 17 15 18 16 19 28 20 17 21
REMARK SMILES IDX 18 22 19 23 8 24 7 25 5 26 6 27 2 28 1 29 3 30 4 31
REMARK H PARENT
ROOT
ATOM      1  C   UNL     1      37.709 134.224  17.825  1.00  0.00     0.008 C 
ENDROOT
BRANCH   1   2
ATOM      2  C   UNL     1      38.733 134.228  18.967  1.00  0.00     0.060 C 
BRANCH   2   3
ATOM      3  C   UNL     1      40.120 134.089  18.426  1.00  0.00     0.083 A 
ATOM      4  N   UNL     1      42.030 133.276  17.774  1.00  0.00    -0.220 N 
ATOM      5  N   UNL     1      41.954 134.549  17.416  1.00  0.00    -0.062 NA
ATOM      6  C   UNL     1      40.895 132.951  18.419  1.00  0.00     0.140 A 
ATOM      7  N   UNL     1      40.791 135.067  17.787  1.00  0.00    -0.135 NA
BRANCH   4   8
ATOM      8  C   UNL     1      43.177 132.433  17.569  1.00  0.00     0.076 A 
ATOM      9  C   UNL     1      43.321 131.666  13.849  1.00  0.00     0.001 A 
ATOM     10  C   UNL     1      44.517 130.914  13.812  1.00  0.00     0.011 A 
ATOM     11  C   UNL     1      42.832 132.195  15.071  1.00  0.00     0.011 A 
ATOM     12  C   UNL     1      45.190 130.715  15.016  1.00  0.00     0.006 A 
ATOM     13  C   UNL     1      43.551 131.984  16.274  1.00  0.00     0.007 A 
ATOM     14  C   UNL     1      44.711 131.230  16.177  1.00  0.00    -0.019 A 
ATOM     15  C   UNL     1      46.390 129.980  15.394  1.00  0.00     0.086 C 
ATOM     16  C   UNL     1      45.499 130.875  17.236  1.00  0.00    -0.098 A 
ATOM     17  N   UNL     1      46.606 130.067  16.811  1.00  0.00    -0.620 NA
ATOM     18  C   UNL     1      43.980 132.059  18.687  1.00  0.00     0.057 A 
ATOM     19  C   UNL     1      45.151 131.279  18.536  1.00  0.00     0.064 A 
ATOM     20  O   UNL     1      47.143 129.351  14.606  1.00  0.00    -0.315 OA
BRANCH  19  21
ATOM     21  N   UNL     1      45.922 130.947  19.703  1.00  0.00    -0.169 NA
BRANCH  21  22
ATOM     22  C   UNL     1      45.604 131.278  20.890  1.00  0.00     0.240 C 
ATOM     23  O   UNL     1      45.291 131.599  22.043  1.00  0.00    -0.211 OA
ENDBRANCH  21  22
ENDBRANCH  19  21
ENDBRANCH   4   8
ENDBRANCH   2   3
ENDBRANCH   1   2
BRANCH   1  24
ATOM     24  C   UNL     1      38.180 135.026  16.597  1.00  0.00     0.016 C 
BRANCH  24  25
ATOM     25  C   UNL     1      37.923 134.304  15.263  1.00  0.00     0.085 C 
BRANCH  25  26
ATOM     26  N   UNL     1      38.461 135.089  14.122  1.00  0.00    -0.291 NA
ATOM     27  C   UNL     1      39.888 135.396  14.359  1.00  0.00     0.106 C 
BRANCH  26  28
ATOM     28  C   UNL     1      37.653 136.312  13.862  1.00  0.00     0.157 C 
ATOM     29  C   UNL     1      38.219 137.559  14.566  1.00  0.00     0.041 C 
BRANCH  28  30
ATOM     30  C   UNL     1      37.634 136.602  12.415  1.00  0.00     0.081 C 
ATOM     31  N   UNL     1      37.617 136.830  11.279  1.00  0.00    -0.197 NA
ENDBRANCH  28  30
ENDBRANCH  26  28
ENDBRANCH  25  26
ENDBRANCH  24  25
ENDBRANCH   1  24
TORSDOF 10
ENDMDL
MODEL 4
REMARK VINA RESULT:      -5.2      1.906      4.488
REMARK SMILES C[C@@H](C#N)N(C)CCCCc1cn(-c2cc(N=C=O)c3c4c(cccc24)C(=O)[N-]3)nn1
REMARK SMILES IDX 9 1 10 2 11 3 13 4 30 5 12 6 31 7 14 8 24 9 23 10 25 11
REMARK SMILES IDX 22 12 26 13 21 14 27 15 20 16 29 17 15 18 16 19 28 20 17 21
REMARK SMILES IDX 18 22 19 23 8 24 7 25 5 26 6 27 2 28 1 29 3 30 4 31
REMARK H PARENT
ROOT
ATOM      1  C   UNL     1      40.075 137.906  18.244  1.00  0.00     0.008 C 
ENDROOT
BRANCH   1   2
ATOM      2  C   UNL     1      40.582 137.065  19.423  1.00  0.00     0.060 C 
BRANCH   2   3
ATOM      3  C   UNL     1      40.904 135.676  18.974  1.00  0.00     0.083 A 
ATOM      4  N   UNL     1      41.962 133.846  18.461  1.00  0.00    -0.220 N 
ATOM      5  N   UNL     1      40.657 133.621  18.415  1.00  0.00    -0.062 NA
ATOM      6  C   UNL     1      42.157 135.132  18.803  1.00  0.00     0.140 A 
ATOM      7  N   UNL     1      39.986 134.718  18.740  1.00  0.00    -0.135 NA
BRANCH   4   8
ATOM      8  C   UNL     1      42.972 132.882  18.116  1.00  0.00     0.076 A 
ATOM      9  C   UNL     1      42.654 132.249  14.381  1.00  0.00     0.001 A 
ATOM     10  C   UNL     1      43.740 131.364  14.202  1.00  0.00     0.011 A 
ATOM     11  C   UNL     1      42.356 132.784  15.661  1.00  0.00     0.011 A 
ATOM     12  C   UNL     1      44.499 131.039  15.324  1.00  0.00     0.006 A 
ATOM     13  C   UNL     1      43.159 132.443  16.778  1.00  0.00     0.007 A 
ATOM     14  C   UNL     1      44.204 131.562  16.542  1.00  0.00    -0.019 A 
ATOM     15  C   UNL     1      45.632 130.154  15.556  1.00  0.00     0.086 C 
ATOM     16  C   UNL     1      45.044 131.076  17.504  1.00  0.00    -0.098 A 
ATOM     17  N   UNL     1      45.997 130.160  16.946  1.00  0.00    -0.620 NA
ATOM     18  C   UNL     1      43.831 132.373  19.135  1.00  0.00     0.057 A 
ATOM     19  C   UNL     1      44.877 131.467  18.843  1.00  0.00     0.064 A 
ATOM     20  O   UNL     1      46.222 129.472  14.679  1.00  0.00    -0.315 OA
BRANCH  19  21
ATOM     21  N   UNL     1      45.714 131.000  19.915  1.00  0.00    -0.169 NA
BRANCH  21  22
ATOM     22  C   UNL     1      46.158 131.740  20.850  1.00  0.00     0.240 C 
ATOM     23  O   UNL     1      46.594 132.458  21.759  1.00  0.00    -0.211 OA
ENDBRANCH  21  22
ENDBRANCH  19  21
ENDBRANCH   4   8
ENDBRANCH   2   3
ENDBRANCH   1   2
BRANCH   1  24
ATOM     24  C   UNL     1      39.357 137.063  17.172  1.00  0.00     0.016 C 
BRANCH  24  25
ATOM     25  C   UNL     1      39.962 137.220  15.768  1.00  0.00     0.085 C 
BRANCH  25  26
ATOM     26  N   UNL     1      40.700 135.995  15.365  1.00  0.00    -0.291 NA
ATOM     27  C   UNL     1      42.121 136.326  15.128  1.00  0.00     0.106 C 
BRANCH  26  28
ATOM     28  C   UNL     1      40.068 135.330  14.192  1.00  0.00     0.157 C 
ATOM     29  C   UNL     1      39.064 134.237  14.598  1.00  0.00     0.041 C 
BRANCH  28  30
ATOM     30  C   UNL     1      39.327 136.325  13.392  1.00  0.00     0.081 C 
ATOM     31  N   UNL     1      38.746 137.107  12.765  1.00  0.00    -0.197 NA
ENDBRANCH  28  30
ENDBRANCH  26  28
ENDBRANCH  25  26
ENDBRANCH  24  25
ENDBRANCH   1  24
TORSDOF 10
ENDMDL
MODEL 5
REMARK VINA RESULT:      -5.0      4.781      7.950
REMARK SMILES C[C@@H](C#N)N(C)CCCCc1cn(-c2cc(N=C=O)c3c4c(cccc24)C(=O)[N-]3)nn1
REMARK SMILES IDX 9 1 10 2 11 3 13 4 30 5 12 6 31 7 14 8 24 9 23 10 25 11
REMARK SMILES IDX 22 12 26 13 21 14 27 15 20 16 29 17 15 18 16 19 28 20 17 21
REMARK SMILES IDX 18 22 19 23 8 24 7 25 5 26 6 27 2 28 1 29 3 30 4 31
REMARK H PARENT
ROOT
ATOM      1  C   UNL     1      47.448 134.663  21.794  1.00  0.00     0.008 C 
ENDROOT
BRANCH   1   2
ATOM      2  C   UNL     1      46.189 134.296  22.592  1.00  0.00     0.060 C 
BRANCH   2   3
ATOM      3  C   UNL     1      45.134 133.751  21.682  1.00  0.00     0.083 A 
ATOM      4  N   UNL     1      44.038 133.096  19.921  1.00  0.00    -0.220 N 
ATOM      5  N   UNL     1      43.374 132.733  21.008  1.00  0.00    -0.062 NA
ATOM      6  C   UNL     1      45.151 133.747  20.306  1.00  0.00     0.140 A 
ATOM      7  N   UNL     1      44.028 133.106  22.099  1.00  0.00    -0.135 NA
BRANCH   4   8
ATOM      8  C   UNL     1      43.581 132.891  18.573  1.00  0.00     0.076 A 
ATOM      9  C   UNL     1      40.487 135.053  18.124  1.00  0.00     0.001 A 
ATOM     10  C   UNL     1      40.221 134.798  16.760  1.00  0.00     0.011 A 
ATOM     11  C   UNL     1      41.593 134.446  18.774  1.00  0.00     0.011 A 
ATOM     12  C   UNL     1      41.081 133.933  16.086  1.00  0.00     0.006 A 
ATOM     13  C   UNL     1      42.454 133.582  18.054  1.00  0.00     0.007 A 
ATOM     14  C   UNL     1      42.136 133.362  16.722  1.00  0.00    -0.019 A 
ATOM     15  C   UNL     1      41.118 133.395  14.733  1.00  0.00     0.086 C 
ATOM     16  C   UNL     1      42.815 132.517  15.890  1.00  0.00    -0.098 A 
ATOM     17  N   UNL     1      42.219 132.484  14.585  1.00  0.00    -0.620 NA
ATOM     18  C   UNL     1      44.292 131.994  17.722  1.00  0.00     0.057 A 
ATOM     19  C   UNL     1      43.921 131.796  16.371  1.00  0.00     0.064 A 
ATOM     20  O   UNL     1      40.309 133.675  13.811  1.00  0.00    -0.315 OA
BRANCH  19  21
ATOM     21  N   UNL     1      44.687 130.886  15.564  1.00  0.00    -0.169 NA
BRANCH  21  22
ATOM     22  C   UNL     1      45.851 130.469  15.864  1.00  0.00     0.240 C 
ATOM     23  O   UNL     1      46.985 130.065  16.151  1.00  0.00    -0.211 OA
ENDBRANCH  21  22
ENDBRANCH  19  21
ENDBRANCH   4   8
ENDBRANCH   2   3
ENDBRANCH   1   2
BRANCH   1  24
ATOM     24  C   UNL     1      47.564 136.174  21.521  1.00  0.00     0.016 C 
BRANCH  24  25
ATOM     25  C   UNL     1      47.366 137.038  22.777  1.00  0.00     0.085 C 
BRANCH  25  26
ATOM     26  N   UNL     1      47.156 138.463  22.416  1.00  0.00    -0.291 NA
ATOM     27  C   UNL     1      46.666 138.556  21.025  1.00  0.00     0.106 C 
BRANCH  26  28
ATOM     28  C   UNL     1      48.383 139.277  22.641  1.00  0.00     0.157 C 
ATOM     29  C   UNL     1      49.280 138.703  23.753  1.00  0.00     0.041 C 
BRANCH  28  30
ATOM     30  C   UNL     1      49.192 139.316  21.407  1.00  0.00     0.081 C 
ATOM     31  N   UNL     1      49.828 139.344  20.440  1.00  0.00    -0.197 NA
ENDBRANCH  28  30
ENDBRANCH  26  28
ENDBRANCH  25  26
ENDBRANCH  24  25
ENDBRANCH   1  24
TORSDOF 10
ENDMDL
MODEL 6
REMARK VINA RESULT:      -5.0      3.393      7.663
REMARK SMILES C[C@@H](C#N)N(C)CCCCc1cn(-c2cc(N=C=O)c3c4c(cccc24)C(=O)[N-]3)nn1
REMARK SMILES IDX 9 1 10 2 11 3 13 4 30 5 12 6 31 7 14 8 24 9 23 10 25 11
REMARK SMILES IDX 22 12 26 13 21 14 27 15 20 16 29 17 15 18 16 19 28 20 17 21
REMARK SMILES IDX 18 22 19 23 8 24 7 25 5 26 6 27 2 28 1 29 3 30 4 31
REMARK H PARENT
ROOT
ATOM      1  C   UNL     1      45.614 130.075  16.034  1.00  0.00     0.008 C 
ENDROOT
BRANCH   1   2
ATOM      2  C   UNL     1      45.210 130.644  14.667  1.00  0.00     0.060 C 
BRANCH   2   3
ATOM      3  C   UNL     1      44.391 131.883  14.839  1.00  0.00     0.083 A 
ATOM      4  N   UNL     1      42.724 133.269  15.032  1.00  0.00    -0.220 N 
ATOM      5  N   UNL     1      43.854 133.906  15.302  1.00  0.00    -0.062 NA
ATOM      6  C   UNL     1      43.023 131.992  14.729  1.00  0.00     0.140 A 
ATOM      7  N   UNL     1      44.887 133.080  15.207  1.00  0.00    -0.135 NA
BRANCH   4   8
ATOM      8  C   UNL     1      41.424 133.883  14.995  1.00  0.00     0.076 A 
ATOM      9  C   UNL     1      40.016 133.680  18.520  1.00  0.00     0.001 A 
ATOM     10  C   UNL     1      38.803 134.378  18.326  1.00  0.00     0.011 A 
ATOM     11  C   UNL     1      40.924 133.488  17.446  1.00  0.00     0.011 A 
ATOM     12  C   UNL     1      38.537 134.866  17.049  1.00  0.00     0.006 A 
ATOM     13  C   UNL     1      40.627 134.011  16.163  1.00  0.00     0.007 A 
ATOM     14  C   UNL     1      39.417 134.679  16.032  1.00  0.00    -0.019 A 
ATOM     15  C   UNL     1      37.413 135.573  16.450  1.00  0.00     0.086 C 
ATOM     16  C   UNL     1      38.937 135.196  14.862  1.00  0.00    -0.098 A 
ATOM     17  N   UNL     1      37.646 135.793  15.050  1.00  0.00    -0.620 NA
ATOM     18  C   UNL     1      40.932 134.404  13.762  1.00  0.00     0.057 A 
ATOM     19  C   UNL     1      39.685 135.068  13.679  1.00  0.00     0.064 A 
ATOM     20  O   UNL     1      36.375 135.947  17.056  1.00  0.00    -0.315 OA
BRANCH  19  21
ATOM     21  N   UNL     1      39.252 135.580  12.408  1.00  0.00    -0.169 NA
BRANCH  21  22
ATOM     22  C   UNL     1      38.891 136.784  12.205  1.00  0.00     0.240 C 
ATOM     23  O   UNL     1      38.542 137.955  12.012  1.00  0.00    -0.211 OA
ENDBRANCH  21  22
ENDBRANCH  19  21
ENDBRANCH   4   8
ENDBRANCH   2   3
ENDBRANCH   1   2
BRANCH   1  24
ATOM     24  C   UNL     1      44.691 130.544  17.174  1.00  0.00     0.016 C 
BRANCH  24  25
ATOM     25  C   UNL     1      45.451 131.175  18.353  1.00  0.00     0.085 C 
BRANCH  25  26
ATOM     26  N   UNL     1      44.518 131.869  19.278  1.00  0.00    -0.291 NA
ATOM     27  C   UNL     1      44.223 133.222  18.762  1.00  0.00     0.106 C 
BRANCH  26  28
ATOM     28  C   UNL     1      45.039 131.894  20.673  1.00  0.00     0.157 C 
ATOM     29  C   UNL     1      46.373 131.140  20.822  1.00  0.00     0.041 C 
BRANCH  28  30
ATOM     30  C   UNL     1      45.279 133.288  21.093  1.00  0.00     0.081 C 
ATOM     31  N   UNL     1      45.470 134.383  21.422  1.00  0.00    -0.197 NA
ENDBRANCH  28  30
ENDBRANCH  26  28
ENDBRANCH  25  26
ENDBRANCH  24  25
ENDBRANCH   1  24
TORSDOF 10
ENDMDL
MODEL 7
REMARK VINA RESULT:      -4.9      3.025      7.977
REMARK SMILES C[C@@H](C#N)N(C)CCCCc1cn(-c2cc(N=C=O)c3c4c(cccc24)C(=O)[N-]3)nn1
REMARK SMILES IDX 9 1 10 2 11 3 13 4 30 5 12 6 31 7 14 8 24 9 23 10 25 11
REMARK SMILES IDX 22 12 26 13 21 14 27 15 20 16 29 17 15 18 16 19 28 20 17 21
REMARK SMILES IDX 18 22 19 23 8 24 7 25 5 26 6 27 2 28 1 29 3 30 4 31
REMARK H PARENT
ROOT
ATOM      1  C   UNL     1      46.113 130.284  16.225  1.00  0.00     0.008 C 
ENDROOT
BRANCH   1   2
ATOM      2  C   UNL     1      45.085 130.654  15.147  1.00  0.00     0.060 C 
BRANCH   2   3
ATOM      3  C   UNL     1      44.422 131.952  15.481  1.00  0.00     0.083 A 
ATOM      4  N   UNL     1      43.016 133.447  16.202  1.00  0.00    -0.220 N 
ATOM      5  N   UNL     1      44.132 134.048  15.817  1.00  0.00    -0.062 NA
ATOM      6  C   UNL     1      43.159 132.125  16.000  1.00  0.00     0.140 A 
ATOM      7  N   UNL     1      45.014 133.158  15.386  1.00  0.00    -0.135 NA
BRANCH   4   8
ATOM      8  C   UNL     1      41.839 134.126  16.674  1.00  0.00     0.076 A 
ATOM      9  C   UNL     1      39.371 134.175  13.784  1.00  0.00     0.001 A 
ATOM     10  C   UNL     1      38.273 134.792  14.426  1.00  0.00     0.011 A 
ATOM     11  C   UNL     1      40.579 133.929  14.486  1.00  0.00     0.011 A 
ATOM     12  C   UNL     1      38.425 135.146  15.765  1.00  0.00     0.006 A 
ATOM     13  C   UNL     1      40.693 134.291  15.852  1.00  0.00     0.007 A 
ATOM     14  C   UNL     1      39.587 134.902  16.425  1.00  0.00    -0.019 A 
ATOM     15  C   UNL     1      37.575 135.822  16.735  1.00  0.00     0.086 C 
ATOM     16  C   UNL     1      39.534 135.370  17.707  1.00  0.00    -0.098 A 
ATOM     17  N   UNL     1      38.265 135.978  17.985  1.00  0.00    -0.620 NA
ATOM     18  C   UNL     1      41.806 134.623  18.011  1.00  0.00     0.057 A 
ATOM     19  C   UNL     1      40.655 135.248  18.545  1.00  0.00     0.064 A 
ATOM     20  O   UNL     1      36.400 136.221  16.527  1.00  0.00    -0.315 OA
BRANCH  19  21
ATOM     21  N   UNL     1      40.685 135.717  19.904  1.00  0.00    -0.169 NA
BRANCH  21  22
ATOM     22  C   UNL     1      40.148 135.107  20.883  1.00  0.00     0.240 C 
ATOM     23  O   UNL     1      39.628 134.511  21.835  1.00  0.00    -0.211 OA
ENDBRANCH  21  22
ENDBRANCH  19  21
ENDBRANCH   4   8
ENDBRANCH   2   3
ENDBRANCH   1   2
BRANCH   1  24
ATOM     24  C   UNL     1      45.471 130.037  17.603  1.00  0.00     0.016 C 
BRANCH  24  25
ATOM     25  C   UNL     1      46.075 130.904  18.720  1.00  0.00     0.085 C 
BRANCH  25  26
ATOM     26  N   UNL     1      45.119 131.061  19.848  1.00  0.00    -0.291 NA
ATOM     27  C   UNL     1      43.954 131.854  19.404  1.00  0.00     0.106 C 
BRANCH  26  28
ATOM     28  C   UNL     1      45.776 131.641  21.052  1.00  0.00     0.157 C 
ATOM     29  C   UNL     1      45.540 133.157  21.184  1.00  0.00     0.041 C 
BRANCH  28  30
ATOM     30  C   UNL     1      45.234 131.010  22.271  1.00  0.00     0.081 C 
ATOM     31  N   UNL     1      44.812 130.513  23.229  1.00  0.00    -0.197 NA
ENDBRANCH  28  30
ENDBRANCH  26  28
ENDBRANCH  25  26
ENDBRANCH  24  25
ENDBRANCH   1  24
TORSDOF 10
ENDMDL
MODEL 8
REMARK VINA RESULT:      -4.9      3.420      7.076
REMARK SMILES C[C@@H](C#N)N(C)CCCCc1cn(-c2cc(N=C=O)c3c4c(cccc24)C(=O)[N-]3)nn1
REMARK SMILES IDX 9 1 10 2 11 3 13 4 30 5 12 6 31 7 14 8 24 9 23 10 25 11
REMARK SMILES IDX 22 12 26 13 21 14 27 15 20 16 29 17 15 18 16 19 28 20 17 21
REMARK SMILES IDX 18 22 19 23 8 24 7 25 5 26 6 27 2 28 1 29 3 30 4 31
REMARK H PARENT
ROOT
ATOM      1  C   UNL     1      42.369 136.091  21.273  1.00  0.00     0.008 C 
ENDROOT
BRANCH   1   2
ATOM      2  C   UNL     1      42.188 134.683  21.854  1.00  0.00     0.060 C 
BRANCH   2   3
ATOM      3  C   UNL     1      42.259 133.657  20.769  1.00  0.00     0.083 A 
ATOM      4  N   UNL     1      42.682 132.629  18.898  1.00  0.00    -0.220 N 
ATOM      5  N   UNL     1      42.163 131.768  19.760  1.00  0.00    -0.062 NA
ATOM      6  C   UNL     1      42.753 133.832  19.496  1.00  0.00     0.140 A 
ATOM      7  N   UNL     1      41.909 132.365  20.917  1.00  0.00    -0.135 NA
BRANCH   4   8
ATOM      8  C   UNL     1      43.025 132.321  17.536  1.00  0.00     0.076 A 
ATOM      9  C   UNL     1      46.266 130.339  17.642  1.00  0.00     0.001 A 
ATOM     10  C   UNL     1      46.413 130.060  16.265  1.00  0.00     0.011 A 
ATOM     11  C   UNL     1      45.157 131.086  18.118  1.00  0.00     0.011 A 
ATOM     12  C   UNL     1      45.433 130.543  15.401  1.00  0.00     0.006 A 
ATOM     13  C   UNL     1      44.172 131.550  17.211  1.00  0.00     0.007 A 
ATOM     14  C   UNL     1      44.376 131.253  15.871  1.00  0.00    -0.019 A 
ATOM     15  C   UNL     1      45.254 130.510  13.956  1.00  0.00     0.086 C 
ATOM     16  C   UNL     1      43.566 131.667  14.851  1.00  0.00    -0.098 A 
ATOM     17  N   UNL     1      44.066 131.225  13.581  1.00  0.00    -0.620 NA
ATOM     18  C   UNL     1      42.177 132.774  16.482  1.00  0.00     0.057 A 
ATOM     19  C   UNL     1      42.434 132.452  15.129  1.00  0.00     0.064 A 
ATOM     20  O   UNL     1      46.019 129.942  13.135  1.00  0.00    -0.315 OA
BRANCH  19  21
ATOM     21  N   UNL     1      41.534 132.931  14.115  1.00  0.00    -0.169 NA
BRANCH  21  22
ATOM     22  C   UNL     1      40.921 134.044  14.170  1.00  0.00     0.240 C 
ATOM     23  O   UNL     1      40.325 135.128  14.219  1.00  0.00    -0.211 OA
ENDBRANCH  21  22
ENDBRANCH  19  21
ENDBRANCH   4   8
ENDBRANCH   2   3
ENDBRANCH   1   2
BRANCH   1  24
ATOM     24  C   UNL     1      42.550 137.168  22.360  1.00  0.00     0.016 C 
BRANCH  24  25
ATOM     25  C   UNL     1      43.976 137.221  22.933  1.00  0.00     0.085 C 
BRANCH  25  26
ATOM     26  N   UNL     1      44.618 135.882  22.888  1.00  0.00    -0.291 NA
ATOM     27  C   UNL     1      45.037 135.485  24.249  1.00  0.00     0.106 C 
BRANCH  26  28
ATOM     28  C   UNL     1      45.743 135.841  21.913  1.00  0.00     0.157 C 
ATOM     29  C   UNL     1      47.041 136.444  22.479  1.00  0.00     0.041 C 
BRANCH  28  30
ATOM     30  C   UNL     1      46.039 134.442  21.547  1.00  0.00     0.081 C 
ATOM     31  N   UNL     1      46.272 133.344  21.262  1.00  0.00    -0.197 NA
ENDBRANCH  28  30
ENDBRANCH  26  28
ENDBRANCH  25  26
ENDBRANCH  24  25
ENDBRANCH   1  24
TORSDOF 10
ENDMDL
MODEL 9
REMARK VINA RESULT:      -4.8      3.486      6.501
REMARK SMILES C[C@@H](C#N)N(C)CCCCc1cn(-c2cc(N=C=O)c3c4c(cccc24)C(=O)[N-]3)nn1
REMARK SMILES IDX 9 1 10 2 11 3 13 4 30 5 12 6 31 7 14 8 24 9 23 10 25 11
REMARK SMILES IDX 22 12 26 13 21 14 27 15 20 16 29 17 15 18 16 19 28 20 17 21
REMARK SMILES IDX 18 22 19 23 8 24 7 25 5 26 6 27 2 28 1 29 3 30 4 31
REMARK H PARENT
ROOT
ATOM      1  C   UNL     1      41.988 133.652  14.725  1.00  0.00     0.008 C 
ENDROOT
BRANCH   1   2
ATOM      2  C   UNL     1      40.664 133.873  15.467  1.00  0.00     0.060 C 
BRANCH   2   3
ATOM      3  C   UNL     1      40.893 133.912  16.944  1.00  0.00     0.083 A 
ATOM      4  N   UNL     1      41.821 133.842  18.911  1.00  0.00    -0.220 N 
ATOM      5  N   UNL     1      40.577 134.280  19.032  1.00  0.00    -0.062 NA
ATOM      6  C   UNL     1      42.055 133.593  17.609  1.00  0.00     0.140 A 
ATOM      7  N   UNL     1      39.991 134.349  17.844  1.00  0.00    -0.135 NA
BRANCH   4   8
ATOM      8  C   UNL     1      42.718 133.602  20.010  1.00  0.00     0.076 A 
ATOM      9  C   UNL     1      45.195 136.485  20.050  1.00  0.00     0.001 A 
ATOM     10  C   UNL     1      45.933 136.141  21.205  1.00  0.00     0.011 A 
ATOM     11  C   UNL     1      44.115 135.676  19.610  1.00  0.00     0.011 A 
ATOM     12  C   UNL     1      45.560 134.985  21.888  1.00  0.00     0.006 A 
ATOM     13  C   UNL     1      43.755 134.514  20.337  1.00  0.00     0.007 A 
ATOM     14  C   UNL     1      44.523 134.223  21.456  1.00  0.00    -0.019 A 
ATOM     15  C   UNL     1      46.082 134.287  23.055  1.00  0.00     0.086 C 
ATOM     16  C   UNL     1      44.362 133.117  22.243  1.00  0.00    -0.098 A 
ATOM     17  N   UNL     1      45.332 133.088  23.300  1.00  0.00    -0.620 NA
ATOM     18  C   UNL     1      42.545 132.435  20.812  1.00  0.00     0.057 A 
ATOM     19  C   UNL     1      43.362 132.179  21.938  1.00  0.00     0.064 A 
ATOM     20  O   UNL     1      47.053 134.665  23.761  1.00  0.00    -0.315 OA
BRANCH  19  21
ATOM     21  N   UNL     1      43.128 130.989  22.711  1.00  0.00    -0.169 NA
BRANCH  21  22
ATOM     22  C   UNL     1      42.293 130.909  23.667  1.00  0.00     0.240 C 
ATOM     23  O   UNL     1      41.482 130.830  24.599  1.00  0.00    -0.211 OA
ENDBRANCH  21  22
ENDBRANCH  19  21
ENDBRANCH   4   8
ENDBRANCH   2   3
ENDBRANCH   1   2
BRANCH   1  24
ATOM     24  C   UNL     1      42.342 132.161  14.565  1.00  0.00     0.016 C 
BRANCH  24  25
ATOM     25  C   UNL     1      43.839 131.913  14.314  1.00  0.00     0.085 C 
BRANCH  25  26
ATOM     26  N   UNL     1      44.568 131.718  15.594  1.00  0.00    -0.291 NA
ATOM     27  C   UNL     1      45.061 133.021  16.089  1.00  0.00     0.106 C 
BRANCH  26  28
ATOM     28  C   UNL     1      45.658 130.712  15.461  1.00  0.00     0.157 C 
ATOM     29  C   UNL     1      45.139 129.326  15.039  1.00  0.00     0.041 C 
BRANCH  28  30
ATOM     30  C   UNL     1      46.619 131.148  14.428  1.00  0.00     0.081 C 
ATOM     31  N   UNL     1      47.371 131.492  13.617  1.00  0.00    -0.197 NA
ENDBRANCH  28  30
ENDBRANCH  26  28
ENDBRANCH  25  26
ENDBRANCH  24  25
ENDBRANCH   1  24
TORSDOF 10
ENDMDL


