REMARK SMILES CCc1[nH+]nn(CC2(C#N)CCCC2)c1C[N+](C)(C)Cc1cccc2ccccc12
REMARK SMILES IDX 3 1 4 2 5 3 6 4 15 5 2 7 1 8 16 9 17 10 18 11 19 12 20 13
REMARK SMILES IDX 21 14 22 15 30 16 23 17 29 18 25 19 24 20 28 21 26 22 27 23
REMARK SMILES IDX 7 24 8 25 11 26 14 27 12 28 13 29 9 30 10 31
REMARK H PARENT 4 6
ROOT
ATOM      1  C   UNL     1      -1.016   0.972   2.414  1.00  0.00     0.173 A 
ATOM      2  N   UNL     1      -1.205   0.453   3.640  1.00  0.00    -0.147 N 
ATOM      3  N   UNL     1      -0.882  -0.828   3.603  1.00  0.00     0.088 NA
ATOM      4  N   UNL     1      -0.487  -1.163   2.384  1.00  0.00    -0.127 N 
ATOM      5  C   UNL     1      -0.535  -0.051   1.605  1.00  0.00     0.224 A 
ATOM      6  H   UNL     1      -1.600   0.942   4.474  1.00  0.00     0.342 HD
ENDROOT
BRANCH   1   7
ATOM      7  C   UNL     1      -1.515   2.326   2.001  1.00  0.00     0.083 C 
ATOM      8  C   UNL     1      -2.990   2.256   1.623  1.00  0.00     0.013 C 
ENDBRANCH   1   7
BRANCH   5   9
ATOM      9  C   UNL     1      -0.190   0.032   0.125  1.00  0.00     0.351 C 
BRANCH   9  10
ATOM     10  N   UNL     1       1.236   0.387  -0.182  1.00  0.00    -0.318 N 
ATOM     11  C   UNL     1       1.544   1.765   0.272  1.00  0.00     0.334 C 
ATOM     12  C   UNL     1       2.171  -0.537   0.511  1.00  0.00     0.334 C 
BRANCH  10  13
ATOM     13  C   UNL     1       1.496   0.252  -1.655  1.00  0.00     0.301 C 
BRANCH  13  14
ATOM     14  C   UNL     1       0.638   1.149  -2.552  1.00  0.00     0.014 A 
ATOM     15  C   UNL     1      -0.611   0.648  -2.969  1.00  0.00     0.010 A 
ATOM     16  C   UNL     1       1.043   2.442  -3.002  1.00  0.00    -0.010 A 
ATOM     17  C   UNL     1      -1.478   1.419  -3.740  1.00  0.00     0.001 A 
ATOM     18  C   UNL     1       2.312   2.994  -2.710  1.00  0.00     0.009 A 
ATOM     19  C   UNL     1       0.141   3.217  -3.786  1.00  0.00    -0.018 A 
ATOM     20  C   UNL     1      -1.112   2.700  -4.138  1.00  0.00     0.009 A 
ATOM     21  C   UNL     1       2.657   4.272  -3.152  1.00  0.00     0.001 A 
ATOM     22  C   UNL     1       0.504   4.502  -4.220  1.00  0.00     0.009 A 
ATOM     23  C   UNL     1       1.756   5.026  -3.900  1.00  0.00     0.001 A 
ENDBRANCH  13  14
ENDBRANCH  10  13
ENDBRANCH   9  10
ENDBRANCH   5   9
BRANCH   4  24
ATOM     24  C   UNL     1      -0.205  -2.550   1.989  1.00  0.00     0.292 C 
BRANCH  24  25
ATOM     25  C   UNL     1      -1.468  -3.457   2.059  1.00  0.00     0.097 C 
ATOM     26  C   UNL     1      -2.610  -2.934   1.174  1.00  0.00     0.026 C 
ATOM     27  C   UNL     1      -1.160  -4.838   1.466  1.00  0.00     0.026 C 
ATOM     28  C   UNL     1      -2.383  -3.533  -0.209  1.00  0.00     0.002 C 
ATOM     29  C   UNL     1      -1.464  -4.738  -0.025  1.00  0.00     0.002 C 
BRANCH  25  30
ATOM     30  C   UNL     1      -1.911  -3.600   3.461  1.00  0.00     0.073 C 
ATOM     31  N   UNL     1      -2.258  -3.714   4.559  1.00  0.00    -0.198 NA
ENDBRANCH  25  30
ENDBRANCH  24  25
ENDBRANCH   4  24
TORSDOF 8


