MODEL 1
REMARK VINA RESULT:      -7.8      0.000      0.000
REMARK SMILES CCc1nnn(CC2(C#N)CCCC2)c1C[N+](C)(C)Cc1cccc2ccccc12
REMARK SMILES IDX 3 1 4 2 5 3 6 4 15 5 2 6 1 7 16 8 17 9 18 10 19 11 20 12
REMARK SMILES IDX 21 13 22 14 30 15 23 16 29 17 25 18 24 19 28 20 26 21 27 22
REMARK SMILES IDX 7 23 8 24 11 25 14 26 12 27 13 28 9 29 10 30
REMARK H PARENT
ROOT
ATOM      1  C   UNL     1      43.906 133.708  17.875  1.00  0.00     0.091 A 
ATOM      2  N   UNL     1      44.296 132.512  18.358  1.00  0.00    -0.135 NA
ATOM      3  N   UNL     1      44.330 131.672  17.335  1.00  0.00    -0.067 NA
ATOM      4  N   UNL     1      43.988 132.283  16.212  1.00  0.00    -0.242 N 
ATOM      5  C   UNL     1      43.741 133.583  16.500  1.00  0.00     0.116 A 
ENDROOT
BRANCH   1   6
ATOM      6  C   UNL     1      43.697 134.922  18.739  1.00  0.00     0.057 C 
ATOM      7  C   UNL     1      42.782 134.610  19.919  1.00  0.00     0.011 C 
ENDBRANCH   1   6
BRANCH   5   8
ATOM      8  C   UNL     1      43.371 134.674  15.505  1.00  0.00     0.322 C 
BRANCH   8   9
ATOM      9  N   UNL     1      41.926 135.073  15.502  1.00  0.00    -0.320 N 
ATOM     10  C   UNL     1      41.497 135.447  14.130  1.00  0.00     0.334 C 
ATOM     11  C   UNL     1      41.693 136.243  16.387  1.00  0.00     0.334 C 
BRANCH   9  12
ATOM     12  C   UNL     1      41.063 133.923  15.937  1.00  0.00     0.301 C 
BRANCH  12  13
ATOM     13  C   UNL     1      39.555 134.184  15.876  1.00  0.00     0.014 A 
ATOM     14  C   UNL     1      38.957 134.238  14.603  1.00  0.00     0.010 A 
ATOM     15  C   UNL     1      38.731 134.353  17.031  1.00  0.00    -0.010 A 
ATOM     16  C   UNL     1      37.600 134.512  14.453  1.00  0.00     0.001 A 
ATOM     17  C   UNL     1      39.224 134.234  18.351  1.00  0.00     0.009 A 
ATOM     18  C   UNL     1      37.347 134.643  16.858  1.00  0.00    -0.018 A 
ATOM     19  C   UNL     1      36.801 134.727  15.570  1.00  0.00     0.009 A 
ATOM     20  C   UNL     1      38.384 134.428  19.450  1.00  0.00     0.001 A 
ATOM     21  C   UNL     1      36.519 134.839  17.974  1.00  0.00     0.009 A 
ATOM     22  C   UNL     1      37.037 134.734  19.263  1.00  0.00     0.001 A 
ENDBRANCH  12  13
ENDBRANCH   9  12
ENDBRANCH   8   9
ENDBRANCH   5   8
BRANCH   4  23
ATOM     23  C   UNL     1      43.806 131.567  14.942  1.00  0.00     0.169 C 
BRANCH  23  24
ATOM     24  C   UNL     1      45.092 130.807  14.518  1.00  0.00     0.077 C 
ATOM     25  C   UNL     1      46.355 131.570  14.932  1.00  0.00     0.024 C 
ATOM     26  C   UNL     1      45.231 130.682  12.997  1.00  0.00     0.024 C 
ATOM     27  C   UNL     1      47.441 131.151  13.944  1.00  0.00     0.002 C 
ATOM     28  C   UNL     1      46.727 130.578  12.720  1.00  0.00     0.002 C 
BRANCH  24  29
ATOM     29  C   UNL     1      45.114 129.462  15.138  1.00  0.00     0.071 C 
ATOM     30  N   UNL     1      45.132 128.410  15.621  1.00  0.00    -0.198 NA
ENDBRANCH  24  29
ENDBRANCH  23  24
ENDBRANCH   4  23
TORSDOF 8
ENDMDL
MODEL 2
REMARK VINA RESULT:      -7.4      1.965      2.945
REMARK SMILES CCc1nnn(CC2(C#N)CCCC2)c1C[N+](C)(C)Cc1cccc2ccccc12
REMARK SMILES IDX 3 1 4 2 5 3 6 4 15 5 2 6 1 7 16 8 17 9 18 10 19 11 20 12
REMARK SMILES IDX 21 13 22 14 30 15 23 16 29 17 25 18 24 19 28 20 26 21 27 22
REMARK SMILES IDX 7 23 8 24 11 25 14 26 12 27 13 28 9 29 10 30
REMARK H PARENT
ROOT
ATOM      1  C   UNL     1      44.661 131.580  18.408  1.00  0.00     0.091 A 
ATOM      2  N   UNL     1      45.541 130.561  18.348  1.00  0.00    -0.135 NA
ATOM      3  N   UNL     1      46.166 130.654  17.185  1.00  0.00    -0.067 NA
ATOM      4  N   UNL     1      45.731 131.699  16.498  1.00  0.00    -0.242 N 
ATOM      5  C   UNL     1      44.798 132.334  17.248  1.00  0.00     0.116 A 
ENDROOT
BRANCH   1   6
ATOM      6  C   UNL     1      43.718 131.794  19.560  1.00  0.00     0.057 C 
ATOM      7  C   UNL     1      44.477 132.153  20.835  1.00  0.00     0.011 C 
ENDBRANCH   1   6
BRANCH   5   8
ATOM      8  C   UNL     1      44.070 133.620  16.882  1.00  0.00     0.322 C 
BRANCH   8   9
ATOM      9  N   UNL     1      42.745 133.433  16.207  1.00  0.00    -0.320 N 
ATOM     10  C   UNL     1      41.641 133.553  17.194  1.00  0.00     0.334 C 
ATOM     11  C   UNL     1      42.649 132.091  15.579  1.00  0.00     0.334 C 
BRANCH   9  12
ATOM     12  C   UNL     1      42.528 134.499  15.171  1.00  0.00     0.301 C 
BRANCH  12  13
ATOM     13  C   UNL     1      41.339 135.427  15.433  1.00  0.00     0.014 A 
ATOM     14  C   UNL     1      41.587 136.614  16.148  1.00  0.00     0.010 A 
ATOM     15  C   UNL     1      40.010 135.163  14.977  1.00  0.00    -0.010 A 
ATOM     16  C   UNL     1      40.557 137.495  16.467  1.00  0.00     0.001 A 
ATOM     17  C   UNL     1      39.678 134.042  14.183  1.00  0.00     0.009 A 
ATOM     18  C   UNL     1      38.967 136.070  15.323  1.00  0.00    -0.018 A 
ATOM     19  C   UNL     1      39.253 137.220  16.070  1.00  0.00     0.009 A 
ATOM     20  C   UNL     1      38.361 133.815  13.778  1.00  0.00     0.001 A 
ATOM     21  C   UNL     1      37.648 135.824  14.910  1.00  0.00     0.009 A 
ATOM     22  C   UNL     1      37.348 134.699  14.145  1.00  0.00     0.001 A 
ENDBRANCH  12  13
ENDBRANCH   9  12
ENDBRANCH   8   9
ENDBRANCH   5   8
BRANCH   4  23
ATOM     23  C   UNL     1      46.148 131.971  15.116  1.00  0.00     0.169 C 
BRANCH  23  24
ATOM     24  C   UNL     1      46.482 130.665  14.346  1.00  0.00     0.077 C 
ATOM     25  C   UNL     1      47.904 130.183  14.652  1.00  0.00     0.024 C 
ATOM     26  C   UNL     1      46.490 130.861  12.825  1.00  0.00     0.024 C 
ATOM     27  C   UNL     1      48.349 129.386  13.428  1.00  0.00     0.002 C 
ATOM     28  C   UNL     1      47.444 129.808  12.272  1.00  0.00     0.002 C 
BRANCH  24  29
ATOM     29  C   UNL     1      45.520 129.600  14.711  1.00  0.00     0.071 C 
ATOM     30  N   UNL     1      44.770 128.766  14.996  1.00  0.00    -0.198 NA
ENDBRANCH  24  29
ENDBRANCH  23  24
ENDBRANCH   4  23
TORSDOF 8
ENDMDL
MODEL 3
REMARK VINA RESULT:      -7.3      2.384      5.648
REMARK SMILES CCc1nnn(CC2(C#N)CCCC2)c1C[N+](C)(C)Cc1cccc2ccccc12
REMARK SMILES IDX 3 1 4 2 5 3 6 4 15 5 2 6 1 7 16 8 17 9 18 10 19 11 20 12
REMARK SMILES IDX 21 13 22 14 30 15 23 16 29 17 25 18 24 19 28 20 26 21 27 22
REMARK SMILES IDX 7 23 8 24 11 25 14 26 12 27 13 28 9 29 10 30
REMARK H PARENT
ROOT
ATOM      1  C   UNL     1      43.414 134.120  16.383  1.00  0.00     0.091 A 
ATOM      2  N   UNL     1      44.366 134.319  15.450  1.00  0.00    -0.135 NA
ATOM      3  N   UNL     1      45.129 133.237  15.437  1.00  0.00    -0.067 NA
ATOM      4  N   UNL     1      44.700 132.346  16.317  1.00  0.00    -0.242 N 
ATOM      5  C   UNL     1      43.595 132.849  16.918  1.00  0.00     0.116 A 
ENDROOT
BRANCH   1   6
ATOM      6  C   UNL     1      42.372 135.147  16.736  1.00  0.00     0.057 C 
ATOM      7  C   UNL     1      41.035 134.827  16.074  1.00  0.00     0.011 C 
ENDBRANCH   1   6
BRANCH   5   8
ATOM      8  C   UNL     1      42.732 132.145  17.956  1.00  0.00     0.322 C 
BRANCH   8   9
ATOM      9  N   UNL     1      42.969 132.568  19.375  1.00  0.00    -0.320 N 
ATOM     10  C   UNL     1      42.803 131.412  20.292  1.00  0.00     0.334 C 
ATOM     11  C   UNL     1      42.004 133.618  19.788  1.00  0.00     0.334 C 
BRANCH   9  12
ATOM     12  C   UNL     1      44.375 133.069  19.546  1.00  0.00     0.301 C 
BRANCH  12  13
ATOM     13  C   UNL     1      44.560 134.123  20.642  1.00  0.00     0.014 A 
ATOM     14  C   UNL     1      44.566 133.676  21.977  1.00  0.00     0.010 A 
ATOM     15  C   UNL     1      44.744 135.516  20.381  1.00  0.00    -0.010 A 
ATOM     16  C   UNL     1      44.687 134.570  23.037  1.00  0.00     0.001 A 
ATOM     17  C   UNL     1      44.835 136.048  19.075  1.00  0.00     0.009 A 
ATOM     18  C   UNL     1      44.855 136.416  21.480  1.00  0.00    -0.018 A 
ATOM     19  C   UNL     1      44.817 135.932  22.794  1.00  0.00     0.009 A 
ATOM     20  C   UNL     1      44.995 137.421  18.870  1.00  0.00     0.001 A 
ATOM     21  C   UNL     1      45.012 137.792  21.255  1.00  0.00     0.009 A 
ATOM     22  C   UNL     1      45.078 138.291  19.955  1.00  0.00     0.001 A 
ENDBRANCH  12  13
ENDBRANCH   9  12
ENDBRANCH   8   9
ENDBRANCH   5   8
BRANCH   4  23
ATOM     23  C   UNL     1      45.432 131.108  16.616  1.00  0.00     0.169 C 
BRANCH  23  24
ATOM     24  C   UNL     1      45.729 130.288  15.332  1.00  0.00     0.077 C 
ATOM     25  C   UNL     1      47.225 130.290  15.001  1.00  0.00     0.024 C 
ATOM     26  C   UNL     1      45.084 130.893  14.081  1.00  0.00     0.024 C 
ATOM     27  C   UNL     1      47.320 130.088  13.490  1.00  0.00     0.002 C 
ATOM     28  C   UNL     1      45.957 130.461  12.908  1.00  0.00     0.002 C 
BRANCH  24  29
ATOM     29  C   UNL     1      45.274 128.889  15.508  1.00  0.00     0.071 C 
ATOM     30  N   UNL     1      44.916 127.797  15.645  1.00  0.00    -0.198 NA
ENDBRANCH  24  29
ENDBRANCH  23  24
ENDBRANCH   4  23
TORSDOF 8
ENDMDL
MODEL 4
REMARK VINA RESULT:      -7.2      2.174      7.770
REMARK SMILES CCc1nnn(CC2(C#N)CCCC2)c1C[N+](C)(C)Cc1cccc2ccccc12
REMARK SMILES IDX 3 1 4 2 5 3 6 4 15 5 2 6 1 7 16 8 17 9 18 10 19 11 20 12
REMARK SMILES IDX 21 13 22 14 30 15 23 16 29 17 25 18 24 19 28 20 26 21 27 22
REMARK SMILES IDX 7 23 8 24 11 25 14 26 12 27 13 28 9 29 10 30
REMARK H PARENT
ROOT
ATOM      1  C   UNL     1      39.381 134.758  15.916  1.00  0.00     0.091 A 
ATOM      2  N   UNL     1      38.864 135.936  16.315  1.00  0.00    -0.135 NA
ATOM      3  N   UNL     1      39.658 136.409  17.264  1.00  0.00    -0.067 NA
ATOM      4  N   UNL     1      40.671 135.586  17.483  1.00  0.00    -0.242 N 
ATOM      5  C   UNL     1      40.555 134.540  16.630  1.00  0.00     0.116 A 
ENDROOT
BRANCH   1   6
ATOM      6  C   UNL     1      38.738 133.879  14.878  1.00  0.00     0.057 C 
ATOM      7  C   UNL     1      37.297 134.304  14.610  1.00  0.00     0.011 C 
ENDBRANCH   1   6
BRANCH   5   8
ATOM      8  C   UNL     1      41.529 133.379  16.486  1.00  0.00     0.322 C 
BRANCH   8   9
ATOM      9  N   UNL     1      42.617 133.579  15.474  1.00  0.00    -0.320 N 
ATOM     10  C   UNL     1      43.828 134.145  16.123  1.00  0.00     0.334 C 
ATOM     11  C   UNL     1      42.189 134.521  14.409  1.00  0.00     0.334 C 
BRANCH   9  12
ATOM     12  C   UNL     1      43.016 132.265  14.865  1.00  0.00     0.301 C 
BRANCH  12  13
ATOM     13  C   UNL     1      44.147 131.530  15.590  1.00  0.00     0.014 A 
ATOM     14  C   UNL     1      44.069 131.443  16.993  1.00  0.00     0.010 A 
ATOM     15  C   UNL     1      45.253 130.919  14.923  1.00  0.00    -0.010 A 
ATOM     16  C   UNL     1      45.074 130.830  17.736  1.00  0.00     0.001 A 
ATOM     17  C   UNL     1      45.376 130.881  13.515  1.00  0.00     0.009 A 
ATOM     18  C   UNL     1      46.277 130.306  15.701  1.00  0.00    -0.018 A 
ATOM     19  C   UNL     1      46.179 130.276  17.098  1.00  0.00     0.009 A 
ATOM     20  C   UNL     1      46.487 130.290  12.908  1.00  0.00     0.001 A 
ATOM     21  C   UNL     1      47.387 129.719  15.074  1.00  0.00     0.009 A 
ATOM     22  C   UNL     1      47.492 129.716  13.684  1.00  0.00     0.001 A 
ENDBRANCH  12  13
ENDBRANCH   9  12
ENDBRANCH   8   9
ENDBRANCH   5   8
BRANCH   4  23
ATOM     23  C   UNL     1      41.635 135.786  18.573  1.00  0.00     0.169 C 
BRANCH  23  24
ATOM     24  C   UNL     1      42.572 136.994  18.302  1.00  0.00     0.077 C 
ATOM     25  C   UNL     1      42.028 138.277  18.939  1.00  0.00     0.024 C 
ATOM     26  C   UNL     1      42.666 137.347  16.813  1.00  0.00     0.024 C 
ATOM     27  C   UNL     1      42.577 139.428  18.100  1.00  0.00     0.002 C 
ATOM     28  C   UNL     1      42.992 138.835  16.754  1.00  0.00     0.002 C 
BRANCH  24  29
ATOM     29  C   UNL     1      43.923 136.720  18.841  1.00  0.00     0.071 C 
ATOM     30  N   UNL     1      44.979 136.506  19.264  1.00  0.00    -0.198 NA
ENDBRANCH  24  29
ENDBRANCH  23  24
ENDBRANCH   4  23
TORSDOF 8
ENDMDL
MODEL 5
REMARK VINA RESULT:      -7.2      2.140      3.341
REMARK SMILES CCc1nnn(CC2(C#N)CCCC2)c1C[N+](C)(C)Cc1cccc2ccccc12
REMARK SMILES IDX 3 1 4 2 5 3 6 4 15 5 2 6 1 7 16 8 17 9 18 10 19 11 20 12
REMARK SMILES IDX 21 13 22 14 30 15 23 16 29 17 25 18 24 19 28 20 26 21 27 22
REMARK SMILES IDX 7 23 8 24 11 25 14 26 12 27 13 28 9 29 10 30
REMARK H PARENT
ROOT
ATOM      1  C   UNL     1      44.384 131.401  18.902  1.00  0.00     0.091 A 
ATOM      2  N   UNL     1      45.609 130.846  18.978  1.00  0.00    -0.135 NA
ATOM      3  N   UNL     1      45.876 130.328  17.788  1.00  0.00    -0.067 NA
ATOM      4  N   UNL     1      44.875 130.538  16.948  1.00  0.00    -0.242 N 
ATOM      5  C   UNL     1      43.920 131.242  17.601  1.00  0.00     0.116 A 
ENDROOT
BRANCH   1   6
ATOM      6  C   UNL     1      43.697 132.055  20.070  1.00  0.00     0.057 C 
ATOM      7  C   UNL     1      44.677 132.883  20.895  1.00  0.00     0.011 C 
ENDBRANCH   1   6
BRANCH   5   8
ATOM      8  C   UNL     1      42.615 131.757  17.009  1.00  0.00     0.322 C 
BRANCH   8   9
ATOM      9  N   UNL     1      42.632 133.193  16.580  1.00  0.00    -0.320 N 
ATOM     10  C   UNL     1      42.870 133.292  15.117  1.00  0.00     0.334 C 
ATOM     11  C   UNL     1      43.712 133.945  17.268  1.00  0.00     0.334 C 
BRANCH   9  12
ATOM     12  C   UNL     1      41.304 133.839  16.855  1.00  0.00     0.301 C 
BRANCH  12  13
ATOM     13  C   UNL     1      40.975 135.048  15.975  1.00  0.00     0.014 A 
ATOM     14  C   UNL     1      41.736 136.217  16.169  1.00  0.00     0.010 A 
ATOM     15  C   UNL     1      39.962 135.046  14.967  1.00  0.00    -0.010 A 
ATOM     16  C   UNL     1      41.478 137.376  15.442  1.00  0.00     0.001 A 
ATOM     17  C   UNL     1      39.203 133.898  14.642  1.00  0.00     0.009 A 
ATOM     18  C   UNL     1      39.705 136.245  14.241  1.00  0.00    -0.018 A 
ATOM     19  C   UNL     1      40.461 137.396  14.493  1.00  0.00     0.009 A 
ATOM     20  C   UNL     1      38.209 133.949  13.663  1.00  0.00     0.001 A 
ATOM     21  C   UNL     1      38.700 136.278  13.262  1.00  0.00     0.009 A 
ATOM     22  C   UNL     1      37.954 135.136  12.978  1.00  0.00     0.001 A 
ENDBRANCH  12  13
ENDBRANCH   9  12
ENDBRANCH   8   9
ENDBRANCH   5   8
BRANCH   4  23
ATOM     23  C   UNL     1      44.836 129.957  15.599  1.00  0.00     0.169 C 
BRANCH  23  24
ATOM     24  C   UNL     1      45.915 130.578  14.671  1.00  0.00     0.077 C 
ATOM     25  C   UNL     1      45.516 130.465  13.196  1.00  0.00     0.024 C 
ATOM     26  C   UNL     1      47.253 129.833  14.739  1.00  0.00     0.024 C 
ATOM     27  C   UNL     1      46.824 130.451  12.408  1.00  0.00     0.002 C 
ATOM     28  C   UNL     1      47.927 130.060  13.390  1.00  0.00     0.002 C 
BRANCH  24  29
ATOM     29  C   UNL     1      46.116 132.006  15.011  1.00  0.00     0.071 C 
ATOM     30  N   UNL     1      46.275 133.121  15.277  1.00  0.00    -0.198 NA
ENDBRANCH  24  29
ENDBRANCH  23  24
ENDBRANCH   4  23
TORSDOF 8
ENDMDL
MODEL 6
REMARK VINA RESULT:      -7.0      1.233      2.921
REMARK SMILES CCc1nnn(CC2(C#N)CCCC2)c1C[N+](C)(C)Cc1cccc2ccccc12
REMARK SMILES IDX 3 1 4 2 5 3 6 4 15 5 2 6 1 7 16 8 17 9 18 10 19 11 20 12
REMARK SMILES IDX 21 13 22 14 30 15 23 16 29 17 25 18 24 19 28 20 26 21 27 22
REMARK SMILES IDX 7 23 8 24 11 25 14 26 12 27 13 28 9 29 10 30
REMARK H PARENT
ROOT
ATOM      1  C   UNL     1      43.468 134.936  16.042  1.00  0.00     0.091 A 
ATOM      2  N   UNL     1      43.528 134.616  14.734  1.00  0.00    -0.135 NA
ATOM      3  N   UNL     1      43.561 133.294  14.659  1.00  0.00    -0.067 NA
ATOM      4  N   UNL     1      43.514 132.751  15.865  1.00  0.00    -0.242 N 
ATOM      5  C   UNL     1      43.422 133.753  16.772  1.00  0.00     0.116 A 
ENDROOT
BRANCH   1   6
ATOM      6  C   UNL     1      43.463 136.352  16.549  1.00  0.00     0.057 C 
ATOM      7  C   UNL     1      44.503 136.549  17.648  1.00  0.00     0.011 C 
ENDBRANCH   1   6
BRANCH   5   8
ATOM      8  C   UNL     1      43.285 133.596  18.280  1.00  0.00     0.322 C 
BRANCH   8   9
ATOM      9  N   UNL     1      41.879 133.635  18.801  1.00  0.00    -0.320 N 
ATOM     10  C   UNL     1      41.391 135.036  18.865  1.00  0.00     0.334 C 
ATOM     11  C   UNL     1      41.800 133.061  20.168  1.00  0.00     0.334 C 
BRANCH   9  12
ATOM     12  C   UNL     1      40.957 132.888  17.878  1.00  0.00     0.301 C 
BRANCH  12  13
ATOM     13  C   UNL     1      39.580 133.527  17.680  1.00  0.00     0.014 A 
ATOM     14  C   UNL     1      38.798 133.753  18.829  1.00  0.00     0.010 A 
ATOM     15  C   UNL     1      39.062 133.919  16.407  1.00  0.00    -0.010 A 
ATOM     16  C   UNL     1      37.518 134.291  18.737  1.00  0.00     0.001 A 
ATOM     17  C   UNL     1      39.803 133.809  15.208  1.00  0.00     0.009 A 
ATOM     18  C   UNL     1      37.745 134.458  16.333  1.00  0.00    -0.018 A 
ATOM     19  C   UNL     1      36.987 134.629  17.498  1.00  0.00     0.009 A 
ATOM     20  C   UNL     1      39.247 134.187  13.984  1.00  0.00     0.001 A 
ATOM     21  C   UNL     1      37.201 134.829  15.093  1.00  0.00     0.009 A 
ATOM     22  C   UNL     1      37.949 134.690  13.925  1.00  0.00     0.001 A 
ENDBRANCH  12  13
ENDBRANCH   9  12
ENDBRANCH   8   9
ENDBRANCH   5   8
BRANCH   4  23
ATOM     23  C   UNL     1      43.672 131.309  16.094  1.00  0.00     0.169 C 
BRANCH  23  24
ATOM     24  C   UNL     1      44.825 130.712  15.244  1.00  0.00     0.077 C 
ATOM     25  C   UNL     1      46.149 131.438  15.509  1.00  0.00     0.024 C 
ATOM     26  C   UNL     1      44.609 130.899  13.739  1.00  0.00     0.024 C 
ATOM     27  C   UNL     1      46.977 131.277  14.236  1.00  0.00     0.002 C 
ATOM     28  C   UNL     1      46.000 130.925  13.115  1.00  0.00     0.002 C 
BRANCH  24  29
ATOM     29  C   UNL     1      44.991 129.273  15.554  1.00  0.00     0.071 C 
ATOM     30  N   UNL     1      45.122 128.149  15.797  1.00  0.00    -0.198 NA
ENDBRANCH  24  29
ENDBRANCH  23  24
ENDBRANCH   4  23
TORSDOF 8
ENDMDL
MODEL 7
REMARK VINA RESULT:      -7.0      1.723      3.007
REMARK SMILES CCc1nnn(CC2(C#N)CCCC2)c1C[N+](C)(C)Cc1cccc2ccccc12
REMARK SMILES IDX 3 1 4 2 5 3 6 4 15 5 2 6 1 7 16 8 17 9 18 10 19 11 20 12
REMARK SMILES IDX 21 13 22 14 30 15 23 16 29 17 25 18 24 19 28 20 26 21 27 22
REMARK SMILES IDX 7 23 8 24 11 25 14 26 12 27 13 28 9 29 10 30
REMARK H PARENT
ROOT
ATOM      1  C   UNL     1      43.849 134.580  16.254  1.00  0.00     0.091 A 
ATOM      2  N   UNL     1      44.981 134.525  15.526  1.00  0.00    -0.135 NA
ATOM      3  N   UNL     1      45.403 133.270  15.557  1.00  0.00    -0.067 NA
ATOM      4  N   UNL     1      44.580 132.514  16.267  1.00  0.00    -0.242 N 
ATOM      5  C   UNL     1      43.563 133.295  16.703  1.00  0.00     0.116 A 
ENDROOT
BRANCH   1   6
ATOM      6  C   UNL     1      43.084 135.852  16.502  1.00  0.00     0.057 C 
ATOM      7  C   UNL     1      42.133 136.159  15.349  1.00  0.00     0.011 C 
ENDBRANCH   1   6
BRANCH   5   8
ATOM      8  C   UNL     1      42.354 132.838  17.507  1.00  0.00     0.322 C 
BRANCH   8   9
ATOM      9  N   UNL     1      42.485 132.981  18.993  1.00  0.00    -0.320 N 
ATOM     10  C   UNL     1      43.872 133.374  19.354  1.00  0.00     0.334 C 
ATOM     11  C   UNL     1      42.180 131.702  19.682  1.00  0.00     0.334 C 
BRANCH   9  12
ATOM     12  C   UNL     1      41.574 134.064  19.499  1.00  0.00     0.301 C 
BRANCH  12  13
ATOM     13  C   UNL     1      40.364 134.362  18.611  1.00  0.00     0.014 A 
ATOM     14  C   UNL     1      39.620 133.264  18.137  1.00  0.00     0.010 A 
ATOM     15  C   UNL     1      39.944 135.682  18.257  1.00  0.00    -0.010 A 
ATOM     16  C   UNL     1      38.530 133.441  17.290  1.00  0.00     0.001 A 
ATOM     17  C   UNL     1      40.575 136.847  18.749  1.00  0.00     0.009 A 
ATOM     18  C   UNL     1      38.832 135.842  17.380  1.00  0.00    -0.018 A 
ATOM     19  C   UNL     1      38.145 134.720  16.902  1.00  0.00     0.009 A 
ATOM     20  C   UNL     1      40.141 138.116  18.359  1.00  0.00     0.001 A 
ATOM     21  C   UNL     1      38.412 137.125  16.996  1.00  0.00     0.009 A 
ATOM     22  C   UNL     1      39.067 138.256  17.482  1.00  0.00     0.001 A 
ENDBRANCH  12  13
ENDBRANCH   9  12
ENDBRANCH   8   9
ENDBRANCH   5   8
BRANCH   4  23
ATOM     23  C   UNL     1      44.868 131.109  16.586  1.00  0.00     0.169 C 
BRANCH  23  24
ATOM     24  C   UNL     1      45.399 130.333  15.351  1.00  0.00     0.077 C 
ATOM     25  C   UNL     1      46.900 130.567  15.148  1.00  0.00     0.024 C 
ATOM     26  C   UNL     1      44.780 130.819  14.036  1.00  0.00     0.024 C 
ATOM     27  C   UNL     1      47.157 130.369  13.656  1.00  0.00     0.002 C 
ATOM     28  C   UNL     1      45.809 130.519  12.952  1.00  0.00     0.002 C 
BRANCH  24  29
ATOM     29  C   UNL     1      45.153 128.882  15.518  1.00  0.00     0.071 C 
ATOM     30  N   UNL     1      44.962 127.748  15.648  1.00  0.00    -0.198 NA
ENDBRANCH  24  29
ENDBRANCH  23  24
ENDBRANCH   4  23
TORSDOF 8
ENDMDL
MODEL 8
REMARK VINA RESULT:      -7.0      1.508      3.351
REMARK SMILES CCc1nnn(CC2(C#N)CCCC2)c1C[N+](C)(C)Cc1cccc2ccccc12
REMARK SMILES IDX 3 1 4 2 5 3 6 4 15 5 2 6 1 7 16 8 17 9 18 10 19 11 20 12
REMARK SMILES IDX 21 13 22 14 30 15 23 16 29 17 25 18 24 19 28 20 26 21 27 22
REMARK SMILES IDX 7 23 8 24 11 25 14 26 12 27 13 28 9 29 10 30
REMARK H PARENT
ROOT
ATOM      1  C   UNL     1      43.828 135.653  16.748  1.00  0.00     0.091 A 
ATOM      2  N   UNL     1      44.303 135.416  15.509  1.00  0.00    -0.135 NA
ATOM      3  N   UNL     1      44.669 134.144  15.469  1.00  0.00    -0.067 NA
ATOM      4  N   UNL     1      44.439 133.551  16.630  1.00  0.00    -0.242 N 
ATOM      5  C   UNL     1      43.877 134.460  17.462  1.00  0.00     0.116 A 
ENDROOT
BRANCH   1   6
ATOM      6  C   UNL     1      43.353 137.004  17.209  1.00  0.00     0.057 C 
ATOM      7  C   UNL     1      42.585 137.726  16.106  1.00  0.00     0.011 C 
ENDBRANCH   1   6
BRANCH   5   8
ATOM      8  C   UNL     1      43.391 134.206  18.882  1.00  0.00     0.322 C 
BRANCH   8   9
ATOM      9  N   UNL     1      41.912 134.010  19.025  1.00  0.00    -0.320 N 
ATOM     10  C   UNL     1      41.211 135.319  18.979  1.00  0.00     0.334 C 
ATOM     11  C   UNL     1      41.581 133.362  20.320  1.00  0.00     0.334 C 
BRANCH   9  12
ATOM     12  C   UNL     1      41.379 133.184  17.889  1.00  0.00     0.301 C 
BRANCH  12  13
ATOM     13  C   UNL     1      40.059 133.678  17.291  1.00  0.00     0.014 A 
ATOM     14  C   UNL     1      38.921 133.652  18.121  1.00  0.00     0.010 A 
ATOM     15  C   UNL     1      39.926 134.175  15.958  1.00  0.00    -0.010 A 
ATOM     16  C   UNL     1      37.672 134.044  17.647  1.00  0.00     0.001 A 
ATOM     17  C   UNL     1      41.024 134.316  15.078  1.00  0.00     0.009 A 
ATOM     18  C   UNL     1      38.638 134.560  15.488  1.00  0.00    -0.018 A 
ATOM     19  C   UNL     1      37.526 134.482  16.336  1.00  0.00     0.009 A 
ATOM     20  C   UNL     1      40.842 134.788  13.776  1.00  0.00     0.001 A 
ATOM     21  C   UNL     1      38.474 135.028  14.175  1.00  0.00     0.009 A 
ATOM     22  C   UNL     1      39.572 135.138  13.323  1.00  0.00     0.001 A 
ENDBRANCH  12  13
ENDBRANCH   9  12
ENDBRANCH   8   9
ENDBRANCH   5   8
BRANCH   4  23
ATOM     23  C   UNL     1      44.871 132.177  16.920  1.00  0.00     0.169 C 
BRANCH  23  24
ATOM     24  C   UNL     1      45.070 131.348  15.622  1.00  0.00     0.077 C 
ATOM     25  C   UNL     1      45.302 129.866  15.935  1.00  0.00     0.024 C 
ATOM     26  C   UNL     1      46.330 131.753  14.849  1.00  0.00     0.024 C 
ATOM     27  C   UNL     1      46.119 129.314  14.769  1.00  0.00     0.002 C 
ATOM     28  C   UNL     1      46.762 130.513  14.074  1.00  0.00     0.002 C 
BRANCH  24  29
ATOM     29  C   UNL     1      43.880 131.479  14.749  1.00  0.00     0.071 C 
ATOM     30  N   UNL     1      42.950 131.580  14.069  1.00  0.00    -0.198 NA
ENDBRANCH  24  29
ENDBRANCH  23  24
ENDBRANCH   4  23
TORSDOF 8
ENDMDL
MODEL 9
REMARK VINA RESULT:      -7.0      2.214      6.189
REMARK SMILES CCc1nnn(CC2(C#N)CCCC2)c1C[N+](C)(C)Cc1cccc2ccccc12
REMARK SMILES IDX 3 1 4 2 5 3 6 4 15 5 2 6 1 7 16 8 17 9 18 10 19 11 20 12
REMARK SMILES IDX 21 13 22 14 30 15 23 16 29 17 25 18 24 19 28 20 26 21 27 22
REMARK SMILES IDX 7 23 8 24 11 25 14 26 12 27 13 28 9 29 10 30
REMARK H PARENT
ROOT
ATOM      1  C   UNL     1      43.328 132.041  14.887  1.00  0.00     0.091 A 
ATOM      2  N   UNL     1      42.419 131.908  13.901  1.00  0.00    -0.135 NA
ATOM      3  N   UNL     1      41.437 132.758  14.160  1.00  0.00    -0.067 NA
ATOM      4  N   UNL     1      41.683 133.439  15.269  1.00  0.00    -0.242 N 
ATOM      5  C   UNL     1      42.887 133.041  15.747  1.00  0.00     0.116 A 
ENDROOT
BRANCH   1   6
ATOM      6  C   UNL     1      44.578 131.209  14.979  1.00  0.00     0.057 C 
ATOM      7  C   UNL     1      44.963 130.637  13.618  1.00  0.00     0.011 C 
ENDBRANCH   1   6
BRANCH   5   8
ATOM      8  C   UNL     1      43.600 133.596  16.972  1.00  0.00     0.322 C 
BRANCH   8   9
ATOM      9  N   UNL     1      43.464 132.774  18.217  1.00  0.00    -0.320 N 
ATOM     10  C   UNL     1      44.616 131.845  18.350  1.00  0.00     0.334 C 
ATOM     11  C   UNL     1      42.223 131.959  18.188  1.00  0.00     0.334 C 
BRANCH   9  12
ATOM     12  C   UNL     1      43.468 133.657  19.433  1.00  0.00     0.301 C 
BRANCH  12  13
ATOM     13  C   UNL     1      42.590 134.907  19.329  1.00  0.00     0.014 A 
ATOM     14  C   UNL     1      41.217 134.761  19.603  1.00  0.00     0.010 A 
ATOM     15  C   UNL     1      43.090 136.203  18.992  1.00  0.00    -0.010 A 
ATOM     16  C   UNL     1      40.339 135.835  19.493  1.00  0.00     0.001 A 
ATOM     17  C   UNL     1      44.462 136.467  18.781  1.00  0.00     0.009 A 
ATOM     18  C   UNL     1      42.174 137.288  18.873  1.00  0.00    -0.018 A 
ATOM     19  C   UNL     1      40.809 137.088  19.117  1.00  0.00     0.009 A 
ATOM     20  C   UNL     1      44.901 137.747  18.433  1.00  0.00     0.001 A 
ATOM     21  C   UNL     1      42.632 138.567  18.519  1.00  0.00     0.009 A 
ATOM     22  C   UNL     1      43.990 138.792  18.297  1.00  0.00     0.001 A 
ENDBRANCH  12  13
ENDBRANCH   9  12
ENDBRANCH   8   9
ENDBRANCH   5   8
BRANCH   4  23
ATOM     23  C   UNL     1      40.705 134.353  15.873  1.00  0.00     0.169 C 
BRANCH  23  24
ATOM     24  C   UNL     1      40.670 135.724  15.145  1.00  0.00     0.077 C 
ATOM     25  C   UNL     1      42.069 136.342  15.047  1.00  0.00     0.024 C 
ATOM     26  C   UNL     1      39.865 136.780  15.911  1.00  0.00     0.024 C 
ATOM     27  C   UNL     1      41.856 137.852  14.972  1.00  0.00     0.002 C 
ATOM     28  C   UNL     1      40.453 138.128  15.510  1.00  0.00     0.002 C 
BRANCH  24  29
ATOM     29  C   UNL     1      40.116 135.561  13.781  1.00  0.00     0.071 C 
ATOM     30  N   UNL     1      39.682 135.432  12.716  1.00  0.00    -0.198 NA
ENDBRANCH  24  29
ENDBRANCH  23  24
ENDBRANCH   4  23
TORSDOF 8
ENDMDL


