MODEL 1
REMARK VINA RESULT:      -9.0      0.000      0.000
REMARK SMILES Cc1nnn(Cc2nc3cc4ccccc4cc3[n-]2)c1-c1nnc([C@@H]2C[C@@H]2C)o1
REMARK SMILES IDX 1 1 2 2 3 3 4 4 5 5 20 6 21 7 22 8 29 9 23 10 24 11 25 12
REMARK SMILES IDX 26 13 27 14 28 15 6 16 7 17 8 18 19 19 9 20 18 21 10 22
REMARK SMILES IDX 17 23 11 24 16 25 12 26 15 27 13 28 14 29
REMARK H PARENT
ROOT
ATOM      1  C   UNL     1      41.207 137.571  17.214  1.00  0.00     0.071 C 
ATOM      2  C   UNL     1      41.791 136.345  17.839  1.00  0.00     0.093 A 
ATOM      3  N   UNL     1      42.759 136.361  18.776  1.00  0.00    -0.135 NA
ATOM      4  N   UNL     1      43.014 135.098  19.088  1.00  0.00    -0.066 NA
ATOM      5  N   UNL     1      42.248 134.279  18.384  1.00  0.00    -0.236 N 
ATOM      6  C   UNL     1      41.458 135.026  17.586  1.00  0.00     0.149 A 
ENDROOT
BRANCH   6   7
ATOM      7  C   UNL     1      40.431 134.522  16.653  1.00  0.00     0.267 A 
ATOM      8  N   UNL     1      39.614 133.480  16.908  1.00  0.00    -0.106 NA
ATOM      9  O   UNL     1      40.200 135.021  15.463  1.00  0.00    -0.419 OA
ATOM     10  N   UNL     1      38.850 133.330  15.836  1.00  0.00    -0.112 NA
ATOM     11  C   UNL     1      39.237 134.283  14.964  1.00  0.00     0.220 A 
BRANCH  11  12
ATOM     12  C   UNL     1      38.643 134.493  13.603  1.00  0.00     0.081 C 
ATOM     13  C   UNL     1      38.819 135.885  13.006  1.00  0.00     0.017 C 
ATOM     14  C   UNL     1      37.452 135.450  13.518  1.00  0.00    -0.001 C 
ATOM     15  C   UNL     1      36.991 136.183  14.786  1.00  0.00     0.008 C 
ENDBRANCH  11  12
ENDBRANCH   6   7
BRANCH   5  16
ATOM     16  C   UNL     1      42.311 132.821  18.495  1.00  0.00     0.173 C 
BRANCH  16  17
ATOM     17  C   UNL     1      43.306 132.263  17.526  1.00  0.00    -0.060 A 
ATOM     18  N   UNL     1      44.424 131.595  17.917  1.00  0.00    -0.438 NA
ATOM     19  N   UNL     1      43.171 132.405  16.181  1.00  0.00    -0.438 NA
ATOM     20  C   UNL     1      45.005 131.296  16.745  1.00  0.00    -0.038 A 
ATOM     21  C   UNL     1      44.262 131.780  15.715  1.00  0.00    -0.038 A 
ATOM     22  C   UNL     1      46.176 130.572  16.541  1.00  0.00     0.012 A 
ATOM     23  C   UNL     1      44.623 131.585  14.383  1.00  0.00     0.012 A 
ATOM     24  C   UNL     1      46.581 130.337  15.209  1.00  0.00    -0.018 A 
ATOM     25  C   UNL     1      45.801 130.849  14.124  1.00  0.00    -0.018 A 
ATOM     26  C   UNL     1      47.737 129.596  14.934  1.00  0.00     0.009 A 
ATOM     27  C   UNL     1      46.208 130.604  12.804  1.00  0.00     0.009 A 
ATOM     28  C   UNL     1      48.123 129.358  13.613  1.00  0.00     0.001 A 
ATOM     29  C   UNL     1      47.364 129.861  12.553  1.00  0.00     0.001 A 
ENDBRANCH  16  17
ENDBRANCH   5  16
TORSDOF 4
ENDMDL
MODEL 2
REMARK VINA RESULT:      -8.8      1.639      2.030
REMARK SMILES Cc1nnn(Cc2nc3cc4ccccc4cc3[n-]2)c1-c1nnc([C@@H]2C[C@@H]2C)o1
REMARK SMILES IDX 1 1 2 2 3 3 4 4 5 5 20 6 21 7 22 8 29 9 23 10 24 11 25 12
REMARK SMILES IDX 26 13 27 14 28 15 6 16 7 17 8 18 19 19 9 20 18 21 10 22
REMARK SMILES IDX 17 23 11 24 16 25 12 26 15 27 13 28 14 29
REMARK H PARENT
ROOT
ATOM      1  C   UNL     1      43.077 136.856  19.848  1.00  0.00     0.071 C 
ATOM      2  C   UNL     1      43.549 135.444  19.980  1.00  0.00     0.093 A 
ATOM      3  N   UNL     1      44.634 135.073  20.689  1.00  0.00    -0.135 NA
ATOM      4  N   UNL     1      44.735 133.756  20.577  1.00  0.00    -0.066 NA
ATOM      5  N   UNL     1      43.760 133.275  19.823  1.00  0.00    -0.236 N 
ATOM      6  C   UNL     1      42.986 134.308  19.428  1.00  0.00     0.149 A 
ENDROOT
BRANCH   6   7
ATOM      7  C   UNL     1      41.770 134.221  18.595  1.00  0.00     0.267 A 
ATOM      8  N   UNL     1      40.595 133.707  19.011  1.00  0.00    -0.106 NA
ATOM      9  O   UNL     1      41.694 134.624  17.350  1.00  0.00    -0.419 OA
ATOM     10  N   UNL     1      39.762 133.796  17.985  1.00  0.00    -0.112 NA
ATOM     11  C   UNL     1      40.465 134.354  16.979  1.00  0.00     0.220 A 
BRANCH  11  12
ATOM     12  C   UNL     1      39.921 134.648  15.612  1.00  0.00     0.081 C 
ATOM     13  C   UNL     1      40.686 135.688  14.800  1.00  0.00     0.017 C 
ATOM     14  C   UNL     1      39.330 136.043  15.398  1.00  0.00    -0.001 C 
ATOM     15  C   UNL     1      39.394 137.065  16.542  1.00  0.00     0.008 C 
ENDBRANCH  11  12
ENDBRANCH   6   7
BRANCH   5  16
ATOM     16  C   UNL     1      43.614 131.854  19.501  1.00  0.00     0.173 C 
BRANCH  16  17
ATOM     17  C   UNL     1      44.377 131.516  18.259  1.00  0.00    -0.060 A 
ATOM     18  N   UNL     1      45.444 130.672  18.253  1.00  0.00    -0.438 NA
ATOM     19  N   UNL     1      44.070 132.049  17.047  1.00  0.00    -0.438 NA
ATOM     20  C   UNL     1      45.806 130.674  16.962  1.00  0.00    -0.038 A 
ATOM     21  C   UNL     1      44.991 131.495  16.247  1.00  0.00    -0.038 A 
ATOM     22  C   UNL     1      46.830 129.942  16.368  1.00  0.00     0.012 A 
ATOM     23  C   UNL     1      45.128 131.661  14.870  1.00  0.00     0.012 A 
ATOM     24  C   UNL     1      47.004 130.067  14.973  1.00  0.00    -0.018 A 
ATOM     25  C   UNL     1      46.150 130.933  14.220  1.00  0.00    -0.018 A 
ATOM     26  C   UNL     1      48.003 129.340  14.311  1.00  0.00     0.009 A 
ATOM     27  C   UNL     1      46.328 131.044  12.833  1.00  0.00     0.009 A 
ATOM     28  C   UNL     1      48.160 129.460  12.928  1.00  0.00     0.001 A 
ATOM     29  C   UNL     1      47.328 130.309  12.193  1.00  0.00     0.001 A 
ENDBRANCH  16  17
ENDBRANCH   5  16
TORSDOF 4
ENDMDL
MODEL 3
REMARK VINA RESULT:      -8.8      2.238      2.613
REMARK SMILES Cc1nnn(Cc2nc3cc4ccccc4cc3[n-]2)c1-c1nnc([C@@H]2C[C@@H]2C)o1
REMARK SMILES IDX 1 1 2 2 3 3 4 4 5 5 20 6 21 7 22 8 29 9 23 10 24 11 25 12
REMARK SMILES IDX 26 13 27 14 28 15 6 16 7 17 8 18 19 19 9 20 18 21 10 22
REMARK SMILES IDX 17 23 11 24 16 25 12 26 15 27 13 28 14 29
REMARK H PARENT
ROOT
ATOM      1  C   UNL     1      42.857 136.805  20.068  1.00  0.00     0.071 C 
ATOM      2  C   UNL     1      43.266 135.367  20.071  1.00  0.00     0.093 A 
ATOM      3  N   UNL     1      44.361 134.894  20.698  1.00  0.00    -0.135 NA
ATOM      4  N   UNL     1      44.393 133.586  20.484  1.00  0.00    -0.066 NA
ATOM      5  N   UNL     1      43.363 133.209  19.744  1.00  0.00    -0.236 N 
ATOM      6  C   UNL     1      42.624 134.303  19.465  1.00  0.00     0.149 A 
ENDROOT
BRANCH   6   7
ATOM      7  C   UNL     1      41.369 134.335  18.687  1.00  0.00     0.267 A 
ATOM      8  N   UNL     1      41.193 135.041  17.552  1.00  0.00    -0.106 NA
ATOM      9  O   UNL     1      40.276 133.690  19.015  1.00  0.00    -0.419 OA
ATOM     10  N   UNL     1      39.945 134.823  17.164  1.00  0.00    -0.112 NA
ATOM     11  C   UNL     1      39.405 133.999  18.084  1.00  0.00     0.220 A 
BRANCH  11  12
ATOM     12  C   UNL     1      37.998 133.481  18.052  1.00  0.00     0.081 C 
ATOM     13  C   UNL     1      36.947 134.442  17.505  1.00  0.00     0.017 C 
ATOM     14  C   UNL     1      37.001 134.151  19.000  1.00  0.00    -0.001 C 
ATOM     15  C   UNL     1      37.467 135.337  19.857  1.00  0.00     0.008 C 
ENDBRANCH  11  12
ENDBRANCH   6   7
BRANCH   5  16
ATOM     16  C   UNL     1      43.134 131.825  19.325  1.00  0.00     0.173 C 
BRANCH  16  17
ATOM     17  C   UNL     1      43.969 131.494  18.128  1.00  0.00    -0.060 A 
ATOM     18  N   UNL     1      45.130 130.789  18.210  1.00  0.00    -0.438 NA
ATOM     19  N   UNL     1      43.636 131.894  16.873  1.00  0.00    -0.438 NA
ATOM     20  C   UNL     1      45.528 130.741  16.930  1.00  0.00    -0.038 A 
ATOM     21  C   UNL     1      44.642 131.401  16.137  1.00  0.00    -0.038 A 
ATOM     22  C   UNL     1      46.651 130.100  16.415  1.00  0.00     0.012 A 
ATOM     23  C   UNL     1      44.799 131.481  14.755  1.00  0.00     0.012 A 
ATOM     24  C   UNL     1      46.851 130.142  15.019  1.00  0.00    -0.018 A 
ATOM     25  C   UNL     1      45.920 130.839  14.183  1.00  0.00    -0.018 A 
ATOM     26  C   UNL     1      47.949 129.498  14.435  1.00  0.00     0.009 A 
ATOM     27  C   UNL     1      46.125 130.869  12.796  1.00  0.00     0.009 A 
ATOM     28  C   UNL     1      48.132 129.534  13.050  1.00  0.00     0.001 A 
ATOM     29  C   UNL     1      47.226 130.218  12.235  1.00  0.00     0.001 A 
ENDBRANCH  16  17
ENDBRANCH   5  16
TORSDOF 4
ENDMDL
MODEL 4
REMARK VINA RESULT:      -8.8      1.851      4.216
REMARK SMILES Cc1nnn(Cc2nc3cc4ccccc4cc3[n-]2)c1-c1nnc([C@@H]2C[C@@H]2C)o1
REMARK SMILES IDX 1 1 2 2 3 3 4 4 5 5 20 6 21 7 22 8 29 9 23 10 24 11 25 12
REMARK SMILES IDX 26 13 27 14 28 15 6 16 7 17 8 18 19 19 9 20 18 21 10 22
REMARK SMILES IDX 17 23 11 24 16 25 12 26 15 27 13 28 14 29
REMARK H PARENT
ROOT
ATOM      1  C   UNL     1      39.499 137.030  15.142  1.00  0.00     0.071 C 
ATOM      2  C   UNL     1      39.626 135.682  15.775  1.00  0.00     0.093 A 
ATOM      3  N   UNL     1      38.708 134.703  15.658  1.00  0.00    -0.135 NA
ATOM      4  N   UNL     1      39.162 133.664  16.346  1.00  0.00    -0.066 NA
ATOM      5  N   UNL     1      40.331 133.946  16.899  1.00  0.00    -0.236 N 
ATOM      6  C   UNL     1      40.662 135.210  16.560  1.00  0.00     0.149 A 
ENDROOT
BRANCH   6   7
ATOM      7  C   UNL     1      41.899 135.921  16.939  1.00  0.00     0.267 A 
ATOM      8  N   UNL     1      43.134 135.584  16.515  1.00  0.00    -0.106 NA
ATOM      9  O   UNL     1      41.943 136.959  17.740  1.00  0.00    -0.419 OA
ATOM     10  N   UNL     1      43.971 136.445  17.075  1.00  0.00    -0.112 NA
ATOM     11  C   UNL     1      43.214 137.269  17.826  1.00  0.00     0.220 A 
BRANCH  11  12
ATOM     12  C   UNL     1      43.742 138.409  18.647  1.00  0.00     0.081 C 
ATOM     13  C   UNL     1      45.134 138.215  19.238  1.00  0.00     0.017 C 
ATOM     14  C   UNL     1      43.912 138.151  20.145  1.00  0.00    -0.001 C 
ATOM     15  C   UNL     1      43.612 136.750  20.700  1.00  0.00     0.008 C 
ENDBRANCH  11  12
ENDBRANCH   6   7
BRANCH   5  16
ATOM     16  C   UNL     1      41.076 133.004  17.735  1.00  0.00     0.173 C 
BRANCH  16  17
ATOM     17  C   UNL     1      42.239 132.439  16.982  1.00  0.00    -0.060 A 
ATOM     18  N   UNL     1      43.351 131.952  17.596  1.00  0.00    -0.438 NA
ATOM     19  N   UNL     1      42.275 132.391  15.625  1.00  0.00    -0.438 NA
ATOM     20  C   UNL     1      44.110 131.571  16.558  1.00  0.00    -0.038 A 
ATOM     21  C   UNL     1      43.471 131.835  15.387  1.00  0.00    -0.038 A 
ATOM     22  C   UNL     1      45.359 130.958  16.601  1.00  0.00     0.012 A 
ATOM     23  C   UNL     1      44.025 131.512  14.150  1.00  0.00     0.012 A 
ATOM     24  C   UNL     1      45.959 130.601  15.375  1.00  0.00    -0.018 A 
ATOM     25  C   UNL     1      45.289 130.881  14.141  1.00  0.00    -0.018 A 
ATOM     26  C   UNL     1      47.205 129.961  15.349  1.00  0.00     0.009 A 
ATOM     27  C   UNL     1      45.892 130.516  12.929  1.00  0.00     0.009 A 
ATOM     28  C   UNL     1      47.786 129.599  14.131  1.00  0.00     0.001 A 
ATOM     29  C   UNL     1      47.134 129.877  12.927  1.00  0.00     0.001 A 
ENDBRANCH  16  17
ENDBRANCH   5  16
TORSDOF 4
ENDMDL
MODEL 5
REMARK VINA RESULT:      -8.7      1.526      2.310
REMARK SMILES Cc1nnn(Cc2nc3cc4ccccc4cc3[n-]2)c1-c1nnc([C@@H]2C[C@@H]2C)o1
REMARK SMILES IDX 1 1 2 2 3 3 4 4 5 5 20 6 21 7 22 8 29 9 23 10 24 11 25 12
REMARK SMILES IDX 26 13 27 14 28 15 6 16 7 17 8 18 19 19 9 20 18 21 10 22
REMARK SMILES IDX 17 23 11 24 16 25 12 26 15 27 13 28 14 29
REMARK H PARENT
ROOT
ATOM      1  C   UNL     1      42.565 137.038  20.265  1.00  0.00     0.071 C 
ATOM      2  C   UNL     1      42.390 135.580  19.987  1.00  0.00     0.093 A 
ATOM      3  N   UNL     1      42.825 134.598  20.801  1.00  0.00    -0.135 NA
ATOM      4  N   UNL     1      42.491 133.448  20.231  1.00  0.00    -0.066 NA
ATOM      5  N   UNL     1      41.863 133.661  19.085  1.00  0.00    -0.236 N 
ATOM      6  C   UNL     1      41.775 134.994  18.895  1.00  0.00     0.149 A 
ENDROOT
BRANCH   6   7
ATOM      7  C   UNL     1      41.126 135.674  17.757  1.00  0.00     0.267 A 
ATOM      8  N   UNL     1      40.096 136.536  17.870  1.00  0.00    -0.106 NA
ATOM      9  O   UNL     1      41.469 135.513  16.502  1.00  0.00    -0.419 OA
ATOM     10  N   UNL     1      39.791 136.921  16.639  1.00  0.00    -0.112 NA
ATOM     11  C   UNL     1      40.644 136.271  15.822  1.00  0.00     0.220 A 
BRANCH  11  12
ATOM     12  C   UNL     1      40.667 136.402  14.328  1.00  0.00     0.081 C 
ATOM     13  C   UNL     1      39.312 136.592  13.655  1.00  0.00     0.017 C 
ATOM     14  C   UNL     1      40.036 135.257  13.532  1.00  0.00    -0.001 C 
ATOM     15  C   UNL     1      39.364 134.103  14.289  1.00  0.00     0.008 C 
ENDBRANCH  11  12
ENDBRANCH   6   7
BRANCH   5  16
ATOM     16  C   UNL     1      41.384 132.585  18.215  1.00  0.00     0.173 C 
BRANCH  16  17
ATOM     17  C   UNL     1      42.487 132.095  17.330  1.00  0.00    -0.060 A 
ATOM     18  N   UNL     1      42.373 132.027  15.976  1.00  0.00    -0.438 NA
ATOM     19  N   UNL     1      43.678 131.662  17.821  1.00  0.00    -0.438 NA
ATOM     20  C   UNL     1      43.567 131.536  15.611  1.00  0.00    -0.038 A 
ATOM     21  C   UNL     1      44.340 131.316  16.708  1.00  0.00    -0.038 A 
ATOM     22  C   UNL     1      44.025 131.295  14.319  1.00  0.00     0.012 A 
ATOM     23  C   UNL     1      45.644 130.834  16.613  1.00  0.00     0.012 A 
ATOM     24  C   UNL     1      45.343 130.815  14.167  1.00  0.00    -0.018 A 
ATOM     25  C   UNL     1      46.157 130.581  15.321  1.00  0.00    -0.018 A 
ATOM     26  C   UNL     1      45.873 130.573  12.893  1.00  0.00     0.009 A 
ATOM     27  C   UNL     1      47.469 130.110  15.158  1.00  0.00     0.009 A 
ATOM     28  C   UNL     1      47.184 130.111  12.751  1.00  0.00     0.001 A 
ATOM     29  C   UNL     1      47.977 129.878  13.878  1.00  0.00     0.001 A 
ENDBRANCH  16  17
ENDBRANCH   5  16
TORSDOF 4
ENDMDL
MODEL 6
REMARK VINA RESULT:      -8.7      1.511      2.288
REMARK SMILES Cc1nnn(Cc2nc3cc4ccccc4cc3[n-]2)c1-c1nnc([C@@H]2C[C@@H]2C)o1
REMARK SMILES IDX 1 1 2 2 3 3 4 4 5 5 20 6 21 7 22 8 29 9 23 10 24 11 25 12
REMARK SMILES IDX 26 13 27 14 28 15 6 16 7 17 8 18 19 19 9 20 18 21 10 22
REMARK SMILES IDX 17 23 11 24 16 25 12 26 15 27 13 28 14 29
REMARK H PARENT
ROOT
ATOM      1  C   UNL     1      41.667 138.438  18.585  1.00  0.00     0.071 C 
ATOM      2  C   UNL     1      41.586 136.967  18.837  1.00  0.00     0.093 A 
ATOM      3  N   UNL     1      42.073 136.360  19.937  1.00  0.00    -0.135 NA
ATOM      4  N   UNL     1      41.816 135.066  19.809  1.00  0.00    -0.066 NA
ATOM      5  N   UNL     1      41.186 134.825  18.670  1.00  0.00    -0.236 N 
ATOM      6  C   UNL     1      41.017 136.000  18.028  1.00  0.00     0.149 A 
ENDROOT
BRANCH   6   7
ATOM      7  C   UNL     1      40.338 136.198  16.732  1.00  0.00     0.267 A 
ATOM      8  N   UNL     1      40.946 136.632  15.610  1.00  0.00    -0.106 NA
ATOM      9  O   UNL     1      39.060 135.985  16.524  1.00  0.00    -0.419 OA
ATOM     10  N   UNL     1      40.010 136.690  14.673  1.00  0.00    -0.112 NA
ATOM     11  C   UNL     1      38.864 136.296  15.265  1.00  0.00     0.220 A 
BRANCH  11  12
ATOM     12  C   UNL     1      37.533 136.204  14.579  1.00  0.00     0.081 C 
ATOM     13  C   UNL     1      36.559 135.179  15.150  1.00  0.00     0.017 C 
ATOM     14  C   UNL     1      37.244 134.909  13.817  1.00  0.00    -0.001 C 
ATOM     15  C   UNL     1      38.277 133.773  13.857  1.00  0.00     0.008 C 
ENDBRANCH  11  12
ENDBRANCH   6   7
BRANCH   5  16
ATOM     16  C   UNL     1      40.783 133.486  18.238  1.00  0.00     0.173 C 
BRANCH  16  17
ATOM     17  C   UNL     1      41.882 132.831  17.462  1.00  0.00    -0.060 A 
ATOM     18  N   UNL     1      41.861 132.712  16.107  1.00  0.00    -0.438 NA
ATOM     19  N   UNL     1      42.974 132.289  18.061  1.00  0.00    -0.438 NA
ATOM     20  C   UNL     1      43.012 132.070  15.856  1.00  0.00    -0.038 A 
ATOM     21  C   UNL     1      43.671 131.817  17.018  1.00  0.00    -0.038 A 
ATOM     22  C   UNL     1      43.532 131.717  14.615  1.00  0.00     0.012 A 
ATOM     23  C   UNL     1      44.912 131.184  17.044  1.00  0.00     0.012 A 
ATOM     24  C   UNL     1      44.792 131.082  14.585  1.00  0.00    -0.018 A 
ATOM     25  C   UNL     1      45.486 130.812  15.808  1.00  0.00    -0.018 A 
ATOM     26  C   UNL     1      45.381 130.721  13.367  1.00  0.00     0.009 A 
ATOM     27  C   UNL     1      46.741 130.187  15.767  1.00  0.00     0.009 A 
ATOM     28  C   UNL     1      46.635 130.105  13.347  1.00  0.00     0.001 A 
ATOM     29  C   UNL     1      47.310 129.837  14.540  1.00  0.00     0.001 A 
ENDBRANCH  16  17
ENDBRANCH   5  16
TORSDOF 4
ENDMDL
MODEL 7
REMARK VINA RESULT:      -8.6      1.103      1.830
REMARK SMILES Cc1nnn(Cc2nc3cc4ccccc4cc3[n-]2)c1-c1nnc([C@@H]2C[C@@H]2C)o1
REMARK SMILES IDX 1 1 2 2 3 3 4 4 5 5 20 6 21 7 22 8 29 9 23 10 24 11 25 12
REMARK SMILES IDX 26 13 27 14 28 15 6 16 7 17 8 18 19 19 9 20 18 21 10 22
REMARK SMILES IDX 17 23 11 24 16 25 12 26 15 27 13 28 14 29
REMARK H PARENT
ROOT
ATOM      1  C   UNL     1      41.598 137.470  18.898  1.00  0.00     0.071 C 
ATOM      2  C   UNL     1      42.211 136.135  19.178  1.00  0.00     0.093 A 
ATOM      3  N   UNL     1      43.393 135.962  19.801  1.00  0.00    -0.135 NA
ATOM      4  N   UNL     1      43.604 134.655  19.872  1.00  0.00    -0.066 NA
ATOM      5  N   UNL     1      42.602 133.990  19.317  1.00  0.00    -0.236 N 
ATOM      6  C   UNL     1      41.699 134.888  18.870  1.00  0.00     0.149 A 
ENDROOT
BRANCH   6   7
ATOM      7  C   UNL     1      40.416 134.581  18.208  1.00  0.00     0.267 A 
ATOM      8  N   UNL     1      39.393 133.927  18.793  1.00  0.00    -0.106 NA
ATOM      9  O   UNL     1      40.124 134.900  16.970  1.00  0.00    -0.419 OA
ATOM     10  N   UNL     1      38.433 133.839  17.883  1.00  0.00    -0.112 NA
ATOM     11  C   UNL     1      38.914 134.436  16.774  1.00  0.00     0.220 A 
BRANCH  11  12
ATOM     12  C   UNL     1      38.165 134.574  15.482  1.00  0.00     0.081 C 
ATOM     13  C   UNL     1      38.576 135.743  14.594  1.00  0.00     0.017 C 
ATOM     14  C   UNL     1      37.252 135.795  15.347  1.00  0.00    -0.001 C 
ATOM     15  C   UNL     1      37.213 136.826  16.484  1.00  0.00     0.008 C 
ENDBRANCH  11  12
ENDBRANCH   6   7
BRANCH   5  16
ATOM     16  C   UNL     1      42.556 132.530  19.225  1.00  0.00     0.173 C 
BRANCH  16  17
ATOM     17  C   UNL     1      43.425 132.045  18.108  1.00  0.00    -0.060 A 
ATOM     18  N   UNL     1      43.080 132.164  16.798  1.00  0.00    -0.438 NA
ATOM     19  N   UNL     1      44.617 131.429  18.327  1.00  0.00    -0.438 NA
ATOM     20  C   UNL     1      44.125 131.602  16.173  1.00  0.00    -0.038 A 
ATOM     21  C   UNL     1      45.036 131.162  17.082  1.00  0.00    -0.038 A 
ATOM     22  C   UNL     1      44.328 131.482  14.801  1.00  0.00     0.012 A 
ATOM     23  C   UNL     1      46.234 130.562  16.701  1.00  0.00     0.012 A 
ATOM     24  C   UNL     1      45.531 130.890  14.363  1.00  0.00    -0.018 A 
ATOM     25  C   UNL     1      46.489 130.425  15.319  1.00  0.00    -0.018 A 
ATOM     26  C   UNL     1      45.806 130.761  12.995  1.00  0.00     0.009 A 
ATOM     27  C   UNL     1      47.685 129.844  14.872  1.00  0.00     0.009 A 
ATOM     28  C   UNL     1      47.006 130.185  12.570  1.00  0.00     0.001 A 
ATOM     29  C   UNL     1      47.940 129.726  13.503  1.00  0.00     0.001 A 
ENDBRANCH  16  17
ENDBRANCH   5  16
TORSDOF 4
ENDMDL
MODEL 8
REMARK VINA RESULT:      -8.5      3.780      7.033
REMARK SMILES Cc1nnn(Cc2nc3cc4ccccc4cc3[n-]2)c1-c1nnc([C@@H]2C[C@@H]2C)o1
REMARK SMILES IDX 1 1 2 2 3 3 4 4 5 5 20 6 21 7 22 8 29 9 23 10 24 11 25 12
REMARK SMILES IDX 26 13 27 14 28 15 6 16 7 17 8 18 19 19 9 20 18 21 10 22
REMARK SMILES IDX 17 23 11 24 16 25 12 26 15 27 13 28 14 29
REMARK H PARENT
ROOT
ATOM      1  C   UNL     1      42.027 134.339  14.073  1.00  0.00     0.071 C 
ATOM      2  C   UNL     1      41.724 133.837  15.448  1.00  0.00     0.093 A 
ATOM      3  N   UNL     1      40.577 134.091  16.109  1.00  0.00    -0.135 NA
ATOM      4  N   UNL     1      40.668 133.485  17.285  1.00  0.00    -0.066 NA
ATOM      5  N   UNL     1      41.828 132.857  17.398  1.00  0.00    -0.236 N 
ATOM      6  C   UNL     1      42.523 133.051  16.258  1.00  0.00     0.149 A 
ENDROOT
BRANCH   6   7
ATOM      7  C   UNL     1      43.859 132.506  15.944  1.00  0.00     0.267 A 
ATOM      8  N   UNL     1      44.954 133.257  15.712  1.00  0.00    -0.106 NA
ATOM      9  O   UNL     1      44.134 131.228  15.845  1.00  0.00    -0.419 OA
ATOM     10  N   UNL     1      45.943 132.411  15.459  1.00  0.00    -0.112 NA
ATOM     11  C   UNL     1      45.408 131.176  15.540  1.00  0.00     0.220 A 
BRANCH  11  12
ATOM     12  C   UNL     1      46.165 129.898  15.327  1.00  0.00     0.081 C 
ATOM     13  C   UNL     1      47.589 130.048  14.801  1.00  0.00     0.017 C 
ATOM     14  C   UNL     1      46.492 129.532  13.878  1.00  0.00    -0.001 C 
ATOM     15  C   UNL     1      46.104 130.505  12.755  1.00  0.00     0.008 C 
ENDBRANCH  11  12
ENDBRANCH   6   7
BRANCH   5  16
ATOM     16  C   UNL     1      42.229 132.111  18.592  1.00  0.00     0.173 C 
BRANCH  16  17
ATOM     17  C   UNL     1      43.293 132.850  19.341  1.00  0.00    -0.060 A 
ATOM     18  N   UNL     1      44.355 132.229  19.922  1.00  0.00    -0.438 NA
ATOM     19  N   UNL     1      43.262 134.197  19.512  1.00  0.00    -0.438 NA
ATOM     20  C   UNL     1      45.023 133.254  20.472  1.00  0.00    -0.038 A 
ATOM     21  C   UNL     1      44.371 134.423  20.230  1.00  0.00    -0.038 A 
ATOM     22  C   UNL     1      46.226 133.205  21.169  1.00  0.00     0.012 A 
ATOM     23  C   UNL     1      44.864 135.651  20.666  1.00  0.00     0.012 A 
ATOM     24  C   UNL     1      46.774 134.423  21.623  1.00  0.00    -0.018 A 
ATOM     25  C   UNL     1      46.087 135.654  21.372  1.00  0.00    -0.018 A 
ATOM     26  C   UNL     1      47.994 134.445  22.311  1.00  0.00     0.009 A 
ATOM     27  C   UNL     1      46.644 136.860  21.822  1.00  0.00     0.009 A 
ATOM     28  C   UNL     1      48.535 135.658  22.745  1.00  0.00     0.001 A 
ATOM     29  C   UNL     1      47.863 136.859  22.505  1.00  0.00     0.001 A 
ENDBRANCH  16  17
ENDBRANCH   5  16
TORSDOF 4
ENDMDL
MODEL 9
REMARK VINA RESULT:      -8.5      2.491      3.517
REMARK SMILES Cc1nnn(Cc2nc3cc4ccccc4cc3[n-]2)c1-c1nnc([C@@H]2C[C@@H]2C)o1
REMARK SMILES IDX 1 1 2 2 3 3 4 4 5 5 20 6 21 7 22 8 29 9 23 10 24 11 25 12
REMARK SMILES IDX 26 13 27 14 28 15 6 16 7 17 8 18 19 19 9 20 18 21 10 22
REMARK SMILES IDX 17 23 11 24 16 25 12 26 15 27 13 28 14 29
REMARK H PARENT
ROOT
ATOM      1  C   UNL     1      43.009 135.197  21.754  1.00  0.00     0.071 C 
ATOM      2  C   UNL     1      42.733 134.062  20.822  1.00  0.00     0.093 A 
ATOM      3  N   UNL     1      43.027 132.775  21.091  1.00  0.00    -0.135 NA
ATOM      4  N   UNL     1      42.638 132.063  20.042  1.00  0.00    -0.066 NA
ATOM      5  N   UNL     1      42.110 132.848  19.116  1.00  0.00    -0.236 N 
ATOM      6  C   UNL     1      42.147 134.118  19.571  1.00  0.00     0.149 A 
ENDROOT
BRANCH   6   7
ATOM      7  C   UNL     1      41.637 135.312  18.870  1.00  0.00     0.267 A 
ATOM      8  N   UNL     1      40.653 136.108  19.335  1.00  0.00    -0.106 NA
ATOM      9  O   UNL     1      42.073 135.734  17.707  1.00  0.00    -0.419 OA
ATOM     10  N   UNL     1      40.476 137.057  18.427  1.00  0.00    -0.112 NA
ATOM     11  C   UNL     1      41.354 136.796  17.437  1.00  0.00     0.220 A 
BRANCH  11  12
ATOM     12  C   UNL     1      41.509 137.617  16.191  1.00  0.00     0.081 C 
ATOM     13  C   UNL     1      42.765 137.349  15.369  1.00  0.00     0.017 C 
ATOM     14  C   UNL     1      42.652 138.634  16.180  1.00  0.00    -0.001 C 
ATOM     15  C   UNL     1      43.600 138.704  17.386  1.00  0.00     0.008 C 
ENDBRANCH  11  12
ENDBRANCH   6   7
BRANCH   5  16
ATOM     16  C   UNL     1      41.604 132.355  17.834  1.00  0.00     0.173 C 
BRANCH  16  17
ATOM     17  C   UNL     1      42.731 131.880  16.972  1.00  0.00    -0.060 A 
ATOM     18  N   UNL     1      42.686 131.912  15.612  1.00  0.00    -0.438 NA
ATOM     19  N   UNL     1      43.875 131.361  17.488  1.00  0.00    -0.438 NA
ATOM     20  C   UNL     1      43.876 131.396  15.273  1.00  0.00    -0.038 A 
ATOM     21  C   UNL     1      44.581 131.065  16.388  1.00  0.00    -0.038 A 
ATOM     22  C   UNL     1      44.392 131.226  13.991  1.00  0.00     0.012 A 
ATOM     23  C   UNL     1      45.867 130.533  16.323  1.00  0.00     0.012 A 
ATOM     24  C   UNL     1      45.695 130.700  13.871  1.00  0.00    -0.018 A 
ATOM     25  C   UNL     1      46.437 130.349  15.043  1.00  0.00    -0.018 A 
ATOM     26  C   UNL     1      46.281 130.525  12.610  1.00  0.00     0.009 A 
ATOM     27  C   UNL     1      47.735 129.833  14.912  1.00  0.00     0.009 A 
ATOM     28  C   UNL     1      47.577 130.016  12.500  1.00  0.00     0.001 A 
ATOM     29  C   UNL     1      48.300 129.669  13.645  1.00  0.00     0.001 A 
ENDBRANCH  16  17
ENDBRANCH   5  16
TORSDOF 4
ENDMDL


