MODEL 1
REMARK VINA RESULT:      -6.6      0.000      0.000
REMARK SMILES C#Cc1ccc(-n2cc(CCCCN(C)[C@@H](C)C#N)n[nH+]2)cc(N=C=O)ccc2ccccc12
REMARK SMILES IDX 11 1 10 2 9 3 7 4 8 5 21 6 20 7 6 9 3 10 4 11 34 12 5 13
REMARK SMILES IDX 33 14 29 15 32 16 28 17 30 18 22 19 31 20 27 21 23 22 2 23
REMARK SMILES IDX 1 24 24 25 25 26 26 27 12 28 13 29 14 30 15 31 16 32 17 33
REMARK SMILES IDX 18 34 19 35
REMARK H PARENT 21 8
ROOT
ATOM      1  C   UNL     1      43.182 131.836  16.253  1.00  0.00     0.008 C 
ENDROOT
BRANCH   1   2
ATOM      2  C   UNL     1      43.430 133.342  16.421  1.00  0.00     0.065 C 
BRANCH   2   3
ATOM      3  C   UNL     1      42.525 134.166  15.555  1.00  0.00     0.132 A 
ATOM      4  N   UNL     1      40.890 134.815  14.265  1.00  0.00    -0.104 N 
ATOM      5  C   UNL     1      41.346 133.760  14.965  1.00  0.00     0.190 A 
ATOM      6  N   UNL     1      41.755 135.808  14.428  1.00  0.00    -0.012 N 
ATOM      7  N   UNL     1      42.764 135.445  15.204  1.00  0.00     0.020 NA
ATOM      8  H   UNL     1      41.658 136.760  14.016  1.00  0.00     0.527 HD
BRANCH   4   9
ATOM      9  C   UNL     1      39.690 134.881  13.467  1.00  0.00     0.109 A 
ATOM     10  C   UNL     1      38.273 134.899  16.162  1.00  0.00     0.032 A 
ATOM     11  C   UNL     1      38.083 133.966  15.116  1.00  0.00     0.020 A 
ATOM     12  C   UNL     1      38.645 136.262  15.966  1.00  0.00    -0.003 A 
ATOM     13  C   UNL     1      38.576 134.096  13.809  1.00  0.00     0.034 A 
ATOM     14  C   UNL     1      39.503 136.877  16.905  1.00  0.00     0.010 A 
ATOM     15  C   UNL     1      38.285 137.002  14.798  1.00  0.00    -0.017 A 
ATOM     16  C   UNL     1      40.091 138.113  16.639  1.00  0.00     0.001 A 
ATOM     17  C   UNL     1      37.224 136.603  13.967  1.00  0.00     0.011 A 
ATOM     18  C   UNL     1      38.947 138.212  14.514  1.00  0.00     0.009 A 
ATOM     19  C   UNL     1      39.649 135.728  12.343  1.00  0.00     0.061 A 
ATOM     20  C   UNL     1      39.843 138.761  15.432  1.00  0.00     0.001 A 
ATOM     21  C   UNL     1      37.298 136.539  12.566  1.00  0.00     0.030 A 
ATOM     22  C   UNL     1      38.476 136.331  11.814  1.00  0.00     0.079 A 
BRANCH  10  23
ATOM     23  C   UNL     1      38.074 134.405  17.506  1.00  0.00    -0.070 C 
ATOM     24  C   UNL     1      37.907 133.988  18.624  1.00  0.00     0.010 C 
ENDBRANCH  10  23
BRANCH  22  25
ATOM     25  N   UNL     1      38.438 136.762  10.444  1.00  0.00    -0.168 NA
BRANCH  25  26
ATOM     26  C   UNL     1      38.528 135.978   9.444  1.00  0.00     0.240 C 
ATOM     27  O   UNL     1      38.616 135.217   8.472  1.00  0.00    -0.211 OA
ENDBRANCH  25  26
ENDBRANCH  22  25
ENDBRANCH   4   9
ENDBRANCH   2   3
ENDBRANCH   1   2
BRANCH   1  28
ATOM     28  C   UNL     1      44.033 131.217  15.128  1.00  0.00     0.016 C 
BRANCH  28  29
ATOM     29  C   UNL     1      45.422 131.859  15.049  1.00  0.00     0.085 C 
BRANCH  29  30
ATOM     30  N   UNL     1      46.479 130.830  15.176  1.00  0.00    -0.291 NA
ATOM     31  C   UNL     1      46.334 130.065  16.436  1.00  0.00     0.106 C 
BRANCH  30  32
ATOM     32  C   UNL     1      46.580 129.972  13.966  1.00  0.00     0.157 C 
ATOM     33  C   UNL     1      46.051 130.691  12.719  1.00  0.00     0.041 C 
BRANCH  32  34
ATOM     34  C   UNL     1      47.956 129.481  13.737  1.00  0.00     0.081 C 
ATOM     35  N   UNL     1      49.034 129.095  13.567  1.00  0.00    -0.197 NA
ENDBRANCH  32  34
ENDBRANCH  30  32
ENDBRANCH  29  30
ENDBRANCH  28  29
ENDBRANCH   1  28
TORSDOF 11
ENDMDL
MODEL 2
REMARK VINA RESULT:      -6.3      1.430      1.681
REMARK SMILES C#Cc1ccc(-n2cc(CCCCN(C)[C@@H](C)C#N)n[nH+]2)cc(N=C=O)ccc2ccccc12
REMARK SMILES IDX 11 1 10 2 9 3 7 4 8 5 21 6 20 7 6 9 3 10 4 11 34 12 5 13
REMARK SMILES IDX 33 14 29 15 32 16 28 17 30 18 22 19 31 20 27 21 23 22 2 23
REMARK SMILES IDX 1 24 24 25 25 26 26 27 12 28 13 29 14 30 15 31 16 32 17 33
REMARK SMILES IDX 18 34 19 35
REMARK H PARENT 21 8
ROOT
ATOM      1  C   UNL     1      44.864 132.602  15.526  1.00  0.00     0.008 C 
ENDROOT
BRANCH   1   2
ATOM      2  C   UNL     1      44.206 133.709  16.362  1.00  0.00     0.065 C 
BRANCH   2   3
ATOM      3  C   UNL     1      42.943 134.219  15.736  1.00  0.00     0.132 A 
ATOM      4  N   UNL     1      40.887 134.401  15.030  1.00  0.00    -0.104 N 
ATOM      5  C   UNL     1      41.714 133.593  15.719  1.00  0.00     0.190 A 
ATOM      6  N   UNL     1      41.588 135.462  14.651  1.00  0.00    -0.012 N 
ATOM      7  N   UNL     1      42.844 135.381  15.060  1.00  0.00     0.020 NA
ATOM      8  H   UNL     1      41.208 136.269  14.112  1.00  0.00     0.527 HD
BRANCH   4   9
ATOM      9  C   UNL     1      39.494 134.175  14.733  1.00  0.00     0.109 A 
ATOM     10  C   UNL     1      39.076 134.900  17.660  1.00  0.00     0.032 A 
ATOM     11  C   UNL     1      38.686 133.698  17.027  1.00  0.00     0.020 A 
ATOM     12  C   UNL     1      39.154 136.165  17.007  1.00  0.00    -0.003 A 
ATOM     13  C   UNL     1      38.688 133.469  15.642  1.00  0.00     0.034 A 
ATOM     14  C   UNL     1      40.176 137.065  17.383  1.00  0.00     0.010 A 
ATOM     15  C   UNL     1      38.318 136.519  15.903  1.00  0.00    -0.017 A 
ATOM     16  C   UNL     1      40.450 138.200  16.619  1.00  0.00     0.001 A 
ATOM     17  C   UNL     1      37.111 135.847  15.643  1.00  0.00     0.011 A 
ATOM     18  C   UNL     1      38.660 137.626  15.104  1.00  0.00     0.009 A 
ATOM     19  C   UNL     1      38.953 134.660  13.527  1.00  0.00     0.061 A 
ATOM     20  C   UNL     1      39.720 138.460  15.463  1.00  0.00     0.001 A 
ATOM     21  C   UNL     1      36.721 135.386  14.375  1.00  0.00     0.030 A 
ATOM     22  C   UNL     1      37.596 135.027  13.326  1.00  0.00     0.079 A 
BRANCH  10  23
ATOM     23  C   UNL     1      39.414 134.805  19.063  1.00  0.00    -0.070 C 
ATOM     24  C   UNL     1      39.690 134.727  20.233  1.00  0.00     0.010 C 
ENDBRANCH  10  23
BRANCH  22  25
ATOM     25  N   UNL     1      37.037 135.042  12.003  1.00  0.00    -0.168 NA
BRANCH  25  26
ATOM     26  C   UNL     1      36.798 133.998  11.313  1.00  0.00     0.240 C 
ATOM     27  O   UNL     1      36.566 132.984  10.644  1.00  0.00    -0.211 OA
ENDBRANCH  25  26
ENDBRANCH  22  25
ENDBRANCH   4   9
ENDBRANCH   2   3
ENDBRANCH   1   2
BRANCH   1  28
ATOM     28  C   UNL     1      45.291 131.391  16.376  1.00  0.00     0.016 C 
BRANCH  28  29
ATOM     29  C   UNL     1      46.567 130.738  15.834  1.00  0.00     0.085 C 
BRANCH  29  30
ATOM     30  N   UNL     1      46.255 129.438  15.196  1.00  0.00    -0.291 NA
ATOM     31  C   UNL     1      44.824 129.095  15.351  1.00  0.00     0.106 C 
BRANCH  30  32
ATOM     32  C   UNL     1      46.736 129.371  13.790  1.00  0.00     0.157 C 
ATOM     33  C   UNL     1      46.111 130.473  12.926  1.00  0.00     0.041 C 
BRANCH  32  34
ATOM     34  C   UNL     1      48.212 129.413  13.698  1.00  0.00     0.081 C 
ATOM     35  N   UNL     1      49.367 129.440  13.632  1.00  0.00    -0.197 NA
ENDBRANCH  32  34
ENDBRANCH  30  32
ENDBRANCH  29  30
ENDBRANCH  28  29
ENDBRANCH   1  28
TORSDOF 11
ENDMDL
MODEL 3
REMARK VINA RESULT:      -6.2      1.710      2.429
REMARK SMILES C#Cc1ccc(-n2cc(CCCCN(C)[C@@H](C)C#N)n[nH+]2)cc(N=C=O)ccc2ccccc12
REMARK SMILES IDX 11 1 10 2 9 3 7 4 8 5 21 6 20 7 6 9 3 10 4 11 34 12 5 13
REMARK SMILES IDX 33 14 29 15 32 16 28 17 30 18 22 19 31 20 27 21 23 22 2 23
REMARK SMILES IDX 1 24 24 25 25 26 26 27 12 28 13 29 14 30 15 31 16 32 17 33
REMARK SMILES IDX 18 34 19 35
REMARK H PARENT 21 8
ROOT
ATOM      1  C   UNL     1      43.577 132.525  15.202  1.00  0.00     0.008 C 
ENDROOT
BRANCH   1   2
ATOM      2  C   UNL     1      42.272 132.902  15.917  1.00  0.00     0.065 C 
BRANCH   2   3
ATOM      3  C   UNL     1      41.585 134.065  15.267  1.00  0.00     0.132 A 
ATOM      4  N   UNL     1      40.104 135.558  14.684  1.00  0.00    -0.104 N 
ATOM      5  C   UNL     1      40.301 134.509  15.505  1.00  0.00     0.190 A 
ATOM      6  N   UNL     1      41.218 135.734  13.987  1.00  0.00    -0.012 N 
ATOM      7  N   UNL     1      42.139 134.840  14.313  1.00  0.00     0.020 NA
ATOM      8  H   UNL     1      41.369 136.485  13.279  1.00  0.00     0.527 HD
BRANCH   4   9
ATOM      9  C   UNL     1      38.908 136.355  14.558  1.00  0.00     0.109 A 
ATOM     10  C   UNL     1      39.716 137.436  17.286  1.00  0.00     0.032 A 
ATOM     11  C   UNL     1      38.493 136.807  16.959  1.00  0.00     0.020 A 
ATOM     12  C   UNL     1      40.494 138.207  16.373  1.00  0.00    -0.003 A 
ATOM     13  C   UNL     1      38.051 136.514  15.660  1.00  0.00     0.034 A 
ATOM     14  C   UNL     1      41.903 138.154  16.463  1.00  0.00     0.010 A 
ATOM     15  C   UNL     1      39.916 138.941  15.291  1.00  0.00    -0.017 A 
ATOM     16  C   UNL     1      42.708 138.685  15.455  1.00  0.00     0.001 A 
ATOM     17  C   UNL     1      38.556 139.296  15.281  1.00  0.00     0.011 A 
ATOM     18  C   UNL     1      40.742 139.401  14.249  1.00  0.00     0.009 A 
ATOM     19  C   UNL     1      38.606 136.962  13.324  1.00  0.00     0.061 A 
ATOM     20  C   UNL     1      42.129 139.273  14.333  1.00  0.00     0.001 A 
ATOM     21  C   UNL     1      37.704 139.127  14.178  1.00  0.00     0.030 A 
ATOM     22  C   UNL     1      37.858 138.159  13.161  1.00  0.00     0.079 A 
BRANCH  10  23
ATOM     23  C   UNL     1      40.182 137.264  18.644  1.00  0.00    -0.070 C 
ATOM     24  C   UNL     1      40.574 137.116  19.774  1.00  0.00     0.010 C 
ENDBRANCH  10  23
BRANCH  22  25
ATOM     25  N   UNL     1      37.199 138.438  11.915  1.00  0.00    -0.168 NA
BRANCH  25  26
ATOM     26  C   UNL     1      37.675 138.143  10.771  1.00  0.00     0.240 C 
ATOM     27  O   UNL     1      38.138 137.856   9.660  1.00  0.00    -0.211 OA
ENDBRANCH  25  26
ENDBRANCH  22  25
ENDBRANCH   4   9
ENDBRANCH   2   3
ENDBRANCH   1   2
BRANCH   1  28
ATOM     28  C   UNL     1      44.794 132.539  16.145  1.00  0.00     0.016 C 
BRANCH  28  29
ATOM     29  C   UNL     1      46.071 132.083  15.432  1.00  0.00     0.085 C 
BRANCH  29  30
ATOM     30  N   UNL     1      46.524 130.776  15.962  1.00  0.00    -0.291 NA
ATOM     31  C   UNL     1      45.906 130.487  17.275  1.00  0.00     0.106 C 
BRANCH  30  32
ATOM     32  C   UNL     1      46.361 129.679  14.971  1.00  0.00     0.157 C 
ATOM     33  C   UNL     1      45.085 128.869  15.231  1.00  0.00     0.041 C 
BRANCH  32  34
ATOM     34  C   UNL     1      46.389 130.171  13.577  1.00  0.00     0.081 C 
ATOM     35  N   UNL     1      46.419 130.555  12.485  1.00  0.00    -0.197 NA
ENDBRANCH  32  34
ENDBRANCH  30  32
ENDBRANCH  29  30
ENDBRANCH  28  29
ENDBRANCH   1  28
TORSDOF 11
ENDMDL
MODEL 4
REMARK VINA RESULT:      -6.1      2.291      3.198
REMARK SMILES C#Cc1ccc(-n2cc(CCCCN(C)[C@@H](C)C#N)n[nH+]2)cc(N=C=O)ccc2ccccc12
REMARK SMILES IDX 11 1 10 2 9 3 7 4 8 5 21 6 20 7 6 9 3 10 4 11 34 12 5 13
REMARK SMILES IDX 33 14 29 15 32 16 28 17 30 18 22 19 31 20 27 21 23 22 2 23
REMARK SMILES IDX 1 24 24 25 25 26 26 27 12 28 13 29 14 30 15 31 16 32 17 33
REMARK SMILES IDX 18 34 19 35
REMARK H PARENT 21 8
ROOT
ATOM      1  C   UNL     1      45.652 130.557  17.488  1.00  0.00     0.008 C 
ENDROOT
BRANCH   1   2
ATOM      2  C   UNL     1      45.019 131.711  18.277  1.00  0.00     0.065 C 
BRANCH   2   3
ATOM      3  C   UNL     1      44.123 132.558  17.423  1.00  0.00     0.132 A 
ATOM      4  N   UNL     1      42.371 133.441  16.469  1.00  0.00    -0.104 N 
ATOM      5  C   UNL     1      42.744 132.538  17.395  1.00  0.00     0.190 A 
ATOM      6  N   UNL     1      43.475 133.978  15.967  1.00  0.00    -0.012 N 
ATOM      7  N   UNL     1      44.560 133.459  16.522  1.00  0.00     0.020 NA
ATOM      8  H   UNL     1      43.501 134.723  15.238  1.00  0.00     0.527 HD
BRANCH   4   9
ATOM      9  C   UNL     1      41.027 133.778  16.070  1.00  0.00     0.109 A 
ATOM     10  C   UNL     1      40.839 134.999  18.852  1.00  0.00     0.032 A 
ATOM     11  C   UNL     1      40.002 133.993  18.315  1.00  0.00     0.020 A 
ATOM     12  C   UNL     1      41.472 136.016  18.079  1.00  0.00    -0.003 A 
ATOM     13  C   UNL     1      39.962 133.600  16.969  1.00  0.00     0.034 A 
ATOM     14  C   UNL     1      42.764 136.452  18.451  1.00  0.00     0.010 A 
ATOM     15  C   UNL     1      40.910 136.533  16.870  1.00  0.00    -0.017 A 
ATOM     16  C   UNL     1      43.523 137.255  17.601  1.00  0.00     0.001 A 
ATOM     17  C   UNL     1      39.543 136.394  16.572  1.00  0.00     0.011 A 
ATOM     18  C   UNL     1      41.720 137.278  15.994  1.00  0.00     0.009 A 
ATOM     19  C   UNL     1      40.791 134.275  14.774  1.00  0.00     0.061 A 
ATOM     20  C   UNL     1      43.019 137.636  16.360  1.00  0.00     0.001 A 
ATOM     21  C   UNL     1      39.045 135.970  15.329  1.00  0.00     0.030 A 
ATOM     22  C   UNL     1      39.727 135.143  14.410  1.00  0.00     0.079 A 
BRANCH  10  23
ATOM     23  C   UNL     1      41.049 134.962  20.282  1.00  0.00    -0.070 C 
ATOM     24  C   UNL     1      41.221 134.927  21.474  1.00  0.00     0.010 C 
ENDBRANCH  10  23
BRANCH  22  25
ATOM     25  N   UNL     1      39.281 135.209  13.046  1.00  0.00    -0.168 NA
BRANCH  25  26
ATOM     26  C   UNL     1      38.888 136.276  12.471  1.00  0.00     0.240 C 
ATOM     27  O   UNL     1      38.507 137.313  11.913  1.00  0.00    -0.211 OA
ENDBRANCH  25  26
ENDBRANCH  22  25
ENDBRANCH   4   9
ENDBRANCH   2   3
ENDBRANCH   1   2
BRANCH   1  28
ATOM     28  C   UNL     1      44.708 129.986  16.413  1.00  0.00     0.016 C 
BRANCH  28  29
ATOM     29  C   UNL     1      45.466 129.146  15.380  1.00  0.00     0.085 C 
BRANCH  29  30
ATOM     30  N   UNL     1      45.506 129.840  14.073  1.00  0.00    -0.291 NA
ATOM     31  C   UNL     1      44.388 130.801  13.942  1.00  0.00     0.106 C 
BRANCH  30  32
ATOM     32  C   UNL     1      46.839 130.435  13.790  1.00  0.00     0.157 C 
ATOM     33  C   UNL     1      47.961 129.672  14.506  1.00  0.00     0.041 C 
BRANCH  32  34
ATOM     34  C   UNL     1      47.118 130.527  12.340  1.00  0.00     0.081 C 
ATOM     35  N   UNL     1      47.341 130.607  11.208  1.00  0.00    -0.197 NA
ENDBRANCH  32  34
ENDBRANCH  30  32
ENDBRANCH  29  30
ENDBRANCH  28  29
ENDBRANCH   1  28
TORSDOF 11
ENDMDL
MODEL 5
REMARK VINA RESULT:      -5.8      1.607      2.136
REMARK SMILES C#Cc1ccc(-n2cc(CCCCN(C)[C@@H](C)C#N)n[nH+]2)cc(N=C=O)ccc2ccccc12
REMARK SMILES IDX 11 1 10 2 9 3 7 4 8 5 21 6 20 7 6 9 3 10 4 11 34 12 5 13
REMARK SMILES IDX 33 14 29 15 32 16 28 17 30 18 22 19 31 20 27 21 23 22 2 23
REMARK SMILES IDX 1 24 24 25 25 26 26 27 12 28 13 29 14 30 15 31 16 32 17 33
REMARK SMILES IDX 18 34 19 35
REMARK H PARENT 21 8
ROOT
ATOM      1  C   UNL     1      44.119 131.353  16.574  1.00  0.00     0.008 C 
ENDROOT
BRANCH   1   2
ATOM      2  C   UNL     1      43.663 132.673  17.212  1.00  0.00     0.065 C 
BRANCH   2   3
ATOM      3  C   UNL     1      42.885 133.526  16.257  1.00  0.00     0.132 A 
ATOM      4  N   UNL     1      41.262 134.492  15.164  1.00  0.00    -0.104 N 
ATOM      5  C   UNL     1      41.513 133.640  16.175  1.00  0.00     0.190 A 
ATOM      6  N   UNL     1      42.430 134.872  14.663  1.00  0.00    -0.012 N 
ATOM      7  N   UNL     1      43.439 134.300  15.302  1.00  0.00     0.020 NA
ATOM      8  H   UNL     1      42.554 135.545  13.876  1.00  0.00     0.527 HD
BRANCH   4   9
ATOM      9  C   UNL     1      39.972 134.923  14.684  1.00  0.00     0.109 A 
ATOM     10  C   UNL     1      39.840 136.427  17.328  1.00  0.00     0.032 A 
ATOM     11  C   UNL     1      38.916 135.464  16.859  1.00  0.00     0.020 A 
ATOM     12  C   UNL     1      40.597 137.291  16.484  1.00  0.00    -0.003 A 
ATOM     13  C   UNL     1      38.871 134.945  15.557  1.00  0.00     0.034 A 
ATOM     14  C   UNL     1      41.917 137.628  16.861  1.00  0.00     0.010 A 
ATOM     15  C   UNL     1      40.125 137.741  15.212  1.00  0.00    -0.017 A 
ATOM     16  C   UNL     1      42.780 138.261  15.966  1.00  0.00     0.001 A 
ATOM     17  C   UNL     1      38.760 137.714  14.878  1.00  0.00     0.011 A 
ATOM     18  C   UNL     1      41.033 138.309  14.299  1.00  0.00     0.009 A 
ATOM     19  C   UNL     1      39.825 135.310  13.339  1.00  0.00     0.061 A 
ATOM     20  C   UNL     1      42.352 138.566  14.677  1.00  0.00     0.001 A 
ATOM     21  C   UNL     1      38.253 137.222  13.664  1.00  0.00     0.030 A 
ATOM     22  C   UNL     1      38.868 136.242  12.854  1.00  0.00     0.079 A 
BRANCH  10  23
ATOM     23  C   UNL     1      40.007 136.511  18.762  1.00  0.00    -0.070 C 
ATOM     24  C   UNL     1      40.149 136.585  19.955  1.00  0.00     0.010 C 
ENDBRANCH  10  23
BRANCH  22  25
ATOM     25  N   UNL     1      38.468 136.218  11.474  1.00  0.00    -0.168 NA
BRANCH  25  26
ATOM     26  C   UNL     1      38.356 137.255  10.743  1.00  0.00     0.240 C 
ATOM     27  O   UNL     1      38.248 138.262  10.032  1.00  0.00    -0.211 OA
ENDBRANCH  25  26
ENDBRANCH  22  25
ENDBRANCH   4   9
ENDBRANCH   2   3
ENDBRANCH   1   2
BRANCH   1  28
ATOM     28  C   UNL     1      45.649 131.179  16.601  1.00  0.00     0.016 C 
BRANCH  28  29
ATOM     29  C   UNL     1      46.300 131.681  15.308  1.00  0.00     0.085 C 
BRANCH  29  30
ATOM     30  N   UNL     1      46.370 130.593  14.305  1.00  0.00    -0.291 NA
ATOM     31  C   UNL     1      45.178 130.597  13.427  1.00  0.00     0.106 C 
BRANCH  30  32
ATOM     32  C   UNL     1      47.658 130.592  13.562  1.00  0.00     0.157 C 
ATOM     33  C   UNL     1      48.560 129.431  13.999  1.00  0.00     0.041 C 
BRANCH  32  34
ATOM     34  C   UNL     1      47.462 130.574  12.096  1.00  0.00     0.081 C 
ATOM     35  N   UNL     1      47.305 130.552  10.950  1.00  0.00    -0.197 NA
ENDBRANCH  32  34
ENDBRANCH  30  32
ENDBRANCH  29  30
ENDBRANCH  28  29
ENDBRANCH   1  28
TORSDOF 11
ENDMDL
MODEL 6
REMARK VINA RESULT:      -5.6      5.429      7.660
REMARK SMILES C#Cc1ccc(-n2cc(CCCCN(C)[C@@H](C)C#N)n[nH+]2)cc(N=C=O)ccc2ccccc12
REMARK SMILES IDX 11 1 10 2 9 3 7 4 8 5 21 6 20 7 6 9 3 10 4 11 34 12 5 13
REMARK SMILES IDX 33 14 29 15 32 16 28 17 30 18 22 19 31 20 27 21 23 22 2 23
REMARK SMILES IDX 1 24 24 25 25 26 26 27 12 28 13 29 14 30 15 31 16 32 17 33
REMARK SMILES IDX 18 34 19 35
REMARK H PARENT 21 8
ROOT
ATOM      1  C   UNL     1      46.265 134.658  21.676  1.00  0.00     0.008 C 
ENDROOT
BRANCH   1   2
ATOM      2  C   UNL     1      45.747 133.257  22.033  1.00  0.00     0.065 C 
BRANCH   2   3
ATOM      3  C   UNL     1      44.681 132.788  21.090  1.00  0.00     0.132 A 
ATOM      4  N   UNL     1      43.571 132.259  19.287  1.00  0.00    -0.104 N 
ATOM      5  C   UNL     1      44.767 132.705  19.716  1.00  0.00     0.190 A 
ATOM      6  N   UNL     1      42.804 132.083  20.355  1.00  0.00    -0.012 N 
ATOM      7  N   UNL     1      43.447 132.400  21.469  1.00  0.00     0.020 NA
ATOM      8  H   UNL     1      41.824 131.728  20.337  1.00  0.00     0.527 HD
BRANCH   4   9
ATOM      9  C   UNL     1      43.166 132.018  17.924  1.00  0.00     0.109 A 
ATOM     10  C   UNL     1      40.953 134.010  18.558  1.00  0.00     0.032 A 
ATOM     11  C   UNL     1      40.786 132.680  18.109  1.00  0.00     0.020 A 
ATOM     12  C   UNL     1      42.067 134.836  18.228  1.00  0.00    -0.003 A 
ATOM     13  C   UNL     1      41.806 131.853  17.615  1.00  0.00     0.034 A 
ATOM     14  C   UNL     1      42.559 135.739  19.198  1.00  0.00     0.010 A 
ATOM     15  C   UNL     1      42.788 134.710  17.000  1.00  0.00    -0.017 A 
ATOM     16  C   UNL     1      43.782 136.387  19.022  1.00  0.00     0.001 A 
ATOM     17  C   UNL     1      42.230 134.075  15.877  1.00  0.00     0.011 A 
ATOM     18  C   UNL     1      44.054 135.313  16.876  1.00  0.00     0.009 A 
ATOM     19  C   UNL     1      44.143 131.942  16.913  1.00  0.00     0.061 A 
ATOM     20  C   UNL     1      44.545 136.146  17.883  1.00  0.00     0.001 A 
ATOM     21  C   UNL     1      42.900 133.119  15.096  1.00  0.00     0.030 A 
ATOM     22  C   UNL     1      43.935 132.269  15.546  1.00  0.00     0.079 A 
BRANCH  10  23
ATOM     23  C   UNL     1      39.910 134.535  19.411  1.00  0.00    -0.070 C 
ATOM     24  C   UNL     1      39.037 134.972  20.116  1.00  0.00     0.010 C 
ENDBRANCH  10  23
BRANCH  22  25
ATOM     25  N   UNL     1      44.793 131.723  14.532  1.00  0.00    -0.168 NA
BRANCH  25  26
ATOM     26  C   UNL     1      45.221 130.524  14.524  1.00  0.00     0.240 C 
ATOM     27  O   UNL     1      45.637 129.358  14.517  1.00  0.00    -0.211 OA
ENDBRANCH  25  26
ENDBRANCH  22  25
ENDBRANCH   4   9
ENDBRANCH   2   3
ENDBRANCH   1   2
BRANCH   1  28
ATOM     28  C   UNL     1      45.308 135.776  22.130  1.00  0.00     0.016 C 
BRANCH  28  29
ATOM     29  C   UNL     1      45.947 137.161  21.992  1.00  0.00     0.085 C 
BRANCH  29  30
ATOM     30  N   UNL     1      47.197 137.080  21.202  1.00  0.00    -0.291 NA
ATOM     31  C   UNL     1      47.120 137.924  19.989  1.00  0.00     0.106 C 
BRANCH  30  32
ATOM     32  C   UNL     1      48.406 137.336  22.031  1.00  0.00     0.157 C 
ATOM     33  C   UNL     1      49.689 137.271  21.193  1.00  0.00     0.041 C 
BRANCH  32  34
ATOM     34  C   UNL     1      48.326 138.620  22.760  1.00  0.00     0.081 C 
ATOM     35  N   UNL     1      48.267 139.621  23.338  1.00  0.00    -0.197 NA
ENDBRANCH  32  34
ENDBRANCH  30  32
ENDBRANCH  29  30
ENDBRANCH  28  29
ENDBRANCH   1  28
TORSDOF 11
ENDMDL
MODEL 7
REMARK VINA RESULT:      -5.6      2.076      3.070
REMARK SMILES C#Cc1ccc(-n2cc(CCCCN(C)[C@@H](C)C#N)n[nH+]2)cc(N=C=O)ccc2ccccc12
REMARK SMILES IDX 11 1 10 2 9 3 7 4 8 5 21 6 20 7 6 9 3 10 4 11 34 12 5 13
REMARK SMILES IDX 33 14 29 15 32 16 28 17 30 18 22 19 31 20 27 21 23 22 2 23
REMARK SMILES IDX 1 24 24 25 25 26 26 27 12 28 13 29 14 30 15 31 16 32 17 33
REMARK SMILES IDX 18 34 19 35
REMARK H PARENT 21 8
ROOT
ATOM      1  C   UNL     1      44.889 132.557  16.514  1.00  0.00     0.008 C 
ENDROOT
BRANCH   1   2
ATOM      2  C   UNL     1      44.321 133.946  16.190  1.00  0.00     0.065 C 
BRANCH   2   3
ATOM      3  C   UNL     1      42.938 134.135  16.735  1.00  0.00     0.132 A 
ATOM      4  N   UNL     1      40.835 134.672  16.957  1.00  0.00    -0.104 N 
ATOM      5  C   UNL     1      41.854 134.678  16.078  1.00  0.00     0.190 A 
ATOM      6  N   UNL     1      41.287 134.148  18.089  1.00  0.00    -0.012 N 
ATOM      7  N   UNL     1      42.564 133.815  17.990  1.00  0.00     0.020 NA
ATOM      8  H   UNL     1      40.717 133.999  18.949  1.00  0.00     0.527 HD
BRANCH   4   9
ATOM      9  C   UNL     1      39.491 135.148  16.739  1.00  0.00     0.109 A 
ATOM     10  C   UNL     1      40.317 137.392  18.624  1.00  0.00     0.032 A 
ATOM     11  C   UNL     1      39.229 136.505  18.796  1.00  0.00     0.020 A 
ATOM     12  C   UNL     1      40.820 137.812  17.358  1.00  0.00    -0.003 A 
ATOM     13  C   UNL     1      38.733 135.627  17.821  1.00  0.00     0.034 A 
ATOM     14  C   UNL     1      42.210 138.017  17.209  1.00  0.00     0.010 A 
ATOM     15  C   UNL     1      39.995 137.922  16.195  1.00  0.00    -0.017 A 
ATOM     16  C   UNL     1      42.780 138.186  15.948  1.00  0.00     0.001 A 
ATOM     17  C   UNL     1      38.597 138.028  16.287  1.00  0.00     0.011 A 
ATOM     18  C   UNL     1      40.598 138.017  14.927  1.00  0.00     0.009 A 
ATOM     19  C   UNL     1      38.946 135.123  15.441  1.00  0.00     0.061 A 
ATOM     20  C   UNL     1      41.982 138.149  14.807  1.00  0.00     0.001 A 
ATOM     21  C   UNL     1      37.695 137.282  15.512  1.00  0.00     0.030 A 
ATOM     22  C   UNL     1      37.950 136.010  14.953  1.00  0.00     0.079 A 
BRANCH  10  23
ATOM     23  C   UNL     1      40.940 137.883  19.833  1.00  0.00    -0.070 C 
ATOM     24  C   UNL     1      41.455 138.296  20.840  1.00  0.00     0.010 C 
ENDBRANCH  10  23
BRANCH  22  25
ATOM     25  N   UNL     1      37.127 135.632  13.837  1.00  0.00    -0.168 NA
BRANCH  25  26
ATOM     26  C   UNL     1      37.370 134.644  13.070  1.00  0.00     0.240 C 
ATOM     27  O   UNL     1      37.606 133.685  12.325  1.00  0.00    -0.211 OA
ENDBRANCH  25  26
ENDBRANCH  22  25
ENDBRANCH   4   9
ENDBRANCH   2   3
ENDBRANCH   1   2
BRANCH   1  28
ATOM     28  C   UNL     1      45.949 132.098  15.496  1.00  0.00     0.016 C 
BRANCH  28  29
ATOM     29  C   UNL     1      46.222 130.594  15.599  1.00  0.00     0.085 C 
BRANCH  29  30
ATOM     30  N   UNL     1      45.655 129.881  14.431  1.00  0.00    -0.291 NA
ATOM     31  C   UNL     1      44.435 130.554  13.932  1.00  0.00     0.106 C 
BRANCH  30  32
ATOM     32  C   UNL     1      46.673 129.631  13.375  1.00  0.00     0.157 C 
ATOM     33  C   UNL     1      46.670 130.739  12.316  1.00  0.00     0.041 C 
BRANCH  32  34
ATOM     34  C   UNL     1      48.030 129.450  13.934  1.00  0.00     0.081 C 
ATOM     35  N   UNL     1      49.094 129.302  14.365  1.00  0.00    -0.197 NA
ENDBRANCH  32  34
ENDBRANCH  30  32
ENDBRANCH  29  30
ENDBRANCH  28  29
ENDBRANCH   1  28
TORSDOF 11
ENDMDL
MODEL 8
REMARK VINA RESULT:      -5.5      3.683      8.013
REMARK SMILES C#Cc1ccc(-n2cc(CCCCN(C)[C@@H](C)C#N)n[nH+]2)cc(N=C=O)ccc2ccccc12
REMARK SMILES IDX 11 1 10 2 9 3 7 4 8 5 21 6 20 7 6 9 3 10 4 11 34 12 5 13
REMARK SMILES IDX 33 14 29 15 32 16 28 17 30 18 22 19 31 20 27 21 23 22 2 23
REMARK SMILES IDX 1 24 24 25 25 26 26 27 12 28 13 29 14 30 15 31 16 32 17 33
REMARK SMILES IDX 18 34 19 35
REMARK H PARENT 21 8
ROOT
ATOM      1  C   UNL     1      38.383 137.237  17.978  1.00  0.00     0.008 C 
ENDROOT
BRANCH   1   2
ATOM      2  C   UNL     1      38.126 136.312  16.780  1.00  0.00     0.065 C 
BRANCH   2   3
ATOM      3  C   UNL     1      39.212 135.294  16.605  1.00  0.00     0.132 A 
ATOM      4  N   UNL     1      41.041 134.274  15.990  1.00  0.00    -0.104 N 
ATOM      5  C   UNL     1      40.384 135.445  15.894  1.00  0.00     0.190 A 
ATOM      6  N   UNL     1      40.297 133.458  16.726  1.00  0.00    -0.012 N 
ATOM      7  N   UNL     1      39.175 134.046  17.113  1.00  0.00     0.020 NA
ATOM      8  H   UNL     1      40.556 132.483  16.986  1.00  0.00     0.527 HD
BRANCH   4   9
ATOM      9  C   UNL     1      42.314 133.936  15.404  1.00  0.00     0.109 A 
ATOM     10  C   UNL     1      43.447 135.683  17.625  1.00  0.00     0.032 A 
ATOM     11  C   UNL     1      43.640 135.857  16.235  1.00  0.00     0.020 A 
ATOM     12  C   UNL     1      43.246 134.421  18.257  1.00  0.00    -0.003 A 
ATOM     13  C   UNL     1      43.297 134.927  15.242  1.00  0.00     0.034 A 
ATOM     14  C   UNL     1      42.369 134.343  19.363  1.00  0.00     0.010 A 
ATOM     15  C   UNL     1      43.799 133.204  17.750  1.00  0.00    -0.017 A 
ATOM     16  C   UNL     1      41.948 133.110  19.860  1.00  0.00     0.001 A 
ATOM     17  C   UNL     1      44.889 133.200  16.863  1.00  0.00     0.011 A 
ATOM     18  C   UNL     1      43.303 131.972  18.216  1.00  0.00     0.009 A 
ATOM     19  C   UNL     1      42.559 132.613  14.990  1.00  0.00     0.061 A 
ATOM     20  C   UNL     1      42.383 131.929  19.265  1.00  0.00     0.001 A 
ATOM     21  C   UNL     1      44.949 132.432  15.688  1.00  0.00     0.030 A 
ATOM     22  C   UNL     1      43.837 131.994  14.935  1.00  0.00     0.079 A 
BRANCH  10  23
ATOM     23  C   UNL     1      43.456 136.885  18.429  1.00  0.00    -0.070 C 
ATOM     24  C   UNL     1      43.469 137.886  19.098  1.00  0.00     0.010 C 
ENDBRANCH  10  23
BRANCH  22  25
ATOM     25  N   UNL     1      44.058 130.863  14.078  1.00  0.00    -0.168 NA
BRANCH  25  26
ATOM     26  C   UNL     1      45.169 130.599  13.512  1.00  0.00     0.240 C 
ATOM     27  O   UNL     1      46.248 130.342  12.963  1.00  0.00    -0.211 OA
ENDBRANCH  25  26
ENDBRANCH  22  25
ENDBRANCH   4   9
ENDBRANCH   2   3
ENDBRANCH   1   2
BRANCH   1  28
ATOM     28  C   UNL     1      39.419 136.659  18.960  1.00  0.00     0.016 C 
BRANCH  28  29
ATOM     29  C   UNL     1      38.971 136.820  20.417  1.00  0.00     0.085 C 
BRANCH  29  30
ATOM     30  N   UNL     1      39.974 136.234  21.337  1.00  0.00    -0.291 NA
ATOM     31  C   UNL     1      40.904 137.268  21.843  1.00  0.00     0.106 C 
BRANCH  30  32
ATOM     32  C   UNL     1      39.345 135.420  22.411  1.00  0.00     0.157 C 
ATOM     33  C   UNL     1      38.162 134.602  21.880  1.00  0.00     0.041 C 
BRANCH  32  34
ATOM     34  C   UNL     1      40.320 134.540  23.092  1.00  0.00     0.081 C 
ATOM     35  N   UNL     1      41.089 133.858  23.625  1.00  0.00    -0.197 NA
ENDBRANCH  32  34
ENDBRANCH  30  32
ENDBRANCH  29  30
ENDBRANCH  28  29
ENDBRANCH   1  28
TORSDOF 11
ENDMDL
MODEL 9
REMARK VINA RESULT:      -5.5      2.172      3.150
REMARK SMILES C#Cc1ccc(-n2cc(CCCCN(C)[C@@H](C)C#N)n[nH+]2)cc(N=C=O)ccc2ccccc12
REMARK SMILES IDX 11 1 10 2 9 3 7 4 8 5 21 6 20 7 6 9 3 10 4 11 34 12 5 13
REMARK SMILES IDX 33 14 29 15 32 16 28 17 30 18 22 19 31 20 27 21 23 22 2 23
REMARK SMILES IDX 1 24 24 25 25 26 26 27 12 28 13 29 14 30 15 31 16 32 17 33
REMARK SMILES IDX 18 34 19 35
REMARK H PARENT 21 8
ROOT
ATOM      1  C   UNL     1      43.255 132.221  14.594  1.00  0.00     0.008 C 
ENDROOT
BRANCH   1   2
ATOM      2  C   UNL     1      42.753 133.647  14.865  1.00  0.00     0.065 C 
BRANCH   2   3
ATOM      3  C   UNL     1      41.316 133.826  14.476  1.00  0.00     0.132 A 
ATOM      4  N   UNL     1      39.479 134.534  13.536  1.00  0.00    -0.104 N 
ATOM      5  C   UNL     1      40.815 134.699  13.533  1.00  0.00     0.190 A 
ATOM      6  N   UNL     1      39.193 133.605  14.439  1.00  0.00    -0.012 N 
ATOM      7  N   UNL     1      40.288 133.156  15.033  1.00  0.00     0.020 NA
ATOM      8  H   UNL     1      38.235 133.254  14.654  1.00  0.00     0.527 HD
BRANCH   4   9
ATOM      9  C   UNL     1      38.512 135.232  12.726  1.00  0.00     0.109 A 
ATOM     10  C   UNL     1      37.243 135.937  15.402  1.00  0.00     0.032 A 
ATOM     11  C   UNL     1      36.621 135.262  14.327  1.00  0.00     0.020 A 
ATOM     12  C   UNL     1      38.277 136.908  15.252  1.00  0.00    -0.003 A 
ATOM     13  C   UNL     1      37.143 135.139  13.031  1.00  0.00     0.034 A 
ATOM     14  C   UNL     1      39.305 136.966  16.220  1.00  0.00     0.010 A 
ATOM     15  C   UNL     1      38.387 137.750  14.102  1.00  0.00    -0.017 A 
ATOM     16  C   UNL     1      40.459 137.718  15.997  1.00  0.00     0.001 A 
ATOM     17  C   UNL     1      37.296 137.980  13.247  1.00  0.00     0.011 A 
ATOM     18  C   UNL     1      39.590 138.440  13.863  1.00  0.00     0.009 A 
ATOM     19  C   UNL     1      38.948 135.998  11.628  1.00  0.00     0.061 A 
ATOM     20  C   UNL     1      40.618 138.422  14.807  1.00  0.00     0.001 A 
ATOM     21  C   UNL     1      37.362 137.913  11.845  1.00  0.00     0.030 A 
ATOM     22  C   UNL     1      38.277 137.135  11.102  1.00  0.00     0.079 A 
BRANCH  10  23
ATOM     23  C   UNL     1      36.781 135.595  16.729  1.00  0.00    -0.070 C 
ATOM     24  C   UNL     1      36.393 135.315  17.834  1.00  0.00     0.010 C 
ENDBRANCH  10  23
BRANCH  22  25
ATOM     25  N   UNL     1      38.505 137.547   9.745  1.00  0.00    -0.168 NA
BRANCH  25  26
ATOM     26  C   UNL     1      38.277 136.818   8.726  1.00  0.00     0.240 C 
ATOM     27  O   UNL     1      38.057 136.109   7.737  1.00  0.00    -0.211 OA
ENDBRANCH  25  26
ENDBRANCH  22  25
ENDBRANCH   4   9
ENDBRANCH   2   3
ENDBRANCH   1   2
BRANCH   1  28
ATOM     28  C   UNL     1      44.662 131.970  15.168  1.00  0.00     0.016 C 
BRANCH  28  29
ATOM     29  C   UNL     1      44.821 132.576  16.566  1.00  0.00     0.085 C 
BRANCH  29  30
ATOM     30  N   UNL     1      44.379 131.614  17.603  1.00  0.00    -0.291 NA
ATOM     31  C   UNL     1      45.524 130.853  18.151  1.00  0.00     0.106 C 
BRANCH  30  32
ATOM     32  C   UNL     1      43.536 132.258  18.645  1.00  0.00     0.157 C 
ATOM     33  C   UNL     1      43.803 131.663  20.034  1.00  0.00     0.041 C 
BRANCH  32  34
ATOM     34  C   UNL     1      43.698 133.728  18.671  1.00  0.00     0.081 C 
ATOM     35  N   UNL     1      43.833 134.877  18.688  1.00  0.00    -0.197 NA
ENDBRANCH  32  34
ENDBRANCH  30  32
ENDBRANCH  29  30
ENDBRANCH  28  29
ENDBRANCH   1  28
TORSDOF 11
ENDMDL


