MODEL 1
REMARK VINA RESULT:      -6.1      0.000      0.000
REMARK SMILES C#C[C@](O)(c1cc(N)cc(SC(C)(C)CNC[C@](C)(O)C=C)ccc2cc1CC2)C(C)(C)C
REMARK SMILES IDX 12 1 13 2 14 3 11 4 10 5 5 6 6 7 27 8 7 9 26 10 28 11 9 12
REMARK SMILES IDX 25 13 29 14 24 15 23 16 3 17 2 18 1 19 4 20 30 22 31 23
REMARK SMILES IDX 32 24 33 25 8 26 15 29 16 30 17 32 18 33 19 34 20 35 21 37
REMARK SMILES IDX 22 38
REMARK H PARENT 4 21 8 27 8 28 16 31 20 36
ROOT
ATOM      1  C   UNL     1      44.455 131.703  17.584  1.00  0.00     0.027 C 
ATOM      2  C   UNL     1      45.025 132.939  16.860  1.00  0.00     0.024 C 
ATOM      3  C   UNL     1      44.683 131.869  19.098  1.00  0.00     0.024 C 
ENDROOT
BRANCH   1   4
ATOM      4  S   UNL     1      42.615 131.655  17.340  1.00  0.00    -0.118 SA
BRANCH   4   5
ATOM      5  C   UNL     1      42.139 133.389  17.570  1.00  0.00     0.010 A 
ATOM      6  C   UNL     1      39.707 136.281  15.682  1.00  0.00     0.002 A 
ATOM      7  C   UNL     1      40.888 135.805  15.045  1.00  0.00     0.033 A 
ATOM      8  C   UNL     1      39.694 136.396  17.107  1.00  0.00    -0.040 A 
ATOM      9  C   UNL     1      41.795 134.934  15.681  1.00  0.00     0.033 A 
ATOM     10  C   UNL     1      40.858 136.505  17.844  1.00  0.00     0.007 A 
ATOM     11  C   UNL     1      38.596 135.882  17.996  1.00  0.00     0.041 C 
ATOM     12  C   UNL     1      41.331 133.974  16.600  1.00  0.00     0.040 A 
ATOM     13  C   UNL     1      40.745 135.801  19.009  1.00  0.00    -0.047 A 
ATOM     14  C   UNL     1      39.309 135.528  19.311  1.00  0.00     0.040 C 
ATOM     15  C   UNL     1      41.782 135.017  19.510  1.00  0.00     0.005 A 
ATOM     16  C   UNL     1      42.459 133.980  18.816  1.00  0.00     0.015 A 
BRANCH   6  17
ATOM     17  C   UNL     1      38.549 136.812  14.810  1.00  0.00     0.155 C 
BRANCH  17  18
ATOM     18  C   UNL     1      39.043 137.885  13.919  1.00  0.00    -0.066 C 
ATOM     19  C   UNL     1      39.442 138.776  13.206  1.00  0.00     0.007 C 
ENDBRANCH  17  18
BRANCH  17  20
ATOM     20  O   UNL     1      37.604 137.464  15.635  1.00  0.00    -0.373 OA
ATOM     21  H   UNL     1      37.684 137.137  16.568  1.00  0.00     0.213 HD
ENDBRANCH  17  20
BRANCH  17  22
ATOM     22  C   UNL     1      37.860 135.663  13.937  1.00  0.00     0.006 C 
ATOM     23  C   UNL     1      38.587 135.451  12.580  1.00  0.00     0.015 C 
ATOM     24  C   UNL     1      37.850 134.296  14.668  1.00  0.00     0.015 C 
ATOM     25  C   UNL     1      36.388 136.050  13.630  1.00  0.00     0.015 C 
ENDBRANCH  17  22
ENDBRANCH   6  17
BRANCH   9  26
ATOM     26  N   UNL     1      43.197 135.057  15.407  1.00  0.00    -0.399 N 
ATOM     27  H   UNL     1      43.550 135.616  14.603  1.00  0.00     0.156 HD
ATOM     28  H   UNL     1      43.898 134.501  15.953  1.00  0.00     0.156 HD
ENDBRANCH   9  26
ENDBRANCH   4   5
ENDBRANCH   1   4
BRANCH   1  29
ATOM     29  C   UNL     1      45.145 130.404  17.095  1.00  0.00     0.098 C 
BRANCH  29  30
ATOM     30  N   UNL     1      46.522 130.648  16.643  1.00  0.00    -0.312 NA
ATOM     31  H   UNL     1      46.563 131.654  16.363  1.00  0.00     0.122 HD
BRANCH  30  32
ATOM     32  C   UNL     1      46.823 129.830  15.458  1.00  0.00     0.120 C 
BRANCH  32  33
ATOM     33  C   UNL     1      46.832 130.642  14.124  1.00  0.00     0.092 C 
ATOM     34  C   UNL     1      48.067 130.288  13.267  1.00  0.00     0.048 C 
BRANCH  33  35
ATOM     35  O   UNL     1      46.949 132.012  14.450  1.00  0.00    -0.385 OA
ATOM     36  H   UNL     1      47.803 132.145  14.940  1.00  0.00     0.211 HD
ENDBRANCH  33  35
BRANCH  33  37
ATOM     37  C   UNL     1      45.550 130.438  13.321  1.00  0.00     0.001 C 
ATOM     38  C   UNL     1      44.333 130.828  13.747  1.00  0.00     0.007 C 
ENDBRANCH  33  37
ENDBRANCH  32  33
ENDBRANCH  30  32
ENDBRANCH  29  30
ENDBRANCH   1  29
TORSDOF 13
ENDMDL
MODEL 2
REMARK VINA RESULT:      -6.1      3.306      6.628
REMARK SMILES C#C[C@](O)(c1cc(N)cc(SC(C)(C)CNC[C@](C)(O)C=C)ccc2cc1CC2)C(C)(C)C
REMARK SMILES IDX 12 1 13 2 14 3 11 4 10 5 5 6 6 7 27 8 7 9 26 10 28 11 9 12
REMARK SMILES IDX 25 13 29 14 24 15 23 16 3 17 2 18 1 19 4 20 30 22 31 23
REMARK SMILES IDX 32 24 33 25 8 26 15 29 16 30 17 32 18 33 19 34 20 35 21 37
REMARK SMILES IDX 22 38
REMARK H PARENT 4 21 8 27 8 28 16 31 20 36
ROOT
ATOM      1  C   UNL     1      42.615 133.467  15.264  1.00  0.00     0.027 C 
ATOM      2  C   UNL     1      42.427 132.373  14.194  1.00  0.00     0.024 C 
ATOM      3  C   UNL     1      42.809 134.822  14.556  1.00  0.00     0.024 C 
ENDROOT
BRANCH   1   4
ATOM      4  S   UNL     1      41.052 133.620  16.254  1.00  0.00    -0.118 SA
BRANCH   4   5
ATOM      5  C   UNL     1      41.481 134.884  17.480  1.00  0.00     0.010 A 
ATOM      6  C   UNL     1      43.407 135.130  21.232  1.00  0.00     0.002 A 
ATOM      7  C   UNL     1      42.155 134.464  21.106  1.00  0.00     0.033 A 
ATOM      8  C   UNL     1      43.667 136.266  20.404  1.00  0.00    -0.040 A 
ATOM      9  C   UNL     1      41.415 134.458  19.907  1.00  0.00     0.033 A 
ATOM     10  C   UNL     1      42.648 137.008  19.836  1.00  0.00     0.007 A 
ATOM     11  C   UNL     1      44.927 136.476  19.611  1.00  0.00     0.041 C 
ATOM     12  C   UNL     1      42.077 134.462  18.665  1.00  0.00     0.040 A 
ATOM     13  C   UNL     1      42.998 137.401  18.576  1.00  0.00    -0.047 A 
ATOM     14  C   UNL     1      44.474 137.296  18.393  1.00  0.00     0.040 C 
ATOM     15  C   UNL     1      42.102 137.365  17.509  1.00  0.00     0.005 A 
ATOM     16  C   UNL     1      41.360 136.235  17.075  1.00  0.00     0.015 A 
BRANCH   6  17
ATOM     17  C   UNL     1      44.367 134.709  22.365  1.00  0.00     0.155 C 
BRANCH  17  18
ATOM     18  C   UNL     1      43.589 134.294  23.553  1.00  0.00    -0.066 C 
ATOM     19  C   UNL     1      42.957 133.935  24.518  1.00  0.00     0.007 C 
ENDBRANCH  17  18
BRANCH  17  20
ATOM     20  O   UNL     1      45.088 135.841  22.811  1.00  0.00    -0.373 OA
ATOM     21  H   UNL     1      44.614 136.672  22.546  1.00  0.00     0.213 HD
ENDBRANCH  17  20
BRANCH  17  22
ATOM     22  C   UNL     1      45.355 133.530  21.929  1.00  0.00     0.006 C 
ATOM     23  C   UNL     1      45.333 132.350  22.941  1.00  0.00     0.015 C 
ATOM     24  C   UNL     1      44.994 132.946  20.539  1.00  0.00     0.015 C 
ATOM     25  C   UNL     1      46.810 134.065  21.858  1.00  0.00     0.015 C 
ENDBRANCH  17  22
ENDBRANCH   6  17
BRANCH   9  26
ATOM     26  N   UNL     1      39.983 134.481  19.965  1.00  0.00    -0.399 N 
ATOM     27  H   UNL     1      39.403 133.802  19.429  1.00  0.00     0.156 HD
ATOM     28  H   UNL     1      39.482 135.252  20.469  1.00  0.00     0.156 HD
ENDBRANCH   9  26
ENDBRANCH   4   5
ENDBRANCH   1   4
BRANCH   1  29
ATOM     29  C   UNL     1      43.848 133.168  16.156  1.00  0.00     0.098 C 
BRANCH  29  30
ATOM     30  N   UNL     1      44.263 131.761  16.068  1.00  0.00    -0.312 NA
ATOM     31  H   UNL     1      44.045 131.335  16.997  1.00  0.00     0.122 HD
BRANCH  30  32
ATOM     32  C   UNL     1      45.715 131.670  15.851  1.00  0.00     0.120 C 
BRANCH  32  33
ATOM     33  C   UNL     1      46.149 130.406  15.045  1.00  0.00     0.092 C 
ATOM     34  C   UNL     1      45.071 129.302  15.121  1.00  0.00     0.048 C 
BRANCH  33  35
ATOM     35  O   UNL     1      47.308 129.878  15.655  1.00  0.00    -0.385 OA
ATOM     36  H   UNL     1      47.874 129.468  14.949  1.00  0.00     0.211 HD
ENDBRANCH  33  35
BRANCH  33  37
ATOM     37  C   UNL     1      46.469 130.737  13.590  1.00  0.00     0.001 C 
ATOM     38  C   UNL     1      47.713 130.987  13.138  1.00  0.00     0.007 C 
ENDBRANCH  33  37
ENDBRANCH  32  33
ENDBRANCH  30  32
ENDBRANCH  29  30
ENDBRANCH   1  29
TORSDOF 13
ENDMDL
MODEL 3
REMARK VINA RESULT:      -5.8      1.696      2.487
REMARK SMILES C#C[C@](O)(c1cc(N)cc(SC(C)(C)CNC[C@](C)(O)C=C)ccc2cc1CC2)C(C)(C)C
REMARK SMILES IDX 12 1 13 2 14 3 11 4 10 5 5 6 6 7 27 8 7 9 26 10 28 11 9 12
REMARK SMILES IDX 25 13 29 14 24 15 23 16 3 17 2 18 1 19 4 20 30 22 31 23
REMARK SMILES IDX 32 24 33 25 8 26 15 29 16 30 17 32 18 33 19 34 20 35 21 37
REMARK SMILES IDX 22 38
REMARK H PARENT 4 21 8 27 8 28 16 31 20 36
ROOT
ATOM      1  C   UNL     1      43.851 132.219  18.659  1.00  0.00     0.027 C 
ATOM      2  C   UNL     1      45.202 131.505  18.861  1.00  0.00     0.024 C 
ATOM      3  C   UNL     1      42.954 131.932  19.879  1.00  0.00     0.024 C 
ENDROOT
BRANCH   1   4
ATOM      4  S   UNL     1      44.133 134.054  18.645  1.00  0.00    -0.118 SA
BRANCH   4   5
ATOM      5  C   UNL     1      42.454 134.711  18.457  1.00  0.00     0.010 A 
ATOM      6  C   UNL     1      39.920 136.091  15.372  1.00  0.00     0.002 A 
ATOM      7  C   UNL     1      41.082 136.830  15.736  1.00  0.00     0.033 A 
ATOM      8  C   UNL     1      39.212 135.381  16.390  1.00  0.00    -0.040 A 
ATOM      9  C   UNL     1      41.891 136.479  16.835  1.00  0.00     0.033 A 
ATOM     10  C   UNL     1      39.312 135.720  17.726  1.00  0.00     0.007 A 
ATOM     11  C   UNL     1      38.763 133.950  16.279  1.00  0.00     0.041 C 
ATOM     12  C   UNL     1      42.057 135.127  17.190  1.00  0.00     0.040 A 
ATOM     13  C   UNL     1      39.320 134.593  18.498  1.00  0.00    -0.047 A 
ATOM     14  C   UNL     1      38.787 133.434  17.726  1.00  0.00     0.040 C 
ATOM     15  C   UNL     1      40.175 134.443  19.588  1.00  0.00     0.005 A 
ATOM     16  C   UNL     1      41.588 134.580  19.570  1.00  0.00     0.015 A 
BRANCH   6  17
ATOM     17  C   UNL     1      39.374 136.219  13.934  1.00  0.00     0.155 C 
BRANCH  17  18
ATOM     18  C   UNL     1      38.329 135.198  13.701  1.00  0.00    -0.066 C 
ATOM     19  C   UNL     1      37.489 134.350  13.511  1.00  0.00     0.007 C 
ENDBRANCH  17  18
BRANCH  17  20
ATOM     20  O   UNL     1      40.393 135.876  13.015  1.00  0.00    -0.373 OA
ATOM     21  H   UNL     1      41.251 136.293  13.288  1.00  0.00     0.213 HD
ENDBRANCH  17  20
BRANCH  17  22
ATOM     22  C   UNL     1      38.783 137.673  13.627  1.00  0.00     0.006 C 
ATOM     23  C   UNL     1      39.875 138.775  13.723  1.00  0.00     0.015 C 
ATOM     24  C   UNL     1      38.163 137.767  12.209  1.00  0.00     0.015 C 
ATOM     25  C   UNL     1      37.673 138.016  14.656  1.00  0.00     0.015 C 
ENDBRANCH  17  22
ENDBRANCH   6  17
BRANCH   9  26
ATOM     26  N   UNL     1      42.517 137.513  17.605  1.00  0.00    -0.399 N 
ATOM     27  H   UNL     1      43.388 137.339  18.150  1.00  0.00     0.156 HD
ATOM     28  H   UNL     1      42.053 138.446  17.723  1.00  0.00     0.156 HD
ENDBRANCH   9  26
ENDBRANCH   4   5
ENDBRANCH   1   4
BRANCH   1  29
ATOM     29  C   UNL     1      43.146 131.723  17.370  1.00  0.00     0.098 C 
BRANCH  29  30
ATOM     30  N   UNL     1      43.883 132.107  16.157  1.00  0.00    -0.312 NA
ATOM     31  H   UNL     1      43.191 132.579  15.534  1.00  0.00     0.122 HD
BRANCH  30  32
ATOM     32  C   UNL     1      44.382 130.909  15.463  1.00  0.00     0.120 C 
BRANCH  32  33
ATOM     33  C   UNL     1      45.815 131.083  14.869  1.00  0.00     0.092 C 
ATOM     34  C   UNL     1      46.823 130.144  15.566  1.00  0.00     0.048 C 
BRANCH  33  35
ATOM     35  O   UNL     1      46.241 132.402  15.139  1.00  0.00    -0.385 OA
ATOM     36  H   UNL     1      47.232 132.429  15.083  1.00  0.00     0.211 HD
ENDBRANCH  33  35
BRANCH  33  37
ATOM     37  C   UNL     1      45.838 130.861  13.358  1.00  0.00     0.001 C 
ATOM     38  C   UNL     1      46.882 130.323  12.699  1.00  0.00     0.007 C 
ENDBRANCH  33  37
ENDBRANCH  32  33
ENDBRANCH  30  32
ENDBRANCH  29  30
ENDBRANCH   1  29
TORSDOF 13
ENDMDL
MODEL 4
REMARK VINA RESULT:      -5.7      3.504      6.543
REMARK SMILES C#C[C@](O)(c1cc(N)cc(SC(C)(C)CNC[C@](C)(O)C=C)ccc2cc1CC2)C(C)(C)C
REMARK SMILES IDX 12 1 13 2 14 3 11 4 10 5 5 6 6 7 27 8 7 9 26 10 28 11 9 12
REMARK SMILES IDX 25 13 29 14 24 15 23 16 3 17 2 18 1 19 4 20 30 22 31 23
REMARK SMILES IDX 32 24 33 25 8 26 15 29 16 30 17 32 18 33 19 34 20 35 21 37
REMARK SMILES IDX 22 38
REMARK H PARENT 4 21 8 27 8 28 16 31 20 36
ROOT
ATOM      1  C   UNL     1      42.273 133.641  15.830  1.00  0.00     0.027 C 
ATOM      2  C   UNL     1      41.662 132.683  16.872  1.00  0.00     0.024 C 
ATOM      3  C   UNL     1      41.968 133.097  14.420  1.00  0.00     0.024 C 
ENDROOT
BRANCH   1   4
ATOM      4  S   UNL     1      41.418 135.285  15.945  1.00  0.00    -0.118 SA
BRANCH   4   5
ATOM      5  C   UNL     1      41.950 135.894  17.568  1.00  0.00     0.010 A 
ATOM      6  C   UNL     1      43.037 134.327  21.337  1.00  0.00     0.002 A 
ATOM      7  C   UNL     1      41.695 134.221  20.871  1.00  0.00     0.033 A 
ATOM      8  C   UNL     1      43.797 135.485  20.981  1.00  0.00    -0.040 A 
ATOM      9  C   UNL     1      41.255 134.831  19.680  1.00  0.00     0.033 A 
ATOM     10  C   UNL     1      43.195 136.672  20.612  1.00  0.00     0.007 A 
ATOM     11  C   UNL     1      45.197 135.452  20.433  1.00  0.00     0.041 C 
ATOM     12  C   UNL     1      42.129 134.961  18.584  1.00  0.00     0.040 A 
ATOM     13  C   UNL     1      43.902 137.264  19.604  1.00  0.00    -0.047 A 
ATOM     14  C   UNL     1      45.280 136.698  19.537  1.00  0.00     0.040 C 
ATOM     15  C   UNL     1      43.280 137.865  18.512  1.00  0.00     0.005 A 
ATOM     16  C   UNL     1      42.335 137.254  17.645  1.00  0.00     0.015 A 
BRANCH   6  17
ATOM     17  C   UNL     1      43.565 133.279  22.340  1.00  0.00     0.155 C 
BRANCH  17  18
ATOM     18  C   UNL     1      42.476 132.863  23.251  1.00  0.00    -0.066 C 
ATOM     19  C   UNL     1      41.597 132.506  23.999  1.00  0.00     0.007 C 
ENDBRANCH  17  18
BRANCH  17  20
ATOM     20  O   UNL     1      44.509 133.889  23.198  1.00  0.00    -0.373 OA
ATOM     21  H   UNL     1      44.312 134.857  23.287  1.00  0.00     0.213 HD
ENDBRANCH  17  20
BRANCH  17  22
ATOM     22  C   UNL     1      44.184 131.994  21.619  1.00  0.00     0.006 C 
ATOM     23  C   UNL     1      45.722 132.117  21.432  1.00  0.00     0.015 C 
ATOM     24  C   UNL     1      43.924 130.690  22.416  1.00  0.00     0.015 C 
ATOM     25  C   UNL     1      43.549 131.826  20.212  1.00  0.00     0.015 C 
ENDBRANCH  17  22
ENDBRANCH   6  17
BRANCH   9  26
ATOM     26  N   UNL     1      39.920 135.346  19.606  1.00  0.00    -0.399 N 
ATOM     27  H   UNL     1      39.263 135.281  20.412  1.00  0.00     0.156 HD
ATOM     28  H   UNL     1      39.537 135.709  18.700  1.00  0.00     0.156 HD
ENDBRANCH   9  26
ENDBRANCH   4   5
ENDBRANCH   1   4
BRANCH   1  29
ATOM     29  C   UNL     1      43.807 133.762  16.016  1.00  0.00     0.098 C 
BRANCH  29  30
ATOM     30  N   UNL     1      44.449 132.449  16.172  1.00  0.00    -0.312 NA
ATOM     31  H   UNL     1      44.567 132.303  17.199  1.00  0.00     0.122 HD
BRANCH  30  32
ATOM     32  C   UNL     1      45.785 132.458  15.554  1.00  0.00     0.120 C 
BRANCH  32  33
ATOM     33  C   UNL     1      46.176 131.099  14.894  1.00  0.00     0.092 C 
ATOM     34  C   UNL     1      44.921 130.287  14.507  1.00  0.00     0.048 C 
BRANCH  33  35
ATOM     35  O   UNL     1      46.870 130.332  15.856  1.00  0.00    -0.385 OA
ATOM     36  H   UNL     1      47.771 130.118  15.495  1.00  0.00     0.211 HD
ENDBRANCH  33  35
BRANCH  33  37
ATOM     37  C   UNL     1      47.080 131.293  13.678  1.00  0.00     0.001 C 
ATOM     38  C   UNL     1      47.501 130.283  12.893  1.00  0.00     0.007 C 
ENDBRANCH  33  37
ENDBRANCH  32  33
ENDBRANCH  30  32
ENDBRANCH  29  30
ENDBRANCH   1  29
TORSDOF 13
ENDMDL
MODEL 5
REMARK VINA RESULT:      -5.5      2.478      7.891
REMARK SMILES C#C[C@](O)(c1cc(N)cc(SC(C)(C)CNC[C@](C)(O)C=C)ccc2cc1CC2)C(C)(C)C
REMARK SMILES IDX 12 1 13 2 14 3 11 4 10 5 5 6 6 7 27 8 7 9 26 10 28 11 9 12
REMARK SMILES IDX 25 13 29 14 24 15 23 16 3 17 2 18 1 19 4 20 30 22 31 23
REMARK SMILES IDX 32 24 33 25 8 26 15 29 16 30 17 32 18 33 19 34 20 35 21 37
REMARK SMILES IDX 22 38
REMARK H PARENT 4 21 8 27 8 28 16 31 20 36
ROOT
ATOM      1  C   UNL     1      38.486 136.957  15.094  1.00  0.00     0.027 C 
ATOM      2  C   UNL     1      37.688 136.303  16.239  1.00  0.00     0.024 C 
ATOM      3  C   UNL     1      37.980 138.399  14.899  1.00  0.00     0.024 C 
ENDROOT
BRANCH   1   4
ATOM      4  S   UNL     1      40.267 137.099  15.603  1.00  0.00    -0.118 SA
BRANCH   4   5
ATOM      5  C   UNL     1      40.611 135.462  16.300  1.00  0.00     0.010 A 
ATOM      6  C   UNL     1      43.532 132.429  15.964  1.00  0.00     0.002 A 
ATOM      7  C   UNL     1      42.664 132.718  14.873  1.00  0.00     0.033 A 
ATOM      8  C   UNL     1      43.030 132.565  17.295  1.00  0.00    -0.040 A 
ATOM      9  C   UNL     1      41.597 133.633  14.974  1.00  0.00     0.033 A 
ATOM     10  C   UNL     1      41.678 132.520  17.577  1.00  0.00     0.007 A 
ATOM     11  C   UNL     1      43.740 133.288  18.406  1.00  0.00     0.041 C 
ATOM     12  C   UNL     1      41.709 134.764  15.805  1.00  0.00     0.040 A 
ATOM     13  C   UNL     1      41.372 133.421  18.557  1.00  0.00    -0.047 A 
ATOM     14  C   UNL     1      42.605 133.824  19.293  1.00  0.00     0.040 C 
ATOM     15  C   UNL     1      40.231 134.220  18.503  1.00  0.00     0.005 A 
ATOM     16  C   UNL     1      39.859 135.079  17.436  1.00  0.00     0.015 A 
BRANCH   6  17
ATOM     17  C   UNL     1      44.921 131.821  15.672  1.00  0.00     0.155 C 
BRANCH  17  18
ATOM     18  C   UNL     1      45.445 131.160  16.888  1.00  0.00    -0.066 C 
ATOM     19  C   UNL     1      45.865 130.635  17.892  1.00  0.00     0.007 C 
ENDBRANCH  17  18
BRANCH  17  20
ATOM     20  O   UNL     1      45.845 132.864  15.429  1.00  0.00    -0.373 OA
ATOM     21  H   UNL     1      46.421 133.000  16.225  1.00  0.00     0.213 HD
ENDBRANCH  17  20
BRANCH  17  22
ATOM     22  C   UNL     1      44.894 130.777  14.461  1.00  0.00     0.006 C 
ATOM     23  C   UNL     1      43.647 130.972  13.555  1.00  0.00     0.015 C 
ATOM     24  C   UNL     1      46.144 130.902  13.551  1.00  0.00     0.015 C 
ATOM     25  C   UNL     1      44.853 129.329  15.018  1.00  0.00     0.015 C 
ENDBRANCH  17  22
ENDBRANCH   6  17
BRANCH   9  26
ATOM     26  N   UNL     1      40.387 133.384  14.248  1.00  0.00    -0.399 N 
ATOM     27  H   UNL     1      39.766 132.581  14.478  1.00  0.00     0.156 HD
ATOM     28  H   UNL     1      40.149 133.948  13.396  1.00  0.00     0.156 HD
ENDBRANCH   9  26
ENDBRANCH   4   5
ENDBRANCH   1   4
BRANCH   1  29
ATOM     29  C   UNL     1      38.316 136.165  13.772  1.00  0.00     0.098 C 
BRANCH  29  30
ATOM     30  N   UNL     1      39.142 136.717  12.689  1.00  0.00    -0.312 NA
ATOM     31  H   UNL     1      38.707 137.630  12.427  1.00  0.00     0.122 HD
BRANCH  30  32
ATOM     32  C   UNL     1      39.098 135.834  11.513  1.00  0.00     0.120 C 
BRANCH  32  33
ATOM     33  C   UNL     1      38.289 136.427  10.316  1.00  0.00     0.092 C 
ATOM     34  C   UNL     1      38.274 137.970  10.366  1.00  0.00     0.048 C 
BRANCH  33  35
ATOM     35  O   UNL     1      36.947 136.008  10.448  1.00  0.00    -0.385 OA
ATOM     36  H   UNL     1      36.612 136.304  11.335  1.00  0.00     0.211 HD
ENDBRANCH  33  35
BRANCH  33  37
ATOM     37  C   UNL     1      38.823 135.944   8.970  1.00  0.00     0.001 C 
ATOM     38  C   UNL     1      39.908 136.466   8.366  1.00  0.00     0.007 C 
ENDBRANCH  33  37
ENDBRANCH  32  33
ENDBRANCH  30  32
ENDBRANCH  29  30
ENDBRANCH   1  29
TORSDOF 13
ENDMDL
MODEL 6
REMARK VINA RESULT:      -5.4      2.677      5.010
REMARK SMILES C#C[C@](O)(c1cc(N)cc(SC(C)(C)CNC[C@](C)(O)C=C)ccc2cc1CC2)C(C)(C)C
REMARK SMILES IDX 12 1 13 2 14 3 11 4 10 5 5 6 6 7 27 8 7 9 26 10 28 11 9 12
REMARK SMILES IDX 25 13 29 14 24 15 23 16 3 17 2 18 1 19 4 20 30 22 31 23
REMARK SMILES IDX 32 24 33 25 8 26 15 29 16 30 17 32 18 33 19 34 20 35 21 37
REMARK SMILES IDX 22 38
REMARK H PARENT 4 21 8 27 8 28 16 31 20 36
ROOT
ATOM      1  C   UNL     1      45.350 131.431  15.824  1.00  0.00     0.027 C 
ATOM      2  C   UNL     1      44.131 130.774  15.148  1.00  0.00     0.024 C 
ATOM      3  C   UNL     1      46.562 131.314  14.879  1.00  0.00     0.024 C 
ENDROOT
BRANCH   1   4
ATOM      4  S   UNL     1      45.025 133.248  16.025  1.00  0.00    -0.118 SA
BRANCH   4   5
ATOM      5  C   UNL     1      43.216 133.337  15.944  1.00  0.00     0.010 A 
ATOM      6  C   UNL     1      39.994 134.542  18.395  1.00  0.00     0.002 A 
ATOM      7  C   UNL     1      40.770 133.398  18.735  1.00  0.00     0.033 A 
ATOM      8  C   UNL     1      39.776 134.839  17.014  1.00  0.00    -0.040 A 
ATOM      9  C   UNL     1      41.775 132.884  17.891  1.00  0.00     0.033 A 
ATOM     10  C   UNL     1      39.880 133.872  16.031  1.00  0.00     0.007 A 
ATOM     11  C   UNL     1      39.962 136.194  16.391  1.00  0.00     0.041 C 
ATOM     12  C   UNL     1      42.536 133.752  17.085  1.00  0.00     0.040 A 
ATOM     13  C   UNL     1      40.453 134.401  14.910  1.00  0.00    -0.047 A 
ATOM     14  C   UNL     1      40.372 135.890  14.942  1.00  0.00     0.040 C 
ATOM     15  C   UNL     1      41.414 133.715  14.170  1.00  0.00     0.005 A 
ATOM     16  C   UNL     1      42.624 133.167  14.670  1.00  0.00     0.015 A 
BRANCH   6  17
ATOM     17  C   UNL     1      39.280 135.322  19.520  1.00  0.00     0.155 C 
BRANCH  17  18
ATOM     18  C   UNL     1      39.787 136.711  19.568  1.00  0.00    -0.066 C 
ATOM     19  C   UNL     1      40.184 137.851  19.618  1.00  0.00     0.007 C 
ENDBRANCH  17  18
BRANCH  17  20
ATOM     20  O   UNL     1      39.653 134.781  20.773  1.00  0.00    -0.373 OA
ATOM     21  H   UNL     1      40.580 135.056  20.998  1.00  0.00     0.213 HD
ENDBRANCH  17  20
BRANCH  17  22
ATOM     22  C   UNL     1      37.690 135.335  19.347  1.00  0.00     0.006 C 
ATOM     23  C   UNL     1      37.153 133.978  18.813  1.00  0.00     0.015 C 
ATOM     24  C   UNL     1      36.956 135.623  20.682  1.00  0.00     0.015 C 
ATOM     25  C   UNL     1      37.283 136.437  18.332  1.00  0.00     0.015 C 
ENDBRANCH  17  22
ENDBRANCH   6  17
BRANCH   9  26
ATOM     26  N   UNL     1      41.992 131.469  17.838  1.00  0.00    -0.399 N 
ATOM     27  H   UNL     1      42.827 131.026  18.275  1.00  0.00     0.156 HD
ATOM     28  H   UNL     1      41.364 130.853  17.267  1.00  0.00     0.156 HD
ENDBRANCH   9  26
ENDBRANCH   4   5
ENDBRANCH   1   4
BRANCH   1  29
ATOM     29  C   UNL     1      45.678 130.740  17.173  1.00  0.00     0.098 C 
BRANCH  29  30
ATOM     30  N   UNL     1      44.852 131.260  18.272  1.00  0.00    -0.312 NA
ATOM     31  H   UNL     1      44.786 132.291  18.124  1.00  0.00     0.122 HD
BRANCH  30  32
ATOM     32  C   UNL     1      45.517 131.025  19.564  1.00  0.00     0.120 C 
BRANCH  32  33
ATOM     33  C   UNL     1      44.944 131.893  20.728  1.00  0.00     0.092 C 
ATOM     34  C   UNL     1      44.773 133.365  20.292  1.00  0.00     0.048 C 
BRANCH  33  35
ATOM     35  O   UNL     1      45.890 131.892  21.777  1.00  0.00    -0.385 OA
ATOM     36  H   UNL     1      46.636 132.499  21.526  1.00  0.00     0.211 HD
ENDBRANCH  33  35
BRANCH  33  37
ATOM     37  C   UNL     1      43.624 131.339  21.259  1.00  0.00     0.001 C 
ATOM     38  C   UNL     1      43.540 130.460  22.276  1.00  0.00     0.007 C 
ENDBRANCH  33  37
ENDBRANCH  32  33
ENDBRANCH  30  32
ENDBRANCH  29  30
ENDBRANCH   1  29
TORSDOF 13
ENDMDL
MODEL 7
REMARK VINA RESULT:      -5.4      2.400      5.355
REMARK SMILES C#C[C@](O)(c1cc(N)cc(SC(C)(C)CNC[C@](C)(O)C=C)ccc2cc1CC2)C(C)(C)C
REMARK SMILES IDX 12 1 13 2 14 3 11 4 10 5 5 6 6 7 27 8 7 9 26 10 28 11 9 12
REMARK SMILES IDX 25 13 29 14 24 15 23 16 3 17 2 18 1 19 4 20 30 22 31 23
REMARK SMILES IDX 32 24 33 25 8 26 15 29 16 30 17 32 18 33 19 34 20 35 21 37
REMARK SMILES IDX 22 38
REMARK H PARENT 4 21 8 27 8 28 16 31 20 36
ROOT
ATOM      1  C   UNL     1      44.799 132.004  15.815  1.00  0.00     0.027 C 
ATOM      2  C   UNL     1      43.783 131.365  14.848  1.00  0.00     0.024 C 
ATOM      3  C   UNL     1      46.213 131.844  15.223  1.00  0.00     0.024 C 
ENDROOT
BRANCH   1   4
ATOM      4  S   UNL     1      44.480 133.831  15.906  1.00  0.00    -0.118 SA
BRANCH   4   5
ATOM      5  C   UNL     1      42.676 133.926  15.762  1.00  0.00     0.010 A 
ATOM      6  C   UNL     1      39.377 135.182  18.083  1.00  0.00     0.002 A 
ATOM      7  C   UNL     1      40.137 134.040  18.467  1.00  0.00     0.033 A 
ATOM      8  C   UNL     1      39.207 135.456  16.690  1.00  0.00    -0.040 A 
ATOM      9  C   UNL     1      41.168 133.510  17.667  1.00  0.00     0.033 A 
ATOM     10  C   UNL     1      39.341 134.473  15.728  1.00  0.00     0.007 A 
ATOM     11  C   UNL     1      39.420 136.800  16.052  1.00  0.00     0.041 C 
ATOM     12  C   UNL     1      41.959 134.361  16.873  1.00  0.00     0.040 A 
ATOM     13  C   UNL     1      39.953 134.982  14.618  1.00  0.00    -0.047 A 
ATOM     14  C   UNL     1      39.877 136.471  14.622  1.00  0.00     0.040 C 
ATOM     15  C   UNL     1      40.935 134.280  13.922  1.00  0.00     0.005 A 
ATOM     16  C   UNL     1      42.126 133.736  14.472  1.00  0.00     0.015 A 
BRANCH   6  17
ATOM     17  C   UNL     1      38.629 135.982  19.170  1.00  0.00     0.155 C 
BRANCH  17  18
ATOM     18  C   UNL     1      38.220 135.077  20.268  1.00  0.00    -0.066 C 
ATOM     19  C   UNL     1      37.901 134.347  21.176  1.00  0.00     0.007 C 
ENDBRANCH  17  18
BRANCH  17  20
ATOM     20  O   UNL     1      37.403 136.452  18.644  1.00  0.00    -0.373 OA
ATOM     21  H   UNL     1      37.396 137.444  18.633  1.00  0.00     0.213 HD
ENDBRANCH  17  20
BRANCH  17  22
ATOM     22  C   UNL     1      39.503 137.184  19.761  1.00  0.00     0.006 C 
ATOM     23  C   UNL     1      39.404 137.268  21.309  1.00  0.00     0.015 C 
ATOM     24  C   UNL     1      41.006 137.046  19.406  1.00  0.00     0.015 C 
ATOM     25  C   UNL     1      38.998 138.533  19.181  1.00  0.00     0.015 C 
ENDBRANCH  17  22
ENDBRANCH   6  17
BRANCH   9  26
ATOM     26  N   UNL     1      41.381 132.092  17.644  1.00  0.00    -0.399 N 
ATOM     27  H   UNL     1      42.082 131.654  17.011  1.00  0.00     0.156 HD
ATOM     28  H   UNL     1      40.760 131.450  18.193  1.00  0.00     0.156 HD
ENDBRANCH   9  26
ENDBRANCH   4   5
ENDBRANCH   1   4
BRANCH   1  29
ATOM     29  C   UNL     1      44.743 131.329  17.210  1.00  0.00     0.098 C 
BRANCH  29  30
ATOM     30  N   UNL     1      44.568 132.311  18.290  1.00  0.00    -0.312 NA
ATOM     31  H   UNL     1      45.291 133.047  18.134  1.00  0.00     0.122 HD
BRANCH  30  32
ATOM     32  C   UNL     1      44.827 131.684  19.596  1.00  0.00     0.120 C 
BRANCH  32  33
ATOM     33  C   UNL     1      43.724 131.980  20.661  1.00  0.00     0.092 C 
ATOM     34  C   UNL     1      44.038 131.272  21.997  1.00  0.00     0.048 C 
BRANCH  33  35
ATOM     35  O   UNL     1      42.509 131.433  20.192  1.00  0.00    -0.385 OA
ATOM     36  H   UNL     1      41.761 131.873  20.674  1.00  0.00     0.211 HD
ENDBRANCH  33  35
BRANCH  33  37
ATOM     37  C   UNL     1      43.533 133.478  20.884  1.00  0.00     0.001 C 
ATOM     38  C   UNL     1      42.373 134.029  21.290  1.00  0.00     0.007 C 
ENDBRANCH  33  37
ENDBRANCH  32  33
ENDBRANCH  30  32
ENDBRANCH  29  30
ENDBRANCH   1  29
TORSDOF 13
ENDMDL
MODEL 8
REMARK VINA RESULT:      -5.3      2.579      4.692
REMARK SMILES C#C[C@](O)(c1cc(N)cc(SC(C)(C)CNC[C@](C)(O)C=C)ccc2cc1CC2)C(C)(C)C
REMARK SMILES IDX 12 1 13 2 14 3 11 4 10 5 5 6 6 7 27 8 7 9 26 10 28 11 9 12
REMARK SMILES IDX 25 13 29 14 24 15 23 16 3 17 2 18 1 19 4 20 30 22 31 23
REMARK SMILES IDX 32 24 33 25 8 26 15 29 16 30 17 32 18 33 19 34 20 35 21 37
REMARK SMILES IDX 22 38
REMARK H PARENT 4 21 8 27 8 28 16 31 20 36
ROOT
ATOM      1  C   UNL     1      42.583 132.905  16.784  1.00  0.00     0.027 C 
ATOM      2  C   UNL     1      43.433 134.061  17.345  1.00  0.00     0.024 C 
ATOM      3  C   UNL     1      41.661 132.381  17.903  1.00  0.00     0.024 C 
ENDROOT
BRANCH   1   4
ATOM      4  S   UNL     1      41.463 133.566  15.459  1.00  0.00    -0.118 SA
BRANCH   4   5
ATOM      5  C   UNL     1      41.420 135.341  15.825  1.00  0.00     0.010 A 
ATOM      6  C   UNL     1      40.027 137.911  18.875  1.00  0.00     0.002 A 
ATOM      7  C   UNL     1      39.106 137.192  18.060  1.00  0.00     0.033 A 
ATOM      8  C   UNL     1      41.253 138.360  18.293  1.00  0.00    -0.040 A 
ATOM      9  C   UNL     1      39.513 136.419  16.955  1.00  0.00     0.033 A 
ATOM     10  C   UNL     1      41.396 138.535  16.929  1.00  0.00     0.007 A 
ATOM     11  C   UNL     1      42.611 138.173  18.909  1.00  0.00     0.041 C 
ATOM     12  C   UNL     1      40.752 135.750  16.975  1.00  0.00     0.040 A 
ATOM     13  C   UNL     1      42.642 138.141  16.533  1.00  0.00    -0.047 A 
ATOM     14  C   UNL     1      43.562 138.078  17.706  1.00  0.00     0.040 C 
ATOM     15  C   UNL     1      42.856 137.407  15.368  1.00  0.00     0.005 A 
ATOM     16  C   UNL     1      42.232 136.179  15.024  1.00  0.00     0.015 A 
BRANCH   6  17
ATOM     17  C   UNL     1      39.601 138.321  20.301  1.00  0.00     0.155 C 
BRANCH  17  18
ATOM     18  C   UNL     1      38.176 138.720  20.304  1.00  0.00    -0.066 C 
ATOM     19  C   UNL     1      37.008 139.027  20.312  1.00  0.00     0.007 C 
ENDBRANCH  17  18
BRANCH  17  20
ATOM     20  O   UNL     1      40.285 139.503  20.671  1.00  0.00    -0.373 OA
ATOM     21  H   UNL     1      39.840 140.293  20.266  1.00  0.00     0.213 HD
ENDBRANCH  17  20
BRANCH  17  22
ATOM     22  C   UNL     1      39.836 137.158  21.373  1.00  0.00     0.006 C 
ATOM     23  C   UNL     1      41.346 136.942  21.673  1.00  0.00     0.015 C 
ATOM     24  C   UNL     1      39.139 137.456  22.725  1.00  0.00     0.015 C 
ATOM     25  C   UNL     1      39.267 135.820  20.828  1.00  0.00     0.015 C 
ENDBRANCH  17  22
ENDBRANCH   6  17
BRANCH   9  26
ATOM     26  N   UNL     1      38.670 136.347  15.799  1.00  0.00    -0.399 N 
ATOM     27  H   UNL     1      38.108 135.497  15.583  1.00  0.00     0.156 HD
ATOM     28  H   UNL     1      38.677 137.114  15.085  1.00  0.00     0.156 HD
ENDBRANCH   9  26
ENDBRANCH   4   5
ENDBRANCH   1   4
BRANCH   1  29
ATOM     29  C   UNL     1      43.481 131.750  16.271  1.00  0.00     0.098 C 
BRANCH  29  30
ATOM     30  N   UNL     1      43.910 131.962  14.881  1.00  0.00    -0.312 NA
ATOM     31  H   UNL     1      43.036 132.068  14.320  1.00  0.00     0.122 HD
BRANCH  30  32
ATOM     32  C   UNL     1      44.633 130.781  14.384  1.00  0.00     0.120 C 
BRANCH  32  33
ATOM     33  C   UNL     1      46.186 130.927  14.447  1.00  0.00     0.092 C 
ATOM     34  C   UNL     1      46.780 130.062  15.580  1.00  0.00     0.048 C 
BRANCH  33  35
ATOM     35  O   UNL     1      46.484 132.270  14.769  1.00  0.00    -0.385 OA
ATOM     36  H   UNL     1      45.825 132.583  15.444  1.00  0.00     0.211 HD
ENDBRANCH  33  35
BRANCH  33  37
ATOM     37  C   UNL     1      46.847 130.585  13.114  1.00  0.00     0.001 C 
ATOM     38  C   UNL     1      47.832 129.676  12.981  1.00  0.00     0.007 C 
ENDBRANCH  33  37
ENDBRANCH  32  33
ENDBRANCH  30  32
ENDBRANCH  29  30
ENDBRANCH   1  29
TORSDOF 13
ENDMDL
MODEL 9
REMARK VINA RESULT:      -5.3      1.547      2.085
REMARK SMILES C#C[C@](O)(c1cc(N)cc(SC(C)(C)CNC[C@](C)(O)C=C)ccc2cc1CC2)C(C)(C)C
REMARK SMILES IDX 12 1 13 2 14 3 11 4 10 5 5 6 6 7 27 8 7 9 26 10 28 11 9 12
REMARK SMILES IDX 25 13 29 14 24 15 23 16 3 17 2 18 1 19 4 20 30 22 31 23
REMARK SMILES IDX 32 24 33 25 8 26 15 29 16 30 17 32 18 33 19 34 20 35 21 37
REMARK SMILES IDX 22 38
REMARK H PARENT 4 21 8 27 8 28 16 31 20 36
ROOT
ATOM      1  C   UNL     1      43.181 132.738  16.612  1.00  0.00     0.027 C 
ATOM      2  C   UNL     1      41.670 132.464  16.742  1.00  0.00     0.024 C 
ATOM      3  C   UNL     1      43.439 133.459  15.275  1.00  0.00     0.024 C 
ENDROOT
BRANCH   1   4
ATOM      4  S   UNL     1      43.698 133.922  17.945  1.00  0.00    -0.118 SA
BRANCH   4   5
ATOM      5  C   UNL     1      42.139 134.745  18.370  1.00  0.00     0.010 A 
ATOM      6  C   UNL     1      38.993 136.771  16.410  1.00  0.00     0.002 A 
ATOM      7  C   UNL     1      40.295 137.344  16.467  1.00  0.00     0.033 A 
ATOM      8  C   UNL     1      38.539 135.987  17.516  1.00  0.00    -0.040 A 
ATOM      9  C   UNL     1      41.346 136.769  17.209  1.00  0.00     0.033 A 
ATOM     10  C   UNL     1      39.080 136.122  18.781  1.00  0.00     0.007 A 
ATOM     11  C   UNL     1      37.898 134.633  17.398  1.00  0.00     0.041 C 
ATOM     12  C   UNL     1      41.436 135.371  17.345  1.00  0.00     0.040 A 
ATOM     13  C   UNL     1      39.176 134.900  19.383  1.00  0.00    -0.047 A 
ATOM     14  C   UNL     1      38.290 133.915  18.698  1.00  0.00     0.040 C 
ATOM     15  C   UNL     1      40.293 134.521  20.125  1.00  0.00     0.005 A 
ATOM     16  C   UNL     1      41.640 134.534  19.677  1.00  0.00     0.015 A 
BRANCH   6  17
ATOM     17  C   UNL     1      38.060 137.151  15.240  1.00  0.00     0.155 C 
BRANCH  17  18
ATOM     18  C   UNL     1      38.387 138.510  14.758  1.00  0.00    -0.066 C 
ATOM     19  C   UNL     1      38.636 139.622  14.356  1.00  0.00     0.007 C 
ENDBRANCH  17  18
BRANCH  17  20
ATOM     20  O   UNL     1      36.735 137.271  15.720  1.00  0.00    -0.373 OA
ATOM     21  H   UNL     1      36.610 138.156  16.152  1.00  0.00     0.213 HD
ENDBRANCH  17  20
BRANCH  17  22
ATOM     22  C   UNL     1      38.143 136.114  14.025  1.00  0.00     0.006 C 
ATOM     23  C   UNL     1      38.099 136.830  12.647  1.00  0.00     0.015 C 
ATOM     24  C   UNL     1      39.444 135.271  14.061  1.00  0.00     0.015 C 
ATOM     25  C   UNL     1      36.939 135.135  14.088  1.00  0.00     0.015 C 
ENDBRANCH  17  22
ENDBRANCH   6  17
BRANCH   9  26
ATOM     26  N   UNL     1      42.302 137.623  17.850  1.00  0.00    -0.399 N 
ATOM     27  H   UNL     1      43.195 137.891  17.387  1.00  0.00     0.156 HD
ATOM     28  H   UNL     1      42.170 137.917  18.848  1.00  0.00     0.156 HD
ENDBRANCH   9  26
ENDBRANCH   4   5
ENDBRANCH   1   4
BRANCH   1  29
ATOM     29  C   UNL     1      43.993 131.418  16.654  1.00  0.00     0.098 C 
BRANCH  29  30
ATOM     30  N   UNL     1      45.440 131.663  16.738  1.00  0.00    -0.312 NA
ATOM     31  H   UNL     1      45.550 132.615  17.153  1.00  0.00     0.122 HD
BRANCH  30  32
ATOM     32  C   UNL     1      46.033 131.679  15.392  1.00  0.00     0.120 C 
BRANCH  32  33
ATOM     33  C   UNL     1      46.297 130.255  14.808  1.00  0.00     0.092 C 
ATOM     34  C   UNL     1      45.330 129.217  15.417  1.00  0.00     0.048 C 
BRANCH  33  35
ATOM     35  O   UNL     1      47.599 129.864  15.191  1.00  0.00    -0.385 OA
ATOM     36  H   UNL     1      47.571 128.910  15.470  1.00  0.00     0.211 HD
ENDBRANCH  33  35
BRANCH  33  37
ATOM     37  C   UNL     1      46.209 130.236  13.285  1.00  0.00     0.001 C 
ATOM     38  C   UNL     1      47.244 130.530  12.473  1.00  0.00     0.007 C 
ENDBRANCH  33  37
ENDBRANCH  32  33
ENDBRANCH  30  32
ENDBRANCH  29  30
ENDBRANCH   1  29
TORSDOF 13
ENDMDL


