MODEL 1
REMARK VINA RESULT:      -5.3      0.000      0.000
REMARK SMILES Cc1[nH+]nn(C/C(C#N)=N\c2cccc(C#N)c2C)c1-c1cc2ccccc2c2ccccc12
REMARK SMILES IDX 10 1 11 2 13 3 14 4 12 5 15 6 18 7 19 8 16 9 17 10 7 11 8 12
REMARK SMILES IDX 9 13 6 14 5 15 4 16 20 17 3 18 2 19 1 21 21 22 22 23 34 24
REMARK SMILES IDX 23 25 33 26 29 27 24 28 28 29 32 30 30 31 25 32 27 33 31 34
REMARK SMILES IDX 26 35
REMARK H PARENT 3 20
ROOT
ATOM      1  N   UNL     1      41.101 138.285  17.058  1.00  0.00    -0.238 NA
ENDROOT
BRANCH   1   2
ATOM      2  C   UNL     1      41.964 137.221  17.496  1.00  0.00     0.069 A 
ATOM      3  C   UNL     1      44.102 136.068  17.400  1.00  0.00     0.004 A 
ATOM      4  C   UNL     1      43.714 135.245  18.455  1.00  0.00     0.020 A 
ATOM      5  C   UNL     1      43.246 137.068  16.941  1.00  0.00     0.029 A 
ATOM      6  C   UNL     1      42.472 135.426  19.073  1.00  0.00     0.057 A 
ATOM      7  C   UNL     1      41.579 136.416  18.594  1.00  0.00    -0.008 A 
ATOM      8  C   UNL     1      40.265 136.677  19.293  1.00  0.00     0.048 C 
BRANCH   6   9
ATOM      9  C   UNL     1      42.140 134.587  20.200  1.00  0.00     0.099 C 
ATOM     10  N   UNL     1      41.874 133.912  21.101  1.00  0.00    -0.192 NA
ENDBRANCH   6   9
ENDBRANCH   1   2
BRANCH   1  11
ATOM     11  C   UNL     1      40.347 138.336  15.995  1.00  0.00     0.162 C 
BRANCH  11  12
ATOM     12  C   UNL     1      38.938 138.555  16.183  1.00  0.00     0.119 C 
ATOM     13  N   UNL     1      37.805 138.732  16.333  1.00  0.00    -0.191 NA
ENDBRANCH  11  12
BRANCH  11  14
ATOM     14  C   UNL     1      40.842 138.069  14.593  1.00  0.00     0.338 C 
BRANCH  14  15
ATOM     15  N   UNL     1      39.857 137.291  13.842  1.00  0.00    -0.122 N 
ATOM     16  N   UNL     1      39.079 137.805  12.900  1.00  0.00     0.089 NA
ATOM     17  C   UNL     1      39.526 135.990  13.999  1.00  0.00     0.201 A 
ATOM     18  N   UNL     1      38.271 136.870  12.424  1.00  0.00    -0.147 N 
ATOM     19  C   UNL     1      38.533 135.721  13.074  1.00  0.00     0.169 A 
ATOM     20  H   UNL     1      37.564 137.022  11.671  1.00  0.00     0.342 HD
ATOM     21  C   UNL     1      37.826 134.425  12.830  1.00  0.00     0.100 C 
BRANCH  17  22
ATOM     22  C   UNL     1      40.164 135.032  14.933  1.00  0.00     0.036 A 
ATOM     23  C   UNL     1      41.440 134.568  14.615  1.00  0.00     0.022 A 
ATOM     24  C   UNL     1      39.506 134.547  16.088  1.00  0.00    -0.006 A 
ATOM     25  C   UNL     1      42.095 133.641  15.426  1.00  0.00    -0.017 A 
ATOM     26  C   UNL     1      38.235 135.041  16.456  1.00  0.00     0.009 A 
ATOM     27  C   UNL     1      40.138 133.560  16.908  1.00  0.00    -0.010 A 
ATOM     28  C   UNL     1      43.397 133.236  15.088  1.00  0.00     0.009 A 
ATOM     29  C   UNL     1      41.454 133.113  16.580  1.00  0.00    -0.010 A 
ATOM     30  C   UNL     1      37.572 134.546  17.574  1.00  0.00     0.001 A 
ATOM     31  C   UNL     1      39.427 133.071  18.033  1.00  0.00     0.009 A 
ATOM     32  C   UNL     1      44.079 132.318  15.882  1.00  0.00     0.001 A 
ATOM     33  C   UNL     1      42.173 132.176  17.364  1.00  0.00     0.009 A 
ATOM     34  C   UNL     1      38.160 133.559  18.352  1.00  0.00     0.001 A 
ATOM     35  C   UNL     1      43.469 131.790  17.015  1.00  0.00     0.001 A 
ENDBRANCH  17  22
ENDBRANCH  14  15
ENDBRANCH  11  14
ENDBRANCH   1  11
TORSDOF 7
ENDMDL
MODEL 2
REMARK VINA RESULT:      -5.2      3.471      6.553
REMARK SMILES Cc1[nH+]nn(C/C(C#N)=N\c2cccc(C#N)c2C)c1-c1cc2ccccc2c2ccccc12
REMARK SMILES IDX 10 1 11 2 13 3 14 4 12 5 15 6 18 7 19 8 16 9 17 10 7 11 8 12
REMARK SMILES IDX 9 13 6 14 5 15 4 16 20 17 3 18 2 19 1 21 21 22 22 23 34 24
REMARK SMILES IDX 23 25 33 26 29 27 24 28 28 29 32 30 30 31 25 32 27 33 31 34
REMARK SMILES IDX 26 35
REMARK H PARENT 3 20
ROOT
ATOM      1  N   UNL     1      43.147 132.415  15.458  1.00  0.00    -0.238 NA
ENDROOT
BRANCH   1   2
ATOM      2  C   UNL     1      44.303 131.693  15.917  1.00  0.00     0.069 A 
ATOM      3  C   UNL     1      45.633 130.786  17.738  1.00  0.00     0.004 A 
ATOM      4  C   UNL     1      46.468 130.151  16.822  1.00  0.00     0.020 A 
ATOM      5  C   UNL     1      44.541 131.528  17.293  1.00  0.00     0.029 A 
ATOM      6  C   UNL     1      46.208 130.237  15.450  1.00  0.00     0.057 A 
ATOM      7  C   UNL     1      45.122 131.017  14.982  1.00  0.00    -0.008 A 
ATOM      8  C   UNL     1      44.779 131.064  13.511  1.00  0.00     0.048 C 
BRANCH   6   9
ATOM      9  C   UNL     1      47.067 129.513  14.544  1.00  0.00     0.099 C 
ATOM     10  N   UNL     1      47.755 128.934  13.816  1.00  0.00    -0.192 NA
ENDBRANCH   6   9
ENDBRANCH   1   2
BRANCH   1  11
ATOM     11  C   UNL     1      42.549 133.431  16.015  1.00  0.00     0.162 C 
BRANCH  11  12
ATOM     12  C   UNL     1      41.148 133.300  16.318  1.00  0.00     0.119 C 
ATOM     13  N   UNL     1      40.022 133.194  16.561  1.00  0.00    -0.191 NA
ENDBRANCH  11  12
BRANCH  11  14
ATOM     14  C   UNL     1      43.204 134.770  16.260  1.00  0.00     0.338 C 
BRANCH  14  15
ATOM     15  N   UNL     1      42.345 135.617  17.086  1.00  0.00    -0.122 N 
ATOM     16  N   UNL     1      41.295 136.277  16.619  1.00  0.00     0.089 NA
ATOM     17  C   UNL     1      42.484 135.920  18.397  1.00  0.00     0.201 A 
ATOM     18  N   UNL     1      40.735 136.980  17.591  1.00  0.00    -0.147 N 
ATOM     19  C   UNL     1      41.440 136.769  18.719  1.00  0.00     0.169 A 
ATOM     20  H   UNL     1      39.890 137.583  17.479  1.00  0.00     0.342 HD
ATOM     21  C   UNL     1      41.132 137.391  20.043  1.00  0.00     0.100 C 
BRANCH  17  22
ATOM     22  C   UNL     1      43.517 135.383  19.314  1.00  0.00     0.036 A 
ATOM     23  C   UNL     1      44.615 136.195  19.601  1.00  0.00     0.022 A 
ATOM     24  C   UNL     1      43.447 134.078  19.854  1.00  0.00    -0.006 A 
ATOM     25  C   UNL     1      45.645 135.750  20.428  1.00  0.00    -0.017 A 
ATOM     26  C   UNL     1      42.321 133.259  19.618  1.00  0.00     0.009 A 
ATOM     27  C   UNL     1      44.515 133.583  20.666  1.00  0.00    -0.010 A 
ATOM     28  C   UNL     1      46.709 136.618  20.723  1.00  0.00     0.009 A 
ATOM     29  C   UNL     1      45.620 134.435  20.968  1.00  0.00    -0.010 A 
ATOM     30  C   UNL     1      42.260 131.964  20.123  1.00  0.00     0.001 A 
ATOM     31  C   UNL     1      44.423 132.254  21.154  1.00  0.00     0.009 A 
ATOM     32  C   UNL     1      47.748 136.207  21.553  1.00  0.00     0.001 A 
ATOM     33  C   UNL     1      46.696 134.044  21.804  1.00  0.00     0.009 A 
ATOM     34  C   UNL     1      43.311 131.460  20.878  1.00  0.00     0.001 A 
ATOM     35  C   UNL     1      47.741 134.924  22.090  1.00  0.00     0.001 A 
ENDBRANCH  17  22
ENDBRANCH  14  15
ENDBRANCH  11  14
ENDBRANCH   1  11
TORSDOF 7
ENDMDL
MODEL 3
REMARK VINA RESULT:      -5.0      2.783      6.640
REMARK SMILES Cc1[nH+]nn(C/C(C#N)=N\c2cccc(C#N)c2C)c1-c1cc2ccccc2c2ccccc12
REMARK SMILES IDX 10 1 11 2 13 3 14 4 12 5 15 6 18 7 19 8 16 9 17 10 7 11 8 12
REMARK SMILES IDX 9 13 6 14 5 15 4 16 20 17 3 18 2 19 1 21 21 22 22 23 34 24
REMARK SMILES IDX 23 25 33 26 29 27 24 28 28 29 32 30 30 31 25 32 27 33 31 34
REMARK SMILES IDX 26 35
REMARK H PARENT 3 20
ROOT
ATOM      1  N   UNL     1      42.972 132.640  15.100  1.00  0.00    -0.238 NA
ENDROOT
BRANCH   1   2
ATOM      2  C   UNL     1      42.605 134.030  15.144  1.00  0.00     0.069 A 
ATOM      3  C   UNL     1      43.234 136.368  15.370  1.00  0.00     0.004 A 
ATOM      4  C   UNL     1      41.928 136.754  15.076  1.00  0.00     0.020 A 
ATOM      5  C   UNL     1      43.579 135.018  15.376  1.00  0.00     0.029 A 
ATOM      6  C   UNL     1      40.958 135.794  14.767  1.00  0.00     0.057 A 
ATOM      7  C   UNL     1      41.287 134.417  14.805  1.00  0.00    -0.008 A 
ATOM      8  C   UNL     1      40.277 133.368  14.404  1.00  0.00     0.048 C 
BRANCH   6   9
ATOM      9  C   UNL     1      39.635 136.248  14.412  1.00  0.00     0.099 C 
ATOM     10  N   UNL     1      38.575 136.615  14.128  1.00  0.00    -0.192 NA
ENDBRANCH   6   9
ENDBRANCH   1   2
BRANCH   1  11
ATOM     11  C   UNL     1      44.117 132.091  15.397  1.00  0.00     0.162 C 
BRANCH  11  12
ATOM     12  C   UNL     1      44.383 130.775  14.880  1.00  0.00     0.119 C 
ATOM     13  N   UNL     1      44.596 129.717  14.465  1.00  0.00    -0.191 NA
ENDBRANCH  11  12
BRANCH  11  14
ATOM     14  C   UNL     1      45.131 132.702  16.337  1.00  0.00     0.338 C 
BRANCH  14  15
ATOM     15  N   UNL     1      44.980 132.147  17.681  1.00  0.00    -0.122 N 
ATOM     16  N   UNL     1      45.511 130.995  18.064  1.00  0.00     0.089 NA
ATOM     17  C   UNL     1      44.262 132.644  18.713  1.00  0.00     0.201 A 
ATOM     18  N   UNL     1      45.179 130.741  19.321  1.00  0.00    -0.147 N 
ATOM     19  C   UNL     1      44.414 131.757  19.764  1.00  0.00     0.169 A 
ATOM     20  H   UNL     1      45.474 129.895  19.855  1.00  0.00     0.342 HD
ATOM     21  C   UNL     1      43.829 131.844  21.137  1.00  0.00     0.100 C 
BRANCH  17  22
ATOM     22  C   UNL     1      43.522 133.929  18.725  1.00  0.00     0.036 A 
ATOM     23  C   UNL     1      44.245 135.091  18.992  1.00  0.00     0.022 A 
ATOM     24  C   UNL     1      42.123 133.999  18.527  1.00  0.00    -0.006 A 
ATOM     25  C   UNL     1      43.616 136.335  19.053  1.00  0.00    -0.017 A 
ATOM     26  C   UNL     1      41.380 132.842  18.205  1.00  0.00     0.009 A 
ATOM     27  C   UNL     1      41.450 135.256  18.633  1.00  0.00    -0.010 A 
ATOM     28  C   UNL     1      44.392 137.483  19.283  1.00  0.00     0.009 A 
ATOM     29  C   UNL     1      42.209 136.440  18.884  1.00  0.00    -0.010 A 
ATOM     30  C   UNL     1      40.001 132.902  18.038  1.00  0.00     0.001 A 
ATOM     31  C   UNL     1      40.041 135.277  18.467  1.00  0.00     0.009 A 
ATOM     32  C   UNL     1      43.795 138.739  19.340  1.00  0.00     0.001 A 
ATOM     33  C   UNL     1      41.630 137.733  18.955  1.00  0.00     0.009 A 
ATOM     34  C   UNL     1      39.333 134.111  18.179  1.00  0.00     0.001 A 
ATOM     35  C   UNL     1      42.419 138.862  19.178  1.00  0.00     0.001 A 
ENDBRANCH  17  22
ENDBRANCH  14  15
ENDBRANCH  11  14
ENDBRANCH   1  11
TORSDOF 7
ENDMDL
MODEL 4
REMARK VINA RESULT:      -4.9      2.847      6.483
REMARK SMILES Cc1[nH+]nn(C/C(C#N)=N\c2cccc(C#N)c2C)c1-c1cc2ccccc2c2ccccc12
REMARK SMILES IDX 10 1 11 2 13 3 14 4 12 5 15 6 18 7 19 8 16 9 17 10 7 11 8 12
REMARK SMILES IDX 9 13 6 14 5 15 4 16 20 17 3 18 2 19 1 21 21 22 22 23 34 24
REMARK SMILES IDX 23 25 33 26 29 27 24 28 28 29 32 30 30 31 25 32 27 33 31 34
REMARK SMILES IDX 26 35
REMARK H PARENT 3 20
ROOT
ATOM      1  N   UNL     1      42.820 133.270  15.096  1.00  0.00    -0.238 NA
ENDROOT
BRANCH   1   2
ATOM      2  C   UNL     1      42.453 134.660  15.075  1.00  0.00     0.069 A 
ATOM      3  C   UNL     1      43.079 137.005  15.208  1.00  0.00     0.004 A 
ATOM      4  C   UNL     1      41.778 137.379  14.877  1.00  0.00     0.020 A 
ATOM      5  C   UNL     1      43.423 135.657  15.279  1.00  0.00     0.029 A 
ATOM      6  C   UNL     1      40.813 136.406  14.596  1.00  0.00     0.057 A 
ATOM      7  C   UNL     1      41.141 135.031  14.698  1.00  0.00    -0.008 A 
ATOM      8  C   UNL     1      40.136 133.966  14.327  1.00  0.00     0.048 C 
BRANCH   6   9
ATOM      9  C   UNL     1      39.496 136.843  14.200  1.00  0.00     0.099 C 
ATOM     10  N   UNL     1      38.440 137.194  13.880  1.00  0.00    -0.192 NA
ENDBRANCH   6   9
ENDBRANCH   1   2
BRANCH   1  11
ATOM     11  C   UNL     1      43.627 132.654  15.915  1.00  0.00     0.162 C 
BRANCH  11  12
ATOM     12  C   UNL     1      44.995 132.482  15.505  1.00  0.00     0.119 C 
ATOM     13  N   UNL     1      46.095 132.344  15.174  1.00  0.00    -0.191 NA
ENDBRANCH  11  12
BRANCH  11  14
ATOM     14  C   UNL     1      43.191 132.015  17.213  1.00  0.00     0.338 C 
BRANCH  14  15
ATOM     15  N   UNL     1      41.997 132.678  17.734  1.00  0.00    -0.122 N 
ATOM     16  N   UNL     1      40.761 132.348  17.384  1.00  0.00     0.089 NA
ATOM     17  C   UNL     1      41.928 133.733  18.577  1.00  0.00     0.201 A 
ATOM     18  N   UNL     1      39.893 133.141  17.992  1.00  0.00    -0.147 N 
ATOM     19  C   UNL     1      40.584 134.007  18.758  1.00  0.00     0.169 A 
ATOM     20  H   UNL     1      38.857 133.083  17.884  1.00  0.00     0.342 HD
ATOM     21  C   UNL     1      39.966 135.076  19.602  1.00  0.00     0.100 C 
BRANCH  17  22
ATOM     22  C   UNL     1      43.076 134.407  19.229  1.00  0.00     0.036 A 
ATOM     23  C   UNL     1      43.519 135.610  18.679  1.00  0.00     0.022 A 
ATOM     24  C   UNL     1      43.751 133.850  20.339  1.00  0.00    -0.006 A 
ATOM     25  C   UNL     1      44.613 136.289  19.214  1.00  0.00    -0.017 A 
ATOM     26  C   UNL     1      43.288 132.661  20.944  1.00  0.00     0.009 A 
ATOM     27  C   UNL     1      44.905 134.504  20.875  1.00  0.00    -0.010 A 
ATOM     28  C   UNL     1      44.996 137.519  18.652  1.00  0.00     0.009 A 
ATOM     29  C   UNL     1      45.331 135.746  20.313  1.00  0.00    -0.010 A 
ATOM     30  C   UNL     1      43.966 132.094  22.018  1.00  0.00     0.001 A 
ATOM     31  C   UNL     1      45.576 133.891  21.963  1.00  0.00     0.009 A 
ATOM     32  C   UNL     1      46.079 138.225  19.169  1.00  0.00     0.001 A 
ATOM     33  C   UNL     1      46.433 136.487  20.813  1.00  0.00     0.009 A 
ATOM     34  C   UNL     1      45.110 132.700  22.518  1.00  0.00     0.001 A 
ATOM     35  C   UNL     1      46.794 137.710  20.245  1.00  0.00     0.001 A 
ENDBRANCH  17  22
ENDBRANCH  14  15
ENDBRANCH  11  14
ENDBRANCH   1  11
TORSDOF 7
ENDMDL
MODEL 5
REMARK VINA RESULT:      -4.8      2.555      5.624
REMARK SMILES Cc1[nH+]nn(C/C(C#N)=N\c2cccc(C#N)c2C)c1-c1cc2ccccc2c2ccccc12
REMARK SMILES IDX 10 1 11 2 13 3 14 4 12 5 15 6 18 7 19 8 16 9 17 10 7 11 8 12
REMARK SMILES IDX 9 13 6 14 5 15 4 16 20 17 3 18 2 19 1 21 21 22 22 23 34 24
REMARK SMILES IDX 23 25 33 26 29 27 24 28 28 29 32 30 30 31 25 32 27 33 31 34
REMARK SMILES IDX 26 35
REMARK H PARENT 3 20
ROOT
ATOM      1  N   UNL     1      43.211 133.169  17.844  1.00  0.00    -0.238 NA
ENDROOT
BRANCH   1   2
ATOM      2  C   UNL     1      43.219 132.526  16.558  1.00  0.00     0.069 A 
ATOM      3  C   UNL     1      42.406 132.378  14.272  1.00  0.00     0.004 A 
ATOM      4  C   UNL     1      43.339 131.382  13.997  1.00  0.00     0.020 A 
ATOM      5  C   UNL     1      42.363 132.968  15.534  1.00  0.00     0.029 A 
ATOM      6  C   UNL     1      44.253 130.978  14.977  1.00  0.00     0.057 A 
ATOM      7  C   UNL     1      44.197 131.544  16.274  1.00  0.00    -0.008 A 
ATOM      8  C   UNL     1      45.220 131.176  17.324  1.00  0.00     0.048 C 
BRANCH   6   9
ATOM      9  C   UNL     1      45.239 129.984  14.625  1.00  0.00     0.099 C 
ATOM     10  N   UNL     1      46.032 129.190  14.343  1.00  0.00    -0.192 NA
ENDBRANCH   6   9
ENDBRANCH   1   2
BRANCH   1  11
ATOM     11  C   UNL     1      43.736 134.313  18.185  1.00  0.00     0.162 C 
BRANCH  11  12
ATOM     12  C   UNL     1      43.918 134.576  19.588  1.00  0.00     0.119 C 
ATOM     13  N   UNL     1      44.063 134.788  20.716  1.00  0.00    -0.191 NA
ENDBRANCH  11  12
BRANCH  11  14
ATOM     14  C   UNL     1      44.062 135.420  17.209  1.00  0.00     0.338 C 
BRANCH  14  15
ATOM     15  N   UNL     1      43.437 136.673  17.630  1.00  0.00    -0.122 N 
ATOM     16  N   UNL     1      44.089 137.649  18.245  1.00  0.00     0.089 NA
ATOM     17  C   UNL     1      42.137 137.031  17.533  1.00  0.00     0.201 A 
ATOM     18  N   UNL     1      43.257 138.639  18.528  1.00  0.00    -0.147 N 
ATOM     19  C   UNL     1      42.033 138.296  18.084  1.00  0.00     0.169 A 
ATOM     20  H   UNL     1      43.527 139.525  19.010  1.00  0.00     0.342 HD
ATOM     21  C   UNL     1      40.810 139.145  18.219  1.00  0.00     0.100 C 
BRANCH  17  22
ATOM     22  C   UNL     1      41.058 136.241  16.893  1.00  0.00     0.036 A 
ATOM     23  C   UNL     1      40.920 136.335  15.508  1.00  0.00     0.022 A 
ATOM     24  C   UNL     1      40.152 135.451  17.638  1.00  0.00    -0.006 A 
ATOM     25  C   UNL     1      39.910 135.649  14.835  1.00  0.00    -0.017 A 
ATOM     26  C   UNL     1      40.305 135.300  19.034  1.00  0.00     0.009 A 
ATOM     27  C   UNL     1      39.079 134.777  16.975  1.00  0.00    -0.010 A 
ATOM     28  C   UNL     1      39.836 135.740  13.435  1.00  0.00     0.009 A 
ATOM     29  C   UNL     1      38.967 134.866  15.554  1.00  0.00    -0.010 A 
ATOM     30  C   UNL     1      39.400 134.548  19.776  1.00  0.00     0.001 A 
ATOM     31  C   UNL     1      38.170 134.028  17.765  1.00  0.00     0.009 A 
ATOM     32  C   UNL     1      38.845 135.060  12.733  1.00  0.00     0.001 A 
ATOM     33  C   UNL     1      37.965 134.191  14.811  1.00  0.00     0.009 A 
ATOM     34  C   UNL     1      38.332 133.924  19.146  1.00  0.00     0.001 A 
ATOM     35  C   UNL     1      37.913 134.289  13.420  1.00  0.00     0.001 A 
ENDBRANCH  17  22
ENDBRANCH  14  15
ENDBRANCH  11  14
ENDBRANCH   1  11
TORSDOF 7
ENDMDL
MODEL 6
REMARK VINA RESULT:      -4.8      2.320      5.805
REMARK SMILES Cc1[nH+]nn(C/C(C#N)=N\c2cccc(C#N)c2C)c1-c1cc2ccccc2c2ccccc12
REMARK SMILES IDX 10 1 11 2 13 3 14 4 12 5 15 6 18 7 19 8 16 9 17 10 7 11 8 12
REMARK SMILES IDX 9 13 6 14 5 15 4 16 20 17 3 18 2 19 1 21 21 22 22 23 34 24
REMARK SMILES IDX 23 25 33 26 29 27 24 28 28 29 32 30 30 31 25 32 27 33 31 34
REMARK SMILES IDX 26 35
REMARK H PARENT 3 20
ROOT
ATOM      1  N   UNL     1      41.958 135.434  14.381  1.00  0.00    -0.238 NA
ENDROOT
BRANCH   1   2
ATOM      2  C   UNL     1      41.528 136.790  14.591  1.00  0.00     0.069 A 
ATOM      3  C   UNL     1      42.051 139.115  15.071  1.00  0.00     0.004 A 
ATOM      4  C   UNL     1      40.722 139.468  14.847  1.00  0.00     0.020 A 
ATOM      5  C   UNL     1      42.459 137.791  14.917  1.00  0.00     0.029 A 
ATOM      6  C   UNL     1      39.791 138.502  14.448  1.00  0.00     0.057 A 
ATOM      7  C   UNL     1      40.185 137.147  14.322  1.00  0.00    -0.008 A 
ATOM      8  C   UNL     1      39.215 136.102  13.822  1.00  0.00     0.048 C 
BRANCH   6   9
ATOM      9  C   UNL     1      38.440 138.928  14.171  1.00  0.00     0.099 C 
ATOM     10  N   UNL     1      37.357 139.271  13.952  1.00  0.00    -0.192 NA
ENDBRANCH   6   9
ENDBRANCH   1   2
BRANCH   1  11
ATOM     11  C   UNL     1      41.696 134.378  15.099  1.00  0.00     0.162 C 
BRANCH  11  12
ATOM     12  C   UNL     1      41.855 133.089  14.479  1.00  0.00     0.119 C 
ATOM     13  N   UNL     1      41.981 132.053  13.981  1.00  0.00    -0.191 NA
ENDBRANCH  11  12
BRANCH  11  14
ATOM     14  C   UNL     1      41.133 134.424  16.501  1.00  0.00     0.338 C 
BRANCH  14  15
ATOM     15  N   UNL     1      41.940 135.301  17.348  1.00  0.00    -0.122 N 
ATOM     16  N   UNL     1      41.560 136.515  17.720  1.00  0.00     0.089 NA
ATOM     17  C   UNL     1      43.182 135.080  17.835  1.00  0.00     0.201 A 
ATOM     18  N   UNL     1      42.508 137.078  18.453  1.00  0.00    -0.147 N 
ATOM     19  C   UNL     1      43.528 136.206  18.560  1.00  0.00     0.169 A 
ATOM     20  H   UNL     1      42.450 138.034  18.870  1.00  0.00     0.342 HD
ATOM     21  C   UNL     1      44.797 136.468  19.307  1.00  0.00     0.100 C 
BRANCH  17  22
ATOM     22  C   UNL     1      43.975 133.838  17.674  1.00  0.00     0.036 A 
ATOM     23  C   UNL     1      44.544 133.588  16.425  1.00  0.00     0.022 A 
ATOM     24  C   UNL     1      44.125 132.894  18.717  1.00  0.00    -0.006 A 
ATOM     25  C   UNL     1      45.277 132.427  16.184  1.00  0.00    -0.017 A 
ATOM     26  C   UNL     1      43.602 133.151  20.004  1.00  0.00     0.009 A 
ATOM     27  C   UNL     1      44.832 131.674  18.479  1.00  0.00    -0.010 A 
ATOM     28  C   UNL     1      45.867 132.240  14.923  1.00  0.00     0.009 A 
ATOM     29  C   UNL     1      45.427 131.445  17.201  1.00  0.00    -0.010 A 
ATOM     30  C   UNL     1      43.722 132.213  21.024  1.00  0.00     0.001 A 
ATOM     31  C   UNL     1      44.925 130.738  19.540  1.00  0.00     0.009 A 
ATOM     32  C   UNL     1      46.612 131.095  14.655  1.00  0.00     0.001 A 
ATOM     33  C   UNL     1      46.186 130.287  16.894  1.00  0.00     0.009 A 
ATOM     34  C   UNL     1      44.371 131.008  20.790  1.00  0.00     0.001 A 
ATOM     35  C   UNL     1      46.770 130.123  15.637  1.00  0.00     0.001 A 
ENDBRANCH  17  22
ENDBRANCH  14  15
ENDBRANCH  11  14
ENDBRANCH   1  11
TORSDOF 7
ENDMDL
MODEL 7
REMARK VINA RESULT:      -4.8      2.230      4.157
REMARK SMILES Cc1[nH+]nn(C/C(C#N)=N\c2cccc(C#N)c2C)c1-c1cc2ccccc2c2ccccc12
REMARK SMILES IDX 10 1 11 2 13 3 14 4 12 5 15 6 18 7 19 8 16 9 17 10 7 11 8 12
REMARK SMILES IDX 9 13 6 14 5 15 4 16 20 17 3 18 2 19 1 21 21 22 22 23 34 24
REMARK SMILES IDX 23 25 33 26 29 27 24 28 28 29 32 30 30 31 25 32 27 33 31 34
REMARK SMILES IDX 26 35
REMARK H PARENT 3 20
ROOT
ATOM      1  N   UNL     1      40.312 134.315  18.978  1.00  0.00    -0.238 NA
ENDROOT
BRANCH   1   2
ATOM      2  C   UNL     1      40.972 134.002  20.217  1.00  0.00     0.069 A 
ATOM      3  C   UNL     1      41.172 134.274  22.624  1.00  0.00     0.004 A 
ATOM      4  C   UNL     1      42.148 133.281  22.663  1.00  0.00     0.020 A 
ATOM      5  C   UNL     1      40.566 134.614  21.416  1.00  0.00     0.029 A 
ATOM      6  C   UNL     1      42.516 132.605  21.494  1.00  0.00     0.057 A 
ATOM      7  C   UNL     1      41.933 132.964  20.254  1.00  0.00    -0.008 A 
ATOM      8  C   UNL     1      42.261 132.198  18.994  1.00  0.00     0.048 C 
BRANCH   6   9
ATOM      9  C   UNL     1      43.489 131.544  21.596  1.00  0.00     0.099 C 
ATOM     10  N   UNL     1      44.271 130.694  21.675  1.00  0.00    -0.192 NA
ENDBRANCH   6   9
ENDBRANCH   1   2
BRANCH   1  11
ATOM     11  C   UNL     1      39.164 133.881  18.536  1.00  0.00     0.162 C 
BRANCH  11  12
ATOM     12  C   UNL     1      37.994 134.158  19.325  1.00  0.00     0.119 C 
ATOM     13  N   UNL     1      37.052 134.380  19.960  1.00  0.00    -0.191 NA
ENDBRANCH  11  12
BRANCH  11  14
ATOM     14  C   UNL     1      39.002 133.013  17.310  1.00  0.00     0.338 C 
BRANCH  14  15
ATOM     15  N   UNL     1      38.857 133.839  16.113  1.00  0.00    -0.122 N 
ATOM     16  N   UNL     1      37.692 134.288  15.667  1.00  0.00     0.089 NA
ATOM     17  C   UNL     1      39.819 134.231  15.248  1.00  0.00     0.201 A 
ATOM     18  N   UNL     1      37.873 134.979  14.552  1.00  0.00    -0.147 N 
ATOM     19  C   UNL     1      39.189 134.979  14.268  1.00  0.00     0.169 A 
ATOM     20  H   UNL     1      37.111 135.438  14.006  1.00  0.00     0.342 HD
ATOM     21  C   UNL     1      39.804 135.649  13.081  1.00  0.00     0.100 C 
BRANCH  17  22
ATOM     22  C   UNL     1      41.272 133.965  15.376  1.00  0.00     0.036 A 
ATOM     23  C   UNL     1      41.770 132.795  14.802  1.00  0.00     0.022 A 
ATOM     24  C   UNL     1      42.139 134.821  16.094  1.00  0.00    -0.006 A 
ATOM     25  C   UNL     1      43.119 132.457  14.906  1.00  0.00    -0.017 A 
ATOM     26  C   UNL     1      41.667 136.035  16.639  1.00  0.00     0.009 A 
ATOM     27  C   UNL     1      43.516 134.470  16.255  1.00  0.00    -0.010 A 
ATOM     28  C   UNL     1      43.582 131.291  14.275  1.00  0.00     0.009 A 
ATOM     29  C   UNL     1      44.014 133.280  15.641  1.00  0.00    -0.010 A 
ATOM     30  C   UNL     1      42.509 136.866  17.371  1.00  0.00     0.001 A 
ATOM     31  C   UNL     1      44.342 135.336  17.016  1.00  0.00     0.009 A 
ATOM     32  C   UNL     1      44.924 130.930  14.354  1.00  0.00     0.001 A 
ATOM     33  C   UNL     1      45.373 132.883  15.709  1.00  0.00     0.009 A 
ATOM     34  C   UNL     1      43.837 136.513  17.568  1.00  0.00     0.001 A 
ATOM     35  C   UNL     1      45.816 131.724  15.069  1.00  0.00     0.001 A 
ENDBRANCH  17  22
ENDBRANCH  14  15
ENDBRANCH  11  14
ENDBRANCH   1  11
TORSDOF 7
ENDMDL
MODEL 8
REMARK VINA RESULT:      -4.8      3.264      6.325
REMARK SMILES Cc1[nH+]nn(C/C(C#N)=N\c2cccc(C#N)c2C)c1-c1cc2ccccc2c2ccccc12
REMARK SMILES IDX 10 1 11 2 13 3 14 4 12 5 15 6 18 7 19 8 16 9 17 10 7 11 8 12
REMARK SMILES IDX 9 13 6 14 5 15 4 16 20 17 3 18 2 19 1 21 21 22 22 23 34 24
REMARK SMILES IDX 23 25 33 26 29 27 24 28 28 29 32 30 30 31 25 32 27 33 31 34
REMARK SMILES IDX 26 35
REMARK H PARENT 3 20
ROOT
ATOM      1  N   UNL     1      44.680 133.205  16.057  1.00  0.00    -0.238 NA
ENDROOT
BRANCH   1   2
ATOM      2  C   UNL     1      45.307 132.056  15.461  1.00  0.00     0.069 A 
ATOM      3  C   UNL     1      47.087 131.088  14.117  1.00  0.00     0.004 A 
ATOM      4  C   UNL     1      46.629 129.808  14.421  1.00  0.00     0.020 A 
ATOM      5  C   UNL     1      46.449 132.205  14.655  1.00  0.00     0.029 A 
ATOM      6  C   UNL     1      45.540 129.631  15.281  1.00  0.00     0.057 A 
ATOM      7  C   UNL     1      44.861 130.758  15.806  1.00  0.00    -0.008 A 
ATOM      8  C   UNL     1      43.730 130.591  16.794  1.00  0.00     0.048 C 
BRANCH   6   9
ATOM      9  C   UNL     1      45.141 128.284  15.611  1.00  0.00     0.099 C 
ATOM     10  N   UNL     1      44.822 127.203  15.874  1.00  0.00    -0.192 NA
ENDBRANCH   6   9
ENDBRANCH   1   2
BRANCH   1  11
ATOM     11  C   UNL     1      43.719 133.947  15.581  1.00  0.00     0.162 C 
BRANCH  11  12
ATOM     12  C   UNL     1      42.675 133.294  14.837  1.00  0.00     0.119 C 
ATOM     13  N   UNL     1      41.835 132.769  14.239  1.00  0.00    -0.191 NA
ENDBRANCH  11  12
BRANCH  11  14
ATOM     14  C   UNL     1      43.693 135.455  15.664  1.00  0.00     0.338 C 
BRANCH  14  15
ATOM     15  N   UNL     1      42.515 135.906  16.404  1.00  0.00    -0.122 N 
ATOM     16  N   UNL     1      41.412 136.359  15.824  1.00  0.00     0.089 NA
ATOM     17  C   UNL     1      42.355 135.999  17.743  1.00  0.00     0.201 A 
ATOM     18  N   UNL     1      40.534 136.721  16.746  1.00  0.00    -0.147 N 
ATOM     19  C   UNL     1      41.081 136.495  17.956  1.00  0.00     0.169 A 
ATOM     20  H   UNL     1      39.586 137.108  16.546  1.00  0.00     0.342 HD
ATOM     21  C   UNL     1      40.408 136.779  19.260  1.00  0.00     0.100 C 
BRANCH  17  22
ATOM     22  C   UNL     1      43.336 135.579  18.772  1.00  0.00     0.036 A 
ATOM     23  C   UNL     1      44.319 136.497  19.144  1.00  0.00     0.022 A 
ATOM     24  C   UNL     1      43.334 134.283  19.337  1.00  0.00    -0.006 A 
ATOM     25  C   UNL     1      45.297 136.168  20.081  1.00  0.00    -0.017 A 
ATOM     26  C   UNL     1      42.319 133.356  19.014  1.00  0.00     0.009 A 
ATOM     27  C   UNL     1      44.357 133.907  20.264  1.00  0.00    -0.010 A 
ATOM     28  C   UNL     1      46.240 137.139  20.455  1.00  0.00     0.009 A 
ATOM     29  C   UNL     1      45.341 134.866  20.650  1.00  0.00    -0.010 A 
ATOM     30  C   UNL     1      42.330 132.070  19.545  1.00  0.00     0.001 A 
ATOM     31  C   UNL     1      44.341 132.584  20.776  1.00  0.00     0.009 A 
ATOM     32  C   UNL     1      47.225 136.844  21.394  1.00  0.00     0.001 A 
ATOM     33  C   UNL     1      46.360 134.594  21.599  1.00  0.00     0.009 A 
ATOM     34  C   UNL     1      43.341 131.683  20.413  1.00  0.00     0.001 A 
ATOM     35  C   UNL     1      47.283 135.576  21.963  1.00  0.00     0.001 A 
ENDBRANCH  17  22
ENDBRANCH  14  15
ENDBRANCH  11  14
ENDBRANCH   1  11
TORSDOF 7
ENDMDL
MODEL 9
REMARK VINA RESULT:      -4.8      3.262      7.146
REMARK SMILES Cc1[nH+]nn(C/C(C#N)=N\c2cccc(C#N)c2C)c1-c1cc2ccccc2c2ccccc12
REMARK SMILES IDX 10 1 11 2 13 3 14 4 12 5 15 6 18 7 19 8 16 9 17 10 7 11 8 12
REMARK SMILES IDX 9 13 6 14 5 15 4 16 20 17 3 18 2 19 1 21 21 22 22 23 34 24
REMARK SMILES IDX 23 25 33 26 29 27 24 28 28 29 32 30 30 31 25 32 27 33 31 34
REMARK SMILES IDX 26 35
REMARK H PARENT 3 20
ROOT
ATOM      1  N   UNL     1      44.815 132.605  15.397  1.00  0.00    -0.238 NA
ENDROOT
BRANCH   1   2
ATOM      2  C   UNL     1      43.900 133.713  15.335  1.00  0.00     0.069 A 
ATOM      3  C   UNL     1      43.423 136.072  15.679  1.00  0.00     0.004 A 
ATOM      4  C   UNL     1      42.179 135.916  15.072  1.00  0.00     0.020 A 
ATOM      5  C   UNL     1      44.291 134.986  15.785  1.00  0.00     0.029 A 
ATOM      6  C   UNL     1      41.797 134.676  14.548  1.00  0.00     0.057 A 
ATOM      7  C   UNL     1      42.655 133.556  14.680  1.00  0.00    -0.008 A 
ATOM      8  C   UNL     1      42.296 132.227  14.058  1.00  0.00     0.048 C 
BRANCH   6   9
ATOM      9  C   UNL     1      40.524 134.580  13.876  1.00  0.00     0.099 C 
ATOM     10  N   UNL     1      39.503 134.505  13.336  1.00  0.00    -0.192 NA
ENDBRANCH   6   9
ENDBRANCH   1   2
BRANCH   1  11
ATOM     11  C   UNL     1      44.828 131.608  16.237  1.00  0.00     0.162 C 
BRANCH  11  12
ATOM     12  C   UNL     1      44.912 130.277  15.697  1.00  0.00     0.119 C 
ATOM     13  N   UNL     1      44.981 129.206  15.263  1.00  0.00    -0.191 NA
ENDBRANCH  11  12
BRANCH  11  14
ATOM     14  C   UNL     1      44.648 131.755  17.730  1.00  0.00     0.338 C 
BRANCH  14  15
ATOM     15  N   UNL     1      43.286 132.185  18.041  1.00  0.00    -0.122 N 
ATOM     16  N   UNL     1      42.202 131.616  17.533  1.00  0.00     0.089 NA
ATOM     17  C   UNL     1      42.894 133.223  18.814  1.00  0.00     0.201 A 
ATOM     18  N   UNL     1      41.119 132.238  17.972  1.00  0.00    -0.147 N 
ATOM     19  C   UNL     1      41.511 133.236  18.786  1.00  0.00     0.169 A 
ATOM     20  H   UNL     1      40.140 131.979  17.718  1.00  0.00     0.342 HD
ATOM     21  C   UNL     1      40.583 134.181  19.481  1.00  0.00     0.100 C 
BRANCH  17  22
ATOM     22  C   UNL     1      43.783 134.119  19.591  1.00  0.00     0.036 A 
ATOM     23  C   UNL     1      44.154 135.330  19.008  1.00  0.00     0.022 A 
ATOM     24  C   UNL     1      44.296 133.763  20.861  1.00  0.00    -0.006 A 
ATOM     25  C   UNL     1      45.014 136.213  19.660  1.00  0.00    -0.017 A 
ATOM     26  C   UNL     1      43.893 132.566  21.492  1.00  0.00     0.009 A 
ATOM     27  C   UNL     1      45.216 134.631  21.527  1.00  0.00    -0.010 A 
ATOM     28  C   UNL     1      45.325 137.440  19.052  1.00  0.00     0.009 A 
ATOM     29  C   UNL     1      45.568 135.878  20.925  1.00  0.00    -0.010 A 
ATOM     30  C   UNL     1      44.417 132.198  22.728  1.00  0.00     0.001 A 
ATOM     31  C   UNL     1      45.737 134.218  22.780  1.00  0.00     0.009 A 
ATOM     32  C   UNL     1      46.173 138.347  19.682  1.00  0.00     0.001 A 
ATOM     33  C   UNL     1      46.433 136.819  21.538  1.00  0.00     0.009 A 
ATOM     34  C   UNL     1      45.342 133.015  23.363  1.00  0.00     0.001 A 
ATOM     35  C   UNL     1      46.725 138.036  20.920  1.00  0.00     0.001 A 
ENDBRANCH  17  22
ENDBRANCH  14  15
ENDBRANCH  11  14
ENDBRANCH   1  11
TORSDOF 7
ENDMDL


