REMARK SMILES C#C[C@](O)(c1cc(N)cc(SC(C)(C)C[NH2+]C[C@](C)(O)C=C)ccc2cc1CC2)C(C)(C)C
REMARK SMILES IDX 12 1 13 2 14 3 11 4 10 5 5 6 6 7 27 8 7 9 26 10 28 11 9 12
REMARK SMILES IDX 25 13 29 14 24 15 23 16 3 17 2 18 1 19 4 20 30 22 31 23
REMARK SMILES IDX 32 24 33 25 8 26 15 29 16 30 17 33 18 34 19 35 20 36 21 38
REMARK SMILES IDX 22 39
REMARK H PARENT 4 21 8 27 8 28 16 31 16 32 20 37
ROOT
ATOM      1  C   UNL     1       2.438  -0.522  -2.239  1.00  0.00     0.064 C 
ATOM      2  C   UNL     1       1.467  -1.497  -1.539  1.00  0.00     0.029 C 
ATOM      3  C   UNL     1       3.558  -1.342  -2.903  1.00  0.00     0.029 C 
ENDROOT
BRANCH   1   4
ATOM      4  S   UNL     1       3.268   0.676  -1.093  1.00  0.00    -0.114 SA
BRANCH   4   5
ATOM      5  C   UNL     1       3.023  -0.045   0.559  1.00  0.00     0.010 A 
ATOM      6  C   UNL     1      -0.458   0.115   2.913  1.00  0.00     0.002 A 
ATOM      7  C   UNL     1      -0.097   1.126   1.951  1.00  0.00     0.033 A 
ATOM      8  C   UNL     1       0.341  -1.030   3.178  1.00  0.00    -0.040 A 
ATOM      9  C   UNL     1       1.122   1.364   1.266  1.00  0.00     0.033 A 
ATOM     10  C   UNL     1       1.043  -1.699   2.204  1.00  0.00     0.007 A 
ATOM     11  C   UNL     1       0.966  -1.304   4.517  1.00  0.00     0.041 C 
ATOM     12  C   UNL     1       2.294   0.656   1.538  1.00  0.00     0.040 A 
ATOM     13  C   UNL     1       2.257  -2.130   2.697  1.00  0.00    -0.047 A 
ATOM     14  C   UNL     1       2.238  -2.098   4.189  1.00  0.00     0.040 C 
ATOM     15  C   UNL     1       3.459  -2.090   1.971  1.00  0.00     0.005 A 
ATOM     16  C   UNL     1       3.735  -1.221   0.888  1.00  0.00     0.015 A 
BRANCH   6  17
ATOM     17  C   UNL     1      -1.832   0.233   3.623  1.00  0.00     0.155 C 
BRANCH  17  18
ATOM     18  C   UNL     1      -2.099   1.658   3.981  1.00  0.00    -0.066 C 
ATOM     19  C   UNL     1      -2.320   2.804   4.279  1.00  0.00     0.007 C 
ENDBRANCH  17  18
BRANCH  17  20
ATOM     20  O   UNL     1      -1.820  -0.513   4.821  1.00  0.00    -0.373 OA
ATOM     21  H   UNL     1      -1.255  -0.045   5.491  1.00  0.00     0.213 HD
ENDBRANCH  17  20
BRANCH  17  22
ATOM     22  C   UNL     1      -3.016  -0.334   2.724  1.00  0.00     0.006 C 
ATOM     23  C   UNL     1      -4.365  -0.227   3.490  1.00  0.00     0.015 C 
ATOM     24  C   UNL     1      -3.168   0.421   1.383  1.00  0.00     0.015 C 
ATOM     25  C   UNL     1      -2.788  -1.832   2.400  1.00  0.00     0.015 C 
ENDBRANCH  17  22
ENDBRANCH   6  17
BRANCH   9  26
ATOM     26  N   UNL     1       1.199   2.510   0.402  1.00  0.00    -0.399 N 
ATOM     27  H   UNL     1       2.118   2.843   0.042  1.00  0.00     0.156 HD
ATOM     28  H   UNL     1       0.371   3.126   0.243  1.00  0.00     0.156 HD
ENDBRANCH   9  26
ENDBRANCH   4   5
ENDBRANCH   1   4
BRANCH   1  29
ATOM     29  C   UNL     1       1.695   0.284  -3.352  1.00  0.00     0.278 C 
BRANCH  29  30
ATOM     30  N   UNL     1       0.419   0.874  -2.894  1.00  0.00    -0.342 N 
ATOM     31  H   UNL     1       0.580   1.428  -2.025  1.00  0.00     0.346 HD
ATOM     32  H   UNL     1      -0.253   0.100  -2.700  1.00  0.00     0.346 HD
BRANCH  30  33
ATOM     33  C   UNL     1      -0.158   1.754  -3.933  1.00  0.00     0.300 C 
BRANCH  33  34
ATOM     34  C   UNL     1      -1.612   2.216  -3.617  1.00  0.00     0.128 C 
ATOM     35  C   UNL     1      -2.593   1.018  -3.650  1.00  0.00     0.053 C 
BRANCH  34  36
ATOM     36  O   UNL     1      -1.988   3.129  -4.628  1.00  0.00    -0.380 OA
ATOM     37  H   UNL     1      -2.901   3.461  -4.423  1.00  0.00     0.212 HD
ENDBRANCH  34  36
BRANCH  34  38
ATOM     38  C   UNL     1      -1.677   2.908  -2.259  1.00  0.00     0.005 C 
ATOM     39  C   UNL     1      -1.087   4.084  -2.033  1.00  0.00     0.007 C 
ENDBRANCH  34  38
ENDBRANCH  33  34
ENDBRANCH  30  33
ENDBRANCH  29  30
ENDBRANCH   1  29
TORSDOF 13


