REMARK SMILES Cc1nnn(Cc2nc3cc4ccccc4cc3[n-]2)c1-c1nnc([C@@H]2C[C@@H]2C)o1
REMARK SMILES IDX 1 1 2 2 3 3 4 4 5 5 20 6 21 7 22 8 29 9 23 10 24 11 25 12
REMARK SMILES IDX 26 13 27 14 28 15 6 16 7 17 8 18 19 19 9 20 18 21 10 22
REMARK SMILES IDX 17 23 11 24 16 25 12 26 15 27 13 28 14 29
REMARK H PARENT
ROOT
ATOM      1  C   UNL     1      -1.377  -4.033   4.275  1.00  0.00     0.071 C 
ATOM      2  C   UNL     1      -0.957  -2.602   4.174  1.00  0.00     0.093 A 
ATOM      3  N   UNL     1      -1.479  -1.610   4.921  1.00  0.00    -0.135 NA
ATOM      4  N   UNL     1      -0.873  -0.491   4.554  1.00  0.00    -0.066 NA
ATOM      5  N   UNL     1       0.024  -0.731   3.609  1.00  0.00    -0.236 N 
ATOM      6  C   UNL     1      -0.005  -2.054   3.332  1.00  0.00     0.149 A 
ENDROOT
BRANCH   6   7
ATOM      7  C   UNL     1       0.806  -2.759   2.317  1.00  0.00     0.267 A 
ATOM      8  N   UNL     1       0.646  -4.055   1.986  1.00  0.00    -0.106 NA
ATOM      9  O   UNL     1       1.774  -2.214   1.621  1.00  0.00    -0.419 OA
ATOM     10  N   UNL     1       1.544  -4.319   1.050  1.00  0.00    -0.112 NA
ATOM     11  C   UNL     1       2.216  -3.172   0.844  1.00  0.00     0.220 A 
BRANCH  11  12
ATOM     12  C   UNL     1       3.342  -3.029  -0.136  1.00  0.00     0.081 C 
ATOM     13  C   UNL     1       3.400  -1.687  -0.860  1.00  0.00     0.017 C 
ATOM     14  C   UNL     1       2.973  -2.937  -1.618  1.00  0.00    -0.001 C 
ATOM     15  C   UNL     1       1.491  -2.976  -2.011  1.00  0.00     0.008 C 
ENDBRANCH  11  12
ENDBRANCH   6   7
BRANCH   5  16
ATOM     16  C   UNL     1       0.785   0.326   2.947  1.00  0.00     0.173 C 
BRANCH  16  17
ATOM     17  C   UNL     1       0.099   0.730   1.681  1.00  0.00    -0.060 A 
ATOM     18  N   UNL     1      -0.878   1.674   1.647  1.00  0.00    -0.438 NA
ATOM     19  N   UNL     1       0.347   0.130   0.489  1.00  0.00    -0.438 NA
ATOM     20  C   UNL     1      -1.241   1.668   0.356  1.00  0.00    -0.038 A 
ATOM     21  C   UNL     1      -0.512   0.748  -0.333  1.00  0.00    -0.038 A 
ATOM     22  C   UNL     1      -2.217   2.449  -0.256  1.00  0.00     0.012 A 
ATOM     23  C   UNL     1      -0.693   0.526  -1.694  1.00  0.00     0.012 A 
ATOM     24  C   UNL     1      -2.439   2.261  -1.637  1.00  0.00    -0.018 A 
ATOM     25  C   UNL     1      -1.674   1.291  -2.360  1.00  0.00    -0.018 A 
ATOM     26  C   UNL     1      -3.410   3.016  -2.312  1.00  0.00     0.009 A 
ATOM     27  C   UNL     1      -1.908   1.109  -3.732  1.00  0.00     0.009 A 
ATOM     28  C   UNL     1      -3.627   2.820  -3.679  1.00  0.00     0.001 A 
ATOM     29  C   UNL     1      -2.881   1.871  -4.384  1.00  0.00     0.001 A 
ENDBRANCH  16  17
ENDBRANCH   5  16
TORSDOF 4


