MODEL 1
REMARK VINA RESULT:      -5.9      0.000      0.000
REMARK SMILES C#C[C@](O)(c1cc(N)cc(SC(C)(C)C[NH2+]C[C@](C)(O)C=C)ccc2cc1CC2)C(C)(C)C
REMARK SMILES IDX 12 1 13 2 14 3 11 4 10 5 5 6 6 7 27 8 7 9 26 10 28 11 9 12
REMARK SMILES IDX 25 13 29 14 24 15 23 16 3 17 2 18 1 19 4 20 30 22 31 23
REMARK SMILES IDX 32 24 33 25 8 26 15 29 16 30 17 33 18 34 19 35 20 36 21 38
REMARK SMILES IDX 22 39
REMARK H PARENT 4 21 8 27 8 28 16 31 16 32 20 37
ROOT
ATOM      1  C   UNL     1      42.797 132.788  15.529  1.00  0.00     0.064 C 
ATOM      2  C   UNL     1      42.627 131.843  16.738  1.00  0.00     0.029 C 
ATOM      3  C   UNL     1      42.557 131.985  14.236  1.00  0.00     0.029 C 
ENDROOT
BRANCH   1   4
ATOM      4  S   UNL     1      41.634 134.230  15.653  1.00  0.00    -0.114 SA
BRANCH   4   5
ATOM      5  C   UNL     1      42.390 135.219  16.969  1.00  0.00     0.010 A 
ATOM      6  C   UNL     1      42.488 134.626  21.154  1.00  0.00     0.002 A 
ATOM      7  C   UNL     1      41.444 134.107  20.311  1.00  0.00     0.033 A 
ATOM      8  C   UNL     1      43.660 135.246  20.635  1.00  0.00    -0.040 A 
ATOM      9  C   UNL     1      41.162 134.350  18.941  1.00  0.00     0.033 A 
ATOM     10  C   UNL     1      44.194 134.966  19.399  1.00  0.00     0.007 A 
ATOM     11  C   UNL     1      44.217 136.554  21.124  1.00  0.00     0.041 C 
ATOM     12  C   UNL     1      41.754 135.398  18.221  1.00  0.00     0.040 A 
ATOM     13  C   UNL     1      44.687 136.124  18.846  1.00  0.00    -0.047 A 
ATOM     14  C   UNL     1      44.966 137.123  19.914  1.00  0.00     0.040 C 
ATOM     15  C   UNL     1      44.487 136.517  17.509  1.00  0.00     0.005 A 
ATOM     16  C   UNL     1      43.523 135.988  16.622  1.00  0.00     0.015 A 
BRANCH   6  17
ATOM     17  C   UNL     1      42.402 134.345  22.682  1.00  0.00     0.155 C 
BRANCH  17  18
ATOM     18  C   UNL     1      40.977 134.213  23.101  1.00  0.00    -0.066 C 
ATOM     19  C   UNL     1      39.828 134.114  23.451  1.00  0.00     0.007 C 
ENDBRANCH  17  18
BRANCH  17  20
ATOM     20  O   UNL     1      42.945 135.424  23.414  1.00  0.00    -0.373 OA
ATOM     21  H   UNL     1      43.381 136.053  22.780  1.00  0.00     0.213 HD
ENDBRANCH  17  20
BRANCH  17  22
ATOM     22  C   UNL     1      43.211 133.037  23.083  1.00  0.00     0.006 C 
ATOM     23  C   UNL     1      44.680 133.146  22.599  1.00  0.00     0.015 C 
ATOM     24  C   UNL     1      42.595 131.781  22.415  1.00  0.00     0.015 C 
ATOM     25  C   UNL     1      43.235 132.800  24.613  1.00  0.00     0.015 C 
ENDBRANCH  17  22
ENDBRANCH   6  17
BRANCH   9  26
ATOM     26  N   UNL     1      40.148 133.557  18.316  1.00  0.00    -0.399 N 
ATOM     27  H   UNL     1      40.232 132.518  18.280  1.00  0.00     0.156 HD
ATOM     28  H   UNL     1      39.408 133.998  17.725  1.00  0.00     0.156 HD
ENDBRANCH   9  26
ENDBRANCH   4   5
ENDBRANCH   1   4
BRANCH   1  29
ATOM     29  C   UNL     1      44.257 133.337  15.574  1.00  0.00     0.278 C 
BRANCH  29  30
ATOM     30  N   UNL     1      45.237 132.397  16.161  1.00  0.00    -0.342 N 
ATOM     31  H   UNL     1      45.827 132.910  16.853  1.00  0.00     0.346 HD
ATOM     32  H   UNL     1      44.756 131.632  16.682  1.00  0.00     0.346 HD
BRANCH  30  33
ATOM     33  C   UNL     1      46.179 131.839  15.165  1.00  0.00     0.300 C 
BRANCH  33  34
ATOM     34  C   UNL     1      46.321 130.279  15.145  1.00  0.00     0.128 C 
ATOM     35  C   UNL     1      44.984 129.577  15.467  1.00  0.00     0.053 C 
BRANCH  34  36
ATOM     36  O   UNL     1      47.267 129.896  16.118  1.00  0.00    -0.380 OA
ATOM     37  H   UNL     1      46.959 130.228  17.006  1.00  0.00     0.212 HD
ENDBRANCH  34  36
BRANCH  34  38
ATOM     38  C   UNL     1      46.838 129.779  13.808  1.00  0.00     0.005 C 
ATOM     39  C   UNL     1      47.213 130.615  12.832  1.00  0.00     0.007 C 
ENDBRANCH  34  38
ENDBRANCH  33  34
ENDBRANCH  30  33
ENDBRANCH  29  30
ENDBRANCH   1  29
TORSDOF 13
ENDMDL
MODEL 2
REMARK VINA RESULT:      -5.8      3.749      7.577
REMARK SMILES C#C[C@](O)(c1cc(N)cc(SC(C)(C)C[NH2+]C[C@](C)(O)C=C)ccc2cc1CC2)C(C)(C)C
REMARK SMILES IDX 12 1 13 2 14 3 11 4 10 5 5 6 6 7 27 8 7 9 26 10 28 11 9 12
REMARK SMILES IDX 25 13 29 14 24 15 23 16 3 17 2 18 1 19 4 20 30 22 31 23
REMARK SMILES IDX 32 24 33 25 8 26 15 29 16 30 17 33 18 34 19 35 20 36 21 38
REMARK SMILES IDX 22 39
REMARK H PARENT 4 21 8 27 8 28 16 31 16 32 20 37
ROOT
ATOM      1  C   UNL     1      41.946 135.902  15.605  1.00  0.00     0.064 C 
ATOM      2  C   UNL     1      43.210 136.062  16.477  1.00  0.00     0.029 C 
ATOM      3  C   UNL     1      42.357 135.320  14.239  1.00  0.00     0.029 C 
ENDROOT
BRANCH   1   4
ATOM      4  S   UNL     1      40.696 134.818  16.450  1.00  0.00    -0.114 SA
BRANCH   4   5
ATOM      5  C   UNL     1      41.746 133.745  17.464  1.00  0.00     0.010 A 
ATOM      6  C   UNL     1      44.817 131.054  16.368  1.00  0.00     0.002 A 
ATOM      7  C   UNL     1      43.736 131.415  15.488  1.00  0.00     0.033 A 
ATOM      8  C   UNL     1      45.034 131.693  17.622  1.00  0.00    -0.040 A 
ATOM      9  C   UNL     1      42.549 132.150  15.744  1.00  0.00     0.033 A 
ATOM     10  C   UNL     1      44.652 132.983  17.904  1.00  0.00     0.007 A 
ATOM     11  C   UNL     1      45.289 130.965  18.913  1.00  0.00     0.041 C 
ATOM     12  C   UNL     1      42.104 132.443  17.041  1.00  0.00     0.040 A 
ATOM     13  C   UNL     1      44.216 133.053  19.206  1.00  0.00    -0.047 A 
ATOM     14  C   UNL     1      44.780 131.924  19.995  1.00  0.00     0.040 C 
ATOM     15  C   UNL     1      43.055 133.731  19.623  1.00  0.00     0.005 A 
ATOM     16  C   UNL     1      42.001 134.166  18.788  1.00  0.00     0.015 A 
BRANCH   6  17
ATOM     17  C   UNL     1      45.879 130.045  15.846  1.00  0.00     0.155 C 
BRANCH  17  18
ATOM     18  C   UNL     1      45.278 128.686  15.719  1.00  0.00    -0.066 C 
ATOM     19  C   UNL     1      44.802 127.584  15.608  1.00  0.00     0.007 C 
ENDBRANCH  17  18
BRANCH  17  20
ATOM     20  O   UNL     1      46.948 129.935  16.762  1.00  0.00    -0.373 OA
ATOM     21  H   UNL     1      47.564 130.703  16.629  1.00  0.00     0.213 HD
ENDBRANCH  17  20
BRANCH  17  22
ATOM     22  C   UNL     1      46.487 130.503  14.451  1.00  0.00     0.006 C 
ATOM     23  C   UNL     1      47.759 129.677  14.124  1.00  0.00     0.015 C 
ATOM     24  C   UNL     1      46.902 131.995  14.493  1.00  0.00     0.015 C 
ATOM     25  C   UNL     1      45.491 130.318  13.281  1.00  0.00     0.015 C 
ENDBRANCH  17  22
ENDBRANCH   6  17
BRANCH   9  26
ATOM     26  N   UNL     1      41.728 132.501  14.626  1.00  0.00    -0.399 N 
ATOM     27  H   UNL     1      40.872 131.949  14.399  1.00  0.00     0.156 HD
ATOM     28  H   UNL     1      42.058 133.186  13.909  1.00  0.00     0.156 HD
ENDBRANCH   9  26
ENDBRANCH   4   5
ENDBRANCH   1   4
BRANCH   1  29
ATOM     29  C   UNL     1      41.320 137.321  15.434  1.00  0.00     0.278 C 
BRANCH  29  30
ATOM     30  N   UNL     1      40.635 137.526  14.139  1.00  0.00    -0.342 N 
ATOM     31  H   UNL     1      40.102 138.423  14.175  1.00  0.00     0.346 HD
ATOM     32  H   UNL     1      41.325 137.614  13.361  1.00  0.00     0.346 HD
BRANCH  30  33
ATOM     33  C   UNL     1      39.635 136.477  13.836  1.00  0.00     0.300 C 
BRANCH  33  34
ATOM     34  C   UNL     1      38.523 136.861  12.800  1.00  0.00     0.128 C 
ATOM     35  C   UNL     1      37.196 136.122  13.082  1.00  0.00     0.053 C 
BRANCH  34  36
ATOM     36  O   UNL     1      38.963 136.502  11.509  1.00  0.00    -0.380 OA
ATOM     37  H   UNL     1      39.481 135.654  11.575  1.00  0.00     0.212 HD
ENDBRANCH  34  36
BRANCH  34  38
ATOM     38  C   UNL     1      38.268 138.356  12.779  1.00  0.00     0.005 C 
ATOM     39  C   UNL     1      38.376 139.083  11.660  1.00  0.00     0.007 C 
ENDBRANCH  34  38
ENDBRANCH  33  34
ENDBRANCH  30  33
ENDBRANCH  29  30
ENDBRANCH   1  29
TORSDOF 13
ENDMDL
MODEL 3
REMARK VINA RESULT:      -5.7      1.434      1.896
REMARK SMILES C#C[C@](O)(c1cc(N)cc(SC(C)(C)C[NH2+]C[C@](C)(O)C=C)ccc2cc1CC2)C(C)(C)C
REMARK SMILES IDX 12 1 13 2 14 3 11 4 10 5 5 6 6 7 27 8 7 9 26 10 28 11 9 12
REMARK SMILES IDX 25 13 29 14 24 15 23 16 3 17 2 18 1 19 4 20 30 22 31 23
REMARK SMILES IDX 32 24 33 25 8 26 15 29 16 30 17 33 18 34 19 35 20 36 21 38
REMARK SMILES IDX 22 39
REMARK H PARENT 4 21 8 27 8 28 16 31 16 32 20 37
ROOT
ATOM      1  C   UNL     1      42.472 133.797  15.366  1.00  0.00     0.064 C 
ATOM      2  C   UNL     1      41.863 133.191  14.084  1.00  0.00     0.029 C 
ATOM      3  C   UNL     1      43.457 134.913  14.967  1.00  0.00     0.029 C 
ENDROOT
BRANCH   1   4
ATOM      4  S   UNL     1      41.140 134.444  16.486  1.00  0.00    -0.114 SA
BRANCH   4   5
ATOM      5  C   UNL     1      42.100 135.202  17.823  1.00  0.00     0.010 A 
ATOM      6  C   UNL     1      43.953 133.475  21.208  1.00  0.00     0.002 A 
ATOM      7  C   UNL     1      42.813 132.890  20.553  1.00  0.00     0.033 A 
ATOM      8  C   UNL     1      44.654 134.597  20.680  1.00  0.00    -0.040 A 
ATOM      9  C   UNL     1      41.972 133.411  19.533  1.00  0.00     0.033 A 
ATOM     10  C   UNL     1      44.713 134.905  19.342  1.00  0.00     0.007 A 
ATOM     11  C   UNL     1      45.040 135.810  21.479  1.00  0.00     0.041 C 
ATOM     12  C   UNL     1      41.978 134.763  19.164  1.00  0.00     0.040 A 
ATOM     13  C   UNL     1      44.670 136.270  19.188  1.00  0.00    -0.047 A 
ATOM     14  C   UNL     1      45.105 136.939  20.445  1.00  0.00     0.040 C 
ATOM     15  C   UNL     1      43.881 136.942  18.236  1.00  0.00     0.005 A 
ATOM     16  C   UNL     1      42.798 136.391  17.516  1.00  0.00     0.015 A 
BRANCH   6  17
ATOM     17  C   UNL     1      44.536 132.744  22.452  1.00  0.00     0.155 C 
BRANCH  17  18
ATOM     18  C   UNL     1      43.689 133.013  23.650  1.00  0.00    -0.066 C 
ATOM     19  C   UNL     1      43.006 133.217  24.622  1.00  0.00     0.007 C 
ENDBRANCH  17  18
BRANCH  17  20
ATOM     20  O   UNL     1      45.829 133.228  22.748  1.00  0.00    -0.373 OA
ATOM     21  H   UNL     1      46.112 132.865  23.629  1.00  0.00     0.213 HD
ENDBRANCH  17  20
BRANCH  17  22
ATOM     22  C   UNL     1      44.653 131.178  22.209  1.00  0.00     0.006 C 
ATOM     23  C   UNL     1      45.433 130.896  20.898  1.00  0.00     0.015 C 
ATOM     24  C   UNL     1      43.250 130.536  22.059  1.00  0.00     0.015 C 
ATOM     25  C   UNL     1      45.389 130.452  23.361  1.00  0.00     0.015 C 
ENDBRANCH  17  22
ENDBRANCH   6  17
BRANCH   9  26
ATOM     26  N   UNL     1      41.007 132.529  18.950  1.00  0.00    -0.399 N 
ATOM     27  H   UNL     1      40.568 132.753  18.031  1.00  0.00     0.156 HD
ATOM     28  H   UNL     1      40.582 131.753  19.506  1.00  0.00     0.156 HD
ENDBRANCH   9  26
ENDBRANCH   4   5
ENDBRANCH   1   4
BRANCH   1  29
ATOM     29  C   UNL     1      43.216 132.646  16.113  1.00  0.00     0.278 C 
BRANCH  29  30
ATOM     30  N   UNL     1      44.616 132.452  15.679  1.00  0.00    -0.342 N 
ATOM     31  H   UNL     1      44.979 133.351  15.290  1.00  0.00     0.346 HD
ATOM     32  H   UNL     1      45.228 132.202  16.486  1.00  0.00     0.346 HD
BRANCH  30  33
ATOM     33  C   UNL     1      44.757 131.459  14.589  1.00  0.00     0.300 C 
BRANCH  33  34
ATOM     34  C   UNL     1      45.822 130.331  14.815  1.00  0.00     0.128 C 
ATOM     35  C   UNL     1      45.178 129.033  15.350  1.00  0.00     0.053 C 
BRANCH  34  36
ATOM     36  O   UNL     1      46.765 130.780  15.763  1.00  0.00    -0.380 OA
ATOM     37  H   UNL     1      46.697 130.205  16.573  1.00  0.00     0.212 HD
ENDBRANCH  34  36
BRANCH  34  38
ATOM     38  C   UNL     1      46.588 130.020  13.543  1.00  0.00     0.005 C 
ATOM     39  C   UNL     1      47.352 130.934  12.929  1.00  0.00     0.007 C 
ENDBRANCH  34  38
ENDBRANCH  33  34
ENDBRANCH  30  33
ENDBRANCH  29  30
ENDBRANCH   1  29
TORSDOF 13
ENDMDL
MODEL 4
REMARK VINA RESULT:      -5.6      3.152      4.966
REMARK SMILES C#C[C@](O)(c1cc(N)cc(SC(C)(C)C[NH2+]C[C@](C)(O)C=C)ccc2cc1CC2)C(C)(C)C
REMARK SMILES IDX 12 1 13 2 14 3 11 4 10 5 5 6 6 7 27 8 7 9 26 10 28 11 9 12
REMARK SMILES IDX 25 13 29 14 24 15 23 16 3 17 2 18 1 19 4 20 30 22 31 23
REMARK SMILES IDX 32 24 33 25 8 26 15 29 16 30 17 33 18 34 19 35 20 36 21 38
REMARK SMILES IDX 22 39
REMARK H PARENT 4 21 8 27 8 28 16 31 16 32 20 37
ROOT
ATOM      1  C   UNL     1      44.083 131.686  17.171  1.00  0.00     0.064 C 
ATOM      2  C   UNL     1      45.070 131.248  18.274  1.00  0.00     0.029 C 
ATOM      3  C   UNL     1      42.653 131.650  17.743  1.00  0.00     0.029 C 
ENDROOT
BRANCH   1   4
ATOM      4  S   UNL     1      44.512 133.379  16.538  1.00  0.00    -0.114 SA
BRANCH   4   5
ATOM      5  C   UNL     1      43.510 134.449  17.602  1.00  0.00     0.010 A 
ATOM      6  C   UNL     1      39.357 135.243  17.587  1.00  0.00     0.002 A 
ATOM      7  C   UNL     1      40.083 134.835  16.413  1.00  0.00     0.033 A 
ATOM      8  C   UNL     1      39.940 135.260  18.886  1.00  0.00    -0.040 A 
ATOM      9  C   UNL     1      41.480 134.698  16.199  1.00  0.00     0.033 A 
ATOM     10  C   UNL     1      40.975 134.443  19.275  1.00  0.00     0.007 A 
ATOM     11  C   UNL     1      39.836 136.410  19.849  1.00  0.00     0.041 C 
ATOM     12  C   UNL     1      42.437 135.214  17.084  1.00  0.00     0.040 A 
ATOM     13  C   UNL     1      41.817 135.142  20.106  1.00  0.00    -0.047 A 
ATOM     14  C   UNL     1      41.094 136.291  20.717  1.00  0.00     0.040 C 
ATOM     15  C   UNL     1      43.222 135.124  20.018  1.00  0.00     0.005 A 
ATOM     16  C   UNL     1      43.980 134.668  18.917  1.00  0.00     0.015 A 
BRANCH   6  17
ATOM     17  C   UNL     1      37.831 135.514  17.446  1.00  0.00     0.155 C 
BRANCH  17  18
ATOM     18  C   UNL     1      37.107 135.017  18.652  1.00  0.00    -0.066 C 
ATOM     19  C   UNL     1      36.510 134.618  19.620  1.00  0.00     0.007 C 
ENDBRANCH  17  18
BRANCH  17  20
ATOM     20  O   UNL     1      37.306 134.815  16.337  1.00  0.00    -0.373 OA
ATOM     21  H   UNL     1      38.041 134.309  15.901  1.00  0.00     0.213 HD
ENDBRANCH  17  20
BRANCH  17  22
ATOM     22  C   UNL     1      37.529 137.059  17.229  1.00  0.00     0.006 C 
ATOM     23  C   UNL     1      37.054 137.703  18.558  1.00  0.00     0.015 C 
ATOM     24  C   UNL     1      36.399 137.259  16.187  1.00  0.00     0.015 C 
ATOM     25  C   UNL     1      38.771 137.843  16.742  1.00  0.00     0.015 C 
ENDBRANCH  17  22
ENDBRANCH   6  17
BRANCH   9  26
ATOM     26  N   UNL     1      41.912 134.107  14.969  1.00  0.00    -0.399 N 
ATOM     27  H   UNL     1      41.251 134.002  14.168  1.00  0.00     0.156 HD
ATOM     28  H   UNL     1      42.824 133.602  14.905  1.00  0.00     0.156 HD
ENDBRANCH   9  26
ENDBRANCH   4   5
ENDBRANCH   1   4
BRANCH   1  29
ATOM     29  C   UNL     1      44.231 130.676  15.990  1.00  0.00     0.278 C 
BRANCH  29  30
ATOM     30  N   UNL     1      44.278 131.311  14.656  1.00  0.00    -0.342 N 
ATOM     31  H   UNL     1      43.349 131.200  14.194  1.00  0.00     0.346 HD
ATOM     32  H   UNL     1      44.457 132.336  14.735  1.00  0.00     0.346 HD
BRANCH  30  33
ATOM     33  C   UNL     1      45.258 130.679  13.743  1.00  0.00     0.300 C 
BRANCH  33  34
ATOM     34  C   UNL     1      46.763 130.776  14.168  1.00  0.00     0.128 C 
ATOM     35  C   UNL     1      47.062 129.925  15.422  1.00  0.00     0.053 C 
BRANCH  34  36
ATOM     36  O   UNL     1      47.064 132.122  14.466  1.00  0.00    -0.380 OA
ATOM     37  H   UNL     1      48.051 132.210  14.567  1.00  0.00     0.212 HD
ENDBRANCH  34  36
BRANCH  34  38
ATOM     38  C   UNL     1      47.692 130.354  13.045  1.00  0.00     0.005 C 
ATOM     39  C   UNL     1      47.338 130.441  11.757  1.00  0.00     0.007 C 
ENDBRANCH  34  38
ENDBRANCH  33  34
ENDBRANCH  30  33
ENDBRANCH  29  30
ENDBRANCH   1  29
TORSDOF 13
ENDMDL
MODEL 5
REMARK VINA RESULT:      -5.4      1.053      1.378
REMARK SMILES C#C[C@](O)(c1cc(N)cc(SC(C)(C)C[NH2+]C[C@](C)(O)C=C)ccc2cc1CC2)C(C)(C)C
REMARK SMILES IDX 12 1 13 2 14 3 11 4 10 5 5 6 6 7 27 8 7 9 26 10 28 11 9 12
REMARK SMILES IDX 25 13 29 14 24 15 23 16 3 17 2 18 1 19 4 20 30 22 31 23
REMARK SMILES IDX 32 24 33 25 8 26 15 29 16 30 17 33 18 34 19 35 20 36 21 38
REMARK SMILES IDX 22 39
REMARK H PARENT 4 21 8 27 8 28 16 31 16 32 20 37
ROOT
ATOM      1  C   UNL     1      42.897 133.016  15.875  1.00  0.00     0.064 C 
ATOM      2  C   UNL     1      42.863 131.933  16.975  1.00  0.00     0.029 C 
ATOM      3  C   UNL     1      42.516 132.367  14.530  1.00  0.00     0.029 C 
ENDROOT
BRANCH   1   4
ATOM      4  S   UNL     1      41.753 134.417  16.295  1.00  0.00    -0.114 SA
BRANCH   4   5
ATOM      5  C   UNL     1      42.560 135.147  17.743  1.00  0.00     0.010 A 
ATOM      6  C   UNL     1      43.044 133.662  21.672  1.00  0.00     0.002 A 
ATOM      7  C   UNL     1      41.964 133.263  20.808  1.00  0.00     0.033 A 
ATOM      8  C   UNL     1      44.131 134.467  21.224  1.00  0.00    -0.040 A 
ATOM      9  C   UNL     1      41.554 133.779  19.550  1.00  0.00     0.033 A 
ATOM     10  C   UNL     1      44.573 134.505  19.924  1.00  0.00     0.007 A 
ATOM     11  C   UNL     1      44.650 135.674  21.954  1.00  0.00     0.041 C 
ATOM     12  C   UNL     1      42.021 135.000  19.044  1.00  0.00     0.040 A 
ATOM     13  C   UNL     1      44.950 135.790  19.610  1.00  0.00    -0.047 A 
ATOM     14  C   UNL     1      45.260 136.548  20.853  1.00  0.00     0.040 C 
ATOM     15  C   UNL     1      44.616 136.450  18.413  1.00  0.00     0.005 A 
ATOM     16  C   UNL     1      43.613 136.057  17.499  1.00  0.00     0.015 A 
BRANCH   6  17
ATOM     17  C   UNL     1      43.104 133.048  23.100  1.00  0.00     0.155 C 
BRANCH  17  18
ATOM     18  C   UNL     1      41.764 133.128  23.750  1.00  0.00    -0.066 C 
ATOM     19  C   UNL     1      40.677 133.202  24.266  1.00  0.00     0.007 C 
ENDBRANCH  17  18
BRANCH  17  20
ATOM     20  O   UNL     1      43.997 133.778  23.915  1.00  0.00    -0.373 OA
ATOM     21  H   UNL     1      44.484 134.433  23.348  1.00  0.00     0.213 HD
ENDBRANCH  17  20
BRANCH  17  22
ATOM     22  C   UNL     1      43.604 131.540  23.069  1.00  0.00     0.006 C 
ATOM     23  C   UNL     1      42.471 130.612  22.556  1.00  0.00     0.015 C 
ATOM     24  C   UNL     1      43.991 131.057  24.489  1.00  0.00     0.015 C 
ATOM     25  C   UNL     1      44.831 131.341  22.146  1.00  0.00     0.015 C 
ENDBRANCH  17  22
ENDBRANCH   6  17
BRANCH   9  26
ATOM     26  N   UNL     1      40.538 133.068  18.836  1.00  0.00    -0.399 N 
ATOM     27  H   UNL     1      40.779 132.491  18.001  1.00  0.00     0.156 HD
ATOM     28  H   UNL     1      39.525 133.255  19.012  1.00  0.00     0.156 HD
ENDBRANCH   9  26
ENDBRANCH   4   5
ENDBRANCH   1   4
BRANCH   1  29
ATOM     29  C   UNL     1      44.353 133.577  15.824  1.00  0.00     0.278 C 
BRANCH  29  30
ATOM     30  N   UNL     1      45.401 132.552  16.021  1.00  0.00    -0.342 N 
ATOM     31  H   UNL     1      46.322 133.028  16.144  1.00  0.00     0.346 HD
ATOM     32  H   UNL     1      45.227 132.001  16.890  1.00  0.00     0.346 HD
BRANCH  30  33
ATOM     33  C   UNL     1      45.565 131.654  14.856  1.00  0.00     0.300 C 
BRANCH  33  34
ATOM     34  C   UNL     1      46.403 130.352  15.098  1.00  0.00     0.128 C 
ATOM     35  C   UNL     1      45.548 129.077  14.919  1.00  0.00     0.053 C 
BRANCH  34  36
ATOM     36  O   UNL     1      46.897 130.370  16.419  1.00  0.00    -0.380 OA
ATOM     37  H   UNL     1      47.824 130.733  16.404  1.00  0.00     0.212 HD
ENDBRANCH  34  36
BRANCH  34  38
ATOM     38  C   UNL     1      47.606 130.279  14.178  1.00  0.00     0.005 C 
ATOM     39  C   UNL     1      48.046 129.121  13.669  1.00  0.00     0.007 C 
ENDBRANCH  34  38
ENDBRANCH  33  34
ENDBRANCH  30  33
ENDBRANCH  29  30
ENDBRANCH   1  29
TORSDOF 13
ENDMDL
MODEL 6
REMARK VINA RESULT:      -5.4      4.147      6.948
REMARK SMILES C#C[C@](O)(c1cc(N)cc(SC(C)(C)C[NH2+]C[C@](C)(O)C=C)ccc2cc1CC2)C(C)(C)C
REMARK SMILES IDX 12 1 13 2 14 3 11 4 10 5 5 6 6 7 27 8 7 9 26 10 28 11 9 12
REMARK SMILES IDX 25 13 29 14 24 15 23 16 3 17 2 18 1 19 4 20 30 22 31 23
REMARK SMILES IDX 32 24 33 25 8 26 15 29 16 30 17 33 18 34 19 35 20 36 21 38
REMARK SMILES IDX 22 39
REMARK H PARENT 4 21 8 27 8 28 16 31 16 32 20 37
ROOT
ATOM      1  C   UNL     1      43.438 133.483  17.475  1.00  0.00     0.064 C 
ATOM      2  C   UNL     1      43.470 132.475  18.644  1.00  0.00     0.029 C 
ATOM      3  C   UNL     1      42.224 133.164  16.580  1.00  0.00     0.029 C 
ENDROOT
BRANCH   1   4
ATOM      4  S   UNL     1      43.366 135.227  18.110  1.00  0.00    -0.114 SA
BRANCH   4   5
ATOM      5  C   UNL     1      41.582 135.533  18.185  1.00  0.00     0.010 A 
ATOM      6  C   UNL     1      38.812 136.459  15.129  1.00  0.00     0.002 A 
ATOM      7  C   UNL     1      40.215 136.770  15.039  1.00  0.00     0.033 A 
ATOM      8  C   UNL     1      38.264 135.671  16.181  1.00  0.00    -0.040 A 
ATOM      9  C   UNL     1      41.238 136.692  16.021  1.00  0.00     0.033 A 
ATOM     10  C   UNL     1      38.969 134.715  16.872  1.00  0.00     0.007 A 
ATOM     11  C   UNL     1      37.038 136.042  16.969  1.00  0.00     0.041 C 
ATOM     12  C   UNL     1      40.966 136.526  17.386  1.00  0.00     0.040 A 
ATOM     13  C   UNL     1      38.586 134.736  18.193  1.00  0.00    -0.047 A 
ATOM     14  C   UNL     1      37.237 135.353  18.324  1.00  0.00     0.040 C 
ATOM     15  C   UNL     1      39.475 134.679  19.282  1.00  0.00     0.005 A 
ATOM     16  C   UNL     1      40.868 134.907  19.231  1.00  0.00     0.015 A 
BRANCH   6  17
ATOM     17  C   UNL     1      37.896 136.862  13.938  1.00  0.00     0.155 C 
BRANCH  17  18
ATOM     18  C   UNL     1      38.231 138.240  13.475  1.00  0.00    -0.066 C 
ATOM     19  C   UNL     1      38.501 139.349  13.088  1.00  0.00     0.007 C 
ENDBRANCH  17  18
BRANCH  17  20
ATOM     20  O   UNL     1      36.543 136.884  14.340  1.00  0.00    -0.373 OA
ATOM     21  H   UNL     1      36.446 137.513  15.104  1.00  0.00     0.213 HD
ENDBRANCH  17  20
BRANCH  17  22
ATOM     22  C   UNL     1      38.021 135.837  12.730  1.00  0.00     0.006 C 
ATOM     23  C   UNL     1      37.392 134.473  13.117  1.00  0.00     0.015 C 
ATOM     24  C   UNL     1      39.508 135.578  12.378  1.00  0.00     0.015 C 
ATOM     25  C   UNL     1      37.309 136.339  11.450  1.00  0.00     0.015 C 
ENDBRANCH  17  22
ENDBRANCH   6  17
BRANCH   9  26
ATOM     26  N   UNL     1      42.587 136.908  15.596  1.00  0.00    -0.399 N 
ATOM     27  H   UNL     1      43.375 136.852  16.277  1.00  0.00     0.156 HD
ATOM     28  H   UNL     1      42.798 137.308  14.654  1.00  0.00     0.156 HD
ENDBRANCH   9  26
ENDBRANCH   4   5
ENDBRANCH   1   4
BRANCH   1  29
ATOM     29  C   UNL     1      44.769 133.311  16.680  1.00  0.00     0.278 C 
BRANCH  29  30
ATOM     30  N   UNL     1      45.120 131.904  16.389  1.00  0.00    -0.342 N 
ATOM     31  H   UNL     1      45.681 131.523  17.183  1.00  0.00     0.346 HD
ATOM     32  H   UNL     1      44.264 131.313  16.312  1.00  0.00     0.346 HD
BRANCH  30  33
ATOM     33  C   UNL     1      45.972 131.751  15.187  1.00  0.00     0.300 C 
BRANCH  33  34
ATOM     34  C   UNL     1      45.711 130.478  14.312  1.00  0.00     0.128 C 
ATOM     35  C   UNL     1      44.493 130.661  13.380  1.00  0.00     0.053 C 
BRANCH  34  36
ATOM     36  O   UNL     1      45.454 129.385  15.166  1.00  0.00    -0.380 OA
ATOM     37  H   UNL     1      45.846 129.583  16.059  1.00  0.00     0.212 HD
ENDBRANCH  34  36
BRANCH  34  38
ATOM     38  C   UNL     1      46.925 130.111  13.479  1.00  0.00     0.005 C 
ATOM     39  C   UNL     1      48.094 129.770  14.035  1.00  0.00     0.007 C 
ENDBRANCH  34  38
ENDBRANCH  33  34
ENDBRANCH  30  33
ENDBRANCH  29  30
ENDBRANCH   1  29
TORSDOF 13
ENDMDL
MODEL 7
REMARK VINA RESULT:      -5.3      2.226      4.141
REMARK SMILES C#C[C@](O)(c1cc(N)cc(SC(C)(C)C[NH2+]C[C@](C)(O)C=C)ccc2cc1CC2)C(C)(C)C
REMARK SMILES IDX 12 1 13 2 14 3 11 4 10 5 5 6 6 7 27 8 7 9 26 10 28 11 9 12
REMARK SMILES IDX 25 13 29 14 24 15 23 16 3 17 2 18 1 19 4 20 30 22 31 23
REMARK SMILES IDX 32 24 33 25 8 26 15 29 16 30 17 33 18 34 19 35 20 36 21 38
REMARK SMILES IDX 22 39
REMARK H PARENT 4 21 8 27 8 28 16 31 16 32 20 37
ROOT
ATOM      1  C   UNL     1      44.850 131.630  16.129  1.00  0.00     0.064 C 
ATOM      2  C   UNL     1      44.997 130.093  16.174  1.00  0.00     0.029 C 
ATOM      3  C   UNL     1      46.009 132.213  15.298  1.00  0.00     0.029 C 
ENDROOT
BRANCH   1   4
ATOM      4  S   UNL     1      43.203 132.114  15.420  1.00  0.00    -0.114 SA
BRANCH   4   5
ATOM      5  C   UNL     1      42.921 133.733  16.182  1.00  0.00     0.010 A 
ATOM      6  C   UNL     1      41.699 134.765  20.096  1.00  0.00     0.002 A 
ATOM      7  C   UNL     1      41.369 133.509  19.475  1.00  0.00     0.033 A 
ATOM      8  C   UNL     1      42.598 135.701  19.509  1.00  0.00    -0.040 A 
ATOM      9  C   UNL     1      41.542 133.073  18.134  1.00  0.00     0.033 A 
ATOM     10  C   UNL     1      43.616 135.356  18.653  1.00  0.00     0.007 A 
ATOM     11  C   UNL     1      42.322 137.173  19.374  1.00  0.00     0.041 C 
ATOM     12  C   UNL     1      41.854 133.951  17.087  1.00  0.00     0.040 A 
ATOM     13  C   UNL     1      43.738 136.321  17.681  1.00  0.00    -0.047 A 
ATOM     14  C   UNL     1      43.149 137.603  18.158  1.00  0.00     0.040 C 
ATOM     15  C   UNL     1      43.903 136.055  16.309  1.00  0.00     0.005 A 
ATOM     16  C   UNL     1      43.660 134.821  15.666  1.00  0.00     0.015 A 
BRANCH   6  17
ATOM     17  C   UNL     1      41.180 135.026  21.539  1.00  0.00     0.155 C 
BRANCH  17  18
ATOM     18  C   UNL     1      42.210 135.759  22.331  1.00  0.00    -0.066 C 
ATOM     19  C   UNL     1      43.047 136.356  22.960  1.00  0.00     0.007 C 
ENDBRANCH  17  18
BRANCH  17  20
ATOM     20  O   UNL     1      40.942 133.806  22.207  1.00  0.00    -0.373 OA
ATOM     21  H   UNL     1      41.804 133.320  22.303  1.00  0.00     0.213 HD
ENDBRANCH  17  20
BRANCH  17  22
ATOM     22  C   UNL     1      39.817 135.844  21.531  1.00  0.00     0.006 C 
ATOM     23  C   UNL     1      40.085 137.333  21.874  1.00  0.00     0.015 C 
ATOM     24  C   UNL     1      38.836 135.293  22.596  1.00  0.00     0.015 C 
ATOM     25  C   UNL     1      39.105 135.797  20.157  1.00  0.00     0.015 C 
ENDBRANCH  17  22
ENDBRANCH   6  17
BRANCH   9  26
ATOM     26  N   UNL     1      41.272 131.699  17.840  1.00  0.00    -0.399 N 
ATOM     27  H   UNL     1      40.679 131.436  17.023  1.00  0.00     0.156 HD
ATOM     28  H   UNL     1      41.496 130.946  18.529  1.00  0.00     0.156 HD
ENDBRANCH   9  26
ENDBRANCH   4   5
ENDBRANCH   1   4
BRANCH   1  29
ATOM     29  C   UNL     1      44.914 132.143  17.602  1.00  0.00     0.278 C 
BRANCH  29  30
ATOM     30  N   UNL     1      44.663 131.097  18.616  1.00  0.00    -0.342 N 
ATOM     31  H   UNL     1      43.662 131.141  18.909  1.00  0.00     0.346 HD
ATOM     32  H   UNL     1      44.821 130.145  18.219  1.00  0.00     0.346 HD
BRANCH  30  33
ATOM     33  C   UNL     1      45.453 131.284  19.855  1.00  0.00     0.300 C 
BRANCH  33  34
ATOM     34  C   UNL     1      44.636 131.596  21.155  1.00  0.00     0.128 C 
ATOM     35  C   UNL     1      45.175 130.814  22.374  1.00  0.00     0.053 C 
BRANCH  34  36
ATOM     36  O   UNL     1      43.292 131.221  20.948  1.00  0.00    -0.380 OA
ATOM     37  H   UNL     1      43.270 130.482  20.281  1.00  0.00     0.212 HD
ENDBRANCH  34  36
BRANCH  34  38
ATOM     38  C   UNL     1      44.635 133.079  21.474  1.00  0.00     0.005 C 
ATOM     39  C   UNL     1      45.688 133.865  21.216  1.00  0.00     0.007 C 
ENDBRANCH  34  38
ENDBRANCH  33  34
ENDBRANCH  30  33
ENDBRANCH  29  30
ENDBRANCH   1  29
TORSDOF 13
ENDMDL
MODEL 8
REMARK VINA RESULT:      -5.3      1.620      2.439
REMARK SMILES C#C[C@](O)(c1cc(N)cc(SC(C)(C)C[NH2+]C[C@](C)(O)C=C)ccc2cc1CC2)C(C)(C)C
REMARK SMILES IDX 12 1 13 2 14 3 11 4 10 5 5 6 6 7 27 8 7 9 26 10 28 11 9 12
REMARK SMILES IDX 25 13 29 14 24 15 23 16 3 17 2 18 1 19 4 20 30 22 31 23
REMARK SMILES IDX 32 24 33 25 8 26 15 29 16 30 17 33 18 34 19 35 20 36 21 38
REMARK SMILES IDX 22 39
REMARK H PARENT 4 21 8 27 8 28 16 31 16 32 20 37
ROOT
ATOM      1  C   UNL     1      42.208 134.496  15.431  1.00  0.00     0.064 C 
ATOM      2  C   UNL     1      41.349 133.853  14.320  1.00  0.00     0.029 C 
ATOM      3  C   UNL     1      43.329 135.324  14.773  1.00  0.00     0.029 C 
ENDROOT
BRANCH   1   4
ATOM      4  S   UNL     1      41.160 135.549  16.547  1.00  0.00    -0.114 SA
BRANCH   4   5
ATOM      5  C   UNL     1      42.192 135.675  18.031  1.00  0.00     0.010 A 
ATOM      6  C   UNL     1      42.833 132.936  21.186  1.00  0.00     0.002 A 
ATOM      7  C   UNL     1      41.631 132.954  20.394  1.00  0.00     0.033 A 
ATOM      8  C   UNL     1      43.973 133.730  20.876  1.00  0.00    -0.040 A 
ATOM      9  C   UNL     1      41.181 133.895  19.430  1.00  0.00     0.033 A 
ATOM     10  C   UNL     1      44.293 134.151  19.607  1.00  0.00     0.007 A 
ATOM     11  C   UNL     1      44.721 134.570  21.873  1.00  0.00     0.041 C 
ATOM     12  C   UNL     1      41.763 135.161  19.278  1.00  0.00     0.040 A 
ATOM     13  C   UNL     1      44.813 135.422  19.668  1.00  0.00    -0.047 A 
ATOM     14  C   UNL     1      45.340 135.693  21.034  1.00  0.00     0.040 C 
ATOM     15  C   UNL     1      44.462 136.470  18.797  1.00  0.00     0.005 A 
ATOM     16  C   UNL     1      43.334 136.504  17.948  1.00  0.00     0.015 A 
BRANCH   6  17
ATOM     17  C   UNL     1      42.940 131.882  22.326  1.00  0.00     0.155 C 
BRANCH  17  18
ATOM     18  C   UNL     1      44.341 131.380  22.432  1.00  0.00    -0.066 C 
ATOM     19  C   UNL     1      45.474 130.974  22.503  1.00  0.00     0.007 C 
ENDBRANCH  17  18
BRANCH  17  20
ATOM     20  O   UNL     1      42.126 130.764  22.045  1.00  0.00    -0.373 OA
ATOM     21  H   UNL     1      41.179 131.003  22.231  1.00  0.00     0.213 HD
ENDBRANCH  17  20
BRANCH  17  22
ATOM     22  C   UNL     1      42.471 132.480  23.722  1.00  0.00     0.006 C 
ATOM     23  C   UNL     1      41.589 133.737  23.496  1.00  0.00     0.015 C 
ATOM     24  C   UNL     1      43.689 132.917  24.574  1.00  0.00     0.015 C 
ATOM     25  C   UNL     1      41.645 131.468  24.553  1.00  0.00     0.015 C 
ENDBRANCH  17  22
ENDBRANCH   6  17
BRANCH   9  26
ATOM     26  N   UNL     1      40.014 133.565  18.670  1.00  0.00    -0.399 N 
ATOM     27  H   UNL     1      39.930 133.853  17.671  1.00  0.00     0.156 HD
ATOM     28  H   UNL     1      39.153 133.202  19.137  1.00  0.00     0.156 HD
ENDBRANCH   9  26
ENDBRANCH   4   5
ENDBRANCH   1   4
BRANCH   1  29
ATOM     29  C   UNL     1      42.807 133.334  16.282  1.00  0.00     0.278 C 
BRANCH  29  30
ATOM     30  N   UNL     1      44.186 132.958  15.903  1.00  0.00    -0.342 N 
ATOM     31  H   UNL     1      44.238 132.860  14.865  1.00  0.00     0.346 HD
ATOM     32  H   UNL     1      44.864 133.704  16.171  1.00  0.00     0.346 HD
BRANCH  30  33
ATOM     33  C   UNL     1      44.605 131.647  16.451  1.00  0.00     0.300 C 
BRANCH  33  34
ATOM     34  C   UNL     1      45.437 130.730  15.490  1.00  0.00     0.128 C 
ATOM     35  C   UNL     1      45.176 129.232  15.759  1.00  0.00     0.053 C 
BRANCH  34  36
ATOM     36  O   UNL     1      46.809 130.984  15.696  1.00  0.00    -0.380 OA
ATOM     37  H   UNL     1      46.933 131.315  16.627  1.00  0.00     0.212 HD
ENDBRANCH  34  36
BRANCH  34  38
ATOM     38  C   UNL     1      45.146 131.034  14.033  1.00  0.00     0.005 C 
ATOM     39  C   UNL     1      43.999 130.673  13.444  1.00  0.00     0.007 C 
ENDBRANCH  34  38
ENDBRANCH  33  34
ENDBRANCH  30  33
ENDBRANCH  29  30
ENDBRANCH   1  29
TORSDOF 13
ENDMDL
MODEL 9
REMARK VINA RESULT:      -5.2      3.122      7.162
REMARK SMILES C#C[C@](O)(c1cc(N)cc(SC(C)(C)C[NH2+]C[C@](C)(O)C=C)ccc2cc1CC2)C(C)(C)C
REMARK SMILES IDX 12 1 13 2 14 3 11 4 10 5 5 6 6 7 27 8 7 9 26 10 28 11 9 12
REMARK SMILES IDX 25 13 29 14 24 15 23 16 3 17 2 18 1 19 4 20 30 22 31 23
REMARK SMILES IDX 32 24 33 25 8 26 15 29 16 30 17 33 18 34 19 35 20 36 21 38
REMARK SMILES IDX 22 39
REMARK H PARENT 4 21 8 27 8 28 16 31 16 32 20 37
ROOT
ATOM      1  C   UNL     1      44.186 134.126  23.276  1.00  0.00     0.064 C 
ATOM      2  C   UNL     1      43.521 135.167  24.203  1.00  0.00     0.029 C 
ATOM      3  C   UNL     1      45.624 133.872  23.768  1.00  0.00     0.029 C 
ENDROOT
BRANCH   1   4
ATOM      4  S   UNL     1      43.199 132.553  23.238  1.00  0.00    -0.114 SA
BRANCH   4   5
ATOM      5  C   UNL     1      43.565 131.913  21.583  1.00  0.00     0.010 A 
ATOM      6  C   UNL     1      42.264 133.208  17.775  1.00  0.00     0.002 A 
ATOM      7  C   UNL     1      41.510 133.430  18.981  1.00  0.00     0.033 A 
ATOM      8  C   UNL     1      43.585 132.677  17.780  1.00  0.00    -0.040 A 
ATOM      9  C   UNL     1      41.705 132.923  20.293  1.00  0.00     0.033 A 
ATOM     10  C   UNL     1      44.465 132.815  18.827  1.00  0.00     0.007 A 
ATOM     11  C   UNL     1      44.054 131.558  16.891  1.00  0.00     0.041 C 
ATOM     12  C   UNL     1      42.575 131.861  20.573  1.00  0.00     0.040 A 
ATOM     13  C   UNL     1      45.198 131.659  18.960  1.00  0.00    -0.047 A 
ATOM     14  C   UNL     1      45.194 130.902  17.677  1.00  0.00     0.040 C 
ATOM     15  C   UNL     1      45.470 131.024  20.185  1.00  0.00     0.005 A 
ATOM     16  C   UNL     1      44.806 131.259  21.410  1.00  0.00     0.015 A 
BRANCH   6  17
ATOM     17  C   UNL     1      41.669 133.727  16.434  1.00  0.00     0.155 C 
BRANCH  17  18
ATOM     18  C   UNL     1      40.207 133.979  16.584  1.00  0.00    -0.066 C 
ATOM     19  C   UNL     1      39.027 134.187  16.717  1.00  0.00     0.007 C 
ENDBRANCH  17  18
BRANCH  17  20
ATOM     20  O   UNL     1      41.815 132.755  15.420  1.00  0.00    -0.373 OA
ATOM     21  H   UNL     1      41.419 133.108  14.580  1.00  0.00     0.213 HD
ENDBRANCH  17  20
BRANCH  17  22
ATOM     22  C   UNL     1      42.401 135.049  15.942  1.00  0.00     0.006 C 
ATOM     23  C   UNL     1      42.231 136.177  16.993  1.00  0.00     0.015 C 
ATOM     24  C   UNL     1      41.787 135.558  14.613  1.00  0.00     0.015 C 
ATOM     25  C   UNL     1      43.918 134.839  15.717  1.00  0.00     0.015 C 
ENDBRANCH  17  22
ENDBRANCH   6  17
BRANCH   9  26
ATOM     26  N   UNL     1      40.887 133.454  21.341  1.00  0.00    -0.399 N 
ATOM     27  H   UNL     1      40.700 132.898  22.203  1.00  0.00     0.156 HD
ATOM     28  H   UNL     1      40.312 134.314  21.192  1.00  0.00     0.156 HD
ENDBRANCH   9  26
ENDBRANCH   4   5
ENDBRANCH   1   4
BRANCH   1  29
ATOM     29  C   UNL     1      44.193 134.729  21.837  1.00  0.00     0.278 C 
BRANCH  29  30
ATOM     30  N   UNL     1      45.339 135.622  21.563  1.00  0.00    -0.342 N 
ATOM     31  H   UNL     1      45.330 136.408  22.252  1.00  0.00     0.346 HD
ATOM     32  H   UNL     1      46.245 135.120  21.690  1.00  0.00     0.346 HD
BRANCH  30  33
ATOM     33  C   UNL     1      45.277 136.259  20.228  1.00  0.00     0.300 C 
BRANCH  33  34
ATOM     34  C   UNL     1      45.403 137.821  20.199  1.00  0.00     0.128 C 
ATOM     35  C   UNL     1      45.883 138.383  21.556  1.00  0.00     0.053 C 
BRANCH  34  36
ATOM     36  O   UNL     1      44.136 138.373  19.916  1.00  0.00    -0.380 OA
ATOM     37  H   UNL     1      43.939 138.234  18.950  1.00  0.00     0.212 HD
ENDBRANCH  34  36
BRANCH  34  38
ATOM     38  C   UNL     1      46.342 138.289  19.104  1.00  0.00     0.005 C 
ATOM     39  C   UNL     1      46.396 139.567  18.709  1.00  0.00     0.007 C 
ENDBRANCH  34  38
ENDBRANCH  33  34
ENDBRANCH  30  33
ENDBRANCH  29  30
ENDBRANCH   1  29
TORSDOF 13
ENDMDL


