MODEL 1
REMARK VINA RESULT:      -8.2      0.000      0.000
REMARK SMILES CC/C=C(\[O-])OC1=NC(=O)c2ccc(-n3cc(CCc4ccc(F)cc4C)nn3)c3cccc1c23
REMARK SMILES IDX 7 1 8 2 9 3 10 4 11 5 12 6 13 7 14 8 30 9 31 10 32 11 33 12
REMARK SMILES IDX 34 13 35 14 6 15 4 16 5 17 3 18 2 19 1 20 15 21 29 22 16 23
REMARK SMILES IDX 28 24 17 25 18 26 19 27 20 28 21 29 26 30 22 31 25 32 23 33
REMARK SMILES IDX 27 34 24 35
REMARK H PARENT
ROOT
ATOM      1  C   UNL     1      45.435 131.036  17.096  1.00  0.00     0.116 C 
ATOM      2  N   UNL     1      45.862 130.697  18.279  1.00  0.00    -0.201 NA
ATOM      3  C   UNL     1      45.221 131.137  19.481  1.00  0.00     0.278 C 
ATOM      4  O   UNL     1      45.682 130.781  20.599  1.00  0.00    -0.267 OA
ATOM      5  C   UNL     1      44.028 132.002  19.388  1.00  0.00     0.050 A 
ATOM      6  C   UNL     1      43.370 132.468  20.533  1.00  0.00     0.017 A 
ATOM      7  C   UNL     1      42.237 133.273  20.414  1.00  0.00     0.030 A 
ATOM      8  C   UNL     1      41.732 133.623  19.155  1.00  0.00     0.074 A 
ATOM      9  C   UNL     1      42.413 133.195  17.986  1.00  0.00     0.009 A 
ATOM     10  C   UNL     1      42.005 133.597  16.700  1.00  0.00     0.011 A 
ATOM     11  C   UNL     1      42.683 133.148  15.566  1.00  0.00     0.001 A 
ATOM     12  C   UNL     1      43.787 132.306  15.690  1.00  0.00     0.012 A 
ATOM     13  C   UNL     1      44.240 131.914  16.958  1.00  0.00     0.017 A 
ATOM     14  C   UNL     1      43.560 132.366  18.112  1.00  0.00     0.007 A 
ENDROOT
BRANCH   1  15
ATOM     15  O   UNL     1      46.091 130.588  15.940  1.00  0.00    -0.564 OA
BRANCH  15  16
ATOM     16  C   UNL     1      45.578 129.670  15.014  1.00  0.00     0.053 C 
ATOM     17  O   UNL     1      44.999 128.473  15.431  1.00  0.00    -0.547 OA
BRANCH  16  18
ATOM     18  C   UNL     1      45.650 129.960  13.713  1.00  0.00    -0.003 C 
BRANCH  18  19
ATOM     19  C   UNL     1      46.825 130.692  13.127  1.00  0.00     0.026 C 
ATOM     20  C   UNL     1      48.015 129.759  12.925  1.00  0.00     0.008 C 
ENDBRANCH  18  19
ENDBRANCH  16  18
ENDBRANCH  15  16
ENDBRANCH   1  15
BRANCH   8  21
ATOM     21  N   UNL     1      40.519 134.389  19.093  1.00  0.00    -0.220 N 
ATOM     22  N   UNL     1      39.460 134.173  19.858  1.00  0.00    -0.062 NA
ATOM     23  C   UNL     1      40.212 135.346  18.200  1.00  0.00     0.140 A 
ATOM     24  N   UNL     1      38.469 134.984  19.513  1.00  0.00    -0.135 NA
ATOM     25  C   UNL     1      38.915 135.720  18.475  1.00  0.00     0.083 A 
BRANCH  25  26
ATOM     26  C   UNL     1      38.132 136.801  17.797  1.00  0.00     0.065 C 
BRANCH  26  27
ATOM     27  C   UNL     1      38.788 137.244  16.482  1.00  0.00     0.042 C 
BRANCH  27  28
ATOM     28  C   UNL     1      38.495 136.286  15.343  1.00  0.00    -0.044 A 
ATOM     29  C   UNL     1      37.179 135.814  15.193  1.00  0.00     0.007 A 
ATOM     30  C   UNL     1      39.498 135.831  14.444  1.00  0.00    -0.045 A 
ATOM     31  C   UNL     1      36.855 134.911  14.180  1.00  0.00     0.039 A 
ATOM     32  C   UNL     1      39.149 134.932  13.421  1.00  0.00     0.043 A 
ATOM     33  C   UNL     1      37.838 134.470  13.295  1.00  0.00     0.123 A 
ATOM     34  C   UNL     1      40.927 136.297  14.544  1.00  0.00     0.045 C 
ATOM     35  F   UNL     1      37.520 133.593  12.312  1.00  0.00    -0.207 F 
ENDBRANCH  27  28
ENDBRANCH  26  27
ENDBRANCH  25  26
ENDBRANCH   8  21
TORSDOF 8
ENDMDL
MODEL 2
REMARK VINA RESULT:      -7.8      4.328      6.490
REMARK SMILES CC/C=C(\[O-])OC1=NC(=O)c2ccc(-n3cc(CCc4ccc(F)cc4C)nn3)c3cccc1c23
REMARK SMILES IDX 7 1 8 2 9 3 10 4 11 5 12 6 13 7 14 8 30 9 31 10 32 11 33 12
REMARK SMILES IDX 34 13 35 14 6 15 4 16 5 17 3 18 2 19 1 20 15 21 29 22 16 23
REMARK SMILES IDX 28 24 17 25 18 26 19 27 20 28 21 29 26 30 22 31 25 32 23 33
REMARK SMILES IDX 27 34 24 35
REMARK H PARENT
ROOT
ATOM      1  C   UNL     1      43.845 131.538  15.895  1.00  0.00     0.116 C 
ATOM      2  N   UNL     1      43.043 131.787  14.898  1.00  0.00    -0.201 NA
ATOM      3  C   UNL     1      42.112 132.874  14.917  1.00  0.00     0.278 C 
ATOM      4  O   UNL     1      41.356 133.064  13.926  1.00  0.00    -0.267 OA
ATOM      5  C   UNL     1      42.053 133.755  16.100  1.00  0.00     0.050 A 
ATOM      6  C   UNL     1      41.153 134.826  16.173  1.00  0.00     0.017 A 
ATOM      7  C   UNL     1      41.131 135.649  17.299  1.00  0.00     0.030 A 
ATOM      8  C   UNL     1      42.007 135.428  18.371  1.00  0.00     0.074 A 
ATOM      9  C   UNL     1      42.894 134.322  18.330  1.00  0.00     0.009 A 
ATOM     10  C   UNL     1      43.727 133.997  19.418  1.00  0.00     0.011 A 
ATOM     11  C   UNL     1      44.601 132.913  19.346  1.00  0.00     0.001 A 
ATOM     12  C   UNL     1      44.652 132.121  18.199  1.00  0.00     0.012 A 
ATOM     13  C   UNL     1      43.812 132.396  17.111  1.00  0.00     0.017 A 
ATOM     14  C   UNL     1      42.921 133.493  17.177  1.00  0.00     0.007 A 
ENDROOT
BRANCH   1  15
ATOM     15  O   UNL     1      44.742 130.461  15.842  1.00  0.00    -0.564 OA
BRANCH  15  16
ATOM     16  C   UNL     1      46.088 130.537  15.459  1.00  0.00     0.053 C 
ATOM     17  O   UNL     1      47.092 129.966  16.239  1.00  0.00    -0.547 OA
BRANCH  16  18
ATOM     18  C   UNL     1      46.399 131.168  14.325  1.00  0.00    -0.003 C 
BRANCH  18  19
ATOM     19  C   UNL     1      46.096 130.572  12.977  1.00  0.00     0.026 C 
ATOM     20  C   UNL     1      47.353 130.477  12.118  1.00  0.00     0.008 C 
ENDBRANCH  18  19
ENDBRANCH  16  18
ENDBRANCH  15  16
ENDBRANCH   1  15
BRANCH   8  21
ATOM     21  N   UNL     1      41.991 136.353  19.468  1.00  0.00    -0.220 N 
ATOM     22  N   UNL     1      41.025 136.425  20.370  1.00  0.00    -0.062 NA
ATOM     23  C   UNL     1      42.861 137.353  19.696  1.00  0.00     0.140 A 
ATOM     24  N   UNL     1      41.248 137.429  21.208  1.00  0.00    -0.135 NA
ATOM     25  C   UNL     1      42.387 138.025  20.800  1.00  0.00     0.083 A 
BRANCH  25  26
ATOM     26  C   UNL     1      43.037 139.184  21.491  1.00  0.00     0.065 C 
BRANCH  26  27
ATOM     27  C   UNL     1      44.030 138.724  22.569  1.00  0.00     0.042 C 
BRANCH  27  28
ATOM     28  C   UNL     1      45.293 138.136  21.971  1.00  0.00    -0.044 A 
ATOM     29  C   UNL     1      46.190 139.006  21.324  1.00  0.00     0.007 A 
ATOM     30  C   UNL     1      45.592 136.747  22.019  1.00  0.00    -0.045 A 
ATOM     31  C   UNL     1      47.356 138.519  20.732  1.00  0.00     0.039 A 
ATOM     32  C   UNL     1      46.780 136.279  21.429  1.00  0.00     0.043 A 
ATOM     33  C   UNL     1      47.652 137.158  20.785  1.00  0.00     0.123 A 
ATOM     34  C   UNL     1      44.681 135.760  22.697  1.00  0.00     0.045 C 
ATOM     35  F   UNL     1      48.786 136.688  20.210  1.00  0.00    -0.207 F 
ENDBRANCH  27  28
ENDBRANCH  26  27
ENDBRANCH  25  26
ENDBRANCH   8  21
TORSDOF 8
ENDMDL
MODEL 3
REMARK VINA RESULT:      -7.4      1.076      1.169
REMARK SMILES CC/C=C(\[O-])OC1=NC(=O)c2ccc(-n3cc(CCc4ccc(F)cc4C)nn3)c3cccc1c23
REMARK SMILES IDX 7 1 8 2 9 3 10 4 11 5 12 6 13 7 14 8 30 9 31 10 32 11 33 12
REMARK SMILES IDX 34 13 35 14 6 15 4 16 5 17 3 18 2 19 1 20 15 21 29 22 16 23
REMARK SMILES IDX 28 24 17 25 18 26 19 27 20 28 21 29 26 30 22 31 25 32 23 33
REMARK SMILES IDX 27 34 24 35
REMARK H PARENT
ROOT
ATOM      1  C   UNL     1      45.577 130.740  18.213  1.00  0.00     0.116 C 
ATOM      2  N   UNL     1      45.705 130.656  19.507  1.00  0.00    -0.201 NA
ATOM      3  C   UNL     1      44.748 131.218  20.411  1.00  0.00     0.278 C 
ATOM      4  O   UNL     1      44.927 131.111  21.654  1.00  0.00    -0.267 OA
ATOM      5  C   UNL     1      43.565 131.915  19.869  1.00  0.00     0.050 A 
ATOM      6  C   UNL     1      42.604 132.491  20.709  1.00  0.00     0.017 A 
ATOM      7  C   UNL     1      41.490 133.131  20.168  1.00  0.00     0.030 A 
ATOM      8  C   UNL     1      41.305 133.204  18.780  1.00  0.00     0.074 A 
ATOM      9  C   UNL     1      42.291 132.664  17.915  1.00  0.00     0.009 A 
ATOM     10  C   UNL     1      42.204 132.794  16.516  1.00  0.00     0.011 A 
ATOM     11  C   UNL     1      43.180 132.240  15.688  1.00  0.00     0.001 A 
ATOM     12  C   UNL     1      44.268 131.561  16.234  1.00  0.00     0.012 A 
ATOM     13  C   UNL     1      44.403 131.442  17.625  1.00  0.00     0.017 A 
ATOM     14  C   UNL     1      43.419 132.004  18.472  1.00  0.00     0.007 A 
ENDROOT
BRANCH   1  15
ATOM     15  O   UNL     1      46.537 130.180  17.359  1.00  0.00    -0.564 OA
BRANCH  15  16
ATOM     16  C   UNL     1      46.300 129.711  16.060  1.00  0.00     0.053 C 
ATOM     17  O   UNL     1      45.387 128.686  15.820  1.00  0.00    -0.547 OA
BRANCH  16  18
ATOM     18  C   UNL     1      46.965 130.265  15.044  1.00  0.00    -0.003 C 
BRANCH  18  19
ATOM     19  C   UNL     1      46.795 129.786  13.629  1.00  0.00     0.026 C 
ATOM     20  C   UNL     1      45.783 130.641  12.871  1.00  0.00     0.008 C 
ENDBRANCH  18  19
ENDBRANCH  16  18
ENDBRANCH  15  16
ENDBRANCH   1  15
BRANCH   8  21
ATOM     21  N   UNL     1      40.101 133.808  18.282  1.00  0.00    -0.220 N 
ATOM     22  N   UNL     1      39.093 133.134  17.751  1.00  0.00    -0.062 NA
ATOM     23  C   UNL     1      39.847 135.123  18.159  1.00  0.00     0.140 A 
ATOM     24  N   UNL     1      38.163 133.969  17.307  1.00  0.00    -0.135 NA
ATOM     25  C   UNL     1      38.617 135.216  17.546  1.00  0.00     0.083 A 
BRANCH  25  26
ATOM     26  C   UNL     1      37.861 136.472  17.243  1.00  0.00     0.065 C 
BRANCH  26  27
ATOM     27  C   UNL     1      38.312 137.107  15.919  1.00  0.00     0.042 C 
BRANCH  27  28
ATOM     28  C   UNL     1      38.035 136.209  14.729  1.00  0.00    -0.044 A 
ATOM     29  C   UNL     1      36.697 135.998  14.352  1.00  0.00     0.007 A 
ATOM     30  C   UNL     1      39.069 135.560  14.000  1.00  0.00    -0.045 A 
ATOM     31  C   UNL     1      36.380 135.162  13.281  1.00  0.00     0.039 A 
ATOM     32  C   UNL     1      38.729 134.732  12.915  1.00  0.00     0.043 A 
ATOM     33  C   UNL     1      37.394 134.530  12.563  1.00  0.00     0.123 A 
ATOM     34  C   UNL     1      40.523 135.742  14.345  1.00  0.00     0.045 C 
ATOM     35  F   UNL     1      37.083 133.718  11.522  1.00  0.00    -0.207 F 
ENDBRANCH  27  28
ENDBRANCH  26  27
ENDBRANCH  25  26
ENDBRANCH   8  21
TORSDOF 8
ENDMDL
MODEL 4
REMARK VINA RESULT:      -7.4      1.119      1.665
REMARK SMILES CC/C=C(\[O-])OC1=NC(=O)c2ccc(-n3cc(CCc4ccc(F)cc4C)nn3)c3cccc1c23
REMARK SMILES IDX 7 1 8 2 9 3 10 4 11 5 12 6 13 7 14 8 30 9 31 10 32 11 33 12
REMARK SMILES IDX 34 13 35 14 6 15 4 16 5 17 3 18 2 19 1 20 15 21 29 22 16 23
REMARK SMILES IDX 28 24 17 25 18 26 19 27 20 28 21 29 26 30 22 31 25 32 23 33
REMARK SMILES IDX 27 34 24 35
REMARK H PARENT
ROOT
ATOM      1  C   UNL     1      44.996 130.631  16.874  1.00  0.00     0.116 C 
ATOM      2  N   UNL     1      45.638 130.458  17.994  1.00  0.00    -0.201 NA
ATOM      3  C   UNL     1      45.358 131.232  19.165  1.00  0.00     0.278 C 
ATOM      4  O   UNL     1      46.016 131.025  20.220  1.00  0.00    -0.267 OA
ATOM      5  C   UNL     1      44.300 132.261  19.115  1.00  0.00     0.050 A 
ATOM      6  C   UNL     1      43.994 133.051  20.230  1.00  0.00     0.017 A 
ATOM      7  C   UNL     1      42.980 134.007  20.157  1.00  0.00     0.030 A 
ATOM      8  C   UNL     1      42.246 134.189  18.976  1.00  0.00     0.074 A 
ATOM      9  C   UNL     1      42.574 133.426  17.826  1.00  0.00     0.009 A 
ATOM     10  C   UNL     1      41.935 133.635  16.589  1.00  0.00     0.011 A 
ATOM     11  C   UNL     1      42.266 132.860  15.478  1.00  0.00     0.001 A 
ATOM     12  C   UNL     1      43.248 131.875  15.570  1.00  0.00     0.012 A 
ATOM     13  C   UNL     1      43.928 131.664  16.778  1.00  0.00     0.017 A 
ATOM     14  C   UNL     1      43.600 132.447  17.909  1.00  0.00     0.007 A 
ENDROOT
BRANCH   1  15
ATOM     15  O   UNL     1      45.301 129.856  15.745  1.00  0.00    -0.564 OA
BRANCH  15  16
ATOM     16  C   UNL     1      46.413 130.030  14.911  1.00  0.00     0.053 C 
ATOM     17  O   UNL     1      47.709 129.868  15.396  1.00  0.00    -0.547 OA
BRANCH  16  18
ATOM     18  C   UNL     1      46.214 130.354  13.631  1.00  0.00    -0.003 C 
BRANCH  18  19
ATOM     19  C   UNL     1      47.270 131.043  12.813  1.00  0.00     0.026 C 
ATOM     20  C   UNL     1      47.749 130.158  11.667  1.00  0.00     0.008 C 
ENDBRANCH  18  19
ENDBRANCH  16  18
ENDBRANCH  15  16
ENDBRANCH   1  15
BRANCH   8  21
ATOM     21  N   UNL     1      41.164 135.132  18.983  1.00  0.00    -0.220 N 
ATOM     22  N   UNL     1      39.959 134.882  19.469  1.00  0.00    -0.062 NA
ATOM     23  C   UNL     1      41.148 136.348  18.408  1.00  0.00     0.140 A 
ATOM     24  N   UNL     1      39.152 135.914  19.258  1.00  0.00    -0.135 NA
ATOM     25  C   UNL     1      39.874 136.837  18.590  1.00  0.00     0.083 A 
BRANCH  25  26
ATOM     26  C   UNL     1      39.366 138.186  18.185  1.00  0.00     0.065 C 
BRANCH  26  27
ATOM     27  C   UNL     1      38.143 138.084  17.262  1.00  0.00     0.042 C 
BRANCH  27  28
ATOM     28  C   UNL     1      38.461 137.361  15.967  1.00  0.00    -0.044 A 
ATOM     29  C   UNL     1      39.437 137.915  15.119  1.00  0.00     0.007 A 
ATOM     30  C   UNL     1      37.799 136.167  15.571  1.00  0.00    -0.045 A 
ATOM     31  C   UNL     1      39.753 137.308  13.903  1.00  0.00     0.039 A 
ATOM     32  C   UNL     1      38.142 135.564  14.348  1.00  0.00     0.043 A 
ATOM     33  C   UNL     1      39.108 136.135  13.518  1.00  0.00     0.123 A 
ATOM     34  C   UNL     1      36.747 135.518  16.430  1.00  0.00     0.045 C 
ATOM     35  F   UNL     1      39.417 135.547  12.335  1.00  0.00    -0.207 F 
ENDBRANCH  27  28
ENDBRANCH  26  27
ENDBRANCH  25  26
ENDBRANCH   8  21
TORSDOF 8
ENDMDL
MODEL 5
REMARK VINA RESULT:      -7.4      3.967      8.361
REMARK SMILES CC/C=C(\[O-])OC1=NC(=O)c2ccc(-n3cc(CCc4ccc(F)cc4C)nn3)c3cccc1c23
REMARK SMILES IDX 7 1 8 2 9 3 10 4 11 5 12 6 13 7 14 8 30 9 31 10 32 11 33 12
REMARK SMILES IDX 34 13 35 14 6 15 4 16 5 17 3 18 2 19 1 20 15 21 29 22 16 23
REMARK SMILES IDX 28 24 17 25 18 26 19 27 20 28 21 29 26 30 22 31 25 32 23 33
REMARK SMILES IDX 27 34 24 35
REMARK H PARENT
ROOT
ATOM      1  C   UNL     1      39.890 136.611  14.600  1.00  0.00     0.116 C 
ATOM      2  N   UNL     1      39.892 137.567  15.485  1.00  0.00    -0.201 NA
ATOM      3  C   UNL     1      40.594 137.461  16.728  1.00  0.00     0.278 C 
ATOM      4  O   UNL     1      40.557 138.416  17.549  1.00  0.00    -0.267 OA
ATOM      5  C   UNL     1      41.354 136.230  17.025  1.00  0.00     0.050 A 
ATOM      6  C   UNL     1      42.050 136.071  18.230  1.00  0.00     0.017 A 
ATOM      7  C   UNL     1      42.769 134.902  18.477  1.00  0.00     0.030 A 
ATOM      8  C   UNL     1      42.817 133.872  17.527  1.00  0.00     0.074 A 
ATOM      9  C   UNL     1      42.081 134.000  16.321  1.00  0.00     0.009 A 
ATOM     10  C   UNL     1      42.016 132.957  15.377  1.00  0.00     0.011 A 
ATOM     11  C   UNL     1      41.298 133.115  14.192  1.00  0.00     0.001 A 
ATOM     12  C   UNL     1      40.618 134.304  13.930  1.00  0.00     0.012 A 
ATOM     13  C   UNL     1      40.635 135.349  14.864  1.00  0.00     0.017 A 
ATOM     14  C   UNL     1      41.359 135.196  16.070  1.00  0.00     0.007 A 
ENDROOT
BRANCH   1  15
ATOM     15  O   UNL     1      39.186 136.750  13.395  1.00  0.00    -0.564 OA
BRANCH  15  16
ATOM     16  C   UNL     1      37.798 136.900  13.272  1.00  0.00     0.053 C 
ATOM     17  O   UNL     1      36.959 135.791  13.187  1.00  0.00    -0.547 OA
BRANCH  16  18
ATOM     18  C   UNL     1      37.284 138.131  13.241  1.00  0.00    -0.003 C 
BRANCH  18  19
ATOM     19  C   UNL     1      37.338 138.982  12.002  1.00  0.00     0.026 C 
ATOM     20  C   UNL     1      37.539 138.130  10.752  1.00  0.00     0.008 C 
ENDBRANCH  18  19
ENDBRANCH  16  18
ENDBRANCH  15  16
ENDBRANCH   1  15
BRANCH   8  21
ATOM     21  N   UNL     1      43.635 132.725  17.804  1.00  0.00    -0.220 N 
ATOM     22  N   UNL     1      43.649 132.079  18.959  1.00  0.00    -0.062 NA
ATOM     23  C   UNL     1      44.585 132.199  17.010  1.00  0.00     0.140 A 
ATOM     24  N   UNL     1      44.564 131.118  18.940  1.00  0.00    -0.135 NA
ATOM     25  C   UNL     1      45.164 131.181  17.734  1.00  0.00     0.083 A 
BRANCH  25  26
ATOM     26  C   UNL     1      46.235 130.245  17.265  1.00  0.00     0.065 C 
BRANCH  26  27
ATOM     27  C   UNL     1      45.715 129.269  16.199  1.00  0.00     0.042 C 
BRANCH  27  28
ATOM     28  C   UNL     1      46.141 129.668  14.800  1.00  0.00    -0.044 A 
ATOM     29  C   UNL     1      47.430 129.308  14.369  1.00  0.00     0.007 A 
ATOM     30  C   UNL     1      45.300 130.406  13.922  1.00  0.00    -0.045 A 
ATOM     31  C   UNL     1      47.886 129.670  13.100  1.00  0.00     0.039 A 
ATOM     32  C   UNL     1      45.774 130.749  12.643  1.00  0.00     0.043 A 
ATOM     33  C   UNL     1      47.060 130.389  12.239  1.00  0.00     0.123 A 
ATOM     34  C   UNL     1      43.907 130.822  14.315  1.00  0.00     0.045 C 
ATOM     35  F   UNL     1      47.506 130.740  11.007  1.00  0.00    -0.207 F 
ENDBRANCH  27  28
ENDBRANCH  26  27
ENDBRANCH  25  26
ENDBRANCH   8  21
TORSDOF 8
ENDMDL
MODEL 6
REMARK VINA RESULT:      -7.1      3.132      4.589
REMARK SMILES CC/C=C(\[O-])OC1=NC(=O)c2ccc(-n3cc(CCc4ccc(F)cc4C)nn3)c3cccc1c23
REMARK SMILES IDX 7 1 8 2 9 3 10 4 11 5 12 6 13 7 14 8 30 9 31 10 32 11 33 12
REMARK SMILES IDX 34 13 35 14 6 15 4 16 5 17 3 18 2 19 1 20 15 21 29 22 16 23
REMARK SMILES IDX 28 24 17 25 18 26 19 27 20 28 21 29 26 30 22 31 25 32 23 33
REMARK SMILES IDX 27 34 24 35
REMARK H PARENT
ROOT
ATOM      1  C   UNL     1      44.640 131.319  16.143  1.00  0.00     0.116 C 
ATOM      2  N   UNL     1      45.168 131.024  17.297  1.00  0.00    -0.201 NA
ATOM      3  C   UNL     1      44.587 131.441  18.536  1.00  0.00     0.278 C 
ATOM      4  O   UNL     1      45.145 131.131  19.622  1.00  0.00    -0.267 OA
ATOM      5  C   UNL     1      43.338 132.230  18.518  1.00  0.00     0.050 A 
ATOM      6  C   UNL     1      42.734 132.671  19.702  1.00  0.00     0.017 A 
ATOM      7  C   UNL     1      41.548 133.403  19.654  1.00  0.00     0.030 A 
ATOM      8  C   UNL     1      40.935 133.704  18.430  1.00  0.00     0.074 A 
ATOM      9  C   UNL     1      41.559 133.301  17.221  1.00  0.00     0.009 A 
ATOM     10  C   UNL     1      41.039 133.658  15.962  1.00  0.00     0.011 A 
ATOM     11  C   UNL     1      41.663 133.236  14.789  1.00  0.00     0.001 A 
ATOM     12  C   UNL     1      42.823 132.465  14.843  1.00  0.00     0.012 A 
ATOM     13  C   UNL     1      43.387 132.120  16.080  1.00  0.00     0.017 A 
ATOM     14  C   UNL     1      42.761 132.547  17.275  1.00  0.00     0.007 A 
ENDROOT
BRANCH   1  15
ATOM     15  O   UNL     1      45.241 130.895  14.948  1.00  0.00    -0.564 OA
BRANCH  15  16
ATOM     16  C   UNL     1      45.989 129.722  14.782  1.00  0.00     0.053 C 
ATOM     17  O   UNL     1      45.419 128.468  14.999  1.00  0.00    -0.547 OA
BRANCH  16  18
ATOM     18  C   UNL     1      47.265 129.821  14.406  1.00  0.00    -0.003 C 
BRANCH  18  19
ATOM     19  C   UNL     1      47.724 130.858  13.419  1.00  0.00     0.026 C 
ATOM     20  C   UNL     1      47.172 130.579  12.024  1.00  0.00     0.008 C 
ENDBRANCH  18  19
ENDBRANCH  16  18
ENDBRANCH  15  16
ENDBRANCH   1  15
BRANCH   8  21
ATOM     21  N   UNL     1      39.676 134.393  18.446  1.00  0.00    -0.220 N 
ATOM     22  N   UNL     1      38.501 133.806  18.279  1.00  0.00    -0.062 NA
ATOM     23  C   UNL     1      39.483 135.723  18.509  1.00  0.00     0.140 A 
ATOM     24  N   UNL     1      37.531 134.711  18.260  1.00  0.00    -0.135 NA
ATOM     25  C   UNL     1      38.124 135.914  18.396  1.00  0.00     0.083 A 
BRANCH  25  26
ATOM     26  C   UNL     1      37.395 137.220  18.471  1.00  0.00     0.065 C 
BRANCH  26  27
ATOM     27  C   UNL     1      36.423 137.264  19.660  1.00  0.00     0.042 C 
BRANCH  27  28
ATOM     28  C   UNL     1      37.147 137.360  20.989  1.00  0.00    -0.044 A 
ATOM     29  C   UNL     1      37.875 138.531  21.267  1.00  0.00     0.007 A 
ATOM     30  C   UNL     1      37.137 136.309  21.946  1.00  0.00    -0.045 A 
ATOM     31  C   UNL     1      38.582 138.665  22.463  1.00  0.00     0.039 A 
ATOM     32  C   UNL     1      37.844 136.469  23.151  1.00  0.00     0.043 A 
ATOM     33  C   UNL     1      38.567 137.636  23.403  1.00  0.00     0.123 A 
ATOM     34  C   UNL     1      36.377 135.029  21.716  1.00  0.00     0.045 C 
ATOM     35  F   UNL     1      39.255 137.769  24.564  1.00  0.00    -0.207 F 
ENDBRANCH  27  28
ENDBRANCH  26  27
ENDBRANCH  25  26
ENDBRANCH   8  21
TORSDOF 8
ENDMDL
MODEL 7
REMARK VINA RESULT:      -6.8      2.714      3.713
REMARK SMILES CC/C=C(\[O-])OC1=NC(=O)c2ccc(-n3cc(CCc4ccc(F)cc4C)nn3)c3cccc1c23
REMARK SMILES IDX 7 1 8 2 9 3 10 4 11 5 12 6 13 7 14 8 30 9 31 10 32 11 33 12
REMARK SMILES IDX 34 13 35 14 6 15 4 16 5 17 3 18 2 19 1 20 15 21 29 22 16 23
REMARK SMILES IDX 28 24 17 25 18 26 19 27 20 28 21 29 26 30 22 31 25 32 23 33
REMARK SMILES IDX 27 34 24 35
REMARK H PARENT
ROOT
ATOM      1  C   UNL     1      45.591 130.208  16.250  1.00  0.00     0.116 C 
ATOM      2  N   UNL     1      45.949 130.213  17.503  1.00  0.00    -0.201 NA
ATOM      3  C   UNL     1      45.262 130.984  18.494  1.00  0.00     0.278 C 
ATOM      4  O   UNL     1      45.657 130.953  19.690  1.00  0.00    -0.267 OA
ATOM      5  C   UNL     1      44.100 131.802  18.095  1.00  0.00     0.050 A 
ATOM      6  C   UNL     1      43.399 132.582  19.024  1.00  0.00     0.017 A 
ATOM      7  C   UNL     1      42.297 133.334  18.620  1.00  0.00     0.030 A 
ATOM      8  C   UNL     1      41.864 133.320  17.287  1.00  0.00     0.074 A 
ATOM      9  C   UNL     1      42.590 132.569  16.326  1.00  0.00     0.009 A 
ATOM     10  C   UNL     1      42.258 132.595  14.958  1.00  0.00     0.011 A 
ATOM     11  C   UNL     1      42.978 131.836  14.037  1.00  0.00     0.001 A 
ATOM     12  C   UNL     1      44.051 131.049  14.454  1.00  0.00     0.012 A 
ATOM     13  C   UNL     1      44.430 131.027  15.804  1.00  0.00     0.017 A 
ATOM     14  C   UNL     1      43.705 131.796  16.744  1.00  0.00     0.007 A 
ENDROOT
BRANCH   1  15
ATOM     15  O   UNL     1      46.291 129.443  15.305  1.00  0.00    -0.564 OA
BRANCH  15  16
ATOM     16  C   UNL     1      47.452 129.842  14.630  1.00  0.00     0.053 C 
ATOM     17  O   UNL     1      48.517 128.962  14.449  1.00  0.00    -0.547 OA
BRANCH  16  18
ATOM     18  C   UNL     1      47.524 131.087  14.155  1.00  0.00    -0.003 C 
BRANCH  18  19
ATOM     19  C   UNL     1      47.387 131.385  12.687  1.00  0.00     0.026 C 
ATOM     20  C   UNL     1      47.429 130.107  11.855  1.00  0.00     0.008 C 
ENDBRANCH  18  19
ENDBRANCH  16  18
ENDBRANCH  15  16
ENDBRANCH   1  15
BRANCH   8  21
ATOM     21  N   UNL     1      40.678 134.053  16.945  1.00  0.00    -0.220 N 
ATOM     22  N   UNL     1      39.485 133.504  16.776  1.00  0.00    -0.062 NA
ATOM     23  C   UNL     1      40.597 135.357  16.628  1.00  0.00     0.140 A 
ATOM     24  N   UNL     1      38.608 134.420  16.384  1.00  0.00    -0.135 NA
ATOM     25  C   UNL     1      39.283 135.582  16.280  1.00  0.00     0.083 A 
BRANCH  25  26
ATOM     26  C   UNL     1      38.668 136.895  15.907  1.00  0.00     0.065 C 
BRANCH  26  27
ATOM     27  C   UNL     1      39.563 138.079  16.302  1.00  0.00     0.042 C 
BRANCH  27  28
ATOM     28  C   UNL     1      39.381 138.474  17.755  1.00  0.00    -0.044 A 
ATOM     29  C   UNL     1      38.071 138.623  18.245  1.00  0.00     0.007 A 
ATOM     30  C   UNL     1      40.477 138.721  18.627  1.00  0.00    -0.045 A 
ATOM     31  C   UNL     1      37.843 139.010  19.566  1.00  0.00     0.039 A 
ATOM     32  C   UNL     1      40.225 139.096  19.959  1.00  0.00     0.043 A 
ATOM     33  C   UNL     1      38.917 139.246  20.422  1.00  0.00     0.123 A 
ATOM     34  C   UNL     1      41.905 138.578  18.171  1.00  0.00     0.045 C 
ATOM     35  F   UNL     1      38.692 139.622  21.705  1.00  0.00    -0.207 F 
ENDBRANCH  27  28
ENDBRANCH  26  27
ENDBRANCH  25  26
ENDBRANCH   8  21
TORSDOF 8
ENDMDL
MODEL 8
REMARK VINA RESULT:      -6.7      2.534      5.267
REMARK SMILES CC/C=C(\[O-])OC1=NC(=O)c2ccc(-n3cc(CCc4ccc(F)cc4C)nn3)c3cccc1c23
REMARK SMILES IDX 7 1 8 2 9 3 10 4 11 5 12 6 13 7 14 8 30 9 31 10 32 11 33 12
REMARK SMILES IDX 34 13 35 14 6 15 4 16 5 17 3 18 2 19 1 20 15 21 29 22 16 23
REMARK SMILES IDX 28 24 17 25 18 26 19 27 20 28 21 29 26 30 22 31 25 32 23 33
REMARK SMILES IDX 27 34 24 35
REMARK H PARENT
ROOT
ATOM      1  C   UNL     1      45.101 130.912  19.263  1.00  0.00     0.116 C 
ATOM      2  N   UNL     1      45.976 130.441  18.420  1.00  0.00    -0.201 NA
ATOM      3  C   UNL     1      45.893 130.685  17.012  1.00  0.00     0.278 C 
ATOM      4  O   UNL     1      46.764 130.199  16.243  1.00  0.00    -0.267 OA
ATOM      5  C   UNL     1      44.784 131.506  16.486  1.00  0.00     0.050 A 
ATOM      6  C   UNL     1      44.651 131.767  15.117  1.00  0.00     0.017 A 
ATOM      7  C   UNL     1      43.601 132.557  14.650  1.00  0.00     0.030 A 
ATOM      8  C   UNL     1      42.666 133.110  15.538  1.00  0.00     0.074 A 
ATOM      9  C   UNL     1      42.762 132.818  16.923  1.00  0.00     0.009 A 
ATOM     10  C   UNL     1      41.797 133.267  17.845  1.00  0.00     0.011 A 
ATOM     11  C   UNL     1      41.924 132.979  19.203  1.00  0.00     0.001 A 
ATOM     12  C   UNL     1      43.002 132.228  19.669  1.00  0.00     0.012 A 
ATOM     13  C   UNL     1      43.963 131.736  18.773  1.00  0.00     0.017 A 
ATOM     14  C   UNL     1      43.840 132.022  17.394  1.00  0.00     0.007 A 
ENDROOT
BRANCH   1  15
ATOM     15  O   UNL     1      45.213 130.648  20.636  1.00  0.00    -0.564 OA
BRANCH  15  16
ATOM     16  C   UNL     1      45.329 131.612  21.647  1.00  0.00     0.053 C 
ATOM     17  O   UNL     1      46.144 132.730  21.485  1.00  0.00    -0.547 OA
BRANCH  16  18
ATOM     18  C   UNL     1      44.639 131.445  22.777  1.00  0.00    -0.003 C 
BRANCH  18  19
ATOM     19  C   UNL     1      44.367 132.588  23.716  1.00  0.00     0.026 C 
ATOM     20  C   UNL     1      43.094 133.334  23.328  1.00  0.00     0.008 C 
ENDBRANCH  18  19
ENDBRANCH  16  18
ENDBRANCH  15  16
ENDBRANCH   1  15
BRANCH   8  21
ATOM     21  N   UNL     1      41.652 133.978  15.009  1.00  0.00    -0.220 N 
ATOM     22  N   UNL     1      41.778 135.291  14.896  1.00  0.00    -0.062 NA
ATOM     23  C   UNL     1      40.397 133.638  14.663  1.00  0.00     0.140 A 
ATOM     24  N   UNL     1      40.647 135.826  14.455  1.00  0.00    -0.135 NA
ATOM     25  C   UNL     1      39.771 134.812  14.309  1.00  0.00     0.083 A 
BRANCH  25  26
ATOM     26  C   UNL     1      38.375 134.960  13.786  1.00  0.00     0.065 C 
BRANCH  26  27
ATOM     27  C   UNL     1      37.325 134.630  14.857  1.00  0.00     0.042 C 
BRANCH  27  28
ATOM     28  C   UNL     1      37.426 135.548  16.060  1.00  0.00    -0.044 A 
ATOM     29  C   UNL     1      37.149 136.915  15.879  1.00  0.00     0.007 A 
ATOM     30  C   UNL     1      37.810 135.086  17.349  1.00  0.00    -0.045 A 
ATOM     31  C   UNL     1      37.250 137.811  16.944  1.00  0.00     0.039 A 
ATOM     32  C   UNL     1      37.892 136.003  18.412  1.00  0.00     0.043 A 
ATOM     33  C   UNL     1      37.620 137.357  18.208  1.00  0.00     0.123 A 
ATOM     34  C   UNL     1      38.118 133.637  17.616  1.00  0.00     0.045 C 
ATOM     35  F   UNL     1      37.718 138.230  19.241  1.00  0.00    -0.207 F 
ENDBRANCH  27  28
ENDBRANCH  26  27
ENDBRANCH  25  26
ENDBRANCH   8  21
TORSDOF 8
ENDMDL
MODEL 9
REMARK VINA RESULT:      -6.6      2.545      5.264
REMARK SMILES CC/C=C(\[O-])OC1=NC(=O)c2ccc(-n3cc(CCc4ccc(F)cc4C)nn3)c3cccc1c23
REMARK SMILES IDX 7 1 8 2 9 3 10 4 11 5 12 6 13 7 14 8 30 9 31 10 32 11 33 12
REMARK SMILES IDX 34 13 35 14 6 15 4 16 5 17 3 18 2 19 1 20 15 21 29 22 16 23
REMARK SMILES IDX 28 24 17 25 18 26 19 27 20 28 21 29 26 30 22 31 25 32 23 33
REMARK SMILES IDX 27 34 24 35
REMARK H PARENT
ROOT
ATOM      1  C   UNL     1      44.739 131.764  19.782  1.00  0.00     0.116 C 
ATOM      2  N   UNL     1      45.499 130.963  19.091  1.00  0.00    -0.201 NA
ATOM      3  C   UNL     1      45.387 130.836  17.670  1.00  0.00     0.278 C 
ATOM      4  O   UNL     1      46.145 130.041  17.053  1.00  0.00    -0.267 OA
ATOM      5  C   UNL     1      44.382 131.643  16.950  1.00  0.00     0.050 A 
ATOM      6  C   UNL     1      44.225 131.550  15.561  1.00  0.00     0.017 A 
ATOM      7  C   UNL     1      43.276 132.335  14.907  1.00  0.00     0.030 A 
ATOM      8  C   UNL     1      42.470 133.234  15.619  1.00  0.00     0.074 A 
ATOM      9  C   UNL     1      42.587 133.308  17.031  1.00  0.00     0.009 A 
ATOM     10  C   UNL     1      41.738 134.122  17.805  1.00  0.00     0.011 A 
ATOM     11  C   UNL     1      41.885 134.188  19.190  1.00  0.00     0.001 A 
ATOM     12  C   UNL     1      42.866 133.436  19.834  1.00  0.00     0.012 A 
ATOM     13  C   UNL     1      43.706 132.589  19.096  1.00  0.00     0.017 A 
ATOM     14  C   UNL     1      43.562 132.514  17.692  1.00  0.00     0.007 A 
ENDROOT
BRANCH   1  15
ATOM     15  O   UNL     1      44.875 131.859  21.175  1.00  0.00    -0.564 OA
BRANCH  15  16
ATOM     16  C   UNL     1      44.485 130.882  22.102  1.00  0.00     0.053 C 
ATOM     17  O   UNL     1      45.409 130.302  22.968  1.00  0.00    -0.547 OA
BRANCH  16  18
ATOM     18  C   UNL     1      43.203 130.514  22.147  1.00  0.00    -0.003 C 
BRANCH  18  19
ATOM     19  C   UNL     1      42.339 130.793  23.346  1.00  0.00     0.026 C 
ATOM     20  C   UNL     1      42.044 129.515  24.126  1.00  0.00     0.008 C 
ENDBRANCH  18  19
ENDBRANCH  16  18
ENDBRANCH  15  16
ENDBRANCH   1  15
BRANCH   8  21
ATOM     21  N   UNL     1      41.565 134.071  14.884  1.00  0.00    -0.220 N 
ATOM     22  N   UNL     1      41.696 135.383  14.758  1.00  0.00    -0.062 NA
ATOM     23  C   UNL     1      40.402 133.703  14.317  1.00  0.00     0.140 A 
ATOM     24  N   UNL     1      40.663 135.888  14.096  1.00  0.00    -0.135 NA
ATOM     25  C   UNL     1      39.841 134.857  13.817  1.00  0.00     0.083 A 
BRANCH  25  26
ATOM     26  C   UNL     1      38.568 134.968  13.036  1.00  0.00     0.065 C 
BRANCH  26  27
ATOM     27  C   UNL     1      37.346 134.561  13.873  1.00  0.00     0.042 C 
BRANCH  27  28
ATOM     28  C   UNL     1      37.322 135.247  15.225  1.00  0.00    -0.044 A 
ATOM     29  C   UNL     1      37.626 134.481  16.365  1.00  0.00     0.007 A 
ATOM     30  C   UNL     1      36.984 136.619  15.384  1.00  0.00    -0.045 A 
ATOM     31  C   UNL     1      37.595 135.053  17.638  1.00  0.00     0.039 A 
ATOM     32  C   UNL     1      36.972 137.179  16.674  1.00  0.00     0.043 A 
ATOM     33  C   UNL     1      37.269 136.399  17.792  1.00  0.00     0.123 A 
ATOM     34  C   UNL     1      36.651 137.498  14.208  1.00  0.00     0.045 C 
ATOM     35  F   UNL     1      37.240 136.951  19.030  1.00  0.00    -0.207 F 
ENDBRANCH  27  28
ENDBRANCH  26  27
ENDBRANCH  25  26
ENDBRANCH   8  21
TORSDOF 8
ENDMDL


