REMARK SMILES Cc1n[nH+]n([C@@H]2O[C@@]2(O)Nc2cccc(C#N)c2C)c1-c1cc2ccccc2c2c1C[N+](C)(C)C2
REMARK SMILES IDX 6 1 7 2 8 3 5 4 2 5 3 6 20 7 4 8 1 9 21 11 22 12 30 13 23 14
REMARK SMILES IDX 29 15 31 16 24 17 28 18 35 19 32 20 25 21 27 22 26 23 33 24
REMARK SMILES IDX 34 25 9 26 10 28 11 30 12 31 18 32 13 33 15 34 14 35 19 36
REMARK SMILES IDX 16 37 17 38
REMARK H PARENT 4 10 9 27 10 29
ROOT
ATOM      1  C   UNL     1       0.471   3.266  -0.277  1.00  0.00     0.368 C 
ATOM      2  O   UNL     1       0.886   4.409   0.444  1.00  0.00    -0.292 OA
ATOM      3  C   UNL     1       0.705   3.224   1.183  1.00  0.00     0.302 C 
ENDROOT
BRANCH   1   4
ATOM      4  N   UNL     1       1.558   2.738  -1.101  1.00  0.00    -0.091 N 
ATOM      5  C   UNL     1       2.855   1.452  -2.304  1.00  0.00     0.137 A 
ATOM      6  N   UNL     1       3.312   2.717  -2.408  1.00  0.00     0.020 NA
ATOM      7  C   UNL     1       1.744   1.461  -1.479  1.00  0.00     0.140 A 
ATOM      8  N   UNL     1       2.504   3.466  -1.672  1.00  0.00    -0.014 N 
ATOM      9  C   UNL     1       3.443   0.292  -3.040  1.00  0.00     0.076 C 
ATOM     10  H   UNL     1       2.600   4.502  -1.574  1.00  0.00     0.526 HD
BRANCH   7  11
ATOM     11  C   UNL     1       0.859   0.332  -1.149  1.00  0.00     0.016 A 
ATOM     12  C   UNL     1      -0.464   0.313  -1.623  1.00  0.00     0.019 A 
ATOM     13  C   UNL     1       1.305  -0.737  -0.358  1.00  0.00     0.025 A 
ATOM     14  C   UNL     1      -1.317  -0.767  -1.315  1.00  0.00    -0.017 A 
ATOM     15  C   UNL     1       0.485  -1.783  -0.048  1.00  0.00     0.024 A 
ATOM     16  C   UNL     1       2.607  -0.869   0.337  1.00  0.00     0.301 C 
ATOM     17  C   UNL     1      -2.641  -0.788  -1.783  1.00  0.00     0.009 A 
ATOM     18  C   UNL     1      -0.839  -1.838  -0.515  1.00  0.00    -0.009 A 
ATOM     19  C   UNL     1       1.177  -2.728   0.863  1.00  0.00     0.301 C 
ATOM     20  N   UNL     1       2.541  -2.157   1.098  1.00  0.00    -0.321 N 
ATOM     21  C   UNL     1      -3.485  -1.852  -1.454  1.00  0.00     0.001 A 
ATOM     22  C   UNL     1      -1.699  -2.901  -0.193  1.00  0.00     0.009 A 
ATOM     23  C   UNL     1      -3.016  -2.902  -0.660  1.00  0.00     0.001 A 
ATOM     24  C   UNL     1       2.755  -1.911   2.544  1.00  0.00     0.334 C 
ATOM     25  C   UNL     1       3.580  -3.095   0.610  1.00  0.00     0.334 C 
ENDBRANCH   7  11
ENDBRANCH   1   4
BRANCH   3  26
ATOM     26  O   UNL     1       1.911   2.730   1.696  1.00  0.00    -0.345 OA
ATOM     27  H   UNL     1       2.195   3.388   2.383  1.00  0.00     0.216 HD
ENDBRANCH   3  26
BRANCH   3  28
ATOM     28  N   UNL     1      -0.435   3.322   2.090  1.00  0.00    -0.330 N 
ATOM     29  H   UNL     1      -0.589   4.245   2.556  1.00  0.00     0.166 HD
BRANCH  28  30
ATOM     30  C   UNL     1      -1.325   2.217   2.356  1.00  0.00     0.042 A 
ATOM     31  C   UNL     1      -0.888   0.897   2.145  1.00  0.00     0.026 A 
ATOM     32  C   UNL     1      -2.642   2.444   2.843  1.00  0.00    -0.010 A 
ATOM     33  C   UNL     1      -1.732  -0.180   2.394  1.00  0.00     0.004 A 
ATOM     34  C   UNL     1      -3.487   1.334   3.093  1.00  0.00     0.057 A 
ATOM     35  C   UNL     1      -3.028   0.036   2.852  1.00  0.00     0.020 A 
ATOM     36  C   UNL     1      -3.117   3.859   3.089  1.00  0.00     0.048 C 
BRANCH  34  37
ATOM     37  C   UNL     1      -4.832   1.491   3.598  1.00  0.00     0.099 C 
ATOM     38  N   UNL     1      -5.909   1.616   4.003  1.00  0.00    -0.192 NA
ENDBRANCH  34  37
ENDBRANCH  28  30
ENDBRANCH   3  28
TORSDOF 6


