MODEL 1
REMARK VINA RESULT:      -6.6      0.000      0.000
REMARK SMILES C[C@@H](C#N)N(C)CCCCc1cn(-c2cc(N)c3c4c(cccc24)C(=O)[N-]3)nn1
REMARK SMILES IDX 8 1 7 2 5 3 6 4 2 5 1 6 3 7 4 8 9 9 10 10 11 11 12 12 29 13
REMARK SMILES IDX 13 14 28 15 14 16 15 17 24 18 16 19 23 20 19 21 18 22 22 23
REMARK SMILES IDX 20 24 27 25 21 26 25 27 26 28 17 29
REMARK H PARENT 17 30 17 31
ROOT
ATOM      1  C   UNL     1      45.893 132.129  16.174  1.00  0.00     0.016 C 
ENDROOT
BRANCH   1   2
ATOM      2  C   UNL     1      46.319 131.843  14.727  1.00  0.00     0.085 C 
BRANCH   2   3
ATOM      3  N   UNL     1      45.800 130.534  14.261  1.00  0.00    -0.291 NA
ATOM      4  C   UNL     1      44.415 130.644  13.764  1.00  0.00     0.106 C 
BRANCH   3   5
ATOM      5  C   UNL     1      46.683 129.846  13.285  1.00  0.00     0.157 C 
ATOM      6  C   UNL     1      46.872 130.616  11.965  1.00  0.00     0.041 C 
BRANCH   5   7
ATOM      7  C   UNL     1      47.989 129.563  13.901  1.00  0.00     0.081 C 
ATOM      8  N   UNL     1      49.016 129.340  14.385  1.00  0.00    -0.197 NA
ENDBRANCH   5   7
ENDBRANCH   3   5
ENDBRANCH   2   3
ENDBRANCH   1   2
BRANCH   1   9
ATOM      9  C   UNL     1      45.717 130.834  16.985  1.00  0.00     0.008 C 
BRANCH   9  10
ATOM     10  C   UNL     1      44.920 131.061  18.276  1.00  0.00     0.060 C 
BRANCH  10  11
ATOM     11  C   UNL     1      43.889 132.136  18.111  1.00  0.00     0.083 A 
ATOM     12  C   UNL     1      42.660 132.011  17.504  1.00  0.00     0.140 A 
ATOM     13  N   UNL     1      43.994 133.382  18.614  1.00  0.00    -0.135 NA
ATOM     14  N   UNL     1      42.056 133.207  17.637  1.00  0.00    -0.220 N 
ATOM     15  N   UNL     1      42.866 134.009  18.313  1.00  0.00    -0.062 NA
BRANCH  14  16
ATOM     16  C   UNL     1      40.721 133.545  17.224  1.00  0.00     0.076 A 
ATOM     17  C   UNL     1      39.650 133.443  18.159  1.00  0.00     0.053 A 
ATOM     18  C   UNL     1      40.443 134.005  15.908  1.00  0.00     0.007 A 
ATOM     19  C   UNL     1      38.327 133.806  17.810  1.00  0.00     0.019 A 
ATOM     20  C   UNL     1      41.365 134.101  14.837  1.00  0.00     0.011 A 
ATOM     21  C   UNL     1      39.130 134.356  15.627  1.00  0.00    -0.020 A 
ATOM     22  C   UNL     1      38.097 134.273  16.514  1.00  0.00    -0.102 A 
ATOM     23  C   UNL     1      40.931 134.559  13.565  1.00  0.00     0.001 A 
ATOM     24  C   UNL     1      38.699 134.793  14.416  1.00  0.00     0.006 A 
ATOM     25  N   UNL     1      36.857 134.676  15.919  1.00  0.00    -0.620 NA
ATOM     26  C   UNL     1      39.581 134.912  13.344  1.00  0.00     0.011 A 
ATOM     27  C   UNL     1      37.266 135.004  14.581  1.00  0.00     0.086 C 
ATOM     28  O   UNL     1      36.478 135.409  13.687  1.00  0.00    -0.315 OA
BRANCH  19  29
ATOM     29  N   UNL     1      37.261 133.700  18.757  1.00  0.00    -0.400 N 
ATOM     30  H   UNL     1      36.528 132.963  18.659  1.00  0.00     0.156 HD
ATOM     31  H   UNL     1      37.200 134.359  19.565  1.00  0.00     0.156 HD
ENDBRANCH  19  29
ENDBRANCH  14  16
ENDBRANCH  10  11
ENDBRANCH   9  10
ENDBRANCH   1   9
TORSDOF 9
ENDMDL
MODEL 2
REMARK VINA RESULT:      -6.0      2.153      3.313
REMARK SMILES C[C@@H](C#N)N(C)CCCCc1cn(-c2cc(N)c3c4c(cccc24)C(=O)[N-]3)nn1
REMARK SMILES IDX 8 1 7 2 5 3 6 4 2 5 1 6 3 7 4 8 9 9 10 10 11 11 12 12 29 13
REMARK SMILES IDX 13 14 28 15 14 16 15 17 24 18 16 19 23 20 19 21 18 22 22 23
REMARK SMILES IDX 20 24 27 25 21 26 25 27 26 28 17 29
REMARK H PARENT 17 30 17 31
ROOT
ATOM      1  C   UNL     1      45.496 131.422  16.686  1.00  0.00     0.016 C 
ENDROOT
BRANCH   1   2
ATOM      2  C   UNL     1      46.031 130.173  15.970  1.00  0.00     0.085 C 
BRANCH   2   3
ATOM      3  N   UNL     1      46.973 130.538  14.883  1.00  0.00    -0.291 NA
ATOM      4  C   UNL     1      47.849 129.407  14.521  1.00  0.00     0.106 C 
BRANCH   3   5
ATOM      5  C   UNL     1      46.318 131.133  13.689  1.00  0.00     0.157 C 
ATOM      6  C   UNL     1      46.984 130.745  12.356  1.00  0.00     0.041 C 
BRANCH   5   7
ATOM      7  C   UNL     1      44.890 130.775  13.669  1.00  0.00     0.081 C 
ATOM      8  N   UNL     1      43.769 130.493  13.652  1.00  0.00    -0.197 NA
ENDBRANCH   5   7
ENDBRANCH   3   5
ENDBRANCH   2   3
ENDBRANCH   1   2
BRANCH   1   9
ATOM      9  C   UNL     1      45.365 131.200  18.202  1.00  0.00     0.008 C 
BRANCH   9  10
ATOM     10  C   UNL     1      44.023 131.704  18.749  1.00  0.00     0.060 C 
BRANCH  10  11
ATOM     11  C   UNL     1      43.172 132.299  17.669  1.00  0.00     0.083 A 
ATOM     12  C   UNL     1      42.791 133.617  17.553  1.00  0.00     0.140 A 
ATOM     13  N   UNL     1      42.715 131.625  16.595  1.00  0.00    -0.135 NA
ATOM     14  N   UNL     1      42.085 133.701  16.410  1.00  0.00    -0.220 N 
ATOM     15  N   UNL     1      42.060 132.502  15.847  1.00  0.00    -0.062 NA
BRANCH  14  16
ATOM     16  C   UNL     1      41.537 134.895  15.825  1.00  0.00     0.076 A 
ATOM     17  C   UNL     1      42.411 135.962  15.462  1.00  0.00     0.053 A 
ATOM     18  C   UNL     1      40.145 135.031  15.574  1.00  0.00     0.007 A 
ATOM     19  C   UNL     1      41.922 137.139  14.845  1.00  0.00     0.019 A 
ATOM     20  C   UNL     1      39.131 134.108  15.931  1.00  0.00     0.011 A 
ATOM     21  C   UNL     1      39.726 136.201  14.958  1.00  0.00    -0.020 A 
ATOM     22  C   UNL     1      40.550 137.227  14.596  1.00  0.00    -0.102 A 
ATOM     23  C   UNL     1      37.772 134.395  15.634  1.00  0.00     0.001 A 
ATOM     24  C   UNL     1      38.432 136.491  14.669  1.00  0.00     0.006 A 
ATOM     25  N   UNL     1      39.818 138.311  14.010  1.00  0.00    -0.620 NA
ATOM     26  C   UNL     1      37.410 135.601  14.994  1.00  0.00     0.011 A 
ATOM     27  C   UNL     1      38.469 137.818  14.067  1.00  0.00     0.086 C 
ATOM     28  O   UNL     1      37.471 138.464  13.654  1.00  0.00    -0.315 OA
BRANCH  19  29
ATOM     29  N   UNL     1      42.807 138.202  14.484  1.00  0.00    -0.400 N 
ATOM     30  H   UNL     1      42.969 138.448  13.482  1.00  0.00     0.156 HD
ATOM     31  H   UNL     1      43.306 138.752  15.219  1.00  0.00     0.156 HD
ENDBRANCH  19  29
ENDBRANCH  14  16
ENDBRANCH  10  11
ENDBRANCH   9  10
ENDBRANCH   1   9
TORSDOF 9
ENDMDL
MODEL 3
REMARK VINA RESULT:      -5.8      3.245      8.530
REMARK SMILES C[C@@H](C#N)N(C)CCCCc1cn(-c2cc(N)c3c4c(cccc24)C(=O)[N-]3)nn1
REMARK SMILES IDX 8 1 7 2 5 3 6 4 2 5 1 6 3 7 4 8 9 9 10 10 11 11 12 12 29 13
REMARK SMILES IDX 13 14 28 15 14 16 15 17 24 18 16 19 23 20 19 21 18 22 22 23
REMARK SMILES IDX 20 24 27 25 21 26 25 27 26 28 17 29
REMARK H PARENT 17 30 17 31
ROOT
ATOM      1  C   UNL     1      39.652 137.561  15.884  1.00  0.00     0.016 C 
ENDROOT
BRANCH   1   2
ATOM      2  C   UNL     1      38.126 137.593  15.719  1.00  0.00     0.085 C 
BRANCH   2   3
ATOM      3  N   UNL     1      37.737 137.517  14.289  1.00  0.00    -0.291 NA
ATOM      4  C   UNL     1      38.705 138.219  13.425  1.00  0.00     0.106 C 
BRANCH   3   5
ATOM      5  C   UNL     1      37.467 136.137  13.809  1.00  0.00     0.157 C 
ATOM      6  C   UNL     1      36.381 135.399  14.613  1.00  0.00     0.041 C 
BRANCH   5   7
ATOM      7  C   UNL     1      37.114 136.163  12.380  1.00  0.00     0.081 C 
ATOM      8  N   UNL     1      36.836 136.185  11.257  1.00  0.00    -0.197 NA
ENDBRANCH   5   7
ENDBRANCH   3   5
ENDBRANCH   2   3
ENDBRANCH   1   2
BRANCH   1   9
ATOM      9  C   UNL     1      40.119 136.306  16.640  1.00  0.00     0.008 C 
BRANCH   9  10
ATOM     10  C   UNL     1      39.853 135.019  15.849  1.00  0.00     0.060 C 
BRANCH  10  11
ATOM     11  C   UNL     1      40.687 133.878  16.348  1.00  0.00     0.083 A 
ATOM     12  C   UNL     1      41.955 133.542  15.932  1.00  0.00     0.140 A 
ATOM     13  N   UNL     1      40.332 133.052  17.352  1.00  0.00    -0.135 NA
ATOM     14  N   UNL     1      42.329 132.493  16.688  1.00  0.00    -0.220 N 
ATOM     15  N   UNL     1      41.349 132.222  17.537  1.00  0.00    -0.062 NA
BRANCH  14  16
ATOM     16  C   UNL     1      43.607 131.834  16.671  1.00  0.00     0.076 A 
ATOM     17  C   UNL     1      44.299 131.613  17.898  1.00  0.00     0.053 A 
ATOM     18  C   UNL     1      44.190 131.372  15.460  1.00  0.00     0.007 A 
ATOM     19  C   UNL     1      45.539 130.932  17.934  1.00  0.00     0.019 A 
ATOM     20  C   UNL     1      43.682 131.565  14.152  1.00  0.00     0.011 A 
ATOM     21  C   UNL     1      45.401 130.701  15.559  1.00  0.00    -0.020 A 
ATOM     22  C   UNL     1      46.070 130.474  16.726  1.00  0.00    -0.102 A 
ATOM     23  C   UNL     1      44.393 131.062  13.031  1.00  0.00     0.001 A 
ATOM     24  C   UNL     1      46.095 130.217  14.498  1.00  0.00     0.006 A 
ATOM     25  N   UNL     1      47.307 129.785  16.501  1.00  0.00    -0.620 NA
ATOM     26  C   UNL     1      45.617 130.377  13.198  1.00  0.00     0.011 A 
ATOM     27  C   UNL     1      47.301 129.632  15.072  1.00  0.00     0.086 C 
ATOM     28  O   UNL     1      48.223 129.071  14.424  1.00  0.00    -0.315 OA
BRANCH  19  29
ATOM     29  N   UNL     1      46.223 130.715  19.171  1.00  0.00    -0.400 N 
ATOM     30  H   UNL     1      45.720 130.332  20.002  1.00  0.00     0.156 HD
ATOM     31  H   UNL     1      47.239 130.936  19.263  1.00  0.00     0.156 HD
ENDBRANCH  19  29
ENDBRANCH  14  16
ENDBRANCH  10  11
ENDBRANCH   9  10
ENDBRANCH   1   9
TORSDOF 9
ENDMDL
MODEL 4
REMARK VINA RESULT:      -5.8      4.592      7.452
REMARK SMILES C[C@@H](C#N)N(C)CCCCc1cn(-c2cc(N)c3c4c(cccc24)C(=O)[N-]3)nn1
REMARK SMILES IDX 8 1 7 2 5 3 6 4 2 5 1 6 3 7 4 8 9 9 10 10 11 11 12 12 29 13
REMARK SMILES IDX 13 14 28 15 14 16 15 17 24 18 16 19 23 20 19 21 18 22 22 23
REMARK SMILES IDX 20 24 27 25 21 26 25 27 26 28 17 29
REMARK H PARENT 17 30 17 31
ROOT
ATOM      1  C   UNL     1      45.210 134.843  22.288  1.00  0.00     0.016 C 
ENDROOT
BRANCH   1   2
ATOM      2  C   UNL     1      46.094 136.087  22.458  1.00  0.00     0.085 C 
BRANCH   2   3
ATOM      3  N   UNL     1      46.927 136.324  21.253  1.00  0.00    -0.291 NA
ATOM      4  C   UNL     1      46.283 137.272  20.324  1.00  0.00     0.106 C 
BRANCH   3   5
ATOM      5  C   UNL     1      48.329 136.713  21.554  1.00  0.00     0.157 C 
ATOM      6  C   UNL     1      48.452 137.990  22.405  1.00  0.00     0.041 C 
BRANCH   5   7
ATOM      7  C   UNL     1      49.031 135.596  22.207  1.00  0.00     0.081 C 
ATOM      8  N   UNL     1      49.583 134.718  22.720  1.00  0.00    -0.197 NA
ENDBRANCH   5   7
ENDBRANCH   3   5
ENDBRANCH   2   3
ENDBRANCH   1   2
BRANCH   1   9
ATOM      9  C   UNL     1      43.796 135.065  22.852  1.00  0.00     0.008 C 
BRANCH   9  10
ATOM     10  C   UNL     1      42.875 135.773  21.850  1.00  0.00     0.060 C 
BRANCH  10  11
ATOM     11  C   UNL     1      42.471 134.864  20.730  1.00  0.00     0.083 A 
ATOM     12  C   UNL     1      43.189 134.595  19.587  1.00  0.00     0.140 A 
ATOM     13  N   UNL     1      41.356 134.107  20.722  1.00  0.00    -0.135 NA
ATOM     14  N   UNL     1      42.470 133.689  18.899  1.00  0.00    -0.220 N 
ATOM     15  N   UNL     1      41.383 133.403  19.600  1.00  0.00    -0.062 NA
BRANCH  14  16
ATOM     16  C   UNL     1      42.847 133.047  17.669  1.00  0.00     0.076 A 
ATOM     17  C   UNL     1      42.173 133.394  16.462  1.00  0.00     0.053 A 
ATOM     18  C   UNL     1      43.896 132.089  17.620  1.00  0.00     0.007 A 
ATOM     19  C   UNL     1      42.538 132.819  15.220  1.00  0.00     0.019 A 
ATOM     20  C   UNL     1      44.622 131.577  18.724  1.00  0.00     0.011 A 
ATOM     21  C   UNL     1      44.218 131.568  16.374  1.00  0.00    -0.020 A 
ATOM     22  C   UNL     1      43.588 131.898  15.209  1.00  0.00    -0.102 A 
ATOM     23  C   UNL     1      45.632 130.600  18.518  1.00  0.00     0.001 A 
ATOM     24  C   UNL     1      45.178 130.633  16.162  1.00  0.00     0.006 A 
ATOM     25  N   UNL     1      44.123 131.170  14.096  1.00  0.00    -0.620 NA
ATOM     26  C   UNL     1      45.920 130.117  17.222  1.00  0.00     0.011 A 
ATOM     27  C   UNL     1      45.136 130.370  14.728  1.00  0.00     0.086 C 
ATOM     28  O   UNL     1      45.871 129.556  14.111  1.00  0.00    -0.315 OA
BRANCH  19  29
ATOM     29  N   UNL     1      41.856 133.176  14.016  1.00  0.00    -0.400 N 
ATOM     30  H   UNL     1      42.386 133.382  13.140  1.00  0.00     0.156 HD
ATOM     31  H   UNL     1      40.814 133.235  13.992  1.00  0.00     0.156 HD
ENDBRANCH  19  29
ENDBRANCH  14  16
ENDBRANCH  10  11
ENDBRANCH   9  10
ENDBRANCH   1   9
TORSDOF 9
ENDMDL
MODEL 5
REMARK VINA RESULT:      -5.6      3.917      9.202
REMARK SMILES C[C@@H](C#N)N(C)CCCCc1cn(-c2cc(N)c3c4c(cccc24)C(=O)[N-]3)nn1
REMARK SMILES IDX 8 1 7 2 5 3 6 4 2 5 1 6 3 7 4 8 9 9 10 10 11 11 12 12 29 13
REMARK SMILES IDX 13 14 28 15 14 16 15 17 24 18 16 19 23 20 19 21 18 22 22 23
REMARK SMILES IDX 20 24 27 25 21 26 25 27 26 28 17 29
REMARK H PARENT 17 30 17 31
ROOT
ATOM      1  C   UNL     1      39.842 134.572  21.167  1.00  0.00     0.016 C 
ENDROOT
BRANCH   1   2
ATOM      2  C   UNL     1      40.257 134.982  22.587  1.00  0.00     0.085 C 
BRANCH   2   3
ATOM      3  N   UNL     1      39.074 135.156  23.465  1.00  0.00    -0.291 NA
ATOM      4  C   UNL     1      39.133 136.427  24.211  1.00  0.00     0.106 C 
BRANCH   3   5
ATOM      5  C   UNL     1      37.773 134.985  22.767  1.00  0.00     0.157 C 
ATOM      6  C   UNL     1      36.863 133.915  23.399  1.00  0.00     0.041 C 
BRANCH   5   7
ATOM      7  C   UNL     1      37.069 136.276  22.696  1.00  0.00     0.081 C 
ATOM      8  N   UNL     1      36.515 137.290  22.640  1.00  0.00    -0.197 NA
ENDBRANCH   5   7
ENDBRANCH   3   5
ENDBRANCH   2   3
ENDBRANCH   1   2
BRANCH   1   9
ATOM      9  C   UNL     1      40.158 135.671  20.139  1.00  0.00     0.008 C 
BRANCH   9  10
ATOM     10  C   UNL     1      39.724 135.282  18.720  1.00  0.00     0.060 C 
BRANCH  10  11
ATOM     11  C   UNL     1      40.434 134.053  18.239  1.00  0.00     0.083 A 
ATOM     12  C   UNL     1      41.790 133.904  18.054  1.00  0.00     0.140 A 
ATOM     13  N   UNL     1      39.836 132.872  17.990  1.00  0.00    -0.135 NA
ATOM     14  N   UNL     1      41.976 132.628  17.671  1.00  0.00    -0.220 N 
ATOM     15  N   UNL     1      40.796 132.025  17.649  1.00  0.00    -0.062 NA
BRANCH  14  16
ATOM     16  C   UNL     1      43.235 131.979  17.428  1.00  0.00     0.076 A 
ATOM     17  C   UNL     1      44.096 131.685  18.526  1.00  0.00     0.053 A 
ATOM     18  C   UNL     1      43.637 131.597  16.119  1.00  0.00     0.007 A 
ATOM     19  C   UNL     1      45.327 131.010  18.340  1.00  0.00     0.019 A 
ATOM     20  C   UNL     1      42.945 131.870  14.913  1.00  0.00     0.011 A 
ATOM     21  C   UNL     1      44.847 130.929  16.000  1.00  0.00    -0.020 A 
ATOM     22  C   UNL     1      45.676 130.633  17.042  1.00  0.00    -0.102 A 
ATOM     23  C   UNL     1      43.486 131.442  13.672  1.00  0.00     0.001 A 
ATOM     24  C   UNL     1      45.379 130.517  14.821  1.00  0.00     0.006 A 
ATOM     25  N   UNL     1      46.865 129.967  16.597  1.00  0.00    -0.620 NA
ATOM     26  C   UNL     1      44.719 130.756  13.617  1.00  0.00     0.011 A 
ATOM     27  C   UNL     1      46.653 129.904  15.178  1.00  0.00     0.086 C 
ATOM     28  O   UNL     1      47.470 129.391  14.369  1.00  0.00    -0.315 OA
BRANCH  19  29
ATOM     29  N   UNL     1      46.181 130.720  19.450  1.00  0.00    -0.400 N 
ATOM     30  H   UNL     1      46.208 131.349  20.284  1.00  0.00     0.156 HD
ATOM     31  H   UNL     1      46.791 129.873  19.444  1.00  0.00     0.156 HD
ENDBRANCH  19  29
ENDBRANCH  14  16
ENDBRANCH  10  11
ENDBRANCH   9  10
ENDBRANCH   1   9
TORSDOF 9
ENDMDL
MODEL 6
REMARK VINA RESULT:      -5.5      3.700      7.867
REMARK SMILES C[C@@H](C#N)N(C)CCCCc1cn(-c2cc(N)c3c4c(cccc24)C(=O)[N-]3)nn1
REMARK SMILES IDX 8 1 7 2 5 3 6 4 2 5 1 6 3 7 4 8 9 9 10 10 11 11 12 12 29 13
REMARK SMILES IDX 13 14 28 15 14 16 15 17 24 18 16 19 23 20 19 21 18 22 22 23
REMARK SMILES IDX 20 24 27 25 21 26 25 27 26 28 17 29
REMARK H PARENT 17 30 17 31
ROOT
ATOM      1  C   UNL     1      41.025 136.710  18.580  1.00  0.00     0.016 C 
ENDROOT
BRANCH   1   2
ATOM      2  C   UNL     1      41.099 136.538  20.104  1.00  0.00     0.085 C 
BRANCH   2   3
ATOM      3  N   UNL     1      42.221 137.317  20.681  1.00  0.00    -0.291 NA
ATOM      4  C   UNL     1      41.751 138.278  21.697  1.00  0.00     0.106 C 
BRANCH   3   5
ATOM      5  C   UNL     1      43.340 136.482  21.187  1.00  0.00     0.157 C 
ATOM      6  C   UNL     1      43.072 134.968  21.109  1.00  0.00     0.041 C 
BRANCH   5   7
ATOM      7  C   UNL     1      44.582 136.817  20.471  1.00  0.00     0.081 C 
ATOM      8  N   UNL     1      45.557 137.080  19.908  1.00  0.00    -0.197 NA
ENDBRANCH   5   7
ENDBRANCH   3   5
ENDBRANCH   2   3
ENDBRANCH   1   2
BRANCH   1   9
ATOM      9  C   UNL     1      39.581 136.611  18.062  1.00  0.00     0.008 C 
BRANCH   9  10
ATOM     10  C   UNL     1      39.475 135.744  16.800  1.00  0.00     0.060 C 
BRANCH  10  11
ATOM     11  C   UNL     1      40.199 134.442  16.958  1.00  0.00     0.083 A 
ATOM     12  C   UNL     1      41.537 134.212  16.731  1.00  0.00     0.140 A 
ATOM     13  N   UNL     1      39.643 133.309  17.429  1.00  0.00    -0.135 NA
ATOM     14  N   UNL     1      41.753 132.923  17.053  1.00  0.00    -0.220 N 
ATOM     15  N   UNL     1      40.610 132.404  17.477  1.00  0.00    -0.062 NA
BRANCH  14  16
ATOM     16  C   UNL     1      43.016 132.236  17.049  1.00  0.00     0.076 A 
ATOM     17  C   UNL     1      43.725 132.065  18.275  1.00  0.00     0.053 A 
ATOM     18  C   UNL     1      43.569 131.698  15.856  1.00  0.00     0.007 A 
ATOM     19  C   UNL     1      44.951 131.360  18.327  1.00  0.00     0.019 A 
ATOM     20  C   UNL     1      43.041 131.834  14.548  1.00  0.00     0.011 A 
ATOM     21  C   UNL     1      44.767 131.008  15.970  1.00  0.00    -0.020 A 
ATOM     22  C   UNL     1      45.451 130.828  17.136  1.00  0.00    -0.102 A 
ATOM     23  C   UNL     1      43.722 131.257  13.443  1.00  0.00     0.001 A 
ATOM     24  C   UNL     1      45.431 130.454  14.924  1.00  0.00     0.006 A 
ATOM     25  N   UNL     1      46.669 130.101  16.927  1.00  0.00    -0.620 NA
ATOM     26  C   UNL     1      44.934 130.555  13.626  1.00  0.00     0.011 A 
ATOM     27  C   UNL     1      46.634 129.873  15.509  1.00  0.00     0.086 C 
ATOM     28  O   UNL     1      47.534 129.260  14.876  1.00  0.00    -0.315 OA
BRANCH  19  29
ATOM     29  N   UNL     1      45.652 131.194  19.562  1.00  0.00    -0.400 N 
ATOM     30  H   UNL     1      45.986 130.252  19.866  1.00  0.00     0.156 HD
ATOM     31  H   UNL     1      45.843 132.014  20.180  1.00  0.00     0.156 HD
ENDBRANCH  19  29
ENDBRANCH  14  16
ENDBRANCH  10  11
ENDBRANCH   9  10
ENDBRANCH   1   9
TORSDOF 9
ENDMDL
MODEL 7
REMARK VINA RESULT:      -5.5      4.813      6.890
REMARK SMILES C[C@@H](C#N)N(C)CCCCc1cn(-c2cc(N)c3c4c(cccc24)C(=O)[N-]3)nn1
REMARK SMILES IDX 8 1 7 2 5 3 6 4 2 5 1 6 3 7 4 8 9 9 10 10 11 11 12 12 29 13
REMARK SMILES IDX 13 14 28 15 14 16 15 17 24 18 16 19 23 20 19 21 18 22 22 23
REMARK SMILES IDX 20 24 27 25 21 26 25 27 26 28 17 29
REMARK H PARENT 17 30 17 31
ROOT
ATOM      1  C   UNL     1      43.791 131.243  13.742  1.00  0.00     0.016 C 
ENDROOT
BRANCH   1   2
ATOM      2  C   UNL     1      44.515 130.108  14.480  1.00  0.00     0.085 C 
BRANCH   2   3
ATOM      3  N   UNL     1      45.732 129.679  13.749  1.00  0.00    -0.291 NA
ATOM      4  C   UNL     1      46.139 130.676  12.741  1.00  0.00     0.106 C 
BRANCH   3   5
ATOM      5  C   UNL     1      46.863 129.293  14.631  1.00  0.00     0.157 C 
ATOM      6  C   UNL     1      48.247 129.666  14.068  1.00  0.00     0.041 C 
BRANCH   5   7
ATOM      7  C   UNL     1      46.681 129.881  15.968  1.00  0.00     0.081 C 
ATOM      8  N   UNL     1      46.538 130.342  17.019  1.00  0.00    -0.197 NA
ENDBRANCH   5   7
ENDBRANCH   3   5
ENDBRANCH   2   3
ENDBRANCH   1   2
BRANCH   1   9
ATOM      9  C   UNL     1      43.113 132.219  14.717  1.00  0.00     0.008 C 
BRANCH   9  10
ATOM     10  C   UNL     1      43.231 131.759  16.176  1.00  0.00     0.060 C 
BRANCH  10  11
ATOM     11  C   UNL     1      43.138 132.909  17.131  1.00  0.00     0.083 A 
ATOM     12  C   UNL     1      44.147 133.782  17.471  1.00  0.00     0.140 A 
ATOM     13  N   UNL     1      42.005 133.306  17.743  1.00  0.00    -0.135 NA
ATOM     14  N   UNL     1      43.597 134.679  18.309  1.00  0.00    -0.220 N 
ATOM     15  N   UNL     1      42.313 134.384  18.451  1.00  0.00    -0.062 NA
BRANCH  14  16
ATOM     16  C   UNL     1      44.242 135.831  18.878  1.00  0.00     0.076 A 
ATOM     17  C   UNL     1      44.136 137.091  18.219  1.00  0.00     0.053 A 
ATOM     18  C   UNL     1      44.966 135.753  20.099  1.00  0.00     0.007 A 
ATOM     19  C   UNL     1      44.719 138.261  18.763  1.00  0.00     0.019 A 
ATOM     20  C   UNL     1      45.232 134.579  20.847  1.00  0.00     0.011 A 
ATOM     21  C   UNL     1      45.506 136.933  20.589  1.00  0.00    -0.020 A 
ATOM     22  C   UNL     1      45.405 138.148  19.975  1.00  0.00    -0.102 A 
ATOM     23  C   UNL     1      45.994 134.656  22.042  1.00  0.00     0.001 A 
ATOM     24  C   UNL     1      46.239 137.023  21.728  1.00  0.00     0.006 A 
ATOM     25  N   UNL     1      46.092 139.169  20.709  1.00  0.00    -0.620 NA
ATOM     26  C   UNL     1      46.508 135.891  22.495  1.00  0.00     0.011 A 
ATOM     27  C   UNL     1      46.616 138.428  21.823  1.00  0.00     0.086 C 
ATOM     28  O   UNL     1      47.309 138.940  22.740  1.00  0.00    -0.315 OA
BRANCH  19  29
ATOM     29  N   UNL     1      44.605 139.519  18.094  1.00  0.00    -0.400 N 
ATOM     30  H   UNL     1      45.251 139.772  17.314  1.00  0.00     0.156 HD
ATOM     31  H   UNL     1      43.870 140.206  18.375  1.00  0.00     0.156 HD
ENDBRANCH  19  29
ENDBRANCH  14  16
ENDBRANCH  10  11
ENDBRANCH   9  10
ENDBRANCH   1   9
TORSDOF 9
ENDMDL
MODEL 8
REMARK VINA RESULT:      -5.5      3.805      7.846
REMARK SMILES C[C@@H](C#N)N(C)CCCCc1cn(-c2cc(N)c3c4c(cccc24)C(=O)[N-]3)nn1
REMARK SMILES IDX 8 1 7 2 5 3 6 4 2 5 1 6 3 7 4 8 9 9 10 10 11 11 12 12 29 13
REMARK SMILES IDX 13 14 28 15 14 16 15 17 24 18 16 19 23 20 19 21 18 22 22 23
REMARK SMILES IDX 20 24 27 25 21 26 25 27 26 28 17 29
REMARK H PARENT 17 30 17 31
ROOT
ATOM      1  C   UNL     1      37.394 135.377  11.938  1.00  0.00     0.016 C 
ENDROOT
BRANCH   1   2
ATOM      2  C   UNL     1      38.455 135.488  10.833  1.00  0.00     0.085 C 
BRANCH   2   3
ATOM      3  N   UNL     1      37.828 135.674   9.501  1.00  0.00    -0.291 NA
ATOM      4  C   UNL     1      36.378 135.921   9.613  1.00  0.00     0.106 C 
BRANCH   3   5
ATOM      5  C   UNL     1      38.498 136.694   8.654  1.00  0.00     0.157 C 
ATOM      6  C   UNL     1      38.369 138.132   9.192  1.00  0.00     0.041 C 
BRANCH   5   7
ATOM      7  C   UNL     1      39.915 136.343   8.472  1.00  0.00     0.081 C 
ATOM      8  N   UNL     1      41.029 136.067   8.328  1.00  0.00    -0.197 NA
ENDBRANCH   5   7
ENDBRANCH   3   5
ENDBRANCH   2   3
ENDBRANCH   1   2
BRANCH   1   9
ATOM      9  C   UNL     1      37.912 134.585  13.150  1.00  0.00     0.008 C 
BRANCH   9  10
ATOM     10  C   UNL     1      37.546 135.256  14.481  1.00  0.00     0.060 C 
BRANCH  10  11
ATOM     11  C   UNL     1      38.303 134.661  15.629  1.00  0.00     0.083 A 
ATOM     12  C   UNL     1      39.562 134.107  15.586  1.00  0.00     0.140 A 
ATOM     13  N   UNL     1      37.877 134.657  16.907  1.00  0.00    -0.135 NA
ATOM     14  N   UNL     1      39.858 133.756  16.851  1.00  0.00    -0.220 N 
ATOM     15  N   UNL     1      38.842 134.104  17.627  1.00  0.00    -0.062 NA
BRANCH  14  16
ATOM     16  C   UNL     1      41.098 133.201  17.321  1.00  0.00     0.076 A 
ATOM     17  C   UNL     1      41.340 133.112  18.723  1.00  0.00     0.053 A 
ATOM     18  C   UNL     1      42.085 132.713  16.421  1.00  0.00     0.007 A 
ATOM     19  C   UNL     1      42.528 132.534  19.233  1.00  0.00     0.019 A 
ATOM     20  C   UNL     1      42.044 132.785  15.007  1.00  0.00     0.011 A 
ATOM     21  C   UNL     1      43.223 132.148  16.978  1.00  0.00    -0.020 A 
ATOM     22  C   UNL     1      43.464 132.047  18.318  1.00  0.00    -0.102 A 
ATOM     23  C   UNL     1      43.122 132.273  14.238  1.00  0.00     0.001 A 
ATOM     24  C   UNL     1      44.262 131.657  16.258  1.00  0.00     0.006 A 
ATOM     25  N   UNL     1      44.738 131.446  18.581  1.00  0.00    -0.620 NA
ATOM     26  C   UNL     1      44.250 131.699  14.865  1.00  0.00     0.011 A 
ATOM     27  C   UNL     1      45.229 131.206  17.252  1.00  0.00     0.086 C 
ATOM     28  O   UNL     1      46.346 130.682  17.002  1.00  0.00    -0.315 OA
BRANCH  19  29
ATOM     29  N   UNL     1      42.759 132.449  20.642  1.00  0.00    -0.400 N 
ATOM     30  H   UNL     1      42.519 131.582  21.172  1.00  0.00     0.156 HD
ATOM     31  H   UNL     1      43.173 133.253  21.162  1.00  0.00     0.156 HD
ENDBRANCH  19  29
ENDBRANCH  14  16
ENDBRANCH  10  11
ENDBRANCH   9  10
ENDBRANCH   1   9
TORSDOF 9
ENDMDL
MODEL 9
REMARK VINA RESULT:      -5.4      4.446      7.554
REMARK SMILES C[C@@H](C#N)N(C)CCCCc1cn(-c2cc(N)c3c4c(cccc24)C(=O)[N-]3)nn1
REMARK SMILES IDX 8 1 7 2 5 3 6 4 2 5 1 6 3 7 4 8 9 9 10 10 11 11 12 12 29 13
REMARK SMILES IDX 13 14 28 15 14 16 15 17 24 18 16 19 23 20 19 21 18 22 22 23
REMARK SMILES IDX 20 24 27 25 21 26 25 27 26 28 17 29
REMARK H PARENT 17 30 17 31
ROOT
ATOM      1  C   UNL     1      43.778 137.650  21.310  1.00  0.00     0.016 C 
ENDROOT
BRANCH   1   2
ATOM      2  C   UNL     1      44.774 136.508  21.553  1.00  0.00     0.085 C 
BRANCH   2   3
ATOM      3  N   UNL     1      46.175 136.976  21.413  1.00  0.00    -0.291 NA
ATOM      4  C   UNL     1      46.241 138.434  21.198  1.00  0.00     0.106 C 
BRANCH   3   5
ATOM      5  C   UNL     1      47.072 136.539  22.513  1.00  0.00     0.157 C 
ATOM      6  C   UNL     1      46.327 136.102  23.788  1.00  0.00     0.041 C 
BRANCH   5   7
ATOM      7  C   UNL     1      47.954 135.458  22.043  1.00  0.00     0.081 C 
ATOM      8  N   UNL     1      48.646 134.608  21.674  1.00  0.00    -0.197 NA
ENDBRANCH   5   7
ENDBRANCH   3   5
ENDBRANCH   2   3
ENDBRANCH   1   2
BRANCH   1   9
ATOM      9  C   UNL     1      42.465 137.142  20.691  1.00  0.00     0.008 C 
BRANCH   9  10
ATOM     10  C   UNL     1      41.935 135.890  21.401  1.00  0.00     0.060 C 
BRANCH  10  11
ATOM     11  C   UNL     1      42.029 134.675  20.529  1.00  0.00     0.083 A 
ATOM     12  C   UNL     1      42.401 134.640  19.204  1.00  0.00     0.140 A 
ATOM     13  N   UNL     1      41.832 133.411  20.952  1.00  0.00    -0.135 NA
ATOM     14  N   UNL     1      42.397 133.341  18.850  1.00  0.00    -0.220 N 
ATOM     15  N   UNL     1      42.064 132.622  19.912  1.00  0.00    -0.062 NA
BRANCH  14  16
ATOM     16  C   UNL     1      42.787 132.796  17.579  1.00  0.00     0.076 A 
ATOM     17  C   UNL     1      42.053 133.151  16.409  1.00  0.00     0.053 A 
ATOM     18  C   UNL     1      43.905 131.928  17.451  1.00  0.00     0.007 A 
ATOM     19  C   UNL     1      42.426 132.673  15.129  1.00  0.00     0.019 A 
ATOM     20  C   UNL     1      44.700 131.418  18.507  1.00  0.00     0.011 A 
ATOM     21  C   UNL     1      44.229 131.500  16.172  1.00  0.00    -0.020 A 
ATOM     22  C   UNL     1      43.543 131.839  15.042  1.00  0.00    -0.102 A 
ATOM     23  C   UNL     1      45.776 130.536  18.224  1.00  0.00     0.001 A 
ATOM     24  C   UNL     1      45.253 130.656  15.885  1.00  0.00     0.006 A 
ATOM     25  N   UNL     1      44.100 131.215  13.879  1.00  0.00    -0.620 NA
ATOM     26  C   UNL     1      46.063 130.145  16.897  1.00  0.00     0.011 A 
ATOM     27  C   UNL     1      45.190 130.466  14.441  1.00  0.00     0.086 C 
ATOM     28  O   UNL     1      45.967 129.745  13.763  1.00  0.00    -0.315 OA
BRANCH  19  29
ATOM     29  N   UNL     1      41.683 133.037  13.963  1.00  0.00    -0.400 N 
ATOM     30  H   UNL     1      42.094 133.671  13.242  1.00  0.00     0.156 HD
ATOM     31  H   UNL     1      40.716 132.672  13.813  1.00  0.00     0.156 HD
ENDBRANCH  19  29
ENDBRANCH  14  16
ENDBRANCH  10  11
ENDBRANCH   9  10
ENDBRANCH   1   9
TORSDOF 9
ENDMDL


