MODEL 1
REMARK VINA RESULT:      -6.4      0.000      0.000
REMARK SMILES C[C@@H](C#N)N(C)CCCCc1cn(-c2cc(N=C=O)c3c4c(cccc24)C(=O)[N-]3)nn1
REMARK SMILES IDX 9 1 10 2 11 3 13 4 30 5 12 6 31 7 14 8 24 9 23 10 25 11
REMARK SMILES IDX 22 12 26 13 21 14 27 15 20 16 29 17 15 18 16 19 28 20 17 21
REMARK SMILES IDX 18 22 19 23 8 24 7 25 5 26 6 27 2 28 1 29 3 30 4 31
REMARK H PARENT
ROOT
ATOM      1  C   UNL     1      45.781 130.891  16.796  1.00  0.00     0.008 C 
ENDROOT
BRANCH   1   2
ATOM      2  C   UNL     1      44.974 131.758  17.774  1.00  0.00     0.060 C 
BRANCH   2   3
ATOM      3  C   UNL     1      43.796 132.404  17.106  1.00  0.00     0.083 A 
ATOM      4  N   UNL     1      42.467 133.841  16.157  1.00  0.00    -0.220 N 
ATOM      5  N   UNL     1      41.854 132.669  16.231  1.00  0.00    -0.062 NA
ATOM      6  C   UNL     1      43.682 133.720  16.721  1.00  0.00     0.140 A 
ATOM      7  N   UNL     1      42.645 131.770  16.800  1.00  0.00    -0.135 NA
BRANCH   4   8
ATOM      8  C   UNL     1      41.870 135.034  15.632  1.00  0.00     0.076 A 
ATOM      9  C   UNL     1      38.732 133.968  13.768  1.00  0.00     0.001 A 
ATOM     10  C   UNL     1      38.315 135.224  13.277  1.00  0.00     0.011 A 
ATOM     11  C   UNL     1      39.907 133.847  14.555  1.00  0.00     0.011 A 
ATOM     12  C   UNL     1      39.097 136.333  13.597  1.00  0.00     0.006 A 
ATOM     13  C   UNL     1      40.686 134.995  14.846  1.00  0.00     0.007 A 
ATOM     14  C   UNL     1      40.220 136.203  14.351  1.00  0.00    -0.019 A 
ATOM     15  C   UNL     1      38.986 137.761  13.331  1.00  0.00     0.086 C 
ATOM     16  C   UNL     1      40.802 137.417  14.584  1.00  0.00    -0.098 A 
ATOM     17  N   UNL     1      40.067 138.474  13.952  1.00  0.00    -0.620 NA
ATOM     18  C   UNL     1      42.481 136.290  15.905  1.00  0.00     0.057 A 
ATOM     19  C   UNL     1      41.958 137.498  15.383  1.00  0.00     0.064 A 
ATOM     20  O   UNL     1      38.082 138.312  12.651  1.00  0.00    -0.315 OA
BRANCH  19  21
ATOM     21  N   UNL     1      42.624 138.733  15.693  1.00  0.00    -0.169 NA
BRANCH  21  22
ATOM     22  C   UNL     1      43.239 138.962  16.784  1.00  0.00     0.240 C 
ATOM     23  O   UNL     1      43.838 139.185  17.845  1.00  0.00    -0.211 OA
ENDBRANCH  21  22
ENDBRANCH  19  21
ENDBRANCH   4   8
ENDBRANCH   2   3
ENDBRANCH   1   2
BRANCH   1  24
ATOM     24  C   UNL     1      45.136 129.513  16.571  1.00  0.00     0.016 C 
BRANCH  24  25
ATOM     25  C   UNL     1      45.427 128.983  15.163  1.00  0.00     0.085 C 
BRANCH  25  26
ATOM     26  N   UNL     1      45.747 130.108  14.252  1.00  0.00    -0.291 NA
ATOM     27  C   UNL     1      44.524 130.742  13.717  1.00  0.00     0.106 C 
BRANCH  26  28
ATOM     28  C   UNL     1      46.742 129.745  13.210  1.00  0.00     0.157 C 
ATOM     29  C   UNL     1      46.871 130.796  12.096  1.00  0.00     0.041 C 
BRANCH  28  30
ATOM     30  C   UNL     1      48.054 129.490  13.829  1.00  0.00     0.081 C 
ATOM     31  N   UNL     1      49.086 129.287  14.312  1.00  0.00    -0.197 NA
ENDBRANCH  28  30
ENDBRANCH  26  28
ENDBRANCH  25  26
ENDBRANCH  24  25
ENDBRANCH   1  24
TORSDOF 10
ENDMDL
MODEL 2
REMARK VINA RESULT:      -5.8      5.091      7.939
REMARK SMILES C[C@@H](C#N)N(C)CCCCc1cn(-c2cc(N=C=O)c3c4c(cccc24)C(=O)[N-]3)nn1
REMARK SMILES IDX 9 1 10 2 11 3 13 4 30 5 12 6 31 7 14 8 24 9 23 10 25 11
REMARK SMILES IDX 22 12 26 13 21 14 27 15 20 16 29 17 15 18 16 19 28 20 17 21
REMARK SMILES IDX 18 22 19 23 8 24 7 25 5 26 6 27 2 28 1 29 3 30 4 31
REMARK H PARENT
ROOT
ATOM      1  C   UNL     1      44.873 135.828  22.085  1.00  0.00     0.008 C 
ENDROOT
BRANCH   1   2
ATOM      2  C   UNL     1      43.561 135.110  22.435  1.00  0.00     0.060 C 
BRANCH   2   3
ATOM      3  C   UNL     1      43.047 134.293  21.287  1.00  0.00     0.083 A 
ATOM      4  N   UNL     1      42.851 133.283  19.371  1.00  0.00    -0.220 N 
ATOM      5  N   UNL     1      41.767 133.048  20.095  1.00  0.00    -0.062 NA
ATOM      6  C   UNL     1      43.669 134.083  20.078  1.00  0.00     0.140 A 
ATOM      7  N   UNL     1      41.863 133.648  21.274  1.00  0.00    -0.135 NA
BRANCH   4   8
ATOM      8  C   UNL     1      43.045 132.812  18.030  1.00  0.00     0.076 A 
ATOM      9  C   UNL     1      46.006 130.427  18.117  1.00  0.00     0.001 A 
ATOM     10  C   UNL     1      46.094 130.116  16.743  1.00  0.00     0.011 A 
ATOM     11  C   UNL     1      45.013 131.319  18.599  1.00  0.00     0.011 A 
ATOM     12  C   UNL     1      45.170 130.713  15.886  1.00  0.00     0.006 A 
ATOM     13  C   UNL     1      44.100 131.920  17.696  1.00  0.00     0.007 A 
ATOM     14  C   UNL     1      44.224 131.565  16.361  1.00  0.00    -0.019 A 
ATOM     15  C   UNL     1      44.906 130.618  14.457  1.00  0.00     0.086 C 
ATOM     16  C   UNL     1      43.396 131.992  15.362  1.00  0.00    -0.098 A 
ATOM     17  N   UNL     1      43.776 131.428  14.098  1.00  0.00    -0.620 NA
ATOM     18  C   UNL     1      42.158 133.253  17.008  1.00  0.00     0.057 A 
ATOM     19  C   UNL     1      42.323 132.852  15.661  1.00  0.00     0.064 A 
ATOM     20  O   UNL     1      45.566 129.932  13.633  1.00  0.00    -0.315 OA
BRANCH  19  21
ATOM     21  N   UNL     1      41.395 133.335  14.675  1.00  0.00    -0.169 NA
BRANCH  21  22
ATOM     22  C   UNL     1      41.072 134.559  14.535  1.00  0.00     0.240 C 
ATOM     23  O   UNL     1      40.757 135.749  14.397  1.00  0.00    -0.211 OA
ENDBRANCH  21  22
ENDBRANCH  19  21
ENDBRANCH   4   8
ENDBRANCH   2   3
ENDBRANCH   1   2
BRANCH   1  24
ATOM     24  C   UNL     1      46.029 135.415  23.012  1.00  0.00     0.016 C 
BRANCH  24  25
ATOM     25  C   UNL     1      46.681 136.635  23.670  1.00  0.00     0.085 C 
BRANCH  25  26
ATOM     26  N   UNL     1      47.843 137.085  22.869  1.00  0.00    -0.291 NA
ATOM     27  C   UNL     1      47.487 138.204  21.971  1.00  0.00     0.106 C 
BRANCH  26  28
ATOM     28  C   UNL     1      48.546 135.968  22.188  1.00  0.00     0.157 C 
ATOM     29  C   UNL     1      49.480 136.431  21.059  1.00  0.00     0.041 C 
BRANCH  28  30
ATOM     30  C   UNL     1      49.290 135.163  23.171  1.00  0.00     0.081 C 
ATOM     31  N   UNL     1      49.875 134.533  23.947  1.00  0.00    -0.197 NA
ENDBRANCH  28  30
ENDBRANCH  26  28
ENDBRANCH  25  26
ENDBRANCH  24  25
ENDBRANCH   1  24
TORSDOF 10
ENDMDL
MODEL 3
REMARK VINA RESULT:      -5.8      3.896      9.105
REMARK SMILES C[C@@H](C#N)N(C)CCCCc1cn(-c2cc(N=C=O)c3c4c(cccc24)C(=O)[N-]3)nn1
REMARK SMILES IDX 9 1 10 2 11 3 13 4 30 5 12 6 31 7 14 8 24 9 23 10 25 11
REMARK SMILES IDX 22 12 26 13 21 14 27 15 20 16 29 17 15 18 16 19 28 20 17 21
REMARK SMILES IDX 18 22 19 23 8 24 7 25 5 26 6 27 2 28 1 29 3 30 4 31
REMARK H PARENT
ROOT
ATOM      1  C   UNL     1      39.153 135.967  12.413  1.00  0.00     0.008 C 
ENDROOT
BRANCH   1   2
ATOM      2  C   UNL     1      38.763 134.905  13.453  1.00  0.00     0.060 C 
BRANCH   2   3
ATOM      3  C   UNL     1      39.840 134.704  14.477  1.00  0.00     0.083 A 
ATOM      4  N   UNL     1      41.552 133.937  15.579  1.00  0.00    -0.220 N 
ATOM      5  N   UNL     1      41.055 134.981  16.226  1.00  0.00    -0.062 NA
ATOM      6  C   UNL     1      40.799 133.716  14.487  1.00  0.00     0.140 A 
ATOM      7  N   UNL     1      40.012 135.474  15.571  1.00  0.00    -0.135 NA
BRANCH   4   8
ATOM      8  C   UNL     1      42.657 133.149  16.043  1.00  0.00     0.076 A 
ATOM      9  C   UNL     1      42.077 132.511  19.746  1.00  0.00     0.001 A 
ATOM     10  C   UNL     1      43.257 131.797  20.047  1.00  0.00     0.011 A 
ATOM     11  C   UNL     1      41.828 132.986  18.432  1.00  0.00     0.011 A 
ATOM     12  C   UNL     1      44.159 131.575  19.007  1.00  0.00     0.006 A 
ATOM     13  C   UNL     1      42.776 132.755  17.403  1.00  0.00     0.007 A 
ATOM     14  C   UNL     1      43.908 132.035  17.753  1.00  0.00    -0.019 A 
ATOM     15  C   UNL     1      45.426 130.865  18.899  1.00  0.00     0.086 C 
ATOM     16  C   UNL     1      44.894 131.664  16.883  1.00  0.00    -0.098 A 
ATOM     17  N   UNL     1      45.915 130.909  17.550  1.00  0.00    -0.620 NA
ATOM     18  C   UNL     1      43.662 132.755  15.116  1.00  0.00     0.057 A 
ATOM     19  C   UNL     1      44.795 132.010  15.523  1.00  0.00     0.064 A 
ATOM     20  O   UNL     1      46.027 130.291  19.844  1.00  0.00    -0.315 OA
BRANCH  19  21
ATOM     21  N   UNL     1      45.776 131.647  14.537  1.00  0.00    -0.169 NA
BRANCH  21  22
ATOM     22  C   UNL     1      46.238 130.470  14.386  1.00  0.00     0.240 C 
ATOM     23  O   UNL     1      46.690 129.326  14.239  1.00  0.00    -0.211 OA
ENDBRANCH  21  22
ENDBRANCH  19  21
ENDBRANCH   4   8
ENDBRANCH   2   3
ENDBRANCH   1   2
BRANCH   1  24
ATOM     24  C   UNL     1      38.097 137.079  12.293  1.00  0.00     0.016 C 
BRANCH  24  25
ATOM     25  C   UNL     1      37.076 136.763  11.196  1.00  0.00     0.085 C 
BRANCH  25  26
ATOM     26  N   UNL     1      37.390 137.535   9.970  1.00  0.00    -0.291 NA
ATOM     27  C   UNL     1      37.194 138.986  10.174  1.00  0.00     0.106 C 
BRANCH  26  28
ATOM     28  C   UNL     1      36.716 137.001   8.760  1.00  0.00     0.157 C 
ATOM     29  C   UNL     1      37.063 137.772   7.476  1.00  0.00     0.041 C 
BRANCH  28  30
ATOM     30  C   UNL     1      37.024 135.570   8.598  1.00  0.00     0.081 C 
ATOM     31  N   UNL     1      37.268 134.446   8.467  1.00  0.00    -0.197 NA
ENDBRANCH  28  30
ENDBRANCH  26  28
ENDBRANCH  25  26
ENDBRANCH  24  25
ENDBRANCH   1  24
TORSDOF 10
ENDMDL
MODEL 4
REMARK VINA RESULT:      -5.8      3.810      8.271
REMARK SMILES C[C@@H](C#N)N(C)CCCCc1cn(-c2cc(N=C=O)c3c4c(cccc24)C(=O)[N-]3)nn1
REMARK SMILES IDX 9 1 10 2 11 3 13 4 30 5 12 6 31 7 14 8 24 9 23 10 25 11
REMARK SMILES IDX 22 12 26 13 21 14 27 15 20 16 29 17 15 18 16 19 28 20 17 21
REMARK SMILES IDX 18 22 19 23 8 24 7 25 5 26 6 27 2 28 1 29 3 30 4 31
REMARK H PARENT
ROOT
ATOM      1  C   UNL     1      38.883 136.266  17.555  1.00  0.00     0.008 C 
ENDROOT
BRANCH   1   2
ATOM      2  C   UNL     1      38.618 135.139  18.566  1.00  0.00     0.060 C 
BRANCH   2   3
ATOM      3  C   UNL     1      39.883 134.448  18.977  1.00  0.00     0.083 A 
ATOM      4  N   UNL     1      41.776 133.377  18.952  1.00  0.00    -0.220 N 
ATOM      5  N   UNL     1      41.443 133.635  20.208  1.00  0.00    -0.062 NA
ATOM      6  C   UNL     1      40.807 133.851  18.150  1.00  0.00     0.140 A 
ATOM      7  N   UNL     1      40.294 134.295  20.253  1.00  0.00    -0.135 NA
BRANCH   4   8
ATOM      8  C   UNL     1      42.942 132.640  18.559  1.00  0.00     0.076 A 
ATOM      9  C   UNL     1      42.821 132.319  14.773  1.00  0.00     0.001 A 
ATOM     10  C   UNL     1      43.977 131.535  14.568  1.00  0.00     0.011 A 
ATOM     11  C   UNL     1      42.430 132.713  16.078  1.00  0.00     0.011 A 
ATOM     12  C   UNL     1      44.714 131.170  15.693  1.00  0.00     0.006 A 
ATOM     13  C   UNL     1      43.196 132.309  17.201  1.00  0.00     0.007 A 
ATOM     14  C   UNL     1      44.329 131.554  16.938  1.00  0.00    -0.019 A 
ATOM     15  C   UNL     1      45.953 130.429  15.895  1.00  0.00     0.086 C 
ATOM     16  C   UNL     1      45.219 131.131  17.885  1.00  0.00    -0.098 A 
ATOM     17  N   UNL     1      46.295 130.391  17.289  1.00  0.00    -0.620 NA
ATOM     18  C   UNL     1      43.868 132.227  19.559  1.00  0.00     0.057 A 
ATOM     19  C   UNL     1      45.016 131.466  19.236  1.00  0.00     0.064 A 
ATOM     20  O   UNL     1      46.639 129.888  14.990  1.00  0.00    -0.315 OA
BRANCH  19  21
ATOM     21  N   UNL     1      45.910 131.077  20.293  1.00  0.00    -0.169 NA
BRANCH  21  22
ATOM     22  C   UNL     1      45.564 130.942  21.511  1.00  0.00     0.240 C 
ATOM     23  O   UNL     1      45.226 130.812  22.695  1.00  0.00    -0.211 OA
ENDBRANCH  21  22
ENDBRANCH  19  21
ENDBRANCH   4   8
ENDBRANCH   2   3
ENDBRANCH   1   2
BRANCH   1  24
ATOM     24  C   UNL     1      38.282 135.960  16.172  1.00  0.00     0.016 C 
BRANCH  24  25
ATOM     25  C   UNL     1      39.218 136.409  15.046  1.00  0.00     0.085 C 
BRANCH  25  26
ATOM     26  N   UNL     1      38.456 136.570  13.784  1.00  0.00    -0.291 NA
ATOM     27  C   UNL     1      37.025 136.836  14.041  1.00  0.00     0.106 C 
BRANCH  26  28
ATOM     28  C   UNL     1      38.699 135.471  12.816  1.00  0.00     0.157 C 
ATOM     29  C   UNL     1      37.682 134.325  12.923  1.00  0.00     0.041 C 
BRANCH  28  30
ATOM     30  C   UNL     1      38.730 136.002  11.443  1.00  0.00     0.081 C 
ATOM     31  N   UNL     1      38.757 136.424  10.364  1.00  0.00    -0.197 NA
ENDBRANCH  28  30
ENDBRANCH  26  28
ENDBRANCH  25  26
ENDBRANCH  24  25
ENDBRANCH   1  24
TORSDOF 10
ENDMDL
MODEL 5
REMARK VINA RESULT:      -5.7      3.200      5.200
REMARK SMILES C[C@@H](C#N)N(C)CCCCc1cn(-c2cc(N=C=O)c3c4c(cccc24)C(=O)[N-]3)nn1
REMARK SMILES IDX 9 1 10 2 11 3 13 4 30 5 12 6 31 7 14 8 24 9 23 10 25 11
REMARK SMILES IDX 22 12 26 13 21 14 27 15 20 16 29 17 15 18 16 19 28 20 17 21
REMARK SMILES IDX 18 22 19 23 8 24 7 25 5 26 6 27 2 28 1 29 3 30 4 31
REMARK H PARENT
ROOT
ATOM      1  C   UNL     1      45.345 131.792  15.172  1.00  0.00     0.008 C 
ENDROOT
BRANCH   1   2
ATOM      2  C   UNL     1      44.072 131.042  14.751  1.00  0.00     0.060 C 
BRANCH   2   3
ATOM      3  C   UNL     1      42.882 131.953  14.686  1.00  0.00     0.083 A 
ATOM      4  N   UNL     1      41.369 133.442  15.159  1.00  0.00    -0.220 N 
ATOM      5  N   UNL     1      41.115 132.934  13.962  1.00  0.00    -0.062 NA
ATOM      6  C   UNL     1      42.459 132.832  15.657  1.00  0.00     0.140 A 
ATOM      7  N   UNL     1      42.028 132.026  13.644  1.00  0.00    -0.135 NA
BRANCH   4   8
ATOM      8  C   UNL     1      40.547 134.418  15.815  1.00  0.00     0.076 A 
ATOM      9  C   UNL     1      42.394 137.734  15.605  1.00  0.00     0.001 A 
ATOM     10  C   UNL     1      41.498 138.546  16.333  1.00  0.00     0.011 A 
ATOM     11  C   UNL     1      42.129 136.355  15.404  1.00  0.00     0.011 A 
ATOM     12  C   UNL     1      40.348 137.943  16.839  1.00  0.00     0.006 A 
ATOM     13  C   UNL     1      40.956 135.772  15.948  1.00  0.00     0.007 A 
ATOM     14  C   UNL     1      40.105 136.621  16.640  1.00  0.00    -0.019 A 
ATOM     15  C   UNL     1      39.191 138.429  17.579  1.00  0.00     0.086 C 
ATOM     16  C   UNL     1      38.904 136.252  17.175  1.00  0.00    -0.098 A 
ATOM     17  N   UNL     1      38.254 137.365  17.806  1.00  0.00    -0.620 NA
ATOM     18  C   UNL     1      39.289 134.017  16.347  1.00  0.00     0.057 A 
ATOM     19  C   UNL     1      38.452 134.926  17.036  1.00  0.00     0.064 A 
ATOM     20  O   UNL     1      39.019 139.610  17.978  1.00  0.00    -0.315 OA
BRANCH  19  21
ATOM     21  N   UNL     1      37.196 134.457  17.553  1.00  0.00    -0.169 NA
BRANCH  21  22
ATOM     22  C   UNL     1      37.015 134.068  18.751  1.00  0.00     0.240 C 
ATOM     23  O   UNL     1      36.840 133.689  19.918  1.00  0.00    -0.211 OA
ENDBRANCH  21  22
ENDBRANCH  19  21
ENDBRANCH   4   8
ENDBRANCH   2   3
ENDBRANCH   1   2
BRANCH   1  24
ATOM     24  C   UNL     1      45.239 132.367  16.594  1.00  0.00     0.016 C 
BRANCH  24  25
ATOM     25  C   UNL     1      45.163 131.253  17.643  1.00  0.00     0.085 C 
BRANCH  25  26
ATOM     26  N   UNL     1      44.311 131.680  18.779  1.00  0.00    -0.291 NA
ATOM     27  C   UNL     1      44.238 133.152  18.883  1.00  0.00     0.106 C 
BRANCH  26  28
ATOM     28  C   UNL     1      44.662 131.003  20.053  1.00  0.00     0.157 C 
ATOM     29  C   UNL     1      46.087 131.311  20.537  1.00  0.00     0.041 C 
BRANCH  28  30
ATOM     30  C   UNL     1      43.681 131.346  21.096  1.00  0.00     0.081 C 
ATOM     31  N   UNL     1      42.908 131.619  21.914  1.00  0.00    -0.197 NA
ENDBRANCH  28  30
ENDBRANCH  26  28
ENDBRANCH  25  26
ENDBRANCH  24  25
ENDBRANCH   1  24
TORSDOF 10
ENDMDL
MODEL 6
REMARK VINA RESULT:      -5.6      2.464      3.921
REMARK SMILES C[C@@H](C#N)N(C)CCCCc1cn(-c2cc(N=C=O)c3c4c(cccc24)C(=O)[N-]3)nn1
REMARK SMILES IDX 9 1 10 2 11 3 13 4 30 5 12 6 31 7 14 8 24 9 23 10 25 11
REMARK SMILES IDX 22 12 26 13 21 14 27 15 20 16 29 17 15 18 16 19 28 20 17 21
REMARK SMILES IDX 18 22 19 23 8 24 7 25 5 26 6 27 2 28 1 29 3 30 4 31
REMARK H PARENT
ROOT
ATOM      1  C   UNL     1      45.954 130.589  17.325  1.00  0.00     0.008 C 
ENDROOT
BRANCH   1   2
ATOM      2  C   UNL     1      45.539 130.946  18.761  1.00  0.00     0.060 C 
BRANCH   2   3
ATOM      3  C   UNL     1      44.290 131.775  18.793  1.00  0.00     0.083 A 
ATOM      4  N   UNL     1      42.762 133.259  18.354  1.00  0.00    -0.220 N 
ATOM      5  N   UNL     1      42.365 132.522  19.381  1.00  0.00    -0.062 NA
ATOM      6  C   UNL     1      43.980 132.835  17.973  1.00  0.00     0.140 A 
ATOM      7  N   UNL     1      43.277 131.602  19.667  1.00  0.00    -0.135 NA
BRANCH   4   8
ATOM      8  C   UNL     1      42.024 134.368  17.822  1.00  0.00     0.076 A 
ATOM      9  C   UNL     1      42.083 137.100  20.466  1.00  0.00     0.001 A 
ATOM     10  C   UNL     1      41.280 138.066  19.821  1.00  0.00     0.011 A 
ATOM     11  C   UNL     1      42.361 135.854  19.849  1.00  0.00     0.011 A 
ATOM     12  C   UNL     1      40.779 137.748  18.560  1.00  0.00     0.006 A 
ATOM     13  C   UNL     1      41.819 135.559  18.571  1.00  0.00     0.007 A 
ATOM     14  C   UNL     1      41.052 136.550  17.979  1.00  0.00    -0.019 A 
ATOM     15  C   UNL     1      39.977 138.467  17.579  1.00  0.00     0.086 C 
ATOM     16  C   UNL     1      40.506 136.470  16.730  1.00  0.00    -0.098 A 
ATOM     17  N   UNL     1      39.788 137.668  16.400  1.00  0.00    -0.620 NA
ATOM     18  C   UNL     1      41.481 134.272  16.511  1.00  0.00     0.057 A 
ATOM     19  C   UNL     1      40.713 135.319  15.947  1.00  0.00     0.064 A 
ATOM     20  O   UNL     1      39.501 139.622  17.725  1.00  0.00    -0.315 OA
BRANCH  19  21
ATOM     21  N   UNL     1      40.189 135.157  14.619  1.00  0.00    -0.169 NA
BRANCH  21  22
ATOM     22  C   UNL     1      39.620 134.099  14.196  1.00  0.00     0.240 C 
ATOM     23  O   UNL     1      39.068 133.070  13.785  1.00  0.00    -0.211 OA
ENDBRANCH  21  22
ENDBRANCH  19  21
ENDBRANCH   4   8
ENDBRANCH   2   3
ENDBRANCH   1   2
BRANCH   1  24
ATOM     24  C   UNL     1      44.929 129.672  16.635  1.00  0.00     0.016 C 
BRANCH  24  25
ATOM     25  C   UNL     1      45.456 129.159  15.291  1.00  0.00     0.085 C 
BRANCH  25  26
ATOM     26  N   UNL     1      46.242 130.218  14.614  1.00  0.00    -0.291 NA
ATOM     27  C   UNL     1      45.446 131.448  14.420  1.00  0.00     0.106 C 
BRANCH  26  28
ATOM     28  C   UNL     1      46.920 129.740  13.383  1.00  0.00     0.157 C 
ATOM     29  C   UNL     1      46.696 130.652  12.167  1.00  0.00     0.041 C 
BRANCH  28  30
ATOM     30  C   UNL     1      48.360 129.563  13.633  1.00  0.00     0.081 C 
ATOM     31  N   UNL     1      49.493 129.428  13.832  1.00  0.00    -0.197 NA
ENDBRANCH  28  30
ENDBRANCH  26  28
ENDBRANCH  25  26
ENDBRANCH  24  25
ENDBRANCH   1  24
TORSDOF 10
ENDMDL
MODEL 7
REMARK VINA RESULT:      -5.6      4.867      9.100
REMARK SMILES C[C@@H](C#N)N(C)CCCCc1cn(-c2cc(N=C=O)c3c4c(cccc24)C(=O)[N-]3)nn1
REMARK SMILES IDX 9 1 10 2 11 3 13 4 30 5 12 6 31 7 14 8 24 9 23 10 25 11
REMARK SMILES IDX 22 12 26 13 21 14 27 15 20 16 29 17 15 18 16 19 28 20 17 21
REMARK SMILES IDX 18 22 19 23 8 24 7 25 5 26 6 27 2 28 1 29 3 30 4 31
REMARK H PARENT
ROOT
ATOM      1  C   UNL     1      37.269 135.261  18.037  1.00  0.00     0.008 C 
ENDROOT
BRANCH   1   2
ATOM      2  C   UNL     1      37.794 133.822  17.907  1.00  0.00     0.060 C 
BRANCH   2   3
ATOM      3  C   UNL     1      39.243 133.788  17.522  1.00  0.00     0.083 A 
ATOM      4  N   UNL     1      41.327 133.206  17.297  1.00  0.00    -0.220 N 
ATOM      5  N   UNL     1      41.126 134.348  16.656  1.00  0.00    -0.062 NA
ATOM      6  C   UNL     1      40.171 132.836  17.876  1.00  0.00     0.140 A 
ATOM      7  N   UNL     1      39.859 134.724  16.771  1.00  0.00    -0.135 NA
BRANCH   4   8
ATOM      8  C   UNL     1      42.598 132.551  17.401  1.00  0.00     0.076 A 
ATOM      9  C   UNL     1      43.608 131.536  13.879  1.00  0.00     0.001 A 
ATOM     10  C   UNL     1      44.818 130.868  14.167  1.00  0.00     0.011 A 
ATOM     11  C   UNL     1      42.830 132.113  14.916  1.00  0.00     0.011 A 
ATOM     12  C   UNL     1      45.215 130.801  15.501  1.00  0.00     0.006 A 
ATOM     13  C   UNL     1      43.257 132.010  16.264  1.00  0.00     0.007 A 
ATOM     14  C   UNL     1      44.460 131.357  16.485  1.00  0.00    -0.019 A 
ATOM     15  C   UNL     1      46.382 130.259  16.185  1.00  0.00     0.086 C 
ATOM     16  C   UNL     1      45.058 131.220  17.706  1.00  0.00    -0.098 A 
ATOM     17  N   UNL     1      46.302 130.514  17.596  1.00  0.00    -0.620 NA
ATOM     18  C   UNL     1      43.213 132.437  18.680  1.00  0.00     0.057 A 
ATOM     19  C   UNL     1      44.449 131.768  18.850  1.00  0.00     0.064 A 
ATOM     20  O   UNL     1      47.333 129.645  15.636  1.00  0.00    -0.315 OA
BRANCH  19  21
ATOM     21  N   UNL     1      45.016 131.684  20.168  1.00  0.00    -0.169 NA
BRANCH  21  22
ATOM     22  C   UNL     1      44.349 131.422  21.220  1.00  0.00     0.240 C 
ATOM     23  O   UNL     1      43.700 131.168  22.244  1.00  0.00    -0.211 OA
ENDBRANCH  21  22
ENDBRANCH  19  21
ENDBRANCH   4   8
ENDBRANCH   2   3
ENDBRANCH   1   2
BRANCH   1  24
ATOM     24  C   UNL     1      37.683 135.912  19.368  1.00  0.00     0.016 C 
BRANCH  24  25
ATOM     25  C   UNL     1      37.450 134.964  20.549  1.00  0.00     0.085 C 
BRANCH  25  26
ATOM     26  N   UNL     1      38.450 135.220  21.613  1.00  0.00    -0.291 NA
ATOM     27  C   UNL     1      38.200 134.389  22.809  1.00  0.00     0.106 C 
BRANCH  26  28
ATOM     28  C   UNL     1      38.624 136.664  21.909  1.00  0.00     0.157 C 
ATOM     29  C   UNL     1      37.576 137.219  22.886  1.00  0.00     0.041 C 
BRANCH  28  30
ATOM     30  C   UNL     1      39.983 136.917  22.418  1.00  0.00     0.081 C 
ATOM     31  N   UNL     1      41.051 137.113  22.821  1.00  0.00    -0.197 NA
ENDBRANCH  28  30
ENDBRANCH  26  28
ENDBRANCH  25  26
ENDBRANCH  24  25
ENDBRANCH   1  24
TORSDOF 10
ENDMDL
MODEL 8
REMARK VINA RESULT:      -5.6      4.538      8.212
REMARK SMILES C[C@@H](C#N)N(C)CCCCc1cn(-c2cc(N=C=O)c3c4c(cccc24)C(=O)[N-]3)nn1
REMARK SMILES IDX 9 1 10 2 11 3 13 4 30 5 12 6 31 7 14 8 24 9 23 10 25 11
REMARK SMILES IDX 22 12 26 13 21 14 27 15 20 16 29 17 15 18 16 19 28 20 17 21
REMARK SMILES IDX 18 22 19 23 8 24 7 25 5 26 6 27 2 28 1 29 3 30 4 31
REMARK H PARENT
ROOT
ATOM      1  C   UNL     1      42.894 137.033  21.403  1.00  0.00     0.008 C 
ENDROOT
BRANCH   1   2
ATOM      2  C   UNL     1      41.565 136.277  21.560  1.00  0.00     0.060 C 
BRANCH   2   3
ATOM      3  C   UNL     1      41.407 135.203  20.525  1.00  0.00     0.083 A 
ATOM      4  N   UNL     1      41.745 133.855  18.852  1.00  0.00    -0.220 N 
ATOM      5  N   UNL     1      40.563 133.589  19.389  1.00  0.00    -0.062 NA
ATOM      6  C   UNL     1      42.295 134.881  19.525  1.00  0.00     0.140 A 
ATOM      7  N   UNL     1      40.333 134.394  20.418  1.00  0.00    -0.135 NA
BRANCH   4   8
ATOM      8  C   UNL     1      42.276 133.191  17.697  1.00  0.00     0.076 A 
ATOM      9  C   UNL     1      45.205 131.080  18.888  1.00  0.00     0.001 A 
ATOM     10  C   UNL     1      45.636 130.560  17.648  1.00  0.00     0.011 A 
ATOM     11  C   UNL     1      44.095 131.960  18.962  1.00  0.00     0.011 A 
ATOM     12  C   UNL     1      44.930 130.941  16.509  1.00  0.00     0.006 A 
ATOM     13  C   UNL     1      43.410 132.339  17.779  1.00  0.00     0.007 A 
ATOM     14  C   UNL     1      43.867 131.785  16.593  1.00  0.00    -0.019 A 
ATOM     15  C   UNL     1      45.025 130.598  15.096  1.00  0.00     0.086 C 
ATOM     16  C   UNL     1      43.294 131.983  15.369  1.00  0.00    -0.098 A 
ATOM     17  N   UNL     1      43.989 131.254  14.348  1.00  0.00    -0.620 NA
ATOM     18  C   UNL     1      41.650 133.395  16.435  1.00  0.00     0.057 A 
ATOM     19  C   UNL     1      42.151 132.796  15.254  1.00  0.00     0.064 A 
ATOM     20  O   UNL     1      45.888 129.841  14.582  1.00  0.00    -0.315 OA
BRANCH  19  21
ATOM     21  N   UNL     1      41.476 133.045  14.010  1.00  0.00    -0.169 NA
BRANCH  21  22
ATOM     22  C   UNL     1      40.960 134.163  13.686  1.00  0.00     0.240 C 
ATOM     23  O   UNL     1      40.458 135.250  13.371  1.00  0.00    -0.211 OA
ENDBRANCH  21  22
ENDBRANCH  19  21
ENDBRANCH   4   8
ENDBRANCH   2   3
ENDBRANCH   1   2
BRANCH   1  24
ATOM     24  C   UNL     1      43.922 136.632  22.474  1.00  0.00     0.016 C 
BRANCH  24  25
ATOM     25  C   UNL     1      45.355 136.767  21.952  1.00  0.00     0.085 C 
BRANCH  25  26
ATOM     26  N   UNL     1      45.512 138.047  21.220  1.00  0.00    -0.291 NA
ATOM     27  C   UNL     1      45.952 137.828  19.826  1.00  0.00     0.106 C 
BRANCH  26  28
ATOM     28  C   UNL     1      46.329 139.042  21.960  1.00  0.00     0.157 C 
ATOM     29  C   UNL     1      45.617 139.624  23.190  1.00  0.00     0.041 C 
BRANCH  28  30
ATOM     30  C   UNL     1      47.621 138.450  22.347  1.00  0.00     0.081 C 
ATOM     31  N   UNL     1      48.637 137.988  22.653  1.00  0.00    -0.197 NA
ENDBRANCH  28  30
ENDBRANCH  26  28
ENDBRANCH  25  26
ENDBRANCH  24  25
ENDBRANCH   1  24
TORSDOF 10
ENDMDL
MODEL 9
REMARK VINA RESULT:      -5.3      2.405      5.087
REMARK SMILES C[C@@H](C#N)N(C)CCCCc1cn(-c2cc(N=C=O)c3c4c(cccc24)C(=O)[N-]3)nn1
REMARK SMILES IDX 9 1 10 2 11 3 13 4 30 5 12 6 31 7 14 8 24 9 23 10 25 11
REMARK SMILES IDX 22 12 26 13 21 14 27 15 20 16 29 17 15 18 16 19 28 20 17 21
REMARK SMILES IDX 18 22 19 23 8 24 7 25 5 26 6 27 2 28 1 29 3 30 4 31
REMARK H PARENT
ROOT
ATOM      1  C   UNL     1      44.963 129.943  15.187  1.00  0.00     0.008 C 
ENDROOT
BRANCH   1   2
ATOM      2  C   UNL     1      44.853 131.063  14.142  1.00  0.00     0.060 C 
BRANCH   2   3
ATOM      3  C   UNL     1      43.623 131.898  14.344  1.00  0.00     0.083 A 
ATOM      4  N   UNL     1      42.237 133.446  14.986  1.00  0.00    -0.220 N 
ATOM      5  N   UNL     1      41.594 132.586  14.211  1.00  0.00    -0.062 NA
ATOM      6  C   UNL     1      43.510 133.033  15.114  1.00  0.00     0.140 A 
ATOM      7  N   UNL     1      42.418 131.632  13.798  1.00  0.00    -0.135 NA
BRANCH   4   8
ATOM      8  C   UNL     1      41.622 134.571  15.630  1.00  0.00     0.076 A 
ATOM      9  C   UNL     1      44.352 136.342  17.596  1.00  0.00     0.001 A 
ATOM     10  C   UNL     1      43.582 137.359  18.200  1.00  0.00     0.011 A 
ATOM     11  C   UNL     1      43.752 135.388  16.734  1.00  0.00     0.011 A 
ATOM     12  C   UNL     1      42.218 137.389  17.915  1.00  0.00     0.006 A 
ATOM     13  C   UNL     1      42.358 135.440  16.480  1.00  0.00     0.007 A 
ATOM     14  C   UNL     1      41.655 136.469  17.088  1.00  0.00    -0.019 A 
ATOM     15  C   UNL     1      41.124 138.276  18.289  1.00  0.00     0.086 C 
ATOM     16  C   UNL     1      40.323 136.713  16.908  1.00  0.00    -0.098 A 
ATOM     17  N   UNL     1      39.902 137.862  17.658  1.00  0.00    -0.620 NA
ATOM     18  C   UNL     1      40.238 134.820  15.412  1.00  0.00     0.057 A 
ATOM     19  C   UNL     1      39.569 135.892  16.050  1.00  0.00     0.064 A 
ATOM     20  O   UNL     1      41.214 139.266  19.060  1.00  0.00    -0.315 OA
BRANCH  19  21
ATOM     21  N   UNL     1      38.169 136.087  15.791  1.00  0.00    -0.169 NA
BRANCH  21  22
ATOM     22  C   UNL     1      37.706 136.913  14.940  1.00  0.00     0.240 C 
ATOM     23  O   UNL     1      37.256 137.716  14.111  1.00  0.00    -0.211 OA
ENDBRANCH  21  22
ENDBRANCH  19  21
ENDBRANCH   4   8
ENDBRANCH   2   3
ENDBRANCH   1   2
BRANCH   1  24
ATOM     24  C   UNL     1      45.450 130.464  16.550  1.00  0.00     0.016 C 
BRANCH  24  25
ATOM     25  C   UNL     1      44.287 130.625  17.534  1.00  0.00     0.085 C 
BRANCH  25  26
ATOM     26  N   UNL     1      44.655 131.581  18.606  1.00  0.00    -0.291 NA
ATOM     27  C   UNL     1      45.723 131.042  19.473  1.00  0.00     0.106 C 
BRANCH  26  28
ATOM     28  C   UNL     1      43.479 132.099  19.349  1.00  0.00     0.157 C 
ATOM     29  C   UNL     1      43.655 133.544  19.842  1.00  0.00     0.041 C 
BRANCH  28  30
ATOM     30  C   UNL     1      42.265 131.983  18.523  1.00  0.00     0.081 C 
ATOM     31  N   UNL     1      41.312 131.888  17.873  1.00  0.00    -0.197 NA
ENDBRANCH  28  30
ENDBRANCH  26  28
ENDBRANCH  25  26
ENDBRANCH  24  25
ENDBRANCH   1  24
TORSDOF 10
ENDMDL


