REMARK SMILES CC/C=C(\O)N(C)C(=O)C1(C)CC1
REMARK SMILES IDX 4 1 5 2 3 4 2 5 1 6 6 7 7 8 8 9 9 10 10 11 12 12 13 13 11 14
REMARK H PARENT 5 3
ROOT
ATOM      1  C   UNL     1       0.270  -0.878  -1.683  1.00  0.00     0.189 C 
ENDROOT
BRANCH   1   2
ATOM      2  O   UNL     1      -0.724  -1.488  -2.448  1.00  0.00    -0.495 OA
ATOM      3  H   UNL     1      -1.520  -1.938  -2.014  1.00  0.00     0.295 HD
ENDBRANCH   1   2
BRANCH   1   4
ATOM      4  C   UNL     1       1.346  -0.351  -2.286  1.00  0.00     0.039 C 
BRANCH   4   5
ATOM      5  C   UNL     1       1.545  -0.395  -3.775  1.00  0.00     0.029 C 
ATOM      6  C   UNL     1       1.965  -1.787  -4.237  1.00  0.00     0.008 C 
ENDBRANCH   4   5
ENDBRANCH   1   4
BRANCH   1   7
ATOM      7  N   UNL     1       0.127  -0.811  -0.250  1.00  0.00    -0.286 N 
ATOM      8  C   UNL     1       1.273  -1.151   0.603  1.00  0.00     0.156 C 
BRANCH   7   9
ATOM      9  C   UNL     1      -1.107  -0.314   0.317  1.00  0.00     0.234 C 
ATOM     10  O   UNL     1      -2.004   0.147  -0.441  1.00  0.00    -0.274 OA
BRANCH   9  11
ATOM     11  C   UNL     1      -1.383  -0.371   1.798  1.00  0.00     0.047 C 
ATOM     12  C   UNL     1      -0.542   0.526   2.698  1.00  0.00     0.018 C 
ATOM     13  C   UNL     1      -1.986   0.899   2.393  1.00  0.00     0.018 C 
ATOM     14  C   UNL     1      -1.922  -1.677   2.386  1.00  0.00     0.022 C 
ENDBRANCH   9  11
ENDBRANCH   7   9
ENDBRANCH   1   7
TORSDOF 6


