MODEL 1
REMARK VINA RESULT:      -7.3      0.000      0.000
REMARK SMILES C[C@](O)(C#CCOC(=O)Nc1cc(Cl)cc(OCc2nnn[nH]2)c1)c1ccc2ccccc2c1
REMARK SMILES IDX 7 1 6 2 5 3 4 4 2 5 1 6 3 7 25 9 26 10 34 11 27 12 33 13
REMARK SMILES IDX 28 14 32 15 29 16 31 17 30 18 8 19 10 20 9 21 11 23 12 24
REMARK SMILES IDX 24 25 13 26 16 27 15 28 14 29 17 30 18 31 19 32 20 33 23 34
REMARK SMILES IDX 21 35 22 36
REMARK H PARENT 3 8 10 22 23 37
ROOT
ATOM      1  O   UNL     1      43.355 137.244  16.533  1.00  0.00    -0.436 OA
ENDROOT
BRANCH   1   2
ATOM      2  C   UNL     1      44.201 136.263  17.128  1.00  0.00     0.324 C 
BRANCH   2   3
ATOM      3  C   UNL     1      43.809 134.921  16.686  1.00  0.00    -0.058 C 
BRANCH   3   4
ATOM      4  C   UNL     1      43.504 133.815  16.316  1.00  0.00    -0.060 C 
BRANCH   4   5
ATOM      5  C   UNL     1      43.124 132.457  15.875  1.00  0.00     0.148 C 
ATOM      6  C   UNL     1      42.244 132.550  14.616  1.00  0.00     0.062 C 
BRANCH   5   7
ATOM      7  O   UNL     1      42.399 131.836  16.912  1.00  0.00    -0.374 OA
ATOM      8  H   UNL     1      41.681 132.458  17.209  1.00  0.00     0.213 HD
ENDBRANCH   5   7
BRANCH   5   9
ATOM      9  C   UNL     1      44.379 131.648  15.552  1.00  0.00    -0.004 A 
ATOM     10  C   UNL     1      45.149 131.084  16.592  1.00  0.00     0.008 A 
ATOM     11  C   UNL     1      44.838 131.513  14.225  1.00  0.00     0.016 A 
ATOM     12  C   UNL     1      46.317 130.371  16.316  1.00  0.00     0.009 A 
ATOM     13  C   UNL     1      46.012 130.797  13.940  1.00  0.00    -0.018 A 
ATOM     14  C   UNL     1      46.755 130.218  14.995  1.00  0.00    -0.018 A 
ATOM     15  C   UNL     1      46.457 130.651  12.616  1.00  0.00     0.009 A 
ATOM     16  C   UNL     1      47.928 129.501  14.708  1.00  0.00     0.009 A 
ATOM     17  C   UNL     1      47.625 129.935  12.343  1.00  0.00     0.001 A 
ATOM     18  C   UNL     1      48.358 129.362  13.385  1.00  0.00     0.001 A 
ENDBRANCH   5   9
ENDBRANCH   4   5
ENDBRANCH   3   4
ENDBRANCH   2   3
ENDBRANCH   1   2
BRANCH   1  19
ATOM     19  C   UNL     1      41.982 137.054  16.336  1.00  0.00     0.412 C 
ATOM     20  N   UNL     1      41.525 136.504  15.094  1.00  0.00    -0.291 N 
ATOM     21  O   UNL     1      41.156 137.392  17.229  1.00  0.00    -0.224 OA
ATOM     22  H   UNL     1      42.190 136.515  14.288  1.00  0.00     0.173 HD
BRANCH  20  23
ATOM     23  C   UNL     1      40.193 136.007  14.876  1.00  0.00     0.049 A 
ATOM     24  C   UNL     1      39.499 136.276  13.683  1.00  0.00     0.047 A 
ATOM     25  C   UNL     1      39.550 135.290  15.896  1.00  0.00     0.072 A 
ATOM     26  C   UNL     1      38.196 135.803  13.502  1.00  0.00     0.046 A 
ATOM     27  C   UNL     1      38.239 134.807  15.716  1.00  0.00     0.123 A 
ATOM     28  C   UNL     1      37.573 135.068  14.514  1.00  0.00     0.067 A 
ATOM     29  Cl  UNL     1      37.341 136.139  12.009  1.00  0.00    -0.084 Cl
BRANCH  27  30
ATOM     30  O   UNL     1      37.568 134.064  16.699  1.00  0.00    -0.485 OA
BRANCH  30  31
ATOM     31  C   UNL     1      38.177 133.561  17.884  1.00  0.00     0.308 C 
BRANCH  31  32
ATOM     32  C   UNL     1      38.139 134.616  18.939  1.00  0.00     0.186 A 
ATOM     33  N   UNL     1      39.198 134.991  19.680  1.00  0.00    -0.110 NA
ATOM     34  N   UNL     1      37.032 135.252  19.350  1.00  0.00    -0.240 N 
ATOM     35  N   UNL     1      38.715 135.882  20.535  1.00  0.00    -0.024 NA
ATOM     36  N   UNL     1      37.413 136.039  20.339  1.00  0.00    -0.048 NA
ATOM     37  H   UNL     1      36.058 135.156  18.988  1.00  0.00     0.194 HD
ENDBRANCH  31  32
ENDBRANCH  30  31
ENDBRANCH  27  30
ENDBRANCH  20  23
ENDBRANCH   1  19
TORSDOF 11
ENDMDL
MODEL 2
REMARK VINA RESULT:      -6.8      2.941      5.777
REMARK SMILES C[C@](O)(C#CCOC(=O)Nc1cc(Cl)cc(OCc2nnn[nH]2)c1)c1ccc2ccccc2c1
REMARK SMILES IDX 7 1 6 2 5 3 4 4 2 5 1 6 3 7 25 9 26 10 34 11 27 12 33 13
REMARK SMILES IDX 28 14 32 15 29 16 31 17 30 18 8 19 10 20 9 21 11 23 12 24
REMARK SMILES IDX 24 25 13 26 16 27 15 28 14 29 17 30 18 31 19 32 20 33 23 34
REMARK SMILES IDX 21 35 22 36
REMARK H PARENT 3 8 10 22 23 37
ROOT
ATOM      1  O   UNL     1      45.729 130.939  15.440  1.00  0.00    -0.436 OA
ENDROOT
BRANCH   1   2
ATOM      2  C   UNL     1      46.199 130.223  16.579  1.00  0.00     0.324 C 
BRANCH   2   3
ATOM      3  C   UNL     1      45.598 130.765  17.802  1.00  0.00    -0.058 C 
BRANCH   3   4
ATOM      4  C   UNL     1      45.088 131.214  18.797  1.00  0.00    -0.060 C 
BRANCH   4   5
ATOM      5  C   UNL     1      44.470 131.779  20.015  1.00  0.00     0.148 C 
ATOM      6  C   UNL     1      45.111 131.143  21.261  1.00  0.00     0.062 C 
BRANCH   5   7
ATOM      7  O   UNL     1      43.091 131.490  19.994  1.00  0.00    -0.374 OA
ATOM      8  H   UNL     1      42.591 132.334  20.162  1.00  0.00     0.213 HD
ENDBRANCH   5   7
BRANCH   5   9
ATOM      9  C   UNL     1      44.692 133.291  20.053  1.00  0.00    -0.004 A 
ATOM     10  C   UNL     1      45.289 133.894  21.181  1.00  0.00     0.008 A 
ATOM     11  C   UNL     1      44.239 134.121  19.006  1.00  0.00     0.016 A 
ATOM     12  C   UNL     1      45.468 135.277  21.246  1.00  0.00     0.009 A 
ATOM     13  C   UNL     1      44.416 135.512  19.065  1.00  0.00    -0.018 A 
ATOM     14  C   UNL     1      45.039 136.094  20.193  1.00  0.00    -0.018 A 
ATOM     15  C   UNL     1      43.978 136.333  18.013  1.00  0.00     0.009 A 
ATOM     16  C   UNL     1      45.217 137.486  20.249  1.00  0.00     0.009 A 
ATOM     17  C   UNL     1      44.162 137.717  18.081  1.00  0.00     0.001 A 
ATOM     18  C   UNL     1      44.778 138.291  19.194  1.00  0.00     0.001 A 
ENDBRANCH   5   9
ENDBRANCH   4   5
ENDBRANCH   3   4
ENDBRANCH   2   3
ENDBRANCH   1   2
BRANCH   1  19
ATOM     19  C   UNL     1      44.914 132.074  15.529  1.00  0.00     0.412 C 
ATOM     20  N   UNL     1      43.490 131.913  15.512  1.00  0.00    -0.291 N 
ATOM     21  O   UNL     1      45.428 133.225  15.593  1.00  0.00    -0.224 OA
ATOM     22  H   UNL     1      43.112 131.002  15.167  1.00  0.00     0.173 HD
BRANCH  20  23
ATOM     23  C   UNL     1      42.560 132.949  15.872  1.00  0.00     0.049 A 
ATOM     24  C   UNL     1      42.553 134.188  15.209  1.00  0.00     0.047 A 
ATOM     25  C   UNL     1      41.680 132.741  16.945  1.00  0.00     0.072 A 
ATOM     26  C   UNL     1      41.655 135.189  15.590  1.00  0.00     0.046 A 
ATOM     27  C   UNL     1      40.769 133.744  17.330  1.00  0.00     0.123 A 
ATOM     28  C   UNL     1      40.765 134.964  16.644  1.00  0.00     0.067 A 
ATOM     29  Cl  UNL     1      41.651 136.729  14.753  1.00  0.00    -0.084 Cl
BRANCH  27  30
ATOM     30  O   UNL     1      39.855 133.570  18.379  1.00  0.00    -0.485 OA
BRANCH  30  31
ATOM     31  C   UNL     1      39.281 134.634  19.132  1.00  0.00     0.308 C 
BRANCH  31  32
ATOM     32  C   UNL     1      40.161 134.939  20.298  1.00  0.00     0.186 A 
ATOM     33  N   UNL     1      39.975 134.457  21.541  1.00  0.00    -0.110 NA
ATOM     34  N   UNL     1      41.186 135.804  20.280  1.00  0.00    -0.240 N 
ATOM     35  N   UNL     1      40.920 135.031  22.272  1.00  0.00    -0.024 NA
ATOM     36  N   UNL     1      41.648 135.843  21.517  1.00  0.00    -0.048 NA
ATOM     37  H   UNL     1      41.556 136.355  19.474  1.00  0.00     0.194 HD
ENDBRANCH  31  32
ENDBRANCH  30  31
ENDBRANCH  27  30
ENDBRANCH  20  23
ENDBRANCH   1  19
TORSDOF 11
ENDMDL
MODEL 3
REMARK VINA RESULT:      -6.6      4.478      7.374
REMARK SMILES C[C@](O)(C#CCOC(=O)Nc1cc(Cl)cc(OCc2nnn[nH]2)c1)c1ccc2ccccc2c1
REMARK SMILES IDX 7 1 6 2 5 3 4 4 2 5 1 6 3 7 25 9 26 10 34 11 27 12 33 13
REMARK SMILES IDX 28 14 32 15 29 16 31 17 30 18 8 19 10 20 9 21 11 23 12 24
REMARK SMILES IDX 24 25 13 26 16 27 15 28 14 29 17 30 18 31 19 32 20 33 23 34
REMARK SMILES IDX 21 35 22 36
REMARK H PARENT 3 8 10 22 23 37
ROOT
ATOM      1  O   UNL     1      44.601 130.977  20.758  1.00  0.00    -0.436 OA
ENDROOT
BRANCH   1   2
ATOM      2  C   UNL     1      45.838 130.602  20.155  1.00  0.00     0.324 C 
BRANCH   2   3
ATOM      3  C   UNL     1      45.739 130.696  18.695  1.00  0.00    -0.058 C 
BRANCH   3   4
ATOM      4  C   UNL     1      45.652 130.755  17.495  1.00  0.00    -0.060 C 
BRANCH   4   5
ATOM      5  C   UNL     1      45.531 130.830  16.023  1.00  0.00     0.148 C 
ATOM      6  C   UNL     1      45.058 129.472  15.475  1.00  0.00     0.062 C 
BRANCH   5   7
ATOM      7  O   UNL     1      46.795 131.143  15.484  1.00  0.00    -0.374 OA
ATOM      8  H   UNL     1      47.349 131.553  16.201  1.00  0.00     0.213 HD
ENDBRANCH   5   7
BRANCH   5   9
ATOM      9  C   UNL     1      44.515 131.906  15.644  1.00  0.00    -0.004 A 
ATOM     10  C   UNL     1      43.454 131.603  14.763  1.00  0.00     0.008 A 
ATOM     11  C   UNL     1      44.656 133.235  16.096  1.00  0.00     0.016 A 
ATOM     12  C   UNL     1      42.536 132.583  14.380  1.00  0.00     0.009 A 
ATOM     13  C   UNL     1      43.736 134.224  15.715  1.00  0.00    -0.018 A 
ATOM     14  C   UNL     1      42.666 133.894  14.852  1.00  0.00    -0.018 A 
ATOM     15  C   UNL     1      43.871 135.543  16.181  1.00  0.00     0.009 A 
ATOM     16  C   UNL     1      41.747 134.886  14.472  1.00  0.00     0.009 A 
ATOM     17  C   UNL     1      42.950 136.520  15.797  1.00  0.00     0.001 A 
ATOM     18  C   UNL     1      41.891 136.194  14.945  1.00  0.00     0.001 A 
ENDBRANCH   5   9
ENDBRANCH   4   5
ENDBRANCH   3   4
ENDBRANCH   2   3
ENDBRANCH   1   2
BRANCH   1  19
ATOM     19  C   UNL     1      43.967 132.200  20.509  1.00  0.00     0.412 C 
ATOM     20  N   UNL     1      44.515 133.398  21.072  1.00  0.00    -0.291 N 
ATOM     21  O   UNL     1      42.908 132.241  19.822  1.00  0.00    -0.224 OA
ATOM     22  H   UNL     1      45.197 133.293  21.857  1.00  0.00     0.173 HD
BRANCH  20  23
ATOM     23  C   UNL     1      44.130 134.725  20.671  1.00  0.00     0.049 A 
ATOM     24  C   UNL     1      42.885 135.265  21.035  1.00  0.00     0.047 A 
ATOM     25  C   UNL     1      44.990 135.472  19.852  1.00  0.00     0.072 A 
ATOM     26  C   UNL     1      42.521 136.548  20.615  1.00  0.00     0.046 A 
ATOM     27  C   UNL     1      44.630 136.768  19.431  1.00  0.00     0.123 A 
ATOM     28  C   UNL     1      43.394 137.296  19.821  1.00  0.00     0.067 A 
ATOM     29  Cl  UNL     1      40.968 137.216  21.079  1.00  0.00    -0.084 Cl
BRANCH  27  30
ATOM     30  O   UNL     1      45.469 137.561  18.633  1.00  0.00    -0.485 OA
BRANCH  30  31
ATOM     31  C   UNL     1      46.234 138.661  19.115  1.00  0.00     0.308 C 
BRANCH  31  32
ATOM     32  C   UNL     1      47.152 138.185  20.191  1.00  0.00     0.186 A 
ATOM     33  N   UNL     1      46.987 138.440  21.502  1.00  0.00    -0.110 NA
ATOM     34  N   UNL     1      48.304 137.529  19.984  1.00  0.00    -0.240 N 
ATOM     35  N   UNL     1      48.051 137.909  22.088  1.00  0.00    -0.024 NA
ATOM     36  N   UNL     1      48.845 137.362  21.177  1.00  0.00    -0.048 NA
ATOM     37  H   UNL     1      48.716 137.214  19.078  1.00  0.00     0.194 HD
ENDBRANCH  31  32
ENDBRANCH  30  31
ENDBRANCH  27  30
ENDBRANCH  20  23
ENDBRANCH   1  19
TORSDOF 11
ENDMDL
MODEL 4
REMARK VINA RESULT:      -6.5      4.985      8.788
REMARK SMILES C[C@](O)(C#CCOC(=O)Nc1cc(Cl)cc(OCc2nnn[nH]2)c1)c1ccc2ccccc2c1
REMARK SMILES IDX 7 1 6 2 5 3 4 4 2 5 1 6 3 7 25 9 26 10 34 11 27 12 33 13
REMARK SMILES IDX 28 14 32 15 29 16 31 17 30 18 8 19 10 20 9 21 11 23 12 24
REMARK SMILES IDX 24 25 13 26 16 27 15 28 14 29 17 30 18 31 19 32 20 33 23 34
REMARK SMILES IDX 21 35 22 36
REMARK H PARENT 3 8 10 22 23 37
ROOT
ATOM      1  O   UNL     1      43.135 135.680  15.720  1.00  0.00    -0.436 OA
ENDROOT
BRANCH   1   2
ATOM      2  C   UNL     1      41.730 135.475  15.593  1.00  0.00     0.324 C 
BRANCH   2   3
ATOM      3  C   UNL     1      41.085 135.558  16.907  1.00  0.00    -0.058 C 
BRANCH   3   4
ATOM      4  C   UNL     1      40.566 135.642  17.992  1.00  0.00    -0.060 C 
BRANCH   4   5
ATOM      5  C   UNL     1      39.939 135.756  19.326  1.00  0.00     0.148 C 
ATOM      6  C   UNL     1      38.658 134.905  19.368  1.00  0.00     0.062 C 
BRANCH   5   7
ATOM      7  O   UNL     1      39.616 137.108  19.555  1.00  0.00    -0.374 OA
ATOM      8  H   UNL     1      39.009 137.413  18.828  1.00  0.00     0.213 HD
ENDBRANCH   5   7
BRANCH   5   9
ATOM      9  C   UNL     1      40.909 135.256  20.396  1.00  0.00    -0.004 A 
ATOM     10  C   UNL     1      40.457 134.398  21.421  1.00  0.00     0.008 A 
ATOM     11  C   UNL     1      42.248 135.699  20.431  1.00  0.00     0.016 A 
ATOM     12  C   UNL     1      41.321 133.959  22.425  1.00  0.00     0.009 A 
ATOM     13  C   UNL     1      43.123 135.262  21.437  1.00  0.00    -0.018 A 
ATOM     14  C   UNL     1      42.656 134.381  22.440  1.00  0.00    -0.018 A 
ATOM     15  C   UNL     1      44.460 135.693  21.459  1.00  0.00     0.009 A 
ATOM     16  C   UNL     1      43.534 133.944  23.446  1.00  0.00     0.009 A 
ATOM     17  C   UNL     1      45.323 135.250  22.464  1.00  0.00     0.001 A 
ATOM     18  C   UNL     1      44.862 134.379  23.455  1.00  0.00     0.001 A 
ENDBRANCH   5   9
ENDBRANCH   4   5
ENDBRANCH   3   4
ENDBRANCH   2   3
ENDBRANCH   1   2
BRANCH   1  19
ATOM     19  C   UNL     1      44.007 134.714  16.238  1.00  0.00     0.412 C 
ATOM     20  N   UNL     1      43.652 134.030  17.446  1.00  0.00    -0.291 N 
ATOM     21  O   UNL     1      45.105 134.473  15.663  1.00  0.00    -0.224 OA
ATOM     22  H   UNL     1      42.903 134.455  18.038  1.00  0.00     0.173 HD
BRANCH  20  23
ATOM     23  C   UNL     1      44.311 132.843  17.921  1.00  0.00     0.049 A 
ATOM     24  C   UNL     1      44.530 132.629  19.293  1.00  0.00     0.047 A 
ATOM     25  C   UNL     1      44.798 131.909  16.995  1.00  0.00     0.072 A 
ATOM     26  C   UNL     1      45.193 131.479  19.732  1.00  0.00     0.046 A 
ATOM     27  C   UNL     1      45.462 130.746  17.432  1.00  0.00     0.123 A 
ATOM     28  C   UNL     1      45.652 130.541  18.804  1.00  0.00     0.067 A 
ATOM     29  Cl  UNL     1      45.456 131.218  21.445  1.00  0.00    -0.084 Cl
BRANCH  27  30
ATOM     30  O   UNL     1      45.942 129.773  16.543  1.00  0.00    -0.485 OA
BRANCH  30  31
ATOM     31  C   UNL     1      45.257 129.345  15.370  1.00  0.00     0.308 C 
BRANCH  31  32
ATOM     32  C   UNL     1      46.088 129.667  14.173  1.00  0.00     0.186 A 
ATOM     33  N   UNL     1      47.335 129.205  13.964  1.00  0.00    -0.110 NA
ATOM     34  N   UNL     1      45.741 130.531  13.208  1.00  0.00    -0.240 N 
ATOM     35  N   UNL     1      47.729 129.790  12.842  1.00  0.00    -0.024 NA
ATOM     36  N   UNL     1      46.774 130.589  12.386  1.00  0.00    -0.048 NA
ATOM     37  H   UNL     1      44.852 131.069  13.107  1.00  0.00     0.194 HD
ENDBRANCH  31  32
ENDBRANCH  30  31
ENDBRANCH  27  30
ENDBRANCH  20  23
ENDBRANCH   1  19
TORSDOF 11
ENDMDL
MODEL 5
REMARK VINA RESULT:      -6.4      3.335      6.341
REMARK SMILES C[C@](O)(C#CCOC(=O)Nc1cc(Cl)cc(OCc2nnn[nH]2)c1)c1ccc2ccccc2c1
REMARK SMILES IDX 7 1 6 2 5 3 4 4 2 5 1 6 3 7 25 9 26 10 34 11 27 12 33 13
REMARK SMILES IDX 28 14 32 15 29 16 31 17 30 18 8 19 10 20 9 21 11 23 12 24
REMARK SMILES IDX 24 25 13 26 16 27 15 28 14 29 17 30 18 31 19 32 20 33 23 34
REMARK SMILES IDX 21 35 22 36
REMARK H PARENT 3 8 10 22 23 37
ROOT
ATOM      1  O   UNL     1      45.636 131.938  15.431  1.00  0.00    -0.436 OA
ENDROOT
BRANCH   1   2
ATOM      2  C   UNL     1      45.881 131.012  16.487  1.00  0.00     0.324 C 
BRANCH   2   3
ATOM      3  C   UNL     1      45.070 131.354  17.659  1.00  0.00    -0.058 C 
BRANCH   3   4
ATOM      4  C   UNL     1      44.399 131.652  18.615  1.00  0.00    -0.060 C 
BRANCH   4   5
ATOM      5  C   UNL     1      43.567 132.005  19.785  1.00  0.00     0.148 C 
ATOM      6  C   UNL     1      44.304 131.616  21.079  1.00  0.00     0.062 C 
BRANCH   5   7
ATOM      7  O   UNL     1      42.353 131.295  19.702  1.00  0.00    -0.374 OA
ATOM      8  H   UNL     1      41.761 131.761  19.052  1.00  0.00     0.213 HD
ENDBRANCH   5   7
BRANCH   5   9
ATOM      9  C   UNL     1      43.299 133.509  19.793  1.00  0.00    -0.004 A 
ATOM     10  C   UNL     1      42.201 134.033  20.509  1.00  0.00     0.008 A 
ATOM     11  C   UNL     1      44.088 134.395  19.029  1.00  0.00     0.016 A 
ATOM     12  C   UNL     1      41.923 135.400  20.499  1.00  0.00     0.009 A 
ATOM     13  C   UNL     1      43.813 135.771  19.015  1.00  0.00    -0.018 A 
ATOM     14  C   UNL     1      42.724 136.278  19.760  1.00  0.00    -0.018 A 
ATOM     15  C   UNL     1      44.612 136.652  18.265  1.00  0.00     0.009 A 
ATOM     16  C   UNL     1      42.452 137.656  19.745  1.00  0.00     0.009 A 
ATOM     17  C   UNL     1      44.331 138.020  18.260  1.00  0.00     0.001 A 
ATOM     18  C   UNL     1      43.255 138.521  18.997  1.00  0.00     0.001 A 
ENDBRANCH   5   9
ENDBRANCH   4   5
ENDBRANCH   3   4
ENDBRANCH   2   3
ENDBRANCH   1   2
BRANCH   1  19
ATOM     19  C   UNL     1      44.623 132.903  15.477  1.00  0.00     0.412 C 
ATOM     20  N   UNL     1      43.276 132.516  15.180  1.00  0.00    -0.291 N 
ATOM     21  O   UNL     1      44.899 134.105  15.748  1.00  0.00    -0.224 OA
ATOM     22  H   UNL     1      43.134 131.607  14.682  1.00  0.00     0.173 HD
BRANCH  20  23
ATOM     23  C   UNL     1      42.124 133.331  15.459  1.00  0.00     0.049 A 
ATOM     24  C   UNL     1      41.405 133.194  16.659  1.00  0.00     0.047 A 
ATOM     25  C   UNL     1      41.674 134.241  14.490  1.00  0.00     0.072 A 
ATOM     26  C   UNL     1      40.275 133.980  16.900  1.00  0.00     0.046 A 
ATOM     27  C   UNL     1      40.539 135.040  14.731  1.00  0.00     0.123 A 
ATOM     28  C   UNL     1      39.848 134.902  15.941  1.00  0.00     0.067 A 
ATOM     29  Cl  UNL     1      39.389 133.805  18.403  1.00  0.00    -0.084 Cl
BRANCH  27  30
ATOM     30  O   UNL     1      40.068 135.980  13.802  1.00  0.00    -0.485 OA
BRANCH  30  31
ATOM     31  C   UNL     1      39.552 137.262  14.145  1.00  0.00     0.308 C 
BRANCH  31  32
ATOM     32  C   UNL     1      40.656 138.101  14.697  1.00  0.00     0.186 A 
ATOM     33  N   UNL     1      40.638 138.681  15.912  1.00  0.00    -0.110 NA
ATOM     34  N   UNL     1      41.756 138.465  14.021  1.00  0.00    -0.240 N 
ATOM     35  N   UNL     1      41.759 139.387  15.967  1.00  0.00    -0.024 NA
ATOM     36  N   UNL     1      42.432 139.260  14.831  1.00  0.00    -0.048 NA
ATOM     37  H   UNL     1      42.038 138.200  13.052  1.00  0.00     0.194 HD
ENDBRANCH  31  32
ENDBRANCH  30  31
ENDBRANCH  27  30
ENDBRANCH  20  23
ENDBRANCH   1  19
TORSDOF 11
ENDMDL
MODEL 6
REMARK VINA RESULT:      -6.4      3.275      5.944
REMARK SMILES C[C@](O)(C#CCOC(=O)Nc1cc(Cl)cc(OCc2nnn[nH]2)c1)c1ccc2ccccc2c1
REMARK SMILES IDX 7 1 6 2 5 3 4 4 2 5 1 6 3 7 25 9 26 10 34 11 27 12 33 13
REMARK SMILES IDX 28 14 32 15 29 16 31 17 30 18 8 19 10 20 9 21 11 23 12 24
REMARK SMILES IDX 24 25 13 26 16 27 15 28 14 29 17 30 18 31 19 32 20 33 23 34
REMARK SMILES IDX 21 35 22 36
REMARK H PARENT 3 8 10 22 23 37
ROOT
ATOM      1  O   UNL     1      45.446 130.602  15.488  1.00  0.00    -0.436 OA
ENDROOT
BRANCH   1   2
ATOM      2  C   UNL     1      46.197 130.287  16.658  1.00  0.00     0.324 C 
BRANCH   2   3
ATOM      3  C   UNL     1      45.512 130.795  17.851  1.00  0.00    -0.058 C 
BRANCH   3   4
ATOM      4  C   UNL     1      44.961 131.228  18.832  1.00  0.00    -0.060 C 
BRANCH   4   5
ATOM      5  C   UNL     1      44.271 131.754  20.028  1.00  0.00     0.148 C 
ATOM      6  C   UNL     1      44.642 130.902  21.255  1.00  0.00     0.062 C 
BRANCH   5   7
ATOM      7  O   UNL     1      42.880 131.687  19.810  1.00  0.00    -0.374 OA
ATOM      8  H   UNL     1      42.609 130.729  19.805  1.00  0.00     0.213 HD
ENDBRANCH   5   7
BRANCH   5   9
ATOM      9  C   UNL     1      44.696 133.201  20.274  1.00  0.00    -0.004 A 
ATOM     10  C   UNL     1      44.079 134.254  19.565  1.00  0.00     0.008 A 
ATOM     11  C   UNL     1      45.759 133.510  21.149  1.00  0.00     0.016 A 
ATOM     12  C   UNL     1      44.479 135.578  19.753  1.00  0.00     0.009 A 
ATOM     13  C   UNL     1      46.165 134.840  21.343  1.00  0.00    -0.018 A 
ATOM     14  C   UNL     1      45.517 135.882  20.642  1.00  0.00    -0.018 A 
ATOM     15  C   UNL     1      47.213 135.144  22.228  1.00  0.00     0.009 A 
ATOM     16  C   UNL     1      45.925 137.212  20.838  1.00  0.00     0.009 A 
ATOM     17  C   UNL     1      47.609 136.471  22.415  1.00  0.00     0.001 A 
ATOM     18  C   UNL     1      46.968 137.501  21.723  1.00  0.00     0.001 A 
ENDBRANCH   5   9
ENDBRANCH   4   5
ENDBRANCH   3   4
ENDBRANCH   2   3
ENDBRANCH   1   2
BRANCH   1  19
ATOM     19  C   UNL     1      44.666 131.757  15.365  1.00  0.00     0.412 C 
ATOM     20  N   UNL     1      43.240 131.632  15.299  1.00  0.00    -0.291 N 
ATOM     21  O   UNL     1      45.214 132.892  15.282  1.00  0.00    -0.224 OA
ATOM     22  H   UNL     1      42.848 130.689  15.074  1.00  0.00     0.173 HD
BRANCH  20  23
ATOM     23  C   UNL     1      42.328 132.734  15.451  1.00  0.00     0.049 A 
ATOM     24  C   UNL     1      41.743 133.358  14.336  1.00  0.00     0.047 A 
ATOM     25  C   UNL     1      42.061 133.233  16.735  1.00  0.00     0.072 A 
ATOM     26  C   UNL     1      40.877 134.442  14.506  1.00  0.00     0.046 A 
ATOM     27  C   UNL     1      41.185 134.322  16.912  1.00  0.00     0.123 A 
ATOM     28  C   UNL     1      40.597 134.918  15.790  1.00  0.00     0.067 A 
ATOM     29  Cl  UNL     1      40.149 135.211  13.109  1.00  0.00    -0.084 Cl
BRANCH  27  30
ATOM     30  O   UNL     1      40.870 134.838  18.178  1.00  0.00    -0.485 OA
BRANCH  30  31
ATOM     31  C   UNL     1      39.927 135.880  18.411  1.00  0.00     0.308 C 
BRANCH  31  32
ATOM     32  C   UNL     1      38.713 135.305  19.061  1.00  0.00     0.186 A 
ATOM     33  N   UNL     1      37.990 135.926  20.012  1.00  0.00    -0.110 NA
ATOM     34  N   UNL     1      38.247 134.064  18.856  1.00  0.00    -0.240 N 
ATOM     35  N   UNL     1      37.064 135.044  20.363  1.00  0.00    -0.024 NA
ATOM     36  N   UNL     1      37.218 133.924  19.671  1.00  0.00    -0.048 NA
ATOM     37  H   UNL     1      38.610 133.335  18.202  1.00  0.00     0.194 HD
ENDBRANCH  31  32
ENDBRANCH  30  31
ENDBRANCH  27  30
ENDBRANCH  20  23
ENDBRANCH   1  19
TORSDOF 11
ENDMDL
MODEL 7
REMARK VINA RESULT:      -6.3      3.798      6.729
REMARK SMILES C[C@](O)(C#CCOC(=O)Nc1cc(Cl)cc(OCc2nnn[nH]2)c1)c1ccc2ccccc2c1
REMARK SMILES IDX 7 1 6 2 5 3 4 4 2 5 1 6 3 7 25 9 26 10 34 11 27 12 33 13
REMARK SMILES IDX 28 14 32 15 29 16 31 17 30 18 8 19 10 20 9 21 11 23 12 24
REMARK SMILES IDX 24 25 13 26 16 27 15 28 14 29 17 30 18 31 19 32 20 33 23 34
REMARK SMILES IDX 21 35 22 36
REMARK H PARENT 3 8 10 22 23 37
ROOT
ATOM      1  O   UNL     1      45.541 131.985  15.145  1.00  0.00    -0.436 OA
ENDROOT
BRANCH   1   2
ATOM      2  C   UNL     1      45.860 130.970  16.094  1.00  0.00     0.324 C 
BRANCH   2   3
ATOM      3  C   UNL     1      45.313 131.316  17.410  1.00  0.00    -0.058 C 
BRANCH   3   4
ATOM      4  C   UNL     1      44.870 131.585  18.498  1.00  0.00    -0.060 C 
BRANCH   4   5
ATOM      5  C   UNL     1      44.317 131.902  19.831  1.00  0.00     0.148 C 
ATOM      6  C   UNL     1      45.046 131.072  20.903  1.00  0.00     0.062 C 
BRANCH   5   7
ATOM      7  O   UNL     1      42.945 131.580  19.837  1.00  0.00    -0.374 OA
ATOM      8  H   UNL     1      42.458 132.273  19.316  1.00  0.00     0.213 HD
ENDBRANCH   5   7
BRANCH   5   9
ATOM      9  C   UNL     1      44.510 133.388  20.130  1.00  0.00    -0.004 A 
ATOM     10  C   UNL     1      44.762 133.822  21.450  1.00  0.00     0.008 A 
ATOM     11  C   UNL     1      44.365 134.361  19.118  1.00  0.00     0.016 A 
ATOM     12  C   UNL     1      44.907 135.178  21.745  1.00  0.00     0.009 A 
ATOM     13  C   UNL     1      44.511 135.726  19.409  1.00  0.00    -0.018 A 
ATOM     14  C   UNL     1      44.788 136.137  20.733  1.00  0.00    -0.018 A 
ATOM     15  C   UNL     1      44.381 136.690  18.395  1.00  0.00     0.009 A 
ATOM     16  C   UNL     1      44.934 137.505  21.021  1.00  0.00     0.009 A 
ATOM     17  C   UNL     1      44.530 138.047  18.694  1.00  0.00     0.001 A 
ATOM     18  C   UNL     1      44.805 138.453  20.002  1.00  0.00     0.001 A 
ENDBRANCH   5   9
ENDBRANCH   4   5
ENDBRANCH   3   4
ENDBRANCH   2   3
ENDBRANCH   1   2
BRANCH   1  19
ATOM     19  C   UNL     1      44.461 132.862  15.295  1.00  0.00     0.412 C 
ATOM     20  N   UNL     1      43.129 132.368  15.104  1.00  0.00    -0.291 N 
ATOM     21  O   UNL     1      44.660 134.080  15.564  1.00  0.00    -0.224 OA
ATOM     22  H   UNL     1      43.020 131.457  14.604  1.00  0.00     0.173 HD
BRANCH  20  23
ATOM     23  C   UNL     1      41.943 133.081  15.495  1.00  0.00     0.049 A 
ATOM     24  C   UNL     1      41.556 133.173  16.843  1.00  0.00     0.047 A 
ATOM     25  C   UNL     1      41.124 133.648  14.506  1.00  0.00     0.072 A 
ATOM     26  C   UNL     1      40.386 133.852  17.198  1.00  0.00     0.046 A 
ATOM     27  C   UNL     1      39.948 134.338  14.860  1.00  0.00     0.123 A 
ATOM     28  C   UNL     1      39.590 134.435  16.209  1.00  0.00     0.067 A 
ATOM     29  Cl  UNL     1      39.915 133.964  18.883  1.00  0.00    -0.084 Cl
BRANCH  27  30
ATOM     30  O   UNL     1      39.113 134.942  13.907  1.00  0.00    -0.485 OA
BRANCH  30  31
ATOM     31  C   UNL     1      39.540 135.928  12.972  1.00  0.00     0.308 C 
BRANCH  31  32
ATOM     32  C   UNL     1      38.579 135.968  11.831  1.00  0.00     0.186 A 
ATOM     33  N   UNL     1      37.493 135.180  11.721  1.00  0.00    -0.110 NA
ATOM     34  N   UNL     1      38.727 136.718  10.729  1.00  0.00    -0.240 N 
ATOM     35  N   UNL     1      36.974 135.483  10.539  1.00  0.00    -0.024 NA
ATOM     36  N   UNL     1      37.715 136.406   9.940  1.00  0.00    -0.048 NA
ATOM     37  H   UNL     1      39.481 137.406  10.509  1.00  0.00     0.194 HD
ENDBRANCH  31  32
ENDBRANCH  30  31
ENDBRANCH  27  30
ENDBRANCH  20  23
ENDBRANCH   1  19
TORSDOF 11
ENDMDL
MODEL 8
REMARK VINA RESULT:      -6.1      2.852      5.840
REMARK SMILES C[C@](O)(C#CCOC(=O)Nc1cc(Cl)cc(OCc2nnn[nH]2)c1)c1ccc2ccccc2c1
REMARK SMILES IDX 7 1 6 2 5 3 4 4 2 5 1 6 3 7 25 9 26 10 34 11 27 12 33 13
REMARK SMILES IDX 28 14 32 15 29 16 31 17 30 18 8 19 10 20 9 21 11 23 12 24
REMARK SMILES IDX 24 25 13 26 16 27 15 28 14 29 17 30 18 31 19 32 20 33 23 34
REMARK SMILES IDX 21 35 22 36
REMARK H PARENT 3 8 10 22 23 37
ROOT
ATOM      1  O   UNL     1      46.050 130.926  15.722  1.00  0.00    -0.436 OA
ENDROOT
BRANCH   1   2
ATOM      2  C   UNL     1      46.126 130.218  16.957  1.00  0.00     0.324 C 
BRANCH   2   3
ATOM      3  C   UNL     1      45.334 130.903  17.983  1.00  0.00    -0.058 C 
BRANCH   3   4
ATOM      4  C   UNL     1      44.669 131.466  18.815  1.00  0.00    -0.060 C 
BRANCH   4   5
ATOM      5  C   UNL     1      43.841 132.144  19.835  1.00  0.00     0.148 C 
ATOM      6  C   UNL     1      44.062 131.478  21.205  1.00  0.00     0.062 C 
BRANCH   5   7
ATOM      7  O   UNL     1      42.487 132.026  19.466  1.00  0.00    -0.374 OA
ATOM      8  H   UNL     1      42.130 132.937  19.282  1.00  0.00     0.213 HD
ENDBRANCH   5   7
BRANCH   5   9
ATOM      9  C   UNL     1      44.237 133.618  19.924  1.00  0.00    -0.004 A 
ATOM     10  C   UNL     1      45.218 134.037  20.849  1.00  0.00     0.008 A 
ATOM     11  C   UNL     1      43.582 134.597  19.147  1.00  0.00     0.016 A 
ATOM     12  C   UNL     1      45.566 135.383  20.966  1.00  0.00     0.009 A 
ATOM     13  C   UNL     1      43.928 135.952  19.260  1.00  0.00    -0.018 A 
ATOM     14  C   UNL     1      44.931 136.348  20.174  1.00  0.00    -0.018 A 
ATOM     15  C   UNL     1      43.284 136.922  18.473  1.00  0.00     0.009 A 
ATOM     16  C   UNL     1      45.277 137.705  20.285  1.00  0.00     0.009 A 
ATOM     17  C   UNL     1      43.638 138.268  18.591  1.00  0.00     0.001 A 
ATOM     18  C   UNL     1      44.630 138.659  19.494  1.00  0.00     0.001 A 
ENDBRANCH   5   9
ENDBRANCH   4   5
ENDBRANCH   3   4
ENDBRANCH   2   3
ENDBRANCH   1   2
BRANCH   1  19
ATOM     19  C   UNL     1      45.268 132.073  15.542  1.00  0.00     0.412 C 
ATOM     20  N   UNL     1      43.843 131.939  15.459  1.00  0.00    -0.291 N 
ATOM     21  O   UNL     1      45.814 133.205  15.424  1.00  0.00    -0.224 OA
ATOM     22  H   UNL     1      43.458 130.987  15.265  1.00  0.00     0.173 HD
BRANCH  20  23
ATOM     23  C   UNL     1      42.926 133.043  15.555  1.00  0.00     0.049 A 
ATOM     24  C   UNL     1      43.329 134.357  15.258  1.00  0.00     0.047 A 
ATOM     25  C   UNL     1      41.618 132.813  16.009  1.00  0.00     0.072 A 
ATOM     26  C   UNL     1      42.427 135.417  15.380  1.00  0.00     0.046 A 
ATOM     27  C   UNL     1      40.703 133.878  16.127  1.00  0.00     0.123 A 
ATOM     28  C   UNL     1      41.119 135.176  15.809  1.00  0.00     0.067 A 
ATOM     29  Cl  UNL     1      42.938 137.051  15.004  1.00  0.00    -0.084 Cl
BRANCH  27  30
ATOM     30  O   UNL     1      39.380 133.691  16.552  1.00  0.00    -0.485 OA
BRANCH  30  31
ATOM     31  C   UNL     1      39.005 133.282  17.865  1.00  0.00     0.308 C 
BRANCH  31  32
ATOM     32  C   UNL     1      38.288 134.403  18.540  1.00  0.00     0.186 A 
ATOM     33  N   UNL     1      37.267 135.092  17.996  1.00  0.00    -0.110 NA
ATOM     34  N   UNL     1      38.629 134.930  19.725  1.00  0.00    -0.240 N 
ATOM     35  N   UNL     1      36.982 136.034  18.885  1.00  0.00    -0.024 NA
ATOM     36  N   UNL     1      37.801 135.939  19.924  1.00  0.00    -0.048 NA
ATOM     37  H   UNL     1      39.392 134.631  20.372  1.00  0.00     0.194 HD
ENDBRANCH  31  32
ENDBRANCH  30  31
ENDBRANCH  27  30
ENDBRANCH  20  23
ENDBRANCH   1  19
TORSDOF 11
ENDMDL
MODEL 9
REMARK VINA RESULT:      -6.1      3.456      6.263
REMARK SMILES C[C@](O)(C#CCOC(=O)Nc1cc(Cl)cc(OCc2nnn[nH]2)c1)c1ccc2ccccc2c1
REMARK SMILES IDX 7 1 6 2 5 3 4 4 2 5 1 6 3 7 25 9 26 10 34 11 27 12 33 13
REMARK SMILES IDX 28 14 32 15 29 16 31 17 30 18 8 19 10 20 9 21 11 23 12 24
REMARK SMILES IDX 24 25 13 26 16 27 15 28 14 29 17 30 18 31 19 32 20 33 23 34
REMARK SMILES IDX 21 35 22 36
REMARK H PARENT 3 8 10 22 23 37
ROOT
ATOM      1  O   UNL     1      46.002 130.811  15.953  1.00  0.00    -0.436 OA
ENDROOT
BRANCH   1   2
ATOM      2  C   UNL     1      45.760 130.253  17.242  1.00  0.00     0.324 C 
BRANCH   2   3
ATOM      3  C   UNL     1      44.991 131.193  18.064  1.00  0.00    -0.058 C 
BRANCH   3   4
ATOM      4  C   UNL     1      44.356 131.975  18.725  1.00  0.00    -0.060 C 
BRANCH   4   5
ATOM      5  C   UNL     1      43.572 132.942  19.522  1.00  0.00     0.148 C 
ATOM      6  C   UNL     1      42.978 132.235  20.753  1.00  0.00     0.062 C 
BRANCH   5   7
ATOM      7  O   UNL     1      42.529 133.444  18.718  1.00  0.00    -0.374 OA
ATOM      8  H   UNL     1      42.911 134.117  18.092  1.00  0.00     0.213 HD
ENDBRANCH   5   7
BRANCH   5   9
ATOM      9  C   UNL     1      44.476 134.083  19.985  1.00  0.00    -0.004 A 
ATOM     10  C   UNL     1      45.381 133.886  21.051  1.00  0.00     0.008 A 
ATOM     11  C   UNL     1      44.376 135.371  19.417  1.00  0.00     0.016 A 
ATOM     12  C   UNL     1      46.190 134.927  21.508  1.00  0.00     0.009 A 
ATOM     13  C   UNL     1      45.187 136.421  19.872  1.00  0.00    -0.018 A 
ATOM     14  C   UNL     1      46.105 136.196  20.924  1.00  0.00    -0.018 A 
ATOM     15  C   UNL     1      45.095 137.698  19.293  1.00  0.00     0.009 A 
ATOM     16  C   UNL     1      46.916 137.249  21.377  1.00  0.00     0.009 A 
ATOM     17  C   UNL     1      45.909 138.737  19.752  1.00  0.00     0.001 A 
ATOM     18  C   UNL     1      46.816 138.514  20.790  1.00  0.00     0.001 A 
ENDBRANCH   5   9
ENDBRANCH   4   5
ENDBRANCH   3   4
ENDBRANCH   2   3
ENDBRANCH   1   2
BRANCH   1  19
ATOM     19  C   UNL     1      45.380 131.978  15.493  1.00  0.00     0.412 C 
ATOM     20  N   UNL     1      43.962 131.978  15.287  1.00  0.00    -0.291 N 
ATOM     21  O   UNL     1      46.065 133.006  15.234  1.00  0.00    -0.224 OA
ATOM     22  H   UNL     1      43.483 131.051  15.226  1.00  0.00     0.173 HD
BRANCH  20  23
ATOM     23  C   UNL     1      43.178 133.168  15.091  1.00  0.00     0.049 A 
ATOM     24  C   UNL     1      43.510 134.375  15.729  1.00  0.00     0.047 A 
ATOM     25  C   UNL     1      42.025 133.108  14.292  1.00  0.00     0.072 A 
ATOM     26  C   UNL     1      42.720 135.514  15.542  1.00  0.00     0.046 A 
ATOM     27  C   UNL     1      41.230 134.254  14.096  1.00  0.00     0.123 A 
ATOM     28  C   UNL     1      41.588 135.452  14.725  1.00  0.00     0.067 A 
ATOM     29  Cl  UNL     1      43.146 137.016  16.339  1.00  0.00    -0.084 Cl
BRANCH  27  30
ATOM     30  O   UNL     1      40.084 134.247  13.287  1.00  0.00    -0.485 OA
BRANCH  30  31
ATOM     31  C   UNL     1      39.024 135.194  13.382  1.00  0.00     0.308 C 
BRANCH  31  32
ATOM     32  C   UNL     1      38.444 135.141  14.756  1.00  0.00     0.186 A 
ATOM     33  N   UNL     1      38.349 136.197  15.585  1.00  0.00    -0.110 NA
ATOM     34  N   UNL     1      38.035 134.022  15.374  1.00  0.00    -0.240 N 
ATOM     35  N   UNL     1      37.856 135.700  16.711  1.00  0.00    -0.024 NA
ATOM     36  N   UNL     1      37.668 134.393  16.587  1.00  0.00    -0.048 NA
ATOM     37  H   UNL     1      38.012 133.048  15.002  1.00  0.00     0.194 HD
ENDBRANCH  31  32
ENDBRANCH  30  31
ENDBRANCH  27  30
ENDBRANCH  20  23
ENDBRANCH   1  19
TORSDOF 11
ENDMDL


