MODEL 1
REMARK VINA RESULT:      -7.6      0.000      0.000
REMARK SMILES C#CCO/C([O-])=C\[C@H]1CC[C@@H]2C(=O)N(O)C(=O)c3ccc(N=[N+]=[N-])c1c32
REMARK SMILES IDX 5 1 6 2 4 3 3 4 2 5 1 6 7 7 8 8 25 9 9 10 21 11 26 12 10 13
REMARK SMILES IDX 20 14 18 15 11 16 19 17 16 18 12 19 14 20 17 21 13 22 22 23
REMARK SMILES IDX 23 24 24 25 15 26
REMARK H PARENT 15 27
ROOT
ATOM      1  C   UNL     1      46.065 129.665  16.082  1.00  0.00     0.049 C 
ATOM      2  O   UNL     1      45.304 128.637  15.531  1.00  0.00    -0.547 OA
ENDROOT
BRANCH   1   3
ATOM      3  O   UNL     1      47.315 129.982  15.544  1.00  0.00    -0.601 OA
BRANCH   3   4
ATOM      4  C   UNL     1      47.828 129.370  14.370  1.00  0.00     0.160 C 
BRANCH   4   5
ATOM      5  C   UNL     1      47.318 130.090  13.203  1.00  0.00    -0.095 C 
ATOM      6  C   UNL     1      46.906 130.691  12.242  1.00  0.00     0.005 C 
ENDBRANCH   4   5
ENDBRANCH   3   4
ENDBRANCH   1   3
BRANCH   1   7
ATOM      7  C   UNL     1      45.586 130.352  17.125  1.00  0.00     0.005 C 
BRANCH   7   8
ATOM      8  C   UNL     1      45.141 131.799  17.031  1.00  0.00     0.044 C 
ATOM      9  C   UNL     1      43.859 132.045  17.837  1.00  0.00    -0.027 A 
ATOM     10  C   UNL     1      45.081 132.221  15.544  1.00  0.00     0.014 C 
ATOM     11  C   UNL     1      43.845 131.754  19.223  1.00  0.00     0.042 A 
ATOM     12  C   UNL     1      42.698 132.597  17.228  1.00  0.00    -0.018 A 
ATOM     13  C   UNL     1      44.093 133.355  15.298  1.00  0.00     0.019 C 
ATOM     14  C   UNL     1      42.665 131.935  19.961  1.00  0.00     0.011 A 
ATOM     15  C   UNL     1      41.525 132.780  17.997  1.00  0.00     0.047 A 
ATOM     16  C   UNL     1      42.692 132.906  15.738  1.00  0.00     0.112 C 
ATOM     17  C   UNL     1      41.518 132.430  19.353  1.00  0.00     0.015 A 
ATOM     18  C   UNL     1      40.330 133.399  17.389  1.00  0.00     0.284 C 
ATOM     19  C   UNL     1      41.639 133.921  15.351  1.00  0.00     0.261 C 
ATOM     20  N   UNL     1      40.433 134.032  16.113  1.00  0.00    -0.151 N 
ATOM     21  O   UNL     1      39.229 133.407  18.003  1.00  0.00    -0.266 OA
ATOM     22  O   UNL     1      41.765 134.596  14.292  1.00  0.00    -0.271 OA
BRANCH  11  23
ATOM     23  N   UNL     1      45.042 131.283  19.864  1.00  0.00    -0.060 NA
BRANCH  23  24
ATOM     24  N   UNL     1      45.234 131.392  21.077  1.00  0.00     0.005 N 
ATOM     25  N   UNL     1      45.422 131.501  22.288  1.00  0.00    -0.003 NA
ENDBRANCH  23  24
ENDBRANCH  11  23
BRANCH  20  26
ATOM     26  O   UNL     1      39.384 134.736  15.620  1.00  0.00    -0.278 OA
ATOM     27  H   UNL     1      38.869 135.022  16.418  1.00  0.00     0.247 HD
ENDBRANCH  20  26
ENDBRANCH   7   8
ENDBRANCH   1   7
TORSDOF 8
ENDMDL
MODEL 2
REMARK VINA RESULT:      -7.4      2.951      4.744
REMARK SMILES C#CCO/C([O-])=C\[C@H]1CC[C@@H]2C(=O)N(O)C(=O)c3ccc(N=[N+]=[N-])c1c32
REMARK SMILES IDX 5 1 6 2 4 3 3 4 2 5 1 6 7 7 8 8 25 9 9 10 21 11 26 12 10 13
REMARK SMILES IDX 20 14 18 15 11 16 19 17 16 18 12 19 14 20 17 21 13 22 22 23
REMARK SMILES IDX 23 24 24 25 15 26
REMARK H PARENT 15 27
ROOT
ATOM      1  C   UNL     1      45.997 130.129  15.837  1.00  0.00     0.049 C 
ATOM      2  O   UNL     1      45.155 129.069  15.515  1.00  0.00    -0.547 OA
ENDROOT
BRANCH   1   3
ATOM      3  O   UNL     1      47.366 130.049  15.567  1.00  0.00    -0.601 OA
BRANCH   3   4
ATOM      4  C   UNL     1      47.887 129.438  14.397  1.00  0.00     0.160 C 
BRANCH   4   5
ATOM      5  C   UNL     1      47.331 130.114  13.225  1.00  0.00    -0.095 C 
ATOM      6  C   UNL     1      46.866 130.678  12.265  1.00  0.00     0.005 C 
ENDBRANCH   4   5
ENDBRANCH   3   4
ENDBRANCH   1   3
BRANCH   1   7
ATOM      7  C   UNL     1      45.484 131.229  16.399  1.00  0.00     0.005 C 
BRANCH   7   8
ATOM      8  C   UNL     1      44.674 131.206  17.681  1.00  0.00     0.044 C 
ATOM      9  C   UNL     1      43.936 132.532  17.902  1.00  0.00    -0.027 A 
ATOM     10  C   UNL     1      45.577 130.746  18.850  1.00  0.00     0.014 C 
ATOM     11  C   UNL     1      43.031 132.995  16.915  1.00  0.00     0.042 A 
ATOM     12  C   UNL     1      44.110 133.284  19.097  1.00  0.00    -0.018 A 
ATOM     13  C   UNL     1      45.100 131.271  20.199  1.00  0.00     0.019 C 
ATOM     14  C   UNL     1      42.384 134.228  17.087  1.00  0.00     0.011 A 
ATOM     15  C   UNL     1      43.435 134.518  19.250  1.00  0.00     0.047 A 
ATOM     16  C   UNL     1      45.084 132.807  20.163  1.00  0.00     0.112 C 
ATOM     17  C   UNL     1      42.592 134.984  18.234  1.00  0.00     0.015 A 
ATOM     18  C   UNL     1      43.569 135.283  20.506  1.00  0.00     0.284 C 
ATOM     19  C   UNL     1      44.793 133.387  21.530  1.00  0.00     0.261 C 
ATOM     20  N   UNL     1      44.171 134.670  21.648  1.00  0.00    -0.151 N 
ATOM     21  O   UNL     1      43.122 136.460  20.592  1.00  0.00    -0.266 OA
ATOM     22  O   UNL     1      45.198 132.799  22.570  1.00  0.00    -0.271 OA
BRANCH  11  23
ATOM     23  N   UNL     1      42.780 132.195  15.747  1.00  0.00    -0.060 NA
BRANCH  23  24
ATOM     24  N   UNL     1      42.065 132.579  14.820  1.00  0.00     0.005 N 
ATOM     25  N   UNL     1      41.354 132.962  13.892  1.00  0.00    -0.003 NA
ENDBRANCH  23  24
ENDBRANCH  11  23
BRANCH  20  26
ATOM     26  O   UNL     1      44.156 135.308  22.845  1.00  0.00    -0.278 OA
ATOM     27  H   UNL     1      43.518 136.057  22.728  1.00  0.00     0.247 HD
ENDBRANCH  20  26
ENDBRANCH   7   8
ENDBRANCH   1   7
TORSDOF 8
ENDMDL
MODEL 3
REMARK VINA RESULT:      -7.2      3.186      5.079
REMARK SMILES C#CCO/C([O-])=C\[C@H]1CC[C@@H]2C(=O)N(O)C(=O)c3ccc(N=[N+]=[N-])c1c32
REMARK SMILES IDX 5 1 6 2 4 3 3 4 2 5 1 6 7 7 8 8 25 9 9 10 21 11 26 12 10 13
REMARK SMILES IDX 20 14 18 15 11 16 19 17 16 18 12 19 14 20 17 21 13 22 22 23
REMARK SMILES IDX 23 24 24 25 15 26
REMARK H PARENT 15 27
ROOT
ATOM      1  C   UNL     1      45.385 131.618  15.509  1.00  0.00     0.049 C 
ATOM      2  O   UNL     1      46.008 132.847  15.311  1.00  0.00    -0.547 OA
ENDROOT
BRANCH   1   3
ATOM      3  O   UNL     1      46.143 130.446  15.570  1.00  0.00    -0.601 OA
BRANCH   3   4
ATOM      4  C   UNL     1      46.141 129.471  14.538  1.00  0.00     0.160 C 
BRANCH   4   5
ATOM      5  C   UNL     1      46.661 130.079  13.314  1.00  0.00    -0.095 C 
ATOM      6  C   UNL     1      47.099 130.581  12.309  1.00  0.00     0.005 C 
ENDBRANCH   4   5
ENDBRANCH   3   4
ENDBRANCH   1   3
BRANCH   1   7
ATOM      7  C   UNL     1      44.056 131.569  15.649  1.00  0.00     0.005 C 
BRANCH   7   8
ATOM      8  C   UNL     1      43.318 132.231  16.798  1.00  0.00     0.044 C 
ATOM      9  C   UNL     1      43.298 133.757  16.647  1.00  0.00    -0.027 A 
ATOM     10  C   UNL     1      43.881 131.704  18.139  1.00  0.00     0.014 C 
ATOM     11  C   UNL     1      42.733 134.330  15.481  1.00  0.00     0.042 A 
ATOM     12  C   UNL     1      43.796 134.608  17.672  1.00  0.00    -0.018 A 
ATOM     13  C   UNL     1      43.697 132.698  19.280  1.00  0.00     0.019 C 
ATOM     14  C   UNL     1      42.748 135.723  15.312  1.00  0.00     0.011 A 
ATOM     15  C   UNL     1      43.788 136.010  17.482  1.00  0.00     0.047 A 
ATOM     16  C   UNL     1      44.414 134.009  18.926  1.00  0.00     0.112 C 
ATOM     17  C   UNL     1      43.278 136.551  16.295  1.00  0.00     0.015 A 
ATOM     18  C   UNL     1      44.256 136.905  18.559  1.00  0.00     0.284 C 
ATOM     19  C   UNL     1      44.420 134.969  20.096  1.00  0.00     0.261 C 
ATOM     20  N   UNL     1      44.482 136.380  19.868  1.00  0.00    -0.151 N 
ATOM     21  O   UNL     1      44.422 138.137  18.343  1.00  0.00    -0.266 OA
ATOM     22  O   UNL     1      44.485 134.531  21.277  1.00  0.00    -0.271 OA
BRANCH  11  23
ATOM     23  N   UNL     1      42.144 133.481  14.482  1.00  0.00    -0.060 NA
BRANCH  23  24
ATOM     24  N   UNL     1      40.933 133.461  14.257  1.00  0.00     0.005 N 
ATOM     25  N   UNL     1      39.724 133.443  14.030  1.00  0.00    -0.003 NA
ENDBRANCH  23  24
ENDBRANCH  11  23
BRANCH  20  26
ATOM     26  O   UNL     1      44.759 137.220  20.896  1.00  0.00    -0.278 OA
ATOM     27  H   UNL     1      43.982 137.833  20.942  1.00  0.00     0.247 HD
ENDBRANCH  20  26
ENDBRANCH   7   8
ENDBRANCH   1   7
TORSDOF 8
ENDMDL
MODEL 4
REMARK VINA RESULT:      -7.0      3.360      5.893
REMARK SMILES C#CCO/C([O-])=C\[C@H]1CC[C@@H]2C(=O)N(O)C(=O)c3ccc(N=[N+]=[N-])c1c32
REMARK SMILES IDX 5 1 6 2 4 3 3 4 2 5 1 6 7 7 8 8 25 9 9 10 21 11 26 12 10 13
REMARK SMILES IDX 20 14 18 15 11 16 19 17 16 18 12 19 14 20 17 21 13 22 22 23
REMARK SMILES IDX 23 24 24 25 15 26
REMARK H PARENT 15 27
ROOT
ATOM      1  C   UNL     1      42.155 133.133  15.031  1.00  0.00     0.049 C 
ATOM      2  O   UNL     1      42.000 132.119  14.090  1.00  0.00    -0.547 OA
ENDROOT
BRANCH   1   3
ATOM      3  O   UNL     1      41.268 133.238  16.106  1.00  0.00    -0.601 OA
BRANCH   3   4
ATOM      4  C   UNL     1      40.249 134.225  16.172  1.00  0.00     0.160 C 
BRANCH   4   5
ATOM      5  C   UNL     1      39.335 134.034  15.046  1.00  0.00    -0.095 C 
ATOM      6  C   UNL     1      38.573 133.879  14.124  1.00  0.00     0.005 C 
ENDBRANCH   4   5
ENDBRANCH   3   4
ENDBRANCH   1   3
BRANCH   1   7
ATOM      7  C   UNL     1      43.165 134.000  14.904  1.00  0.00     0.005 C 
BRANCH   7   8
ATOM      8  C   UNL     1      44.074 134.390  16.054  1.00  0.00     0.044 C 
ATOM      9  C   UNL     1      44.478 133.169  16.889  1.00  0.00    -0.027 A 
ATOM     10  C   UNL     1      43.427 135.551  16.847  1.00  0.00     0.014 C 
ATOM     11  C   UNL     1      45.142 132.088  16.259  1.00  0.00     0.042 A 
ATOM     12  C   UNL     1      44.237 133.119  18.290  1.00  0.00    -0.018 A 
ATOM     13  C   UNL     1      43.885 135.592  18.300  1.00  0.00     0.019 C 
ATOM     14  C   UNL     1      45.477 130.947  17.003  1.00  0.00     0.011 A 
ATOM     15  C   UNL     1      44.596 131.961  19.020  1.00  0.00     0.047 A 
ATOM     16  C   UNL     1      43.516 134.266  18.981  1.00  0.00     0.112 C 
ATOM     17  C   UNL     1      45.198 130.881  18.363  1.00  0.00     0.015 A 
ATOM     18  C   UNL     1      44.397 131.917  20.482  1.00  0.00     0.284 C 
ATOM     19  C   UNL     1      43.782 134.318  20.470  1.00  0.00     0.261 C 
ATOM     20  N   UNL     1      44.076 133.116  21.189  1.00  0.00    -0.151 N 
ATOM     21  O   UNL     1      44.544 130.838  21.118  1.00  0.00    -0.266 OA
ATOM     22  O   UNL     1      43.636 135.398  21.105  1.00  0.00    -0.271 OA
BRANCH  11  23
ATOM     23  N   UNL     1      45.471 132.170  14.862  1.00  0.00    -0.060 NA
BRANCH  23  24
ATOM     24  N   UNL     1      46.455 131.609  14.377  1.00  0.00     0.005 N 
ATOM     25  N   UNL     1      47.438 131.047  13.895  1.00  0.00    -0.003 NA
ENDBRANCH  23  24
ENDBRANCH  11  23
BRANCH  20  26
ATOM     26  O   UNL     1      44.046 133.115  22.545  1.00  0.00    -0.278 OA
ATOM     27  H   UNL     1      44.962 132.856  22.822  1.00  0.00     0.247 HD
ENDBRANCH  20  26
ENDBRANCH   7   8
ENDBRANCH   1   7
TORSDOF 8
ENDMDL
MODEL 5
REMARK VINA RESULT:      -7.0      1.182      1.392
REMARK SMILES C#CCO/C([O-])=C\[C@H]1CC[C@@H]2C(=O)N(O)C(=O)c3ccc(N=[N+]=[N-])c1c32
REMARK SMILES IDX 5 1 6 2 4 3 3 4 2 5 1 6 7 7 8 8 25 9 9 10 21 11 26 12 10 13
REMARK SMILES IDX 20 14 18 15 11 16 19 17 16 18 12 19 14 20 17 21 13 22 22 23
REMARK SMILES IDX 23 24 24 25 15 26
REMARK H PARENT 15 27
ROOT
ATOM      1  C   UNL     1      45.818 130.105  16.027  1.00  0.00     0.049 C 
ATOM      2  O   UNL     1      47.205 129.997  16.072  1.00  0.00    -0.547 OA
ENDROOT
BRANCH   1   3
ATOM      3  O   UNL     1      45.109 129.613  14.928  1.00  0.00    -0.601 OA
BRANCH   3   4
ATOM      4  C   UNL     1      44.864 130.381  13.759  1.00  0.00     0.160 C 
BRANCH   4   5
ATOM      5  C   UNL     1      46.110 130.494  13.001  1.00  0.00    -0.095 C 
ATOM      6  C   UNL     1      47.143 130.589  12.385  1.00  0.00     0.005 C 
ENDBRANCH   4   5
ENDBRANCH   3   4
ENDBRANCH   1   3
BRANCH   1   7
ATOM      7  C   UNL     1      45.169 130.676  17.047  1.00  0.00     0.005 C 
BRANCH   7   8
ATOM      8  C   UNL     1      45.054 132.178  17.221  1.00  0.00     0.044 C 
ATOM      9  C   UNL     1      43.785 132.558  17.995  1.00  0.00    -0.027 A 
ATOM     10  C   UNL     1      45.223 132.867  15.846  1.00  0.00     0.014 C 
ATOM     11  C   UNL     1      43.583 132.031  19.295  1.00  0.00     0.042 A 
ATOM     12  C   UNL     1      42.830 133.462  17.452  1.00  0.00    -0.018 A 
ATOM     13  C   UNL     1      44.526 134.221  15.781  1.00  0.00     0.019 C 
ATOM     14  C   UNL     1      42.406 132.337  19.995  1.00  0.00     0.011 A 
ATOM     15  C   UNL     1      41.658 133.763  18.184  1.00  0.00     0.047 A 
ATOM     16  C   UNL     1      43.027 134.030  16.054  1.00  0.00     0.112 C 
ATOM     17  C   UNL     1      41.452 133.183  19.442  1.00  0.00     0.015 A 
ATOM     18  C   UNL     1      40.684 134.737  17.653  1.00  0.00     0.284 C 
ATOM     19  C   UNL     1      42.256 135.311  15.825  1.00  0.00     0.261 C 
ATOM     20  N   UNL     1      41.036 135.552  16.534  1.00  0.00    -0.151 N 
ATOM     21  O   UNL     1      39.558 134.883  18.202  1.00  0.00    -0.266 OA
ATOM     22  O   UNL     1      42.620 136.121  14.929  1.00  0.00    -0.271 OA
BRANCH  11  23
ATOM     23  N   UNL     1      44.588 131.191  19.887  1.00  0.00    -0.060 NA
BRANCH  23  24
ATOM     24  N   UNL     1      45.501 131.637  20.583  1.00  0.00     0.005 N 
ATOM     25  N   UNL     1      46.413 132.086  21.278  1.00  0.00    -0.003 NA
ENDBRANCH  23  24
ENDBRANCH  11  23
BRANCH  20  26
ATOM     26  O   UNL     1      40.211 136.554  16.140  1.00  0.00    -0.278 OA
ATOM     27  H   UNL     1      40.555 136.834  15.253  1.00  0.00     0.247 HD
ENDBRANCH  20  26
ENDBRANCH   7   8
ENDBRANCH   1   7
TORSDOF 8
ENDMDL
MODEL 6
REMARK VINA RESULT:      -7.0      3.179      4.898
REMARK SMILES C#CCO/C([O-])=C\[C@H]1CC[C@@H]2C(=O)N(O)C(=O)c3ccc(N=[N+]=[N-])c1c32
REMARK SMILES IDX 5 1 6 2 4 3 3 4 2 5 1 6 7 7 8 8 25 9 9 10 21 11 26 12 10 13
REMARK SMILES IDX 20 14 18 15 11 16 19 17 16 18 12 19 14 20 17 21 13 22 22 23
REMARK SMILES IDX 23 24 24 25 15 26
REMARK H PARENT 15 27
ROOT
ATOM      1  C   UNL     1      45.393 130.793  15.159  1.00  0.00     0.049 C 
ATOM      2  O   UNL     1      44.425 130.683  14.164  1.00  0.00    -0.547 OA
ENDROOT
BRANCH   1   3
ATOM      3  O   UNL     1      46.368 129.804  15.306  1.00  0.00    -0.601 OA
BRANCH   3   4
ATOM      4  C   UNL     1      47.641 129.874  14.681  1.00  0.00     0.160 C 
BRANCH   4   5
ATOM      5  C   UNL     1      47.454 130.215  13.270  1.00  0.00    -0.095 C 
ATOM      6  C   UNL     1      47.295 130.504  12.110  1.00  0.00     0.005 C 
ENDBRANCH   4   5
ENDBRANCH   3   4
ENDBRANCH   1   3
BRANCH   1   7
ATOM      7  C   UNL     1      45.387 131.859  15.967  1.00  0.00     0.005 C 
BRANCH   7   8
ATOM      8  C   UNL     1      44.334 132.085  17.035  1.00  0.00     0.044 C 
ATOM      9  C   UNL     1      44.079 133.580  17.265  1.00  0.00    -0.027 A 
ATOM     10  C   UNL     1      44.704 131.273  18.299  1.00  0.00     0.014 C 
ATOM     11  C   UNL     1      43.665 134.387  16.177  1.00  0.00     0.042 A 
ATOM     12  C   UNL     1      44.210 134.162  18.557  1.00  0.00    -0.018 A 
ATOM     13  C   UNL     1      44.129 131.881  19.573  1.00  0.00     0.019 C 
ATOM     14  C   UNL     1      43.471 135.764  16.366  1.00  0.00     0.011 A 
ATOM     15  C   UNL     1      43.997 135.550  18.721  1.00  0.00     0.047 A 
ATOM     16  C   UNL     1      44.663 133.311  19.733  1.00  0.00     0.112 C 
ATOM     17  C   UNL     1      43.646 136.339  17.619  1.00  0.00     0.015 A 
ATOM     18  C   UNL     1      44.081 136.157  20.065  1.00  0.00     0.284 C 
ATOM     19  C   UNL     1      44.272 133.900  21.071  1.00  0.00     0.261 C 
ATOM     20  N   UNL     1      44.131 135.317  21.219  1.00  0.00    -0.151 N 
ATOM     21  O   UNL     1      44.070 137.411  20.205  1.00  0.00    -0.266 OA
ATOM     22  O   UNL     1      44.177 133.160  22.088  1.00  0.00    -0.271 OA
BRANCH  11  23
ATOM     23  N   UNL     1      43.441 133.789  14.889  1.00  0.00    -0.060 NA
BRANCH  23  24
ATOM     24  N   UNL     1      42.328 133.416  14.514  1.00  0.00     0.005 N 
ATOM     25  N   UNL     1      41.218 133.043  14.138  1.00  0.00    -0.003 NA
ENDBRANCH  23  24
ENDBRANCH  11  23
BRANCH  20  26
ATOM     26  O   UNL     1      44.051 135.863  22.458  1.00  0.00    -0.278 OA
ATOM     27  H   UNL     1      43.158 136.294  22.490  1.00  0.00     0.247 HD
ENDBRANCH  20  26
ENDBRANCH   7   8
ENDBRANCH   1   7
TORSDOF 8
ENDMDL
MODEL 7
REMARK VINA RESULT:      -6.9      3.306      6.284
REMARK SMILES C#CCO/C([O-])=C\[C@H]1CC[C@@H]2C(=O)N(O)C(=O)c3ccc(N=[N+]=[N-])c1c32
REMARK SMILES IDX 5 1 6 2 4 3 3 4 2 5 1 6 7 7 8 8 25 9 9 10 21 11 26 12 10 13
REMARK SMILES IDX 20 14 18 15 11 16 19 17 16 18 12 19 14 20 17 21 13 22 22 23
REMARK SMILES IDX 23 24 24 25 15 26
REMARK H PARENT 15 27
ROOT
ATOM      1  C   UNL     1      41.275 133.517  14.287  1.00  0.00     0.049 C 
ATOM      2  O   UNL     1      41.354 134.389  13.205  1.00  0.00    -0.547 OA
ENDROOT
BRANCH   1   3
ATOM      3  O   UNL     1      40.065 133.340  14.962  1.00  0.00    -0.601 OA
BRANCH   3   4
ATOM      4  C   UNL     1      39.502 134.328  15.812  1.00  0.00     0.160 C 
BRANCH   4   5
ATOM      5  C   UNL     1      39.767 133.960  17.202  1.00  0.00    -0.095 C 
ATOM      6  C   UNL     1      39.995 133.655  18.347  1.00  0.00     0.005 C 
ENDBRANCH   4   5
ENDBRANCH   3   4
ENDBRANCH   1   3
BRANCH   1   7
ATOM      7  C   UNL     1      42.366 132.844  14.670  1.00  0.00     0.005 C 
BRANCH   7   8
ATOM      8  C   UNL     1      43.508 133.483  15.437  1.00  0.00     0.044 C 
ATOM      9  C   UNL     1      44.248 132.454  16.302  1.00  0.00    -0.027 A 
ATOM     10  C   UNL     1      42.986 134.730  16.190  1.00  0.00     0.014 C 
ATOM     11  C   UNL     1      44.822 131.316  15.684  1.00  0.00     0.042 A 
ATOM     12  C   UNL     1      44.404 132.642  17.703  1.00  0.00    -0.018 A 
ATOM     13  C   UNL     1      43.815 135.055  17.427  1.00  0.00     0.019 C 
ATOM     14  C   UNL     1      45.464 130.346  16.470  1.00  0.00     0.011 A 
ATOM     15  C   UNL     1      45.065 131.655  18.470  1.00  0.00     0.047 A 
ATOM     16  C   UNL     1      43.785 133.854  18.383  1.00  0.00     0.112 C 
ATOM     17  C   UNL     1      45.574 130.509  17.846  1.00  0.00     0.015 A 
ATOM     18  C   UNL     1      45.278 131.862  19.917  1.00  0.00     0.284 C 
ATOM     19  C   UNL     1      44.440 134.185  19.707  1.00  0.00     0.261 C 
ATOM     20  N   UNL     1      45.040 133.149  20.490  1.00  0.00    -0.151 N 
ATOM     21  O   UNL     1      45.703 130.923  20.644  1.00  0.00    -0.266 OA
ATOM     22  O   UNL     1      44.362 135.351  20.180  1.00  0.00    -0.271 OA
BRANCH  11  23
ATOM     23  N   UNL     1      44.749 131.165  14.256  1.00  0.00    -0.060 NA
BRANCH  23  24
ATOM     24  N   UNL     1      45.671 130.694  13.590  1.00  0.00     0.005 N 
ATOM     25  N   UNL     1      46.594 130.224  12.925  1.00  0.00    -0.003 NA
ENDBRANCH  23  24
ENDBRANCH  11  23
BRANCH  20  26
ATOM     26  O   UNL     1      45.381 133.388  21.781  1.00  0.00    -0.278 OA
ATOM     27  H   UNL     1      45.249 134.363  21.904  1.00  0.00     0.247 HD
ENDBRANCH  20  26
ENDBRANCH   7   8
ENDBRANCH   1   7
TORSDOF 8
ENDMDL
MODEL 8
REMARK VINA RESULT:      -6.8      3.284      5.036
REMARK SMILES C#CCO/C([O-])=C\[C@H]1CC[C@@H]2C(=O)N(O)C(=O)c3ccc(N=[N+]=[N-])c1c32
REMARK SMILES IDX 5 1 6 2 4 3 3 4 2 5 1 6 7 7 8 8 25 9 9 10 21 11 26 12 10 13
REMARK SMILES IDX 20 14 18 15 11 16 19 17 16 18 12 19 14 20 17 21 13 22 22 23
REMARK SMILES IDX 23 24 24 25 15 26
REMARK H PARENT 15 27
ROOT
ATOM      1  C   UNL     1      45.412 131.750  15.810  1.00  0.00     0.049 C 
ATOM      2  O   UNL     1      45.801 133.045  15.482  1.00  0.00    -0.547 OA
ENDROOT
BRANCH   1   3
ATOM      3  O   UNL     1      46.338 130.705  15.768  1.00  0.00    -0.601 OA
BRANCH   3   4
ATOM      4  C   UNL     1      46.267 129.646  14.825  1.00  0.00     0.160 C 
BRANCH   4   5
ATOM      5  C   UNL     1      46.680 130.154  13.516  1.00  0.00    -0.095 C 
ATOM      6  C   UNL     1      47.011 130.569  12.434  1.00  0.00     0.005 C 
ENDBRANCH   4   5
ENDBRANCH   3   4
ENDBRANCH   1   3
BRANCH   1   7
ATOM      7  C   UNL     1      44.146 131.515  16.173  1.00  0.00     0.005 C 
BRANCH   7   8
ATOM      8  C   UNL     1      43.605 131.837  17.552  1.00  0.00     0.044 C 
ATOM      9  C   UNL     1      43.248 133.324  17.682  1.00  0.00    -0.027 A 
ATOM     10  C   UNL     1      44.580 131.294  18.625  1.00  0.00     0.014 C 
ATOM     11  C   UNL     1      42.307 133.890  16.787  1.00  0.00     0.042 A 
ATOM     12  C   UNL     1      43.810 134.132  18.708  1.00  0.00    -0.018 A 
ATOM     13  C   UNL     1      44.497 132.067  19.935  1.00  0.00     0.019 C 
ATOM     14  C   UNL     1      42.004 135.258  16.868  1.00  0.00     0.011 A 
ATOM     15  C   UNL     1      43.479 135.506  18.775  1.00  0.00     0.047 A 
ATOM     16  C   UNL     1      44.829 133.543  19.671  1.00  0.00     0.112 C 
ATOM     17  C   UNL     1      42.591 136.057  17.843  1.00  0.00     0.015 A 
ATOM     18  C   UNL     1      44.017 136.344  19.865  1.00  0.00     0.284 C 
ATOM     19  C   UNL     1      44.940 134.323  20.963  1.00  0.00     0.261 C 
ATOM     20  N   UNL     1      44.663 135.727  20.980  1.00  0.00    -0.151 N 
ATOM     21  O   UNL     1      43.877 137.598  19.840  1.00  0.00    -0.266 OA
ATOM     22  O   UNL     1      45.384 133.769  22.005  1.00  0.00    -0.271 OA
BRANCH  11  23
ATOM     23  N   UNL     1      41.665 133.058  15.806  1.00  0.00    -0.060 NA
BRANCH  23  24
ATOM     24  N   UNL     1      41.430 133.443  14.660  1.00  0.00     0.005 N 
ATOM     25  N   UNL     1      41.192 133.827  13.515  1.00  0.00    -0.003 NA
ENDBRANCH  23  24
ENDBRANCH  11  23
BRANCH  20  26
ATOM     26  O   UNL     1      45.019 136.474  22.055  1.00  0.00    -0.278 OA
ATOM     27  H   UNL     1      44.607 137.362  21.897  1.00  0.00     0.247 HD
ENDBRANCH  20  26
ENDBRANCH   7   8
ENDBRANCH   1   7
TORSDOF 8
ENDMDL
MODEL 9
REMARK VINA RESULT:      -6.8      2.648      4.714
REMARK SMILES C#CCO/C([O-])=C\[C@H]1CC[C@@H]2C(=O)N(O)C(=O)c3ccc(N=[N+]=[N-])c1c32
REMARK SMILES IDX 5 1 6 2 4 3 3 4 2 5 1 6 7 7 8 8 25 9 9 10 21 11 26 12 10 13
REMARK SMILES IDX 20 14 18 15 11 16 19 17 16 18 12 19 14 20 17 21 13 22 22 23
REMARK SMILES IDX 23 24 24 25 15 26
REMARK H PARENT 15 27
ROOT
ATOM      1  C   UNL     1      45.484 131.528  14.803  1.00  0.00     0.049 C 
ATOM      2  O   UNL     1      44.712 130.493  14.282  1.00  0.00    -0.547 OA
ENDROOT
BRANCH   1   3
ATOM      3  O   UNL     1      46.718 131.843  14.229  1.00  0.00    -0.601 OA
BRANCH   3   4
ATOM      4  C   UNL     1      47.665 130.857  13.845  1.00  0.00     0.160 C 
BRANCH   4   5
ATOM      5  C   UNL     1      47.524 130.602  12.412  1.00  0.00    -0.095 C 
ATOM      6  C   UNL     1      47.396 130.392  11.231  1.00  0.00     0.005 C 
ENDBRANCH   4   5
ENDBRANCH   3   4
ENDBRANCH   1   3
BRANCH   1   7
ATOM      7  C   UNL     1      45.030 132.224  15.851  1.00  0.00     0.005 C 
BRANCH   7   8
ATOM      8  C   UNL     1      44.406 131.575  17.071  1.00  0.00     0.044 C 
ATOM      9  C   UNL     1      43.341 132.479  17.705  1.00  0.00    -0.027 A 
ATOM     10  C   UNL     1      45.526 131.099  18.027  1.00  0.00     0.014 C 
ATOM     11  C   UNL     1      42.239 132.905  16.922  1.00  0.00     0.042 A 
ATOM     12  C   UNL     1      43.416 132.863  19.072  1.00  0.00    -0.018 A 
ATOM     13  C   UNL     1      45.065 131.030  19.478  1.00  0.00     0.019 C 
ATOM     14  C   UNL     1      41.282 133.767  17.478  1.00  0.00     0.011 A 
ATOM     15  C   UNL     1      42.431 133.723  19.611  1.00  0.00     0.047 A 
ATOM     16  C   UNL     1      44.597 132.423  19.924  1.00  0.00     0.112 C 
ATOM     17  C   UNL     1      41.383 134.179  18.802  1.00  0.00     0.015 A 
ATOM     18  C   UNL     1      42.470 134.089  21.042  1.00  0.00     0.284 C 
ATOM     19  C   UNL     1      44.299 132.457  21.407  1.00  0.00     0.261 C 
ATOM     20  N   UNL     1      43.345 133.389  21.927  1.00  0.00    -0.151 N 
ATOM     21  O   UNL     1      41.711 134.988  21.495  1.00  0.00    -0.266 OA
ATOM     22  O   UNL     1      44.969 131.747  22.206  1.00  0.00    -0.271 OA
BRANCH  11  23
ATOM     23  N   UNL     1      42.108 132.445  15.566  1.00  0.00    -0.060 NA
BRANCH  23  24
ATOM     24  N   UNL     1      41.677 133.162  14.661  1.00  0.00     0.005 N 
ATOM     25  N   UNL     1      41.245 133.878  13.759  1.00  0.00    -0.003 NA
ENDBRANCH  23  24
ENDBRANCH  11  23
BRANCH  20  26
ATOM     26  O   UNL     1      43.275 133.609  23.264  1.00  0.00    -0.278 OA
ATOM     27  H   UNL     1      43.648 134.519  23.393  1.00  0.00     0.247 HD
ENDBRANCH  20  26
ENDBRANCH   7   8
ENDBRANCH   1   7
TORSDOF 8
ENDMDL


