MODEL 1
REMARK VINA RESULT:      -7.1      0.000      0.000
REMARK SMILES [N-]=[N+]=NC(=O)c1cc2ccccc2cc1OC(=O)[C@]1(N=[N+]=[N-])C[C@H](CO)C1
REMARK SMILES IDX 16 1 17 2 18 3 19 4 24 5 23 6 27 7 25 8 26 9 20 11 21 12
REMARK SMILES IDX 22 13 15 14 6 15 14 16 7 17 13 18 8 19 12 20 9 21 11 22
REMARK SMILES IDX 10 23 4 24 5 25 3 26 2 27 1 28
REMARK H PARENT 26 10
ROOT
ATOM      1  O   UNL     1      41.830 132.564  16.407  1.00  0.00    -0.425 OA
ENDROOT
BRANCH   1   2
ATOM      2  C   UNL     1      41.564 133.936  16.514  1.00  0.00     0.323 C 
ATOM      3  O   UNL     1      41.398 134.469  17.645  1.00  0.00    -0.251 OA
BRANCH   2   4
ATOM      4  C   UNL     1      41.348 134.743  15.253  1.00  0.00     0.147 C 
ATOM      5  C   UNL     1      39.570 134.715  14.022  1.00  0.00     0.017 C 
ATOM      6  C   UNL     1      40.865 133.896  14.074  1.00  0.00     0.031 C 
ATOM      7  C   UNL     1      40.048 135.557  15.206  1.00  0.00     0.031 C 
BRANCH   5   8
ATOM      8  C   UNL     1      38.301 133.902  14.321  1.00  0.00     0.159 C 
BRANCH   8   9
ATOM      9  O   UNL     1      37.183 134.516  13.739  1.00  0.00    -0.396 OA
ATOM     10  H   UNL     1      36.495 133.811  13.629  1.00  0.00     0.210 HD
ENDBRANCH   8   9
ENDBRANCH   5   8
BRANCH   4  11
ATOM     11  N   UNL     1      42.517 135.546  14.895  1.00  0.00    -0.075 NA
BRANCH  11  12
ATOM     12  N   UNL     1      43.638 135.268  15.325  1.00  0.00     0.002 N 
ATOM     13  N   UNL     1      44.756 134.991  15.755  1.00  0.00    -0.003 NA
ENDBRANCH  11  12
ENDBRANCH   4  11
ENDBRANCH   2   4
ENDBRANCH   1   2
BRANCH   1  14
ATOM     14  C   UNL     1      43.100 131.998  16.208  1.00  0.00     0.142 A 
ATOM     15  C   UNL     1      43.945 131.759  17.320  1.00  0.00     0.068 A 
ATOM     16  C   UNL     1      43.521 131.622  14.918  1.00  0.00     0.056 A 
ATOM     17  C   UNL     1      45.209 131.175  17.107  1.00  0.00     0.024 A 
ATOM     18  C   UNL     1      44.779 131.043  14.717  1.00  0.00    -0.015 A 
ATOM     19  C   UNL     1      45.632 130.820  15.820  1.00  0.00    -0.017 A 
ATOM     20  C   UNL     1      45.199 130.676  13.428  1.00  0.00     0.009 A 
ATOM     21  C   UNL     1      46.894 130.239  15.616  1.00  0.00     0.009 A 
ATOM     22  C   UNL     1      46.457 130.098  13.237  1.00  0.00     0.001 A 
ATOM     23  C   UNL     1      47.303 129.880  14.328  1.00  0.00     0.001 A 
BRANCH  15  24
ATOM     24  C   UNL     1      43.534 132.120  18.706  1.00  0.00     0.252 C 
ATOM     25  O   UNL     1      42.569 131.528  19.265  1.00  0.00    -0.287 OA
BRANCH  24  26
ATOM     26  N   UNL     1      44.233 133.147  19.419  1.00  0.00    -0.017 NA
BRANCH  26  27
ATOM     27  N   UNL     1      43.643 133.916  20.178  1.00  0.00     0.009 N 
ATOM     28  N   UNL     1      43.053 134.684  20.937  1.00  0.00    -0.003 NA
ENDBRANCH  26  27
ENDBRANCH  24  26
ENDBRANCH  15  24
ENDBRANCH   1  14
TORSDOF 10
ENDMDL
MODEL 2
REMARK VINA RESULT:      -7.1      2.657      4.491
REMARK SMILES [N-]=[N+]=NC(=O)c1cc2ccccc2cc1OC(=O)[C@]1(N=[N+]=[N-])C[C@H](CO)C1
REMARK SMILES IDX 16 1 17 2 18 3 19 4 24 5 23 6 27 7 25 8 26 9 20 11 21 12
REMARK SMILES IDX 22 13 15 14 6 15 14 16 7 17 13 18 8 19 12 20 9 21 11 22
REMARK SMILES IDX 10 23 4 24 5 25 3 26 2 27 1 28
REMARK H PARENT 26 10
ROOT
ATOM      1  O   UNL     1      43.787 133.265  14.892  1.00  0.00    -0.425 OA
ENDROOT
BRANCH   1   2
ATOM      2  C   UNL     1      42.435 133.442  14.569  1.00  0.00     0.323 C 
ATOM      3  O   UNL     1      41.795 132.531  13.975  1.00  0.00    -0.251 OA
BRANCH   2   4
ATOM      4  C   UNL     1      41.789 134.786  14.821  1.00  0.00     0.147 C 
ATOM      5  C   UNL     1      39.663 135.168  14.934  1.00  0.00     0.017 C 
ATOM      6  C   UNL     1      40.699 135.128  13.804  1.00  0.00     0.031 C 
ATOM      7  C   UNL     1      40.751 134.818  15.951  1.00  0.00     0.031 C 
BRANCH   5   8
ATOM      8  C   UNL     1      38.567 134.099  14.818  1.00  0.00     0.159 C 
BRANCH   8   9
ATOM      9  O   UNL     1      38.898 133.170  13.822  1.00  0.00    -0.396 OA
ATOM     10  H   UNL     1      39.034 132.299  14.278  1.00  0.00     0.210 HD
ENDBRANCH   8   9
ENDBRANCH   5   8
BRANCH   4  11
ATOM     11  N   UNL     1      42.771 135.864  14.941  1.00  0.00    -0.075 NA
BRANCH  11  12
ATOM     12  N   UNL     1      42.875 136.520  15.978  1.00  0.00     0.002 N 
ATOM     13  N   UNL     1      42.978 137.173  17.015  1.00  0.00    -0.003 NA
ENDBRANCH  11  12
ENDBRANCH   4  11
ENDBRANCH   2   4
ENDBRANCH   1   2
BRANCH   1  14
ATOM     14  C   UNL     1      44.268 132.614  16.040  1.00  0.00     0.142 A 
ATOM     15  C   UNL     1      45.157 131.519  15.905  1.00  0.00     0.068 A 
ATOM     16  C   UNL     1      43.912 133.070  17.323  1.00  0.00     0.056 A 
ATOM     17  C   UNL     1      45.645 130.886  17.066  1.00  0.00     0.024 A 
ATOM     18  C   UNL     1      44.401 132.434  18.469  1.00  0.00    -0.015 A 
ATOM     19  C   UNL     1      45.272 131.331  18.340  1.00  0.00    -0.017 A 
ATOM     20  C   UNL     1      44.038 132.888  19.749  1.00  0.00     0.009 A 
ATOM     21  C   UNL     1      45.762 130.694  19.492  1.00  0.00     0.009 A 
ATOM     22  C   UNL     1      44.532 132.246  20.888  1.00  0.00     0.001 A 
ATOM     23  C   UNL     1      45.392 131.152  20.760  1.00  0.00     0.001 A 
BRANCH  15  24
ATOM     24  C   UNL     1      45.579 131.013  14.569  1.00  0.00     0.252 C 
ATOM     25  O   UNL     1      44.753 130.436  13.810  1.00  0.00    -0.287 OA
BRANCH  24  26
ATOM     26  N   UNL     1      46.934 131.178  14.132  1.00  0.00    -0.017 NA
BRANCH  26  27
ATOM     27  N   UNL     1      47.615 130.215  13.780  1.00  0.00     0.009 N 
ATOM     28  N   UNL     1      48.297 129.253  13.428  1.00  0.00    -0.003 NA
ENDBRANCH  26  27
ENDBRANCH  24  26
ENDBRANCH  15  24
ENDBRANCH   1  14
TORSDOF 10
ENDMDL
MODEL 3
REMARK VINA RESULT:      -7.0      2.270      2.835
REMARK SMILES [N-]=[N+]=NC(=O)c1cc2ccccc2cc1OC(=O)[C@]1(N=[N+]=[N-])C[C@H](CO)C1
REMARK SMILES IDX 16 1 17 2 18 3 19 4 24 5 23 6 27 7 25 8 26 9 20 11 21 12
REMARK SMILES IDX 22 13 15 14 6 15 14 16 7 17 13 18 8 19 12 20 9 21 11 22
REMARK SMILES IDX 10 23 4 24 5 25 3 26 2 27 1 28
REMARK H PARENT 26 10
ROOT
ATOM      1  O   UNL     1      42.021 132.606  14.824  1.00  0.00    -0.425 OA
ENDROOT
BRANCH   1   2
ATOM      2  C   UNL     1      41.853 133.988  14.660  1.00  0.00     0.323 C 
ATOM      3  O   UNL     1      42.839 134.769  14.762  1.00  0.00    -0.251 OA
BRANCH   2   4
ATOM      4  C   UNL     1      40.457 134.544  14.493  1.00  0.00     0.147 C 
ATOM      5  C   UNL     1      39.900 136.630  14.623  1.00  0.00     0.017 C 
ATOM      6  C   UNL     1      40.044 135.482  15.629  1.00  0.00     0.031 C 
ATOM      7  C   UNL     1      40.320 135.695  13.487  1.00  0.00     0.031 C 
BRANCH   5   8
ATOM      8  C   UNL     1      40.878 137.792  14.853  1.00  0.00     0.159 C 
BRANCH   8   9
ATOM      9  O   UNL     1      40.792 138.713  13.799  1.00  0.00    -0.396 OA
ATOM     10  H   UNL     1      40.057 139.340  14.027  1.00  0.00     0.210 HD
ENDBRANCH   8   9
ENDBRANCH   5   8
BRANCH   4  11
ATOM     11  N   UNL     1      39.460 133.495  14.273  1.00  0.00    -0.075 NA
BRANCH  11  12
ATOM     12  N   UNL     1      38.510 133.669  13.508  1.00  0.00     0.002 N 
ATOM     13  N   UNL     1      37.562 133.842  12.745  1.00  0.00    -0.003 NA
ENDBRANCH  11  12
ENDBRANCH   4  11
ENDBRANCH   2   4
ENDBRANCH   1   2
BRANCH   1  14
ATOM     14  C   UNL     1      43.249 131.957  15.027  1.00  0.00     0.142 A 
ATOM     15  C   UNL     1      43.688 131.683  16.347  1.00  0.00     0.068 A 
ATOM     16  C   UNL     1      44.026 131.535  13.932  1.00  0.00     0.056 A 
ATOM     17  C   UNL     1      44.915 131.016  16.536  1.00  0.00     0.024 A 
ATOM     18  C   UNL     1      45.243 130.875  14.130  1.00  0.00    -0.015 A 
ATOM     19  C   UNL     1      45.693 130.615  15.442  1.00  0.00    -0.017 A 
ATOM     20  C   UNL     1      46.019 130.461  13.034  1.00  0.00     0.009 A 
ATOM     21  C   UNL     1      46.915 129.952  15.639  1.00  0.00     0.009 A 
ATOM     22  C   UNL     1      47.234 129.802  13.242  1.00  0.00     0.001 A 
ATOM     23  C   UNL     1      47.681 129.548  14.542  1.00  0.00     0.001 A 
BRANCH  15  24
ATOM     24  C   UNL     1      42.890 132.091  17.537  1.00  0.00     0.252 C 
ATOM     25  O   UNL     1      41.706 131.681  17.688  1.00  0.00    -0.287 OA
BRANCH  24  26
ATOM     26  N   UNL     1      43.463 132.957  18.524  1.00  0.00    -0.017 NA
BRANCH  26  27
ATOM     27  N   UNL     1      43.557 134.169  18.335  1.00  0.00     0.009 N 
ATOM     28  N   UNL     1      43.652 135.381  18.147  1.00  0.00    -0.003 NA
ENDBRANCH  26  27
ENDBRANCH  24  26
ENDBRANCH  15  24
ENDBRANCH   1  14
TORSDOF 10
ENDMDL
MODEL 4
REMARK VINA RESULT:      -6.9      2.332      3.421
REMARK SMILES [N-]=[N+]=NC(=O)c1cc2ccccc2cc1OC(=O)[C@]1(N=[N+]=[N-])C[C@H](CO)C1
REMARK SMILES IDX 16 1 17 2 18 3 19 4 24 5 23 6 27 7 25 8 26 9 20 11 21 12
REMARK SMILES IDX 22 13 15 14 6 15 14 16 7 17 13 18 8 19 12 20 9 21 11 22
REMARK SMILES IDX 10 23 4 24 5 25 3 26 2 27 1 28
REMARK H PARENT 26 10
ROOT
ATOM      1  O   UNL     1      41.199 133.219  15.293  1.00  0.00    -0.425 OA
ENDROOT
BRANCH   1   2
ATOM      2  C   UNL     1      40.578 134.111  14.408  1.00  0.00     0.323 C 
ATOM      3  O   UNL     1      41.053 134.302  13.254  1.00  0.00    -0.251 OA
BRANCH   2   4
ATOM      4  C   UNL     1      39.411 134.939  14.898  1.00  0.00     0.147 C 
ATOM      5  C   UNL     1      38.216 134.530  16.653  1.00  0.00     0.017 C 
ATOM      6  C   UNL     1      38.160 134.106  15.181  1.00  0.00     0.031 C 
ATOM      7  C   UNL     1      39.472 135.357  16.373  1.00  0.00     0.031 C 
BRANCH   5   8
ATOM      8  C   UNL     1      38.453 133.370  17.631  1.00  0.00     0.159 C 
BRANCH   8   9
ATOM      9  O   UNL     1      37.458 133.359  18.620  1.00  0.00    -0.396 OA
ATOM     10  H   UNL     1      37.652 132.586  19.211  1.00  0.00     0.210 HD
ENDBRANCH   8   9
ENDBRANCH   5   8
BRANCH   4  11
ATOM     11  N   UNL     1      39.117 136.068  14.014  1.00  0.00    -0.075 NA
BRANCH  11  12
ATOM     12  N   UNL     1      38.293 135.968  13.105  1.00  0.00     0.002 N 
ATOM     13  N   UNL     1      37.470 135.868  12.196  1.00  0.00    -0.003 NA
ENDBRANCH  11  12
ENDBRANCH   4  11
ENDBRANCH   2   4
ENDBRANCH   1   2
BRANCH   1  14
ATOM     14  C   UNL     1      42.554 132.855  15.258  1.00  0.00     0.142 A 
ATOM     15  C   UNL     1      43.469 133.467  16.151  1.00  0.00     0.068 A 
ATOM     16  C   UNL     1      43.004 131.853  14.377  1.00  0.00     0.056 A 
ATOM     17  C   UNL     1      44.824 133.079  16.116  1.00  0.00     0.024 A 
ATOM     18  C   UNL     1      44.350 131.475  14.349  1.00  0.00    -0.015 A 
ATOM     19  C   UNL     1      45.269 132.095  15.224  1.00  0.00    -0.017 A 
ATOM     20  C   UNL     1      44.796 130.480  13.464  1.00  0.00     0.009 A 
ATOM     21  C   UNL     1      46.621 131.715  15.195  1.00  0.00     0.009 A 
ATOM     22  C   UNL     1      46.144 130.110  13.444  1.00  0.00     0.001 A 
ATOM     23  C   UNL     1      47.054 130.726  14.307  1.00  0.00     0.001 A 
BRANCH  15  24
ATOM     24  C   UNL     1      43.038 134.517  17.116  1.00  0.00     0.252 C 
ATOM     25  O   UNL     1      42.354 134.212  18.132  1.00  0.00    -0.287 OA
BRANCH  24  26
ATOM     26  N   UNL     1      43.395 135.886  16.896  1.00  0.00    -0.017 NA
BRANCH  26  27
ATOM     27  N   UNL     1      42.931 136.526  15.953  1.00  0.00     0.009 N 
ATOM     28  N   UNL     1      42.468 137.167  15.011  1.00  0.00    -0.003 NA
ENDBRANCH  26  27
ENDBRANCH  24  26
ENDBRANCH  15  24
ENDBRANCH   1  14
TORSDOF 10
ENDMDL
MODEL 5
REMARK VINA RESULT:      -6.9      1.673      1.885
REMARK SMILES [N-]=[N+]=NC(=O)c1cc2ccccc2cc1OC(=O)[C@]1(N=[N+]=[N-])C[C@H](CO)C1
REMARK SMILES IDX 16 1 17 2 18 3 19 4 24 5 23 6 27 7 25 8 26 9 20 11 21 12
REMARK SMILES IDX 22 13 15 14 6 15 14 16 7 17 13 18 8 19 12 20 9 21 11 22
REMARK SMILES IDX 10 23 4 24 5 25 3 26 2 27 1 28
REMARK H PARENT 26 10
ROOT
ATOM      1  O   UNL     1      43.800 133.203  16.810  1.00  0.00    -0.425 OA
ENDROOT
BRANCH   1   2
ATOM      2  C   UNL     1      42.497 133.338  16.311  1.00  0.00     0.323 C 
ATOM      3  O   UNL     1      41.703 132.357  16.322  1.00  0.00    -0.251 OA
BRANCH   2   4
ATOM      4  C   UNL     1      42.099 134.632  15.639  1.00  0.00     0.147 C 
ATOM      5  C   UNL     1      40.308 134.953  14.469  1.00  0.00     0.017 C 
ATOM      6  C   UNL     1      41.726 134.454  14.166  1.00  0.00     0.031 C 
ATOM      7  C   UNL     1      40.677 135.124  15.944  1.00  0.00     0.031 C 
BRANCH   5   8
ATOM      8  C   UNL     1      39.210 133.906  14.230  1.00  0.00     0.159 C 
BRANCH   8   9
ATOM      9  O   UNL     1      38.842 133.305  15.443  1.00  0.00    -0.396 OA
ATOM     10  H   UNL     1      38.368 132.465  15.212  1.00  0.00     0.210 HD
ENDBRANCH   8   9
ENDBRANCH   5   8
BRANCH   4  11
ATOM     11  N   UNL     1      43.099 135.686  15.817  1.00  0.00    -0.075 NA
BRANCH  11  12
ATOM     12  N   UNL     1      42.982 136.777  15.257  1.00  0.00     0.002 N 
ATOM     13  N   UNL     1      42.866 137.866  14.699  1.00  0.00    -0.003 NA
ENDBRANCH  11  12
ENDBRANCH   4  11
ENDBRANCH   2   4
ENDBRANCH   1   2
BRANCH   1  14
ATOM     14  C   UNL     1      44.739 132.251  16.378  1.00  0.00     0.142 A 
ATOM     15  C   UNL     1      45.254 131.306  17.300  1.00  0.00     0.068 A 
ATOM     16  C   UNL     1      45.136 132.198  15.029  1.00  0.00     0.056 A 
ATOM     17  C   UNL     1      46.183 130.347  16.849  1.00  0.00     0.024 A 
ATOM     18  C   UNL     1      46.059 131.243  14.591  1.00  0.00    -0.015 A 
ATOM     19  C   UNL     1      46.589 130.311  15.509  1.00  0.00    -0.017 A 
ATOM     20  C   UNL     1      46.458 131.198  13.245  1.00  0.00     0.009 A 
ATOM     21  C   UNL     1      47.516 129.352  15.068  1.00  0.00     0.009 A 
ATOM     22  C   UNL     1      47.380 130.238  12.818  1.00  0.00     0.001 A 
ATOM     23  C   UNL     1      47.908 129.318  13.727  1.00  0.00     0.001 A 
BRANCH  15  24
ATOM     24  C   UNL     1      44.849 131.309  18.733  1.00  0.00     0.252 C 
ATOM     25  O   UNL     1      43.650 131.530  19.061  1.00  0.00    -0.287 OA
BRANCH  24  26
ATOM     26  N   UNL     1      45.820 131.060  19.756  1.00  0.00    -0.017 NA
BRANCH  26  27
ATOM     27  N   UNL     1      45.602 131.352  20.932  1.00  0.00     0.009 N 
ATOM     28  N   UNL     1      45.383 131.644  22.107  1.00  0.00    -0.003 NA
ENDBRANCH  26  27
ENDBRANCH  24  26
ENDBRANCH  15  24
ENDBRANCH   1  14
TORSDOF 10
ENDMDL
MODEL 6
REMARK VINA RESULT:      -6.9      1.797      3.083
REMARK SMILES [N-]=[N+]=NC(=O)c1cc2ccccc2cc1OC(=O)[C@]1(N=[N+]=[N-])C[C@H](CO)C1
REMARK SMILES IDX 16 1 17 2 18 3 19 4 24 5 23 6 27 7 25 8 26 9 20 11 21 12
REMARK SMILES IDX 22 13 15 14 6 15 14 16 7 17 13 18 8 19 12 20 9 21 11 22
REMARK SMILES IDX 10 23 4 24 5 25 3 26 2 27 1 28
REMARK H PARENT 26 10
ROOT
ATOM      1  O   UNL     1      42.394 133.049  16.480  1.00  0.00    -0.425 OA
ENDROOT
BRANCH   1   2
ATOM      2  C   UNL     1      41.660 133.715  15.489  1.00  0.00     0.323 C 
ATOM      3  O   UNL     1      40.918 133.068  14.699  1.00  0.00    -0.251 OA
BRANCH   2   4
ATOM      4  C   UNL     1      41.869 135.199  15.293  1.00  0.00     0.147 C 
ATOM      5  C   UNL     1      43.190 136.457  16.455  1.00  0.00     0.017 C 
ATOM      6  C   UNL     1      41.733 136.002  16.588  1.00  0.00     0.031 C 
ATOM      7  C   UNL     1      43.331 135.648  15.163  1.00  0.00     0.031 C 
BRANCH   5   8
ATOM      8  C   UNL     1      44.107 135.967  17.586  1.00  0.00     0.159 C 
BRANCH   8   9
ATOM      9  O   UNL     1      44.772 137.051  18.175  1.00  0.00    -0.396 OA
ATOM     10  H   UNL     1      44.821 137.764  17.487  1.00  0.00     0.210 HD
ENDBRANCH   8   9
ENDBRANCH   5   8
BRANCH   4  11
ATOM     11  N   UNL     1      41.026 135.747  14.229  1.00  0.00    -0.075 NA
BRANCH  11  12
ATOM     12  N   UNL     1      40.148 136.575  14.475  1.00  0.00     0.002 N 
ATOM     13  N   UNL     1      39.271 137.402  14.721  1.00  0.00    -0.003 NA
ENDBRANCH  11  12
ENDBRANCH   4  11
ENDBRANCH   2   4
ENDBRANCH   1   2
BRANCH   1  14
ATOM     14  C   UNL     1      43.551 132.285  16.255  1.00  0.00     0.142 A 
ATOM     15  C   UNL     1      44.310 131.820  17.358  1.00  0.00     0.068 A 
ATOM     16  C   UNL     1      43.938 131.939  14.947  1.00  0.00     0.056 A 
ATOM     17  C   UNL     1      45.460 131.041  17.118  1.00  0.00     0.024 A 
ATOM     18  C   UNL     1      45.081 131.166  14.719  1.00  0.00    -0.015 A 
ATOM     19  C   UNL     1      45.850 130.715  15.813  1.00  0.00    -0.017 A 
ATOM     20  C   UNL     1      45.467 130.828  13.411  1.00  0.00     0.009 A 
ATOM     21  C   UNL     1      46.998 129.938  15.583  1.00  0.00     0.009 A 
ATOM     22  C   UNL     1      46.611 130.054  13.194  1.00  0.00     0.001 A 
ATOM     23  C   UNL     1      47.375 129.611  14.277  1.00  0.00     0.001 A 
BRANCH  15  24
ATOM     24  C   UNL     1      43.930 132.142  18.762  1.00  0.00     0.252 C 
ATOM     25  O   UNL     1      42.974 131.538  19.323  1.00  0.00    -0.287 OA
BRANCH  24  26
ATOM     26  N   UNL     1      44.647 133.147  19.489  1.00  0.00    -0.017 NA
BRANCH  26  27
ATOM     27  N   UNL     1      44.882 133.023  20.690  1.00  0.00     0.009 N 
ATOM     28  N   UNL     1      45.119 132.899  21.892  1.00  0.00    -0.003 NA
ENDBRANCH  26  27
ENDBRANCH  24  26
ENDBRANCH  15  24
ENDBRANCH   1  14
TORSDOF 10
ENDMDL
MODEL 7
REMARK VINA RESULT:      -6.9      1.560      2.021
REMARK SMILES [N-]=[N+]=NC(=O)c1cc2ccccc2cc1OC(=O)[C@]1(N=[N+]=[N-])C[C@H](CO)C1
REMARK SMILES IDX 16 1 17 2 18 3 19 4 24 5 23 6 27 7 25 8 26 9 20 11 21 12
REMARK SMILES IDX 22 13 15 14 6 15 14 16 7 17 13 18 8 19 12 20 9 21 11 22
REMARK SMILES IDX 10 23 4 24 5 25 3 26 2 27 1 28
REMARK H PARENT 26 10
ROOT
ATOM      1  O   UNL     1      43.129 132.068  16.350  1.00  0.00    -0.425 OA
ENDROOT
BRANCH   1   2
ATOM      2  C   UNL     1      42.240 132.758  15.514  1.00  0.00     0.323 C 
ATOM      3  O   UNL     1      41.771 132.204  14.482  1.00  0.00    -0.251 OA
BRANCH   2   4
ATOM      4  C   UNL     1      41.955 134.218  15.790  1.00  0.00     0.147 C 
ATOM      5  C   UNL     1      40.586 135.472  14.682  1.00  0.00     0.017 C 
ATOM      6  C   UNL     1      42.066 135.097  14.543  1.00  0.00     0.031 C 
ATOM      7  C   UNL     1      40.472 134.586  15.924  1.00  0.00     0.031 C 
BRANCH   5   8
ATOM      8  C   UNL     1      39.707 135.002  13.513  1.00  0.00     0.159 C 
BRANCH   8   9
ATOM      9  O   UNL     1      38.963 136.076  13.004  1.00  0.00    -0.396 OA
ATOM     10  H   UNL     1      39.612 136.708  12.600  1.00  0.00     0.210 HD
ENDBRANCH   8   9
ENDBRANCH   5   8
BRANCH   4  11
ATOM     11  N   UNL     1      42.759 134.745  16.893  1.00  0.00    -0.075 NA
BRANCH  11  12
ATOM     12  N   UNL     1      42.230 135.291  17.863  1.00  0.00     0.002 N 
ATOM     13  N   UNL     1      41.703 135.837  18.831  1.00  0.00    -0.003 NA
ENDBRANCH  11  12
ENDBRANCH   4  11
ENDBRANCH   2   4
ENDBRANCH   1   2
BRANCH   1  14
ATOM     14  C   UNL     1      44.336 131.480  15.940  1.00  0.00     0.142 A 
ATOM     15  C   UNL     1      45.236 130.974  16.912  1.00  0.00     0.068 A 
ATOM     16  C   UNL     1      44.639 131.345  14.573  1.00  0.00     0.056 A 
ATOM     17  C   UNL     1      46.436 130.371  16.486  1.00  0.00     0.024 A 
ATOM     18  C   UNL     1      45.833 130.746  14.159  1.00  0.00    -0.015 A 
ATOM     19  C   UNL     1      46.741 130.257  15.123  1.00  0.00    -0.017 A 
ATOM     20  C   UNL     1      46.135 130.620  12.793  1.00  0.00     0.009 A 
ATOM     21  C   UNL     1      47.940 129.655  14.707  1.00  0.00     0.009 A 
ATOM     22  C   UNL     1      47.331 130.019  12.390  1.00  0.00     0.001 A 
ATOM     23  C   UNL     1      48.231 129.538  13.345  1.00  0.00     0.001 A 
BRANCH  15  24
ATOM     24  C   UNL     1      44.950 131.074  18.371  1.00  0.00     0.252 C 
ATOM     25  O   UNL     1      45.778 130.640  19.219  1.00  0.00    -0.287 OA
BRANCH  24  26
ATOM     26  N   UNL     1      43.727 131.664  18.825  1.00  0.00    -0.017 NA
BRANCH  26  27
ATOM     27  N   UNL     1      43.725 132.610  19.613  1.00  0.00     0.009 N 
ATOM     28  N   UNL     1      43.723 133.555  20.401  1.00  0.00    -0.003 NA
ENDBRANCH  26  27
ENDBRANCH  24  26
ENDBRANCH  15  24
ENDBRANCH   1  14
TORSDOF 10
ENDMDL
MODEL 8
REMARK VINA RESULT:      -6.8      2.523      3.307
REMARK SMILES [N-]=[N+]=NC(=O)c1cc2ccccc2cc1OC(=O)[C@]1(N=[N+]=[N-])C[C@H](CO)C1
REMARK SMILES IDX 16 1 17 2 18 3 19 4 24 5 23 6 27 7 25 8 26 9 20 11 21 12
REMARK SMILES IDX 22 13 15 14 6 15 14 16 7 17 13 18 8 19 12 20 9 21 11 22
REMARK SMILES IDX 10 23 4 24 5 25 3 26 2 27 1 28
REMARK H PARENT 26 10
ROOT
ATOM      1  O   UNL     1      42.941 132.653  16.124  1.00  0.00    -0.425 OA
ENDROOT
BRANCH   1   2
ATOM      2  C   UNL     1      42.749 134.009  15.825  1.00  0.00     0.323 C 
ATOM      3  O   UNL     1      43.516 134.601  15.016  1.00  0.00    -0.251 OA
BRANCH   2   4
ATOM      4  C   UNL     1      41.697 134.787  16.582  1.00  0.00     0.147 C 
ATOM      5  C   UNL     1      42.074 136.276  18.105  1.00  0.00     0.017 C 
ATOM      6  C   UNL     1      41.900 134.753  18.098  1.00  0.00     0.031 C 
ATOM      7  C   UNL     1      41.879 136.311  16.588  1.00  0.00     0.031 C 
BRANCH   5   8
ATOM      8  C   UNL     1      43.465 136.747  18.554  1.00  0.00     0.159 C 
BRANCH   8   9
ATOM      9  O   UNL     1      43.354 137.599  19.662  1.00  0.00    -0.396 OA
ATOM     10  H   UNL     1      42.625 137.237  20.229  1.00  0.00     0.210 HD
ENDBRANCH   8   9
ENDBRANCH   5   8
BRANCH   4  11
ATOM     11  N   UNL     1      40.337 134.394  16.213  1.00  0.00    -0.075 NA
BRANCH  11  12
ATOM     12  N   UNL     1      40.096 133.882  15.118  1.00  0.00     0.002 N 
ATOM     13  N   UNL     1      39.856 133.372  14.025  1.00  0.00    -0.003 NA
ENDBRANCH  11  12
ENDBRANCH   4  11
ENDBRANCH   2   4
ENDBRANCH   1   2
BRANCH   1  14
ATOM     14  C   UNL     1      44.112 131.923  15.862  1.00  0.00     0.142 A 
ATOM     15  C   UNL     1      44.852 131.374  16.939  1.00  0.00     0.068 A 
ATOM     16  C   UNL     1      44.530 131.692  14.539  1.00  0.00     0.056 A 
ATOM     17  C   UNL     1      46.015 130.630  16.661  1.00  0.00     0.024 A 
ATOM     18  C   UNL     1      45.687 130.953  14.272  1.00  0.00    -0.015 A 
ATOM     19  C   UNL     1      46.438 130.419  15.342  1.00  0.00    -0.017 A 
ATOM     20  C   UNL     1      46.106 130.730  12.950  1.00  0.00     0.009 A 
ATOM     21  C   UNL     1      47.599 129.676  15.073  1.00  0.00     0.009 A 
ATOM     22  C   UNL     1      47.263 129.989  12.694  1.00  0.00     0.001 A 
ATOM     23  C   UNL     1      48.008 129.464  13.753  1.00  0.00     0.001 A 
BRANCH  15  24
ATOM     24  C   UNL     1      44.437 131.573  18.356  1.00  0.00     0.252 C 
ATOM     25  O   UNL     1      43.215 131.634  18.665  1.00  0.00    -0.287 OA
BRANCH  24  26
ATOM     26  N   UNL     1      45.427 131.700  19.384  1.00  0.00    -0.017 NA
BRANCH  26  27
ATOM     27  N   UNL     1      45.183 131.391  20.550  1.00  0.00     0.009 N 
ATOM     28  N   UNL     1      44.938 131.083  21.716  1.00  0.00    -0.003 NA
ENDBRANCH  26  27
ENDBRANCH  24  26
ENDBRANCH  15  24
ENDBRANCH   1  14
TORSDOF 10
ENDMDL
MODEL 9
REMARK VINA RESULT:      -6.8      3.192      5.096
REMARK SMILES [N-]=[N+]=NC(=O)c1cc2ccccc2cc1OC(=O)[C@]1(N=[N+]=[N-])C[C@H](CO)C1
REMARK SMILES IDX 16 1 17 2 18 3 19 4 24 5 23 6 27 7 25 8 26 9 20 11 21 12
REMARK SMILES IDX 22 13 15 14 6 15 14 16 7 17 13 18 8 19 12 20 9 21 11 22
REMARK SMILES IDX 10 23 4 24 5 25 3 26 2 27 1 28
REMARK H PARENT 26 10
ROOT
ATOM      1  O   UNL     1      43.192 132.549  15.471  1.00  0.00    -0.425 OA
ENDROOT
BRANCH   1   2
ATOM      2  C   UNL     1      42.936 133.889  15.149  1.00  0.00     0.323 C 
ATOM      3  O   UNL     1      43.885 134.673  14.873  1.00  0.00    -0.251 OA
BRANCH   2   4
ATOM      4  C   UNL     1      41.524 134.416  15.267  1.00  0.00     0.147 C 
ATOM      5  C   UNL     1      40.965 136.427  15.832  1.00  0.00     0.017 C 
ATOM      6  C   UNL     1      41.257 135.130  16.593  1.00  0.00     0.031 C 
ATOM      7  C   UNL     1      41.239 135.717  14.505  1.00  0.00     0.031 C 
BRANCH   5   8
ATOM      8  C   UNL     1      41.951 137.566  16.131  1.00  0.00     0.159 C 
BRANCH   8   9
ATOM      9  O   UNL     1      41.254 138.744  16.436  1.00  0.00    -0.396 OA
ATOM     10  H   UNL     1      41.466 138.965  17.379  1.00  0.00     0.210 HD
ENDBRANCH   8   9
ENDBRANCH   5   8
BRANCH   4  11
ATOM     11  N   UNL     1      40.519 133.386  14.999  1.00  0.00    -0.075 NA
BRANCH  11  12
ATOM     12  N   UNL     1      39.560 133.609  14.259  1.00  0.00     0.002 N 
ATOM     13  N   UNL     1      38.602 133.833  13.521  1.00  0.00    -0.003 NA
ENDBRANCH  11  12
ENDBRANCH   4  11
ENDBRANCH   2   4
ENDBRANCH   1   2
BRANCH   1  14
ATOM     14  C   UNL     1      43.783 132.100  16.663  1.00  0.00     0.142 A 
ATOM     15  C   UNL     1      45.054 131.475  16.625  1.00  0.00     0.068 A 
ATOM     16  C   UNL     1      43.145 132.309  17.901  1.00  0.00     0.056 A 
ATOM     17  C   UNL     1      45.642 131.044  17.831  1.00  0.00     0.024 A 
ATOM     18  C   UNL     1      43.737 131.877  19.093  1.00  0.00    -0.015 A 
ATOM     19  C   UNL     1      44.995 131.237  19.058  1.00  0.00    -0.017 A 
ATOM     20  C   UNL     1      43.094 132.081  20.325  1.00  0.00     0.009 A 
ATOM     21  C   UNL     1      45.587 130.805  20.255  1.00  0.00     0.009 A 
ATOM     22  C   UNL     1      43.694 131.646  21.511  1.00  0.00     0.001 A 
ATOM     23  C   UNL     1      44.937 131.009  21.475  1.00  0.00     0.001 A 
BRANCH  15  24
ATOM     24  C   UNL     1      45.777 131.251  15.342  1.00  0.00     0.252 C 
ATOM     25  O   UNL     1      46.365 132.205  14.761  1.00  0.00    -0.287 OA
BRANCH  24  26
ATOM     26  N   UNL     1      45.811 129.946  14.753  1.00  0.00    -0.017 NA
BRANCH  26  27
ATOM     27  N   UNL     1      46.833 129.506  14.227  1.00  0.00     0.009 N 
ATOM     28  N   UNL     1      47.854 129.066  13.700  1.00  0.00    -0.003 NA
ENDBRANCH  26  27
ENDBRANCH  24  26
ENDBRANCH  15  24
ENDBRANCH   1  14
TORSDOF 10
ENDMDL


