MODEL 1
REMARK VINA RESULT:      -7.5      0.000      0.000
REMARK SMILES C[C@H](Cl)[C@@H]1[C@H](C)N(C(=O)OCC(F)F)NN1c1ccc2c3c(ccc(N)c13)CC2
REMARK SMILES IDX 8 1 9 2 7 3 4 4 5 5 16 6 15 7 6 8 2 10 1 11 3 12 17 13 18 14
REMARK SMILES IDX 27 15 19 16 25 17 21 18 20 19 24 20 22 21 29 22 23 23 28 24
REMARK SMILES IDX 26 25 10 28 11 29 12 30 13 31 14 32
REMARK H PARENT 15 9 26 26 26 27
ROOT
ATOM      1  C   UNL     1      44.947 130.583  14.704  1.00  0.00     0.426 C 
ATOM      2  O   UNL     1      44.730 129.351  14.860  1.00  0.00    -0.223 OA
ENDROOT
BRANCH   1   3
ATOM      3  N   UNL     1      44.262 131.544  15.518  1.00  0.00    -0.220 N 
ATOM      4  C   UNL     1      42.780 132.435  17.080  1.00  0.00     0.144 C 
ATOM      5  C   UNL     1      43.797 131.290  16.873  1.00  0.00     0.131 C 
ATOM      6  N   UNL     1      43.213 133.415  16.069  1.00  0.00    -0.283 N 
ATOM      7  N   UNL     1      44.069 132.867  15.097  1.00  0.00    -0.139 NA
ATOM      8  C   UNL     1      45.029 131.337  17.800  1.00  0.00     0.035 C 
ATOM      9  H   UNL     1      43.543 132.844  14.195  1.00  0.00     0.175 HD
BRANCH   4  10
ATOM     10  C   UNL     1      42.628 132.958  18.544  1.00  0.00     0.104 C 
ATOM     11  C   UNL     1      42.388 131.798  19.524  1.00  0.00     0.027 C 
ATOM     12  Cl  UNL     1      41.218 134.043  18.740  1.00  0.00    -0.121 Cl
ENDBRANCH   4  10
BRANCH   6  13
ATOM     13  C   UNL     1      43.136 134.839  16.192  1.00  0.00     0.064 A 
ATOM     14  C   UNL     1      44.062 135.475  17.058  1.00  0.00     0.028 A 
ATOM     15  C   UNL     1      42.178 135.628  15.480  1.00  0.00     0.030 A 
ATOM     16  C   UNL     1      44.033 136.864  17.261  1.00  0.00     0.006 A 
ATOM     17  C   UNL     1      41.170 135.168  14.576  1.00  0.00     0.042 A 
ATOM     18  C   UNL     1      42.195 137.004  15.746  1.00  0.00    -0.008 A 
ATOM     19  C   UNL     1      43.072 137.611  16.590  1.00  0.00    -0.039 A 
ATOM     20  C   UNL     1      40.233 136.095  14.052  1.00  0.00     0.026 A 
ATOM     21  C   UNL     1      41.309 137.895  15.223  1.00  0.00    -0.039 A 
ATOM     22  C   UNL     1      42.803 139.081  16.669  1.00  0.00     0.041 C 
ATOM     23  C   UNL     1      40.300 137.462  14.371  1.00  0.00     0.006 A 
ATOM     24  C   UNL     1      41.583 139.276  15.729  1.00  0.00     0.041 C 
BRANCH  17  25
ATOM     25  N   UNL     1      41.067 133.804  14.153  1.00  0.00    -0.398 N 
ATOM     26  H   UNL     1      41.445 133.480  13.242  1.00  0.00     0.156 HD
ATOM     27  H   UNL     1      40.404 133.157  14.636  1.00  0.00     0.156 HD
ENDBRANCH  17  25
ENDBRANCH   6  13
ENDBRANCH   1   3
BRANCH   1  28
ATOM     28  O   UNL     1      45.852 131.024  13.734  1.00  0.00    -0.442 OA
BRANCH  28  29
ATOM     29  C   UNL     1      47.255 131.087  13.963  1.00  0.00     0.308 C 
BRANCH  29  30
ATOM     30  C   UNL     1      47.934 129.890  13.313  1.00  0.00     0.379 C 
ATOM     31  F   UNL     1      47.351 128.717  13.757  1.00  0.00    -0.207 F 
ATOM     32  F   UNL     1      49.278 129.882  13.639  1.00  0.00    -0.207 F 
ENDBRANCH  29  30
ENDBRANCH  28  29
ENDBRANCH   1  28
TORSDOF 7
ENDMDL
MODEL 2
REMARK VINA RESULT:      -7.4      1.347      1.439
REMARK SMILES C[C@H](Cl)[C@@H]1[C@H](C)N(C(=O)OCC(F)F)NN1c1ccc2c3c(ccc(N)c13)CC2
REMARK SMILES IDX 8 1 9 2 7 3 4 4 5 5 16 6 15 7 6 8 2 10 1 11 3 12 17 13 18 14
REMARK SMILES IDX 27 15 19 16 25 17 21 18 20 19 24 20 22 21 29 22 23 23 28 24
REMARK SMILES IDX 26 25 10 28 11 29 12 30 13 31 14 32
REMARK H PARENT 15 9 26 26 26 27
ROOT
ATOM      1  C   UNL     1      46.425 130.748  16.261  1.00  0.00     0.426 C 
ATOM      2  O   UNL     1      46.786 129.796  17.004  1.00  0.00    -0.223 OA
ENDROOT
BRANCH   1   3
ATOM      3  N   UNL     1      45.315 131.574  16.638  1.00  0.00    -0.220 N 
ATOM      4  C   UNL     1      43.222 132.197  17.452  1.00  0.00     0.144 C 
ATOM      5  C   UNL     1      44.449 131.316  17.778  1.00  0.00     0.131 C 
ATOM      6  N   UNL     1      43.792 133.176  16.511  1.00  0.00    -0.283 N 
ATOM      7  N   UNL     1      45.033 132.780  15.981  1.00  0.00    -0.139 NA
ATOM      8  C   UNL     1      45.224 131.721  19.049  1.00  0.00     0.035 C 
ATOM      9  H   UNL     1      44.887 132.567  14.969  1.00  0.00     0.175 HD
BRANCH   4  10
ATOM     10  C   UNL     1      42.449 132.773  18.681  1.00  0.00     0.104 C 
ATOM     11  C   UNL     1      42.199 131.685  19.737  1.00  0.00     0.027 C 
ATOM     12  Cl  UNL     1      40.826 133.387  18.241  1.00  0.00    -0.121 Cl
ENDBRANCH   4  10
BRANCH   6  13
ATOM     13  C   UNL     1      43.397 134.546  16.382  1.00  0.00     0.064 A 
ATOM     14  C   UNL     1      44.022 135.493  17.232  1.00  0.00     0.028 A 
ATOM     15  C   UNL     1      42.415 134.985  15.438  1.00  0.00     0.030 A 
ATOM     16  C   UNL     1      43.669 136.852  17.194  1.00  0.00     0.006 A 
ATOM     17  C   UNL     1      41.679 134.183  14.510  1.00  0.00     0.042 A 
ATOM     18  C   UNL     1      42.098 136.350  15.468  1.00  0.00    -0.008 A 
ATOM     19  C   UNL     1      42.687 137.255  16.296  1.00  0.00    -0.039 A 
ATOM     20  C   UNL     1      40.659 134.785  13.729  1.00  0.00     0.026 A 
ATOM     21  C   UNL     1      41.135 136.929  14.701  1.00  0.00    -0.039 A 
ATOM     22  C   UNL     1      42.103 138.618  16.094  1.00  0.00     0.041 C 
ATOM     23  C   UNL     1      40.385 136.160  13.820  1.00  0.00     0.006 A 
ATOM     24  C   UNL     1      41.030 138.392  14.996  1.00  0.00     0.041 C 
BRANCH  17  25
ATOM     25  N   UNL     1      41.934 132.788  14.314  1.00  0.00    -0.398 N 
ATOM     26  H   UNL     1      41.822 132.332  13.388  1.00  0.00     0.156 HD
ATOM     27  H   UNL     1      42.004 132.149  15.139  1.00  0.00     0.156 HD
ENDBRANCH  17  25
ENDBRANCH   6  13
ENDBRANCH   1   3
BRANCH   1  28
ATOM     28  O   UNL     1      47.096 131.003  15.061  1.00  0.00    -0.442 OA
BRANCH  28  29
ATOM     29  C   UNL     1      47.109 130.081  13.977  1.00  0.00     0.308 C 
BRANCH  29  30
ATOM     30  C   UNL     1      46.587 130.763  12.720  1.00  0.00     0.379 C 
ATOM     31  F   UNL     1      45.237 130.506  12.570  1.00  0.00    -0.207 F 
ATOM     32  F   UNL     1      47.267 130.285  11.614  1.00  0.00    -0.207 F 
ENDBRANCH  29  30
ENDBRANCH  28  29
ENDBRANCH   1  28
TORSDOF 7
ENDMDL
MODEL 3
REMARK VINA RESULT:      -7.3      1.400      1.629
REMARK SMILES C[C@H](Cl)[C@@H]1[C@H](C)N(C(=O)OCC(F)F)NN1c1ccc2c3c(ccc(N)c13)CC2
REMARK SMILES IDX 8 1 9 2 7 3 4 4 5 5 16 6 15 7 6 8 2 10 1 11 3 12 17 13 18 14
REMARK SMILES IDX 27 15 19 16 25 17 21 18 20 19 24 20 22 21 29 22 23 23 28 24
REMARK SMILES IDX 26 25 10 28 11 29 12 30 13 31 14 32
REMARK H PARENT 15 9 26 26 26 27
ROOT
ATOM      1  C   UNL     1      45.927 130.867  16.225  1.00  0.00     0.426 C 
ATOM      2  O   UNL     1      46.115 129.716  16.704  1.00  0.00    -0.223 OA
ENDROOT
BRANCH   1   3
ATOM      3  N   UNL     1      45.076 131.799  16.904  1.00  0.00    -0.220 N 
ATOM      4  C   UNL     1      43.289 132.635  18.145  1.00  0.00     0.144 C 
ATOM      5  C   UNL     1      44.339 131.501  18.123  1.00  0.00     0.131 C 
ATOM      6  N   UNL     1      43.916 133.648  17.278  1.00  0.00    -0.283 N 
ATOM      7  N   UNL     1      44.963 133.135  16.493  1.00  0.00    -0.139 NA
ATOM      8  C   UNL     1      45.347 131.523  19.289  1.00  0.00     0.035 C 
ATOM      9  H   UNL     1      44.640 133.138  15.499  1.00  0.00     0.175 HD
BRANCH   4  10
ATOM     10  C   UNL     1      42.827 133.111  19.559  1.00  0.00     0.104 C 
ATOM     11  C   UNL     1      42.452 131.916  20.450  1.00  0.00     0.027 C 
ATOM     12  Cl  UNL     1      41.357 134.131  19.491  1.00  0.00    -0.121 Cl
ENDBRANCH   4  10
BRANCH   6  13
ATOM     13  C   UNL     1      43.801 135.068  17.425  1.00  0.00     0.064 A 
ATOM     14  C   UNL     1      44.470 135.671  18.519  1.00  0.00     0.028 A 
ATOM     15  C   UNL     1      43.051 135.882  16.519  1.00  0.00     0.030 A 
ATOM     16  C   UNL     1      44.381 137.053  18.756  1.00  0.00     0.006 A 
ATOM     17  C   UNL     1      42.311 135.456  15.372  1.00  0.00     0.042 A 
ATOM     18  C   UNL     1      42.990 137.249  16.826  1.00  0.00    -0.008 A 
ATOM     19  C   UNL     1      43.619 137.825  17.886  1.00  0.00    -0.039 A 
ATOM     20  C   UNL     1      41.532 136.402  14.657  1.00  0.00     0.026 A 
ATOM     21  C   UNL     1      42.261 138.158  16.124  1.00  0.00    -0.039 A 
ATOM     22  C   UNL     1      43.328 139.292  17.943  1.00  0.00     0.041 C 
ATOM     23  C   UNL     1      41.506 137.758  15.029  1.00  0.00     0.006 A 
ATOM     24  C   UNL     1      42.388 139.521  16.729  1.00  0.00     0.041 C 
BRANCH  17  25
ATOM     25  N   UNL     1      42.328 134.108  14.891  1.00  0.00    -0.398 N 
ATOM     26  H   UNL     1      41.777 133.811  14.063  1.00  0.00     0.156 HD
ATOM     27  H   UNL     1      42.701 133.342  15.498  1.00  0.00     0.156 HD
ENDBRANCH  17  25
ENDBRANCH   6  13
ENDBRANCH   1   3
BRANCH   1  28
ATOM     28  O   UNL     1      46.541 131.243  15.026  1.00  0.00    -0.442 OA
BRANCH  28  29
ATOM     29  C   UNL     1      46.079 130.800  13.755  1.00  0.00     0.308 C 
BRANCH  29  30
ATOM     30  C   UNL     1      47.261 130.630  12.811  1.00  0.00     0.379 C 
ATOM     31  F   UNL     1      48.159 131.666  12.990  1.00  0.00    -0.207 F 
ATOM     32  F   UNL     1      46.816 130.633  11.502  1.00  0.00    -0.207 F 
ENDBRANCH  29  30
ENDBRANCH  28  29
ENDBRANCH   1  28
TORSDOF 7
ENDMDL
MODEL 4
REMARK VINA RESULT:      -7.2      1.284      1.353
REMARK SMILES C[C@H](Cl)[C@@H]1[C@H](C)N(C(=O)OCC(F)F)NN1c1ccc2c3c(ccc(N)c13)CC2
REMARK SMILES IDX 8 1 9 2 7 3 4 4 5 5 16 6 15 7 6 8 2 10 1 11 3 12 17 13 18 14
REMARK SMILES IDX 27 15 19 16 25 17 21 18 20 19 24 20 22 21 29 22 23 23 28 24
REMARK SMILES IDX 26 25 10 28 11 29 12 30 13 31 14 32
REMARK H PARENT 15 9 26 26 26 27
ROOT
ATOM      1  C   UNL     1      46.189 130.434  15.426  1.00  0.00     0.426 C 
ATOM      2  O   UNL     1      47.237 130.230  16.098  1.00  0.00    -0.223 OA
ENDROOT
BRANCH   1   3
ATOM      3  N   UNL     1      45.167 131.303  15.931  1.00  0.00    -0.220 N 
ATOM      4  C   UNL     1      43.165 132.002  16.897  1.00  0.00     0.144 C 
ATOM      5  C   UNL     1      44.326 131.000  17.080  1.00  0.00     0.131 C 
ATOM      6  N   UNL     1      43.777 133.024  16.030  1.00  0.00    -0.283 N 
ATOM      7  N   UNL     1      44.960 132.586  15.408  1.00  0.00    -0.139 NA
ATOM      8  C   UNL     1      45.179 131.213  18.346  1.00  0.00     0.035 C 
ATOM      9  H   UNL     1      44.759 132.488  14.388  1.00  0.00     0.175 HD
BRANCH   4  10
ATOM     10  C   UNL     1      42.488 132.511  18.210  1.00  0.00     0.104 C 
ATOM     11  C   UNL     1      41.143 133.192  17.911  1.00  0.00     0.027 C 
ATOM     12  Cl  UNL     1      43.470 133.750  19.049  1.00  0.00    -0.121 Cl
ENDBRANCH   4  10
BRANCH   6  13
ATOM     13  C   UNL     1      43.492 134.426  16.053  1.00  0.00     0.064 A 
ATOM     14  C   UNL     1      44.314 135.251  16.862  1.00  0.00     0.028 A 
ATOM     15  C   UNL     1      42.429 135.014  15.296  1.00  0.00     0.030 A 
ATOM     16  C   UNL     1      44.081 136.632  16.968  1.00  0.00     0.006 A 
ATOM     17  C   UNL     1      41.500 134.348  14.436  1.00  0.00     0.042 A 
ATOM     18  C   UNL     1      42.243 136.393  15.464  1.00  0.00    -0.008 A 
ATOM     19  C   UNL     1      43.022 137.181  16.254  1.00  0.00    -0.039 A 
ATOM     20  C   UNL     1      40.437 135.088  13.857  1.00  0.00     0.026 A 
ATOM     21  C   UNL     1      41.237 137.105  14.888  1.00  0.00    -0.039 A 
ATOM     22  C   UNL     1      42.539 138.597  16.232  1.00  0.00     0.041 C 
ATOM     23  C   UNL     1      40.303 136.470  14.079  1.00  0.00     0.006 A 
ATOM     24  C   UNL     1      41.305 138.544  15.292  1.00  0.00     0.041 C 
BRANCH  17  25
ATOM     25  N   UNL     1      41.599 132.957  14.112  1.00  0.00    -0.398 N 
ATOM     26  H   UNL     1      41.117 132.548  13.287  1.00  0.00     0.156 HD
ATOM     27  H   UNL     1      41.954 132.279  14.823  1.00  0.00     0.156 HD
ENDBRANCH  17  25
ENDBRANCH   6  13
ENDBRANCH   1   3
BRANCH   1  28
ATOM     28  O   UNL     1      46.012 129.811  14.187  1.00  0.00    -0.442 OA
BRANCH  28  29
ATOM     29  C   UNL     1      45.933 130.538  12.965  1.00  0.00     0.308 C 
BRANCH  29  30
ATOM     30  C   UNL     1      47.317 130.645  12.342  1.00  0.00     0.379 C 
ATOM     31  F   UNL     1      47.236 130.448  10.976  1.00  0.00    -0.207 F 
ATOM     32  F   UNL     1      48.151 129.687  12.891  1.00  0.00    -0.207 F 
ENDBRANCH  29  30
ENDBRANCH  28  29
ENDBRANCH   1  28
TORSDOF 7
ENDMDL
MODEL 5
REMARK VINA RESULT:      -7.1      4.310      7.221
REMARK SMILES C[C@H](Cl)[C@@H]1[C@H](C)N(C(=O)OCC(F)F)NN1c1ccc2c3c(ccc(N)c13)CC2
REMARK SMILES IDX 8 1 9 2 7 3 4 4 5 5 16 6 15 7 6 8 2 10 1 11 3 12 17 13 18 14
REMARK SMILES IDX 27 15 19 16 25 17 21 18 20 19 24 20 22 21 29 22 23 23 28 24
REMARK SMILES IDX 26 25 10 28 11 29 12 30 13 31 14 32
REMARK H PARENT 15 9 26 26 26 27
ROOT
ATOM      1  C   UNL     1      37.950 134.796  16.756  1.00  0.00     0.426 C 
ATOM      2  O   UNL     1      37.303 134.076  17.565  1.00  0.00    -0.223 OA
ENDROOT
BRANCH   1   3
ATOM      3  N   UNL     1      39.384 134.783  16.769  1.00  0.00    -0.220 N 
ATOM      4  C   UNL     1      41.586 135.431  16.367  1.00  0.00     0.144 C 
ATOM      5  C   UNL     1      40.215 135.976  16.827  1.00  0.00     0.131 C 
ATOM      6  N   UNL     1      41.446 133.989  16.635  1.00  0.00    -0.283 N 
ATOM      7  N   UNL     1      40.113 133.588  16.830  1.00  0.00    -0.139 NA
ATOM      8  C   UNL     1      40.174 136.498  18.278  1.00  0.00     0.035 C 
ATOM      9  H   UNL     1      39.839 133.002  16.009  1.00  0.00     0.175 HD
BRANCH   4  10
ATOM     10  C   UNL     1      42.840 136.138  16.971  1.00  0.00     0.104 C 
ATOM     11  C   UNL     1      42.834 137.642  16.653  1.00  0.00     0.027 C 
ATOM     12  Cl  UNL     1      44.372 135.516  16.285  1.00  0.00    -0.121 Cl
ENDBRANCH   4  10
BRANCH   6  13
ATOM     13  C   UNL     1      42.496 133.104  17.041  1.00  0.00     0.064 A 
ATOM     14  C   UNL     1      42.861 133.104  18.411  1.00  0.00     0.028 A 
ATOM     15  C   UNL     1      43.171 132.232  16.130  1.00  0.00     0.030 A 
ATOM     16  C   UNL     1      43.903 132.292  18.887  1.00  0.00     0.006 A 
ATOM     17  C   UNL     1      42.947 132.098  14.724  1.00  0.00     0.042 A 
ATOM     18  C   UNL     1      44.213 131.464  16.670  1.00  0.00    -0.008 A 
ATOM     19  C   UNL     1      44.574 131.477  17.981  1.00  0.00    -0.039 A 
ATOM     20  C   UNL     1      43.800 131.259  13.962  1.00  0.00     0.026 A 
ATOM     21  C   UNL     1      45.014 130.642  15.940  1.00  0.00    -0.039 A 
ATOM     22  C   UNL     1      45.736 130.565  18.221  1.00  0.00     0.041 C 
ATOM     23  C   UNL     1      44.835 130.526  14.567  1.00  0.00     0.006 A 
ATOM     24  C   UNL     1      46.042 129.992  16.811  1.00  0.00     0.041 C 
BRANCH  17  25
ATOM     25  N   UNL     1      41.881 132.764  14.039  1.00  0.00    -0.398 N 
ATOM     26  H   UNL     1      41.145 132.241  13.525  1.00  0.00     0.156 HD
ATOM     27  H   UNL     1      41.948 133.787  13.836  1.00  0.00     0.156 HD
ENDBRANCH  17  25
ENDBRANCH   6  13
ENDBRANCH   1   3
BRANCH   1  28
ATOM     28  O   UNL     1      37.277 135.617  15.846  1.00  0.00    -0.442 OA
BRANCH  28  29
ATOM     29  C   UNL     1      36.580 135.103  14.717  1.00  0.00     0.308 C 
BRANCH  29  30
ATOM     30  C   UNL     1      37.552 134.904  13.563  1.00  0.00     0.379 C 
ATOM     31  F   UNL     1      38.203 133.691  13.697  1.00  0.00    -0.207 F 
ATOM     32  F   UNL     1      38.486 135.924  13.559  1.00  0.00    -0.207 F 
ENDBRANCH  29  30
ENDBRANCH  28  29
ENDBRANCH   1  28
TORSDOF 7
ENDMDL
MODEL 6
REMARK VINA RESULT:      -7.1      0.926      1.070
REMARK SMILES C[C@H](Cl)[C@@H]1[C@H](C)N(C(=O)OCC(F)F)NN1c1ccc2c3c(ccc(N)c13)CC2
REMARK SMILES IDX 8 1 9 2 7 3 4 4 5 5 16 6 15 7 6 8 2 10 1 11 3 12 17 13 18 14
REMARK SMILES IDX 27 15 19 16 25 17 21 18 20 19 24 20 22 21 29 22 23 23 28 24
REMARK SMILES IDX 26 25 10 28 11 29 12 30 13 31 14 32
REMARK H PARENT 15 9 26 26 26 27
ROOT
ATOM      1  C   UNL     1      45.054 131.026  15.312  1.00  0.00     0.426 C 
ATOM      2  O   UNL     1      44.522 130.034  14.743  1.00  0.00    -0.223 OA
ENDROOT
BRANCH   1   3
ATOM      3  N   UNL     1      44.234 132.022  15.939  1.00  0.00    -0.220 N 
ATOM      4  C   UNL     1      42.528 132.976  17.206  1.00  0.00     0.144 C 
ATOM      5  C   UNL     1      43.599 131.864  17.238  1.00  0.00     0.131 C 
ATOM      6  N   UNL     1      43.062 133.885  16.177  1.00  0.00    -0.283 N 
ATOM      7  N   UNL     1      44.058 133.295  15.380  1.00  0.00    -0.139 NA
ATOM      8  C   UNL     1      44.693 132.042  18.311  1.00  0.00     0.035 C 
ATOM      9  H   UNL     1      43.660 133.172  14.421  1.00  0.00     0.175 HD
BRANCH   4  10
ATOM     10  C   UNL     1      42.163 133.615  18.585  1.00  0.00     0.104 C 
ATOM     11  C   UNL     1      41.797 132.534  19.615  1.00  0.00     0.027 C 
ATOM     12  Cl  UNL     1      40.729 134.681  18.487  1.00  0.00    -0.121 Cl
ENDBRANCH   4  10
BRANCH   6  13
ATOM     13  C   UNL     1      42.924 135.310  16.160  1.00  0.00     0.064 A 
ATOM     14  C   UNL     1      43.801 136.065  16.980  1.00  0.00     0.028 A 
ATOM     15  C   UNL     1      41.953 135.986  15.355  1.00  0.00     0.030 A 
ATOM     16  C   UNL     1      43.710 137.464  17.048  1.00  0.00     0.006 A 
ATOM     17  C   UNL     1      40.987 135.399  14.478  1.00  0.00     0.042 A 
ATOM     18  C   UNL     1      41.906 137.381  15.488  1.00  0.00    -0.008 A 
ATOM     19  C   UNL     1      42.737 138.103  16.287  1.00  0.00    -0.039 A 
ATOM     20  C   UNL     1      40.027 136.230  13.848  1.00  0.00     0.026 A 
ATOM     21  C   UNL     1      40.999 138.178  14.863  1.00  0.00    -0.039 A 
ATOM     22  C   UNL     1      42.406 139.560  16.219  1.00  0.00     0.041 C 
ATOM     23  C   UNL     1      40.030 137.623  14.035  1.00  0.00     0.006 A 
ATOM     24  C   UNL     1      41.203 139.612  15.238  1.00  0.00     0.041 C 
BRANCH  17  25
ATOM     25  N   UNL     1      40.951 133.998  14.187  1.00  0.00    -0.398 N 
ATOM     26  H   UNL     1      40.212 133.578  13.590  1.00  0.00     0.156 HD
ATOM     27  H   UNL     1      41.518 133.331  14.758  1.00  0.00     0.156 HD
ENDBRANCH  17  25
ENDBRANCH   6  13
ENDBRANCH   1   3
BRANCH   1  28
ATOM     28  O   UNL     1      46.444 131.168  15.331  1.00  0.00    -0.442 OA
BRANCH  28  29
ATOM     29  C   UNL     1      47.325 130.172  14.825  1.00  0.00     0.308 C 
BRANCH  29  30
ATOM     30  C   UNL     1      47.721 130.516  13.396  1.00  0.00     0.379 C 
ATOM     31  F   UNL     1      47.862 131.885  13.262  1.00  0.00    -0.207 F 
ATOM     32  F   UNL     1      46.745 130.071  12.522  1.00  0.00    -0.207 F 
ENDBRANCH  29  30
ENDBRANCH  28  29
ENDBRANCH   1  28
TORSDOF 7
ENDMDL
MODEL 7
REMARK VINA RESULT:      -7.1      1.286      1.411
REMARK SMILES C[C@H](Cl)[C@@H]1[C@H](C)N(C(=O)OCC(F)F)NN1c1ccc2c3c(ccc(N)c13)CC2
REMARK SMILES IDX 8 1 9 2 7 3 4 4 5 5 16 6 15 7 6 8 2 10 1 11 3 12 17 13 18 14
REMARK SMILES IDX 27 15 19 16 25 17 21 18 20 19 24 20 22 21 29 22 23 23 28 24
REMARK SMILES IDX 26 25 10 28 11 29 12 30 13 31 14 32
REMARK H PARENT 15 9 26 26 26 27
ROOT
ATOM      1  C   UNL     1      46.382 131.137  15.645  1.00  0.00     0.426 C 
ATOM      2  O   UNL     1      46.778 130.179  16.363  1.00  0.00    -0.223 OA
ENDROOT
BRANCH   1   3
ATOM      3  N   UNL     1      45.226 131.894  16.028  1.00  0.00    -0.220 N 
ATOM      4  C   UNL     1      43.031 132.388  16.633  1.00  0.00     0.144 C 
ATOM      5  C   UNL     1      44.191 131.413  16.931  1.00  0.00     0.131 C 
ATOM      6  N   UNL     1      43.741 133.536  16.042  1.00  0.00    -0.283 N 
ATOM      7  N   UNL     1      45.050 133.227  15.632  1.00  0.00    -0.139 NA
ATOM      8  C   UNL     1      44.756 131.489  18.363  1.00  0.00     0.035 C 
ATOM      9  H   UNL     1      45.065 133.256  14.588  1.00  0.00     0.175 HD
BRANCH   4  10
ATOM     10  C   UNL     1      42.073 132.696  17.828  1.00  0.00     0.104 C 
ATOM     11  C   UNL     1      42.864 133.105  19.080  1.00  0.00     0.027 C 
ATOM     12  Cl  UNL     1      41.114 131.267  18.320  1.00  0.00    -0.121 Cl
ENDBRANCH   4  10
BRANCH   6  13
ATOM     13  C   UNL     1      43.370 134.912  16.174  1.00  0.00     0.064 A 
ATOM     14  C   UNL     1      44.102 135.704  17.095  1.00  0.00     0.028 A 
ATOM     15  C   UNL     1      42.309 135.506  15.419  1.00  0.00     0.030 A 
ATOM     16  C   UNL     1      43.781 137.054  17.310  1.00  0.00     0.006 A 
ATOM     17  C   UNL     1      41.463 134.870  14.457  1.00  0.00     0.042 A 
ATOM     18  C   UNL     1      42.032 136.851  15.699  1.00  0.00    -0.008 A 
ATOM     19  C   UNL     1      42.724 137.606  16.595  1.00  0.00    -0.039 A 
ATOM     20  C   UNL     1      40.385 135.599  13.892  1.00  0.00     0.026 A 
ATOM     21  C   UNL     1      41.012 137.554  15.138  1.00  0.00    -0.039 A 
ATOM     22  C   UNL     1      42.158 138.989  16.673  1.00  0.00     0.041 C 
ATOM     23  C   UNL     1      40.157 136.944  14.228  1.00  0.00     0.006 A 
ATOM     24  C   UNL     1      40.974 138.952  15.670  1.00  0.00     0.041 C 
BRANCH  17  25
ATOM     25  N   UNL     1      41.661 133.522  14.017  1.00  0.00    -0.398 N 
ATOM     26  H   UNL     1      40.904 132.974  13.564  1.00  0.00     0.156 HD
ATOM     27  H   UNL     1      42.488 132.979  14.353  1.00  0.00     0.156 HD
ENDBRANCH  17  25
ENDBRANCH   6  13
ENDBRANCH   1   3
BRANCH   1  28
ATOM     28  O   UNL     1      47.060 131.465  14.467  1.00  0.00    -0.442 OA
BRANCH  28  29
ATOM     29  C   UNL     1      47.748 130.497  13.681  1.00  0.00     0.308 C 
BRANCH  29  30
ATOM     30  C   UNL     1      46.921 130.157  12.450  1.00  0.00     0.379 C 
ATOM     31  F   UNL     1      47.435 130.806  11.342  1.00  0.00    -0.207 F 
ATOM     32  F   UNL     1      45.610 130.554  12.644  1.00  0.00    -0.207 F 
ENDBRANCH  29  30
ENDBRANCH  28  29
ENDBRANCH   1  28
TORSDOF 7
ENDMDL
MODEL 8
REMARK VINA RESULT:      -6.9      2.780      5.610
REMARK SMILES C[C@H](Cl)[C@@H]1[C@H](C)N(C(=O)OCC(F)F)NN1c1ccc2c3c(ccc(N)c13)CC2
REMARK SMILES IDX 8 1 9 2 7 3 4 4 5 5 16 6 15 7 6 8 2 10 1 11 3 12 17 13 18 14
REMARK SMILES IDX 27 15 19 16 25 17 21 18 20 19 24 20 22 21 29 22 23 23 28 24
REMARK SMILES IDX 26 25 10 28 11 29 12 30 13 31 14 32
REMARK H PARENT 15 9 26 26 26 27
ROOT
ATOM      1  C   UNL     1      45.191 129.477  14.931  1.00  0.00     0.426 C 
ATOM      2  O   UNL     1      44.853 128.331  15.335  1.00  0.00    -0.223 OA
ENDROOT
BRANCH   1   3
ATOM      3  N   UNL     1      44.765 130.646  15.644  1.00  0.00    -0.220 N 
ATOM      4  C   UNL     1      44.499 132.889  16.217  1.00  0.00     0.144 C 
ATOM      5  C   UNL     1      44.441 131.918  15.017  1.00  0.00     0.131 C 
ATOM      6  N   UNL     1      44.318 131.974  17.358  1.00  0.00    -0.283 N 
ATOM      7  N   UNL     1      44.525 130.624  17.025  1.00  0.00    -0.139 NA
ATOM      8  C   UNL     1      43.051 131.770  14.364  1.00  0.00     0.035 C 
ATOM      9  H   UNL     1      45.404 130.317  17.498  1.00  0.00     0.175 HD
BRANCH   4  10
ATOM     10  C   UNL     1      43.541 134.121  16.147  1.00  0.00     0.104 C 
ATOM     11  C   UNL     1      43.193 134.468  14.691  1.00  0.00     0.027 C 
ATOM     12  Cl  UNL     1      44.284 135.603  16.822  1.00  0.00    -0.121 Cl
ENDBRANCH   4  10
BRANCH   6  13
ATOM     13  C   UNL     1      43.647 132.284  18.585  1.00  0.00     0.064 A 
ATOM     14  C   UNL     1      42.404 132.960  18.501  1.00  0.00     0.028 A 
ATOM     15  C   UNL     1      44.177 131.935  19.867  1.00  0.00     0.030 A 
ATOM     16  C   UNL     1      41.697 133.331  19.656  1.00  0.00     0.006 A 
ATOM     17  C   UNL     1      45.408 131.263  20.149  1.00  0.00     0.042 A 
ATOM     18  C   UNL     1      43.428 132.353  20.977  1.00  0.00    -0.008 A 
ATOM     19  C   UNL     1      42.243 133.016  20.896  1.00  0.00    -0.039 A 
ATOM     20  C   UNL     1      45.821 131.107  21.496  1.00  0.00     0.026 A 
ATOM     21  C   UNL     1      43.816 132.180  22.269  1.00  0.00    -0.039 A 
ATOM     22  C   UNL     1      41.721 133.337  22.261  1.00  0.00     0.041 C 
ATOM     23  C   UNL     1      45.026 131.562  22.562  1.00  0.00     0.006 A 
ATOM     24  C   UNL     1      42.808 132.763  23.208  1.00  0.00     0.041 C 
BRANCH  17  25
ATOM     25  N   UNL     1      46.249 130.719  19.125  1.00  0.00    -0.398 N 
ATOM     26  H   UNL     1      46.825 129.869  19.281  1.00  0.00     0.156 HD
ATOM     27  H   UNL     1      46.488 131.293  18.286  1.00  0.00     0.156 HD
ENDBRANCH  17  25
ENDBRANCH   6  13
ENDBRANCH   1   3
BRANCH   1  28
ATOM     28  O   UNL     1      45.976 129.619  13.783  1.00  0.00    -0.442 OA
BRANCH  28  29
ATOM     29  C   UNL     1      47.392 129.758  13.833  1.00  0.00     0.308 C 
BRANCH  29  30
ATOM     30  C   UNL     1      47.828 130.884  12.907  1.00  0.00     0.379 C 
ATOM     31  F   UNL     1      47.801 132.090  13.585  1.00  0.00    -0.207 F 
ATOM     32  F   UNL     1      46.975 130.952  11.821  1.00  0.00    -0.207 F 
ENDBRANCH  29  30
ENDBRANCH  28  29
ENDBRANCH   1  28
TORSDOF 7
ENDMDL
MODEL 9
REMARK VINA RESULT:      -6.7      1.519      2.896
REMARK SMILES C[C@H](Cl)[C@@H]1[C@H](C)N(C(=O)OCC(F)F)NN1c1ccc2c3c(ccc(N)c13)CC2
REMARK SMILES IDX 8 1 9 2 7 3 4 4 5 5 16 6 15 7 6 8 2 10 1 11 3 12 17 13 18 14
REMARK SMILES IDX 27 15 19 16 25 17 21 18 20 19 24 20 22 21 29 22 23 23 28 24
REMARK SMILES IDX 26 25 10 28 11 29 12 30 13 31 14 32
REMARK H PARENT 15 9 26 26 26 27
ROOT
ATOM      1  C   UNL     1      45.073 131.955  15.014  1.00  0.00     0.426 C 
ATOM      2  O   UNL     1      46.144 132.539  15.333  1.00  0.00    -0.223 OA
ENDROOT
BRANCH   1   3
ATOM      3  N   UNL     1      43.809 132.494  15.423  1.00  0.00    -0.220 N 
ATOM      4  C   UNL     1      41.809 132.748  16.591  1.00  0.00     0.144 C 
ATOM      5  C   UNL     1      43.318 132.486  16.793  1.00  0.00     0.131 C 
ATOM      6  N   UNL     1      41.783 133.371  15.257  1.00  0.00    -0.283 N 
ATOM      7  N   UNL     1      42.972 133.178  14.531  1.00  0.00    -0.139 NA
ATOM      8  C   UNL     1      44.075 133.589  17.561  1.00  0.00     0.035 C 
ATOM      9  H   UNL     1      42.753 132.533  13.739  1.00  0.00     0.175 HD
BRANCH   4  10
ATOM     10  C   UNL     1      41.090 133.523  17.742  1.00  0.00     0.104 C 
ATOM     11  C   UNL     1      41.578 133.046  19.119  1.00  0.00     0.027 C 
ATOM     12  Cl  UNL     1      39.320 133.253  17.746  1.00  0.00    -0.121 Cl
ENDBRANCH   4  10
BRANCH   6  13
ATOM     13  C   UNL     1      40.868 134.382  14.818  1.00  0.00     0.064 A 
ATOM     14  C   UNL     1      39.593 133.960  14.364  1.00  0.00     0.028 A 
ATOM     15  C   UNL     1      41.189 135.776  14.828  1.00  0.00     0.030 A 
ATOM     16  C   UNL     1      38.648 134.883  13.886  1.00  0.00     0.006 A 
ATOM     17  C   UNL     1      42.416 136.385  15.241  1.00  0.00     0.042 A 
ATOM     18  C   UNL     1      40.208 136.638  14.319  1.00  0.00    -0.008 A 
ATOM     19  C   UNL     1      38.990 136.231  13.869  1.00  0.00    -0.039 A 
ATOM     20  C   UNL     1      42.590 137.782  15.069  1.00  0.00     0.026 A 
ATOM     21  C   UNL     1      40.369 137.981  14.178  1.00  0.00    -0.039 A 
ATOM     22  C   UNL     1      38.193 137.395  13.370  1.00  0.00     0.041 C 
ATOM     23  C   UNL     1      41.566 138.586  14.539  1.00  0.00     0.006 A 
ATOM     24  C   UNL     1      39.146 138.602  13.580  1.00  0.00     0.041 C 
BRANCH  17  25
ATOM     25  N   UNL     1      43.487 135.648  15.842  1.00  0.00    -0.398 N 
ATOM     26  H   UNL     1      44.349 136.113  16.188  1.00  0.00     0.156 HD
ATOM     27  H   UNL     1      43.533 134.610  15.731  1.00  0.00     0.156 HD
ENDBRANCH  17  25
ENDBRANCH   6  13
ENDBRANCH   1   3
BRANCH   1  28
ATOM     28  O   UNL     1      45.107 130.775  14.265  1.00  0.00    -0.442 OA
BRANCH  28  29
ATOM     29  C   UNL     1      46.297 130.016  14.081  1.00  0.00     0.308 C 
BRANCH  29  30
ATOM     30  C   UNL     1      46.965 130.420  12.773  1.00  0.00     0.379 C 
ATOM     31  F   UNL     1      47.814 129.415  12.348  1.00  0.00    -0.207 F 
ATOM     32  F   UNL     1      47.691 131.582  12.960  1.00  0.00    -0.207 F 
ENDBRANCH  29  30
ENDBRANCH  28  29
ENDBRANCH   1  28
TORSDOF 7
ENDMDL


