REMARK SMILES [H]/N=C(\C#C)N[C@H](c1c(C)nnn1-c1c2ccccc2c(C=O)c2ccccc12)C(C)C
REMARK SMILES IDX 8 1 9 2 10 3 11 4 12 5 13 6 7 7 6 8 3 9 4 11 5 12 2 13 1 14
REMARK SMILES IDX 30 15 31 16 32 17 14 18 15 19 29 20 16 21 20 22 28 23 24 24
REMARK SMILES IDX 17 25 19 26 21 27 27 28 25 29 18 30 26 31 22 32 23 33
REMARK H PARENT 6 10
ROOT
ATOM      1  C   UNL     1       0.320  -0.971   1.145  1.00  0.00     0.090 A 
ATOM      2  C   UNL     1       0.356  -2.136   1.914  1.00  0.00     0.085 A 
ATOM      3  C   UNL     1       1.517  -2.993   2.314  1.00  0.00     0.071 C 
ATOM      4  N   UNL     1      -0.900  -2.408   2.320  1.00  0.00    -0.135 NA
ATOM      5  N   UNL     1      -1.685  -1.457   1.840  1.00  0.00    -0.062 NA
ATOM      6  N   UNL     1      -0.979  -0.589   1.136  1.00  0.00    -0.214 N 
ENDROOT
BRANCH   1   7
ATOM      7  C   UNL     1       1.446  -0.197   0.462  1.00  0.00     0.135 C 
BRANCH   7   8
ATOM      8  N   UNL     1       2.545   0.092   1.396  1.00  0.00    -0.355 N 
ATOM      9  C   UNL     1       3.501   1.146   1.192  1.00  0.00     0.171 C 
ATOM     10  H   UNL     1       2.579  -0.393   2.320  1.00  0.00     0.163 HD
BRANCH   9  11
ATOM     11  C   UNL     1       3.349   2.095   0.114  1.00  0.00    -0.033 C 
ATOM     12  C   UNL     1       3.218   2.887  -0.785  1.00  0.00     0.013 C 
ENDBRANCH   9  11
BRANCH   9  13
ATOM     13  N   UNL     1       4.491   1.271   2.017  1.00  0.00    -0.277 NA
ATOM     14  H   UNL     1       5.202   2.031   1.919  1.00  0.00     0.190 HD
ENDBRANCH   9  13
ENDBRANCH   7   8
BRANCH   7  15
ATOM     15  C   UNL     1       1.954  -0.828  -0.869  1.00  0.00     0.011 C 
ATOM     16  C   UNL     1       2.720  -2.143  -0.696  1.00  0.00     0.010 C 
ATOM     17  C   UNL     1       0.815  -1.009  -1.882  1.00  0.00     0.010 C 
ENDBRANCH   7  15
ENDBRANCH   1   7
BRANCH   6  18
ATOM     18  C   UNL     1      -1.552   0.583   0.526  1.00  0.00     0.082 A 
ATOM     19  C   UNL     1      -2.341   0.458  -0.637  1.00  0.00     0.009 A 
ATOM     20  C   UNL     1      -1.320   1.858   1.090  1.00  0.00     0.009 A 
ATOM     21  C   UNL     1      -2.618  -0.814  -1.184  1.00  0.00     0.011 A 
ATOM     22  C   UNL     1      -2.844   1.619  -1.286  1.00  0.00    -0.005 A 
ATOM     23  C   UNL     1      -0.597   1.988   2.296  1.00  0.00     0.011 A 
ATOM     24  C   UNL     1      -1.827   3.023   0.453  1.00  0.00    -0.005 A 
ATOM     25  C   UNL     1      -3.365  -0.942  -2.353  1.00  0.00     0.001 A 
ATOM     26  C   UNL     1      -3.588   1.458  -2.481  1.00  0.00     0.009 A 
ATOM     27  C   UNL     1      -2.567   2.905  -0.754  1.00  0.00     0.030 A 
ATOM     28  C   UNL     1      -0.370   3.241   2.861  1.00  0.00     0.001 A 
ATOM     29  C   UNL     1      -1.604   4.280   1.066  1.00  0.00     0.009 A 
ATOM     30  C   UNL     1      -3.845   0.190  -3.001  1.00  0.00     0.001 A 
ATOM     31  C   UNL     1      -0.875   4.382   2.250  1.00  0.00     0.001 A 
BRANCH  27  32
ATOM     32  C   UNL     1      -3.055   4.114  -1.462  1.00  0.00     0.261 C 
ATOM     33  O   UNL     1      -2.260   5.037  -1.783  1.00  0.00    -0.298 OA
ENDBRANCH  27  32
ENDBRANCH   6  18
TORSDOF 7


