MODEL 1
REMARK VINA RESULT:      -6.5      0.000      0.000
REMARK SMILES C#CCOC(O)=C[C@H]1c2c(N=[N+]=[N-])ccc3c2[C@@H](C[C@@H]1C(=O)N=[N+]=[N-])C(=O)N(O)C3=O
REMARK SMILES IDX 7 1 5 2 4 3 3 4 2 5 1 6 6 7 8 9 9 10 20 11 10 12 17 13 19 14
REMARK SMILES IDX 14 15 16 16 18 17 15 18 30 19 26 20 28 21 31 22 27 23 21 24
REMARK SMILES IDX 22 25 23 26 24 27 25 28 11 29 12 30 13 31 29 32
REMARK H PARENT 6 8 29 33
ROOT
ATOM      1  C   UNL     1      42.929 133.883  15.293  1.00  0.00     0.070 C 
ENDROOT
BRANCH   1   2
ATOM      2  C   UNL     1      41.914 133.018  15.218  1.00  0.00     0.274 C 
BRANCH   2   3
ATOM      3  O   UNL     1      41.046 132.858  16.306  1.00  0.00    -0.453 OA
BRANCH   3   4
ATOM      4  C   UNL     1      40.153 133.867  16.758  1.00  0.00     0.322 C 
BRANCH   4   5
ATOM      5  C   UNL     1      40.308 134.031  18.203  1.00  0.00    -0.065 C 
ATOM      6  C   UNL     1      40.436 134.164  19.395  1.00  0.00     0.007 C 
ENDBRANCH   4   5
ENDBRANCH   3   4
ENDBRANCH   2   3
BRANCH   2   7
ATOM      7  O   UNL     1      41.745 132.286  14.040  1.00  0.00    -0.481 OA
ATOM      8  H   UNL     1      41.272 132.664  13.230  1.00  0.00     0.296 HD
ENDBRANCH   2   7
ENDBRANCH   1   2
BRANCH   1   9
ATOM      9  C   UNL     1      44.171 133.631  16.123  1.00  0.00     0.060 C 
ATOM     10  C   UNL     1      44.014 134.269  17.510  1.00  0.00    -0.026 A 
ATOM     11  C   UNL     1      44.445 132.103  16.142  1.00  0.00     0.076 C 
ATOM     12  C   UNL     1      43.755 135.661  17.603  1.00  0.00     0.042 A 
ATOM     13  C   UNL     1      44.232 133.523  18.704  1.00  0.00    -0.018 A 
ATOM     14  C   UNL     1      45.284 131.690  17.354  1.00  0.00     0.031 C 
ATOM     15  C   UNL     1      43.611 136.262  18.863  1.00  0.00     0.011 A 
ATOM     16  C   UNL     1      44.103 134.161  19.960  1.00  0.00     0.047 A 
ATOM     17  C   UNL     1      44.511 132.027  18.637  1.00  0.00     0.113 C 
ATOM     18  C   UNL     1      43.773 135.519  20.025  1.00  0.00     0.015 A 
ATOM     19  C   UNL     1      44.389 133.415  21.203  1.00  0.00     0.284 C 
ATOM     20  C   UNL     1      45.231 131.511  19.865  1.00  0.00     0.261 C 
ATOM     21  N   UNL     1      45.030 132.141  21.132  1.00  0.00    -0.151 N 
ATOM     22  O   UNL     1      44.108 133.911  22.328  1.00  0.00    -0.266 OA
ATOM     23  O   UNL     1      45.922 130.457  19.801  1.00  0.00    -0.271 OA
BRANCH  11  24
ATOM     24  C   UNL     1      45.119 131.658  14.868  1.00  0.00     0.222 C 
ATOM     25  O   UNL     1      44.457 131.025  14.000  1.00  0.00    -0.292 OA
BRANCH  24  26
ATOM     26  N   UNL     1      46.496 131.972  14.635  1.00  0.00    -0.022 NA
BRANCH  26  27
ATOM     27  N   UNL     1      47.181 131.302  13.862  1.00  0.00     0.008 N 
ATOM     28  N   UNL     1      47.865 130.631  13.090  1.00  0.00    -0.003 NA
ENDBRANCH  26  27
ENDBRANCH  24  26
ENDBRANCH  11  24
BRANCH  12  29
ATOM     29  N   UNL     1      43.662 136.452  16.406  1.00  0.00    -0.060 NA
BRANCH  29  30
ATOM     30  N   UNL     1      43.111 137.554  16.376  1.00  0.00     0.005 N 
ATOM     31  N   UNL     1      42.562 138.654  16.349  1.00  0.00    -0.003 NA
ENDBRANCH  29  30
ENDBRANCH  12  29
BRANCH  21  32
ATOM     32  O   UNL     1      45.445 131.527  22.268  1.00  0.00    -0.278 OA
ATOM     33  H   UNL     1      45.167 132.132  23.003  1.00  0.00     0.247 HD
ENDBRANCH  21  32
ENDBRANCH   1   9
TORSDOF 12
ENDMDL
MODEL 2
REMARK VINA RESULT:      -6.3      0.892      1.274
REMARK SMILES C#CCOC(O)=C[C@H]1c2c(N=[N+]=[N-])ccc3c2[C@@H](C[C@@H]1C(=O)N=[N+]=[N-])C(=O)N(O)C3=O
REMARK SMILES IDX 7 1 5 2 4 3 3 4 2 5 1 6 6 7 8 9 9 10 20 11 10 12 17 13 19 14
REMARK SMILES IDX 14 15 16 16 18 17 15 18 30 19 26 20 28 21 31 22 27 23 21 24
REMARK SMILES IDX 22 25 23 26 24 27 25 28 11 29 12 30 13 31 29 32
REMARK H PARENT 6 8 29 33
ROOT
ATOM      1  C   UNL     1      43.089 133.594  14.864  1.00  0.00     0.070 C 
ENDROOT
BRANCH   1   2
ATOM      2  C   UNL     1      41.975 132.857  14.915  1.00  0.00     0.274 C 
BRANCH   2   3
ATOM      3  O   UNL     1      41.117 132.959  16.018  1.00  0.00    -0.453 OA
BRANCH   3   4
ATOM      4  C   UNL     1      40.262 134.069  16.252  1.00  0.00     0.322 C 
BRANCH   4   5
ATOM      5  C   UNL     1      39.210 134.086  15.237  1.00  0.00    -0.065 C 
ATOM      6  C   UNL     1      38.341 134.101  14.400  1.00  0.00     0.007 C 
ENDBRANCH   4   5
ENDBRANCH   3   4
ENDBRANCH   2   3
BRANCH   2   7
ATOM      7  O   UNL     1      41.696 131.994  13.853  1.00  0.00    -0.481 OA
ATOM      8  H   UNL     1      40.862 132.083  13.287  1.00  0.00     0.296 HD
ENDBRANCH   2   7
ENDBRANCH   1   2
BRANCH   1   9
ATOM      9  C   UNL     1      44.237 133.426  15.839  1.00  0.00     0.060 C 
ATOM     10  C   UNL     1      43.953 134.211  17.125  1.00  0.00    -0.026 A 
ATOM     11  C   UNL     1      44.482 131.906  16.049  1.00  0.00     0.076 C 
ATOM     12  C   UNL     1      43.711 135.607  17.041  1.00  0.00     0.042 A 
ATOM     13  C   UNL     1      44.037 133.598  18.409  1.00  0.00    -0.018 A 
ATOM     14  C   UNL     1      45.187 131.623  17.377  1.00  0.00     0.031 C 
ATOM     15  C   UNL     1      43.452 136.342  18.208  1.00  0.00     0.011 A 
ATOM     16  C   UNL     1      43.794 134.370  19.569  1.00  0.00     0.047 A 
ATOM     17  C   UNL     1      44.297 132.102  18.531  1.00  0.00     0.113 C 
ATOM     18  C   UNL     1      43.484 135.729  19.454  1.00  0.00     0.015 A 
ATOM     19  C   UNL     1      43.942 133.762  20.908  1.00  0.00     0.284 C 
ATOM     20  C   UNL     1      44.880 131.718  19.874  1.00  0.00     0.261 C 
ATOM     21  N   UNL     1      44.565 132.483  21.039  1.00  0.00    -0.151 N 
ATOM     22  O   UNL     1      43.559 134.378  21.939  1.00  0.00    -0.266 OA
ATOM     23  O   UNL     1      45.556 130.659  19.994  1.00  0.00    -0.271 OA
BRANCH  11  24
ATOM     24  C   UNL     1      45.272 131.321  14.905  1.00  0.00     0.222 C 
ATOM     25  O   UNL     1      44.793 130.359  14.244  1.00  0.00    -0.292 OA
BRANCH  24  26
ATOM     26  N   UNL     1      46.547 131.869  14.558  1.00  0.00    -0.022 NA
BRANCH  26  27
ATOM     27  N   UNL     1      47.249 131.352  13.688  1.00  0.00     0.008 N 
ATOM     28  N   UNL     1      47.951 130.834  12.820  1.00  0.00    -0.003 NA
ENDBRANCH  26  27
ENDBRANCH  24  26
ENDBRANCH  11  24
BRANCH  12  29
ATOM     29  N   UNL     1      43.751 136.264  15.763  1.00  0.00    -0.060 NA
BRANCH  29  30
ATOM     30  N   UNL     1      42.870 137.037  15.383  1.00  0.00     0.005 N 
ATOM     31  N   UNL     1      41.990 137.808  15.004  1.00  0.00    -0.003 NA
ENDBRANCH  29  30
ENDBRANCH  12  29
BRANCH  21  32
ATOM     32  O   UNL     1      44.853 131.994  22.271  1.00  0.00    -0.278 OA
ATOM     33  H   UNL     1      44.269 131.199  22.375  1.00  0.00     0.247 HD
ENDBRANCH  21  32
ENDBRANCH   1   9
TORSDOF 12
ENDMDL
MODEL 3
REMARK VINA RESULT:      -6.3      2.680      5.768
REMARK SMILES C#CCOC(O)=C[C@H]1c2c(N=[N+]=[N-])ccc3c2[C@@H](C[C@@H]1C(=O)N=[N+]=[N-])C(=O)N(O)C3=O
REMARK SMILES IDX 7 1 5 2 4 3 3 4 2 5 1 6 6 7 8 9 9 10 20 11 10 12 17 13 19 14
REMARK SMILES IDX 14 15 16 16 18 17 15 18 30 19 26 20 28 21 31 22 27 23 21 24
REMARK SMILES IDX 22 25 23 26 24 27 25 28 11 29 12 30 13 31 29 32
REMARK H PARENT 6 8 29 33
ROOT
ATOM      1  C   UNL     1      45.060 132.608  15.428  1.00  0.00     0.070 C 
ENDROOT
BRANCH   1   2
ATOM      2  C   UNL     1      45.662 131.859  14.499  1.00  0.00     0.274 C 
BRANCH   2   3
ATOM      3  O   UNL     1      47.051 131.930  14.333  1.00  0.00    -0.453 OA
BRANCH   3   4
ATOM      4  C   UNL     1      47.737 131.426  13.195  1.00  0.00     0.322 C 
BRANCH   4   5
ATOM      5  C   UNL     1      48.032 130.009  13.404  1.00  0.00    -0.065 C 
ATOM      6  C   UNL     1      48.274 128.840  13.577  1.00  0.00     0.007 C 
ENDBRANCH   4   5
ENDBRANCH   3   4
ENDBRANCH   2   3
BRANCH   2   7
ATOM      7  O   UNL     1      44.877 131.016  13.709  1.00  0.00    -0.481 OA
ATOM      8  H   UNL     1      44.915 130.008  13.789  1.00  0.00     0.296 HD
ENDBRANCH   2   7
ENDBRANCH   1   2
BRANCH   1   9
ATOM      9  C   UNL     1      43.868 132.128  16.232  1.00  0.00     0.060 C 
ATOM     10  C   UNL     1      44.300 131.802  17.667  1.00  0.00    -0.026 A 
ATOM     11  C   UNL     1      42.743 133.194  16.123  1.00  0.00     0.076 C 
ATOM     12  C   UNL     1      45.326 130.843  17.877  1.00  0.00     0.042 A 
ATOM     13  C   UNL     1      43.623 132.350  18.794  1.00  0.00    -0.018 A 
ATOM     14  C   UNL     1      41.763 133.108  17.294  1.00  0.00     0.031 C 
ATOM     15  C   UNL     1      45.733 130.530  19.182  1.00  0.00     0.011 A 
ATOM     16  C   UNL     1      44.040 131.997  20.100  1.00  0.00     0.047 A 
ATOM     17  C   UNL     1      42.518 133.380  18.602  1.00  0.00     0.113 C 
ATOM     18  C   UNL     1      45.104 131.106  20.278  1.00  0.00     0.015 A 
ATOM     19  C   UNL     1      43.305 132.508  21.276  1.00  0.00     0.284 C 
ATOM     20  C   UNL     1      41.571 133.449  19.781  1.00  0.00     0.261 C 
ATOM     21  N   UNL     1      42.040 133.146  21.097  1.00  0.00    -0.151 N 
ATOM     22  O   UNL     1      43.767 132.351  22.439  1.00  0.00    -0.266 OA
ATOM     23  O   UNL     1      40.395 133.881  19.628  1.00  0.00    -0.271 OA
BRANCH  11  24
ATOM     24  C   UNL     1      42.003 133.068  14.814  1.00  0.00     0.222 C 
ATOM     25  O   UNL     1      42.147 132.028  14.113  1.00  0.00    -0.292 OA
BRANCH  24  26
ATOM     26  N   UNL     1      41.125 134.111  14.382  1.00  0.00    -0.022 NA
BRANCH  26  27
ATOM     27  N   UNL     1      39.959 133.873  14.064  1.00  0.00     0.008 N 
ATOM     28  N   UNL     1      38.793 133.636  13.748  1.00  0.00    -0.003 NA
ENDBRANCH  26  27
ENDBRANCH  24  26
ENDBRANCH  11  24
BRANCH  12  29
ATOM     29  N   UNL     1      45.930 130.185  16.750  1.00  0.00    -0.060 NA
BRANCH  29  30
ATOM     30  N   UNL     1      45.462 129.161  16.247  1.00  0.00     0.005 N 
ATOM     31  N   UNL     1      44.994 128.140  15.746  1.00  0.00    -0.003 NA
ENDBRANCH  29  30
ENDBRANCH  12  29
BRANCH  21  32
ATOM     32  O   UNL     1      41.285 133.468  22.177  1.00  0.00    -0.278 OA
ATOM     33  H   UNL     1      41.753 134.234  22.598  1.00  0.00     0.247 HD
ENDBRANCH  21  32
ENDBRANCH   1   9
TORSDOF 12
ENDMDL
MODEL 4
REMARK VINA RESULT:      -5.8      1.126      1.189
REMARK SMILES C#CCOC(O)=C[C@H]1c2c(N=[N+]=[N-])ccc3c2[C@@H](C[C@@H]1C(=O)N=[N+]=[N-])C(=O)N(O)C3=O
REMARK SMILES IDX 7 1 5 2 4 3 3 4 2 5 1 6 6 7 8 9 9 10 20 11 10 12 17 13 19 14
REMARK SMILES IDX 14 15 16 16 18 17 15 18 30 19 26 20 28 21 31 22 27 23 21 24
REMARK SMILES IDX 22 25 23 26 24 27 25 28 11 29 12 30 13 31 29 32
REMARK H PARENT 6 8 29 33
ROOT
ATOM      1  C   UNL     1      43.073 132.851  15.354  1.00  0.00     0.070 C 
ENDROOT
BRANCH   1   2
ATOM      2  C   UNL     1      41.844 132.842  15.878  1.00  0.00     0.274 C 
BRANCH   2   3
ATOM      3  O   UNL     1      40.857 133.694  15.366  1.00  0.00    -0.453 OA
BRANCH   3   4
ATOM      4  C   UNL     1      39.679 134.053  16.076  1.00  0.00     0.322 C 
BRANCH   4   5
ATOM      5  C   UNL     1      40.021 135.035  17.105  1.00  0.00    -0.065 C 
ATOM      6  C   UNL     1      40.305 135.844  17.953  1.00  0.00     0.007 C 
ENDBRANCH   4   5
ENDBRANCH   3   4
ENDBRANCH   2   3
BRANCH   2   7
ATOM      7  O   UNL     1      41.575 131.971  16.936  1.00  0.00    -0.481 OA
ATOM      8  H   UNL     1      41.145 132.280  17.797  1.00  0.00     0.296 HD
ENDBRANCH   2   7
ENDBRANCH   1   2
BRANCH   1   9
ATOM      9  C   UNL     1      44.332 132.820  16.197  1.00  0.00     0.060 C 
ATOM     10  C   UNL     1      44.206 133.804  17.366  1.00  0.00    -0.026 A 
ATOM     11  C   UNL     1      44.603 131.349  16.617  1.00  0.00     0.076 C 
ATOM     12  C   UNL     1      43.952 135.174  17.090  1.00  0.00     0.042 A 
ATOM     13  C   UNL     1      44.447 133.402  18.711  1.00  0.00    -0.018 A 
ATOM     14  C   UNL     1      45.466 131.268  17.878  1.00  0.00     0.031 C 
ATOM     15  C   UNL     1      43.836 136.089  18.147  1.00  0.00     0.011 A 
ATOM     16  C   UNL     1      44.346 134.353  19.754  1.00  0.00     0.047 A 
ATOM     17  C   UNL     1      44.722 131.940  19.040  1.00  0.00     0.113 C 
ATOM     18  C   UNL     1      44.021 135.682  19.461  1.00  0.00     0.015 A 
ATOM     19  C   UNL     1      44.657 133.963  21.145  1.00  0.00     0.284 C 
ATOM     20  C   UNL     1      45.466 131.764  20.346  1.00  0.00     0.261 C 
ATOM     21  N   UNL     1      45.293 132.710  21.404  1.00  0.00    -0.151 N 
ATOM     22  O   UNL     1      44.401 134.742  22.103  1.00  0.00    -0.266 OA
ATOM     23  O   UNL     1      46.153 130.726  20.552  1.00  0.00    -0.271 OA
BRANCH  11  24
ATOM     24  C   UNL     1      45.249 130.576  15.494  1.00  0.00     0.222 C 
ATOM     25  O   UNL     1      44.784 129.450  15.164  1.00  0.00    -0.292 OA
BRANCH  24  26
ATOM     26  N   UNL     1      46.369 131.126  14.793  1.00  0.00    -0.022 NA
BRANCH  26  27
ATOM     27  N   UNL     1      46.571 130.864  13.607  1.00  0.00     0.008 N 
ATOM     28  N   UNL     1      46.772 130.604  12.421  1.00  0.00    -0.003 NA
ENDBRANCH  26  27
ENDBRANCH  24  26
ENDBRANCH  11  24
BRANCH  12  29
ATOM     29  N   UNL     1      43.835 135.618  15.727  1.00  0.00    -0.060 NA
BRANCH  29  30
ATOM     30  N   UNL     1      42.973 136.417  15.359  1.00  0.00     0.005 N 
ATOM     31  N   UNL     1      42.113 137.216  14.991  1.00  0.00    -0.003 NA
ENDBRANCH  29  30
ENDBRANCH  12  29
BRANCH  21  32
ATOM     32  O   UNL     1      45.731 132.418  22.653  1.00  0.00    -0.278 OA
ATOM     33  H   UNL     1      46.703 132.612  22.637  1.00  0.00     0.247 HD
ENDBRANCH  21  32
ENDBRANCH   1   9
TORSDOF 12
ENDMDL
MODEL 5
REMARK VINA RESULT:      -5.6      1.446      1.689
REMARK SMILES C#CCOC(O)=C[C@H]1c2c(N=[N+]=[N-])ccc3c2[C@@H](C[C@@H]1C(=O)N=[N+]=[N-])C(=O)N(O)C3=O
REMARK SMILES IDX 7 1 5 2 4 3 3 4 2 5 1 6 6 7 8 9 9 10 20 11 10 12 17 13 19 14
REMARK SMILES IDX 14 15 16 16 18 17 15 18 30 19 26 20 28 21 31 22 27 23 21 24
REMARK SMILES IDX 22 25 23 26 24 27 25 28 11 29 12 30 13 31 29 32
REMARK H PARENT 6 8 29 33
ROOT
ATOM      1  C   UNL     1      42.232 132.813  16.082  1.00  0.00     0.070 C 
ENDROOT
BRANCH   1   2
ATOM      2  C   UNL     1      42.027 133.368  14.884  1.00  0.00     0.274 C 
BRANCH   2   3
ATOM      3  O   UNL     1      40.844 133.104  14.182  1.00  0.00    -0.453 OA
BRANCH   3   4
ATOM      4  C   UNL     1      39.780 134.038  14.050  1.00  0.00     0.322 C 
BRANCH   4   5
ATOM      5  C   UNL     1      39.013 134.067  15.294  1.00  0.00    -0.065 C 
ATOM      6  C   UNL     1      38.380 134.089  16.321  1.00  0.00     0.007 C 
ENDBRANCH   4   5
ENDBRANCH   3   4
ENDBRANCH   2   3
BRANCH   2   7
ATOM      7  O   UNL     1      43.014 134.206  14.359  1.00  0.00    -0.481 OA
ATOM      8  H   UNL     1      43.280 135.074  14.803  1.00  0.00     0.296 HD
ENDBRANCH   2   7
ENDBRANCH   1   2
BRANCH   1   9
ATOM      9  C   UNL     1      43.509 133.005  16.876  1.00  0.00     0.060 C 
ATOM     10  C   UNL     1      43.188 133.606  18.250  1.00  0.00    -0.026 A 
ATOM     11  C   UNL     1      44.263 131.648  16.923  1.00  0.00     0.076 C 
ATOM     12  C   UNL     1      42.495 134.843  18.317  1.00  0.00     0.042 A 
ATOM     13  C   UNL     1      43.664 133.012  19.454  1.00  0.00    -0.018 A 
ATOM     14  C   UNL     1      45.219 131.571  18.116  1.00  0.00     0.031 C 
ATOM     15  C   UNL     1      42.195 135.408  19.565  1.00  0.00     0.011 A 
ATOM     16  C   UNL     1      43.366 133.618  20.698  1.00  0.00     0.047 A 
ATOM     17  C   UNL     1      44.411 131.685  19.415  1.00  0.00     0.113 C 
ATOM     18  C   UNL     1      42.617 134.799  20.739  1.00  0.00     0.015 A 
ATOM     19  C   UNL     1      43.909 133.049  21.949  1.00  0.00     0.284 C 
ATOM     20  C   UNL     1      45.289 131.472  20.630  1.00  0.00     0.261 C 
ATOM     21  N   UNL     1      44.926 132.048  21.888  1.00  0.00    -0.151 N 
ATOM     22  O   UNL     1      43.511 133.466  23.070  1.00  0.00    -0.266 OA
ATOM     23  O   UNL     1      46.282 130.696  20.569  1.00  0.00    -0.271 OA
BRANCH  11  24
ATOM     24  C   UNL     1      45.013 131.400  15.638  1.00  0.00     0.222 C 
ATOM     25  O   UNL     1      45.602 132.358  15.064  1.00  0.00    -0.292 OA
BRANCH  24  26
ATOM     26  N   UNL     1      45.076 130.082  15.085  1.00  0.00    -0.022 NA
BRANCH  26  27
ATOM     27  N   UNL     1      46.073 129.691  14.477  1.00  0.00     0.008 N 
ATOM     28  N   UNL     1      47.070 129.303  13.870  1.00  0.00    -0.003 NA
ENDBRANCH  26  27
ENDBRANCH  24  26
ENDBRANCH  11  24
BRANCH  12  29
ATOM     29  N   UNL     1      42.121 135.519  17.104  1.00  0.00    -0.060 NA
BRANCH  29  30
ATOM     30  N   UNL     1      42.498 136.661  16.835  1.00  0.00     0.005 N 
ATOM     31  N   UNL     1      42.872 137.801  16.567  1.00  0.00    -0.003 NA
ENDBRANCH  29  30
ENDBRANCH  12  29
BRANCH  21  32
ATOM     32  O   UNL     1      45.545 131.641  23.024  1.00  0.00    -0.278 OA
ATOM     33  H   UNL     1      46.426 132.096  23.013  1.00  0.00     0.247 HD
ENDBRANCH  21  32
ENDBRANCH   1   9
TORSDOF 12
ENDMDL
MODEL 6
REMARK VINA RESULT:      -5.5      2.228      2.715
REMARK SMILES C#CCOC(O)=C[C@H]1c2c(N=[N+]=[N-])ccc3c2[C@@H](C[C@@H]1C(=O)N=[N+]=[N-])C(=O)N(O)C3=O
REMARK SMILES IDX 7 1 5 2 4 3 3 4 2 5 1 6 6 7 8 9 9 10 20 11 10 12 17 13 19 14
REMARK SMILES IDX 14 15 16 16 18 17 15 18 30 19 26 20 28 21 31 22 27 23 21 24
REMARK SMILES IDX 22 25 23 26 24 27 25 28 11 29 12 30 13 31 29 32
REMARK H PARENT 6 8 29 33
ROOT
ATOM      1  C   UNL     1      42.550 134.307  14.478  1.00  0.00     0.070 C 
ENDROOT
BRANCH   1   2
ATOM      2  C   UNL     1      41.402 133.666  14.244  1.00  0.00     0.274 C 
BRANCH   2   3
ATOM      3  O   UNL     1      40.180 134.331  14.413  1.00  0.00    -0.453 OA
BRANCH   3   4
ATOM      4  C   UNL     1      38.928 133.666  14.515  1.00  0.00     0.322 C 
BRANCH   4   5
ATOM      5  C   UNL     1      38.061 134.110  13.425  1.00  0.00    -0.065 C 
ATOM      6  C   UNL     1      37.346 134.477  12.525  1.00  0.00     0.007 C 
ENDBRANCH   4   5
ENDBRANCH   3   4
ENDBRANCH   2   3
BRANCH   2   7
ATOM      7  O   UNL     1      41.453 132.332  13.833  1.00  0.00    -0.481 OA
ATOM      8  H   UNL     1      42.220 131.961  13.288  1.00  0.00     0.296 HD
ENDBRANCH   2   7
ENDBRANCH   1   2
BRANCH   1   9
ATOM      9  C   UNL     1      43.321 134.176  15.777  1.00  0.00     0.060 C 
ATOM     10  C   UNL     1      42.579 134.905  16.904  1.00  0.00    -0.026 A 
ATOM     11  C   UNL     1      43.578 132.667  16.042  1.00  0.00     0.076 C 
ATOM     12  C   UNL     1      42.290 136.287  16.757  1.00  0.00     0.042 A 
ATOM     13  C   UNL     1      42.274 134.260  18.137  1.00  0.00    -0.018 A 
ATOM     14  C   UNL     1      43.823 132.385  17.527  1.00  0.00     0.031 C 
ATOM     15  C   UNL     1      41.614 136.971  17.779  1.00  0.00     0.011 A 
ATOM     16  C   UNL     1      41.613 134.982  19.158  1.00  0.00     0.047 A 
ATOM     17  C   UNL     1      42.573 132.778  18.325  1.00  0.00     0.113 C 
ATOM     18  C   UNL     1      41.272 136.324  18.959  1.00  0.00     0.015 A 
ATOM     19  C   UNL     1      41.349 134.344  20.465  1.00  0.00     0.284 C 
ATOM     20  C   UNL     1      42.704 132.388  19.782  1.00  0.00     0.261 C 
ATOM     21  N   UNL     1      41.973 133.099  20.784  1.00  0.00    -0.151 N 
ATOM     22  O   UNL     1      40.608 134.907  21.316  1.00  0.00    -0.266 OA
ATOM     23  O   UNL     1      43.368 131.366  20.109  1.00  0.00    -0.271 OA
BRANCH  11  24
ATOM     24  C   UNL     1      44.737 132.162  15.219  1.00  0.00     0.222 C 
ATOM     25  O   UNL     1      45.892 132.632  15.414  1.00  0.00    -0.292 OA
BRANCH  24  26
ATOM     26  N   UNL     1      44.532 131.140  14.239  1.00  0.00    -0.022 NA
BRANCH  26  27
ATOM     27  N   UNL     1      45.481 130.614  13.657  1.00  0.00     0.008 N 
ATOM     28  N   UNL     1      46.430 130.090  13.074  1.00  0.00    -0.003 NA
ENDBRANCH  26  27
ENDBRANCH  24  26
ENDBRANCH  11  24
BRANCH  12  29
ATOM     29  N   UNL     1      42.708 136.982  15.570  1.00  0.00    -0.060 NA
BRANCH  29  30
ATOM     30  N   UNL     1      42.582 138.200  15.432  1.00  0.00     0.005 N 
ATOM     31  N   UNL     1      42.454 139.415  15.293  1.00  0.00    -0.003 NA
ENDBRANCH  29  30
ENDBRANCH  12  29
BRANCH  21  32
ATOM     32  O   UNL     1      41.870 132.591  22.037  1.00  0.00    -0.278 OA
ATOM     33  H   UNL     1      42.779 132.674  22.423  1.00  0.00     0.247 HD
ENDBRANCH  21  32
ENDBRANCH   1   9
TORSDOF 12
ENDMDL
MODEL 7
REMARK VINA RESULT:      -5.5      2.020      5.164
REMARK SMILES C#CCOC(O)=C[C@H]1c2c(N=[N+]=[N-])ccc3c2[C@@H](C[C@@H]1C(=O)N=[N+]=[N-])C(=O)N(O)C3=O
REMARK SMILES IDX 7 1 5 2 4 3 3 4 2 5 1 6 6 7 8 9 9 10 20 11 10 12 17 13 19 14
REMARK SMILES IDX 14 15 16 16 18 17 15 18 30 19 26 20 28 21 31 22 27 23 21 24
REMARK SMILES IDX 22 25 23 26 24 27 25 28 11 29 12 30 13 31 29 32
REMARK H PARENT 6 8 29 33
ROOT
ATOM      1  C   UNL     1      42.920 133.855  15.280  1.00  0.00     0.070 C 
ENDROOT
BRANCH   1   2
ATOM      2  C   UNL     1      43.233 135.142  15.455  1.00  0.00     0.274 C 
BRANCH   2   3
ATOM      3  O   UNL     1      44.355 135.494  16.218  1.00  0.00    -0.453 OA
BRANCH   3   4
ATOM      4  C   UNL     1      44.287 135.911  17.575  1.00  0.00     0.322 C 
BRANCH   4   5
ATOM      5  C   UNL     1      43.830 137.299  17.626  1.00  0.00    -0.065 C 
ATOM      6  C   UNL     1      43.451 138.443  17.669  1.00  0.00     0.007 C 
ENDBRANCH   4   5
ENDBRANCH   3   4
ENDBRANCH   2   3
BRANCH   2   7
ATOM      7  O   UNL     1      42.422 136.113  14.864  1.00  0.00    -0.481 OA
ATOM      8  H   UNL     1      42.523 137.099  15.065  1.00  0.00     0.296 HD
ENDBRANCH   2   7
ENDBRANCH   1   2
BRANCH   1   9
ATOM      9  C   UNL     1      42.410 132.968  16.398  1.00  0.00     0.060 C 
ATOM     10  C   UNL     1      43.576 132.198  17.031  1.00  0.00    -0.026 A 
ATOM     11  C   UNL     1      41.603 133.849  17.390  1.00  0.00     0.076 C 
ATOM     12  C   UNL     1      44.381 131.368  16.208  1.00  0.00     0.042 A 
ATOM     13  C   UNL     1      43.802 132.207  18.438  1.00  0.00    -0.018 A 
ATOM     14  C   UNL     1      41.533 133.218  18.783  1.00  0.00     0.031 C 
ATOM     15  C   UNL     1      45.450 130.654  16.770  1.00  0.00     0.011 A 
ATOM     16  C   UNL     1      44.873 131.458  18.978  1.00  0.00     0.047 A 
ATOM     17  C   UNL     1      42.954 133.087  19.347  1.00  0.00     0.113 C 
ATOM     18  C   UNL     1      45.698 130.706  18.135  1.00  0.00     0.015 A 
ATOM     19  C   UNL     1      45.078 131.408  20.441  1.00  0.00     0.284 C 
ATOM     20  C   UNL     1      42.936 132.601  20.781  1.00  0.00     0.261 C 
ATOM     21  N   UNL     1      44.062 131.901  21.315  1.00  0.00    -0.151 N 
ATOM     22  O   UNL     1      46.124 130.897  20.926  1.00  0.00    -0.266 OA
ATOM     23  O   UNL     1      41.978 132.907  21.543  1.00  0.00    -0.271 OA
BRANCH  11  24
ATOM     24  C   UNL     1      40.212 134.115  16.870  1.00  0.00     0.222 C 
ATOM     25  O   UNL     1      39.666 133.282  16.095  1.00  0.00    -0.292 OA
BRANCH  24  26
ATOM     26  N   UNL     1      39.509 135.295  17.271  1.00  0.00    -0.022 NA
BRANCH  26  27
ATOM     27  N   UNL     1      39.849 136.409  16.870  1.00  0.00     0.008 N 
ATOM     28  N   UNL     1      40.191 137.521  16.470  1.00  0.00    -0.003 NA
ENDBRANCH  26  27
ENDBRANCH  24  26
ENDBRANCH  11  24
BRANCH  12  29
ATOM     29  N   UNL     1      44.084 131.248  14.806  1.00  0.00    -0.060 NA
BRANCH  29  30
ATOM     30  N   UNL     1      44.909 130.849  13.982  1.00  0.00     0.005 N 
ATOM     31  N   UNL     1      45.733 130.450  13.161  1.00  0.00    -0.003 NA
ENDBRANCH  29  30
ENDBRANCH  12  29
BRANCH  21  32
ATOM     32  O   UNL     1      44.167 131.708  22.654  1.00  0.00    -0.278 OA
ATOM     33  H   UNL     1      44.223 130.725  22.767  1.00  0.00     0.247 HD
ENDBRANCH  21  32
ENDBRANCH   1   9
TORSDOF 12
ENDMDL
MODEL 8
REMARK VINA RESULT:      -5.5      2.529      5.372
REMARK SMILES C#CCOC(O)=C[C@H]1c2c(N=[N+]=[N-])ccc3c2[C@@H](C[C@@H]1C(=O)N=[N+]=[N-])C(=O)N(O)C3=O
REMARK SMILES IDX 7 1 5 2 4 3 3 4 2 5 1 6 6 7 8 9 9 10 20 11 10 12 17 13 19 14
REMARK SMILES IDX 14 15 16 16 18 17 15 18 30 19 26 20 28 21 31 22 27 23 21 24
REMARK SMILES IDX 22 25 23 26 24 27 25 28 11 29 12 30 13 31 29 32
REMARK H PARENT 6 8 29 33
ROOT
ATOM      1  C   UNL     1      42.716 133.721  15.409  1.00  0.00     0.070 C 
ENDROOT
BRANCH   1   2
ATOM      2  C   UNL     1      43.398 134.852  15.611  1.00  0.00     0.274 C 
BRANCH   2   3
ATOM      3  O   UNL     1      42.715 136.042  15.897  1.00  0.00    -0.453 OA
BRANCH   3   4
ATOM      4  C   UNL     1      42.635 137.141  15.000  1.00  0.00     0.322 C 
BRANCH   4   5
ATOM      5  C   UNL     1      42.807 138.384  15.751  1.00  0.00    -0.065 C 
ATOM      6  C   UNL     1      42.949 139.410  16.369  1.00  0.00     0.007 C 
ENDBRANCH   4   5
ENDBRANCH   3   4
ENDBRANCH   2   3
BRANCH   2   7
ATOM      7  O   UNL     1      44.791 134.816  15.528  1.00  0.00    -0.481 OA
ATOM      8  H   UNL     1      45.371 135.600  15.797  1.00  0.00     0.296 HD
ENDBRANCH   2   7
ENDBRANCH   1   2
BRANCH   1   9
ATOM      9  C   UNL     1      42.308 132.789  16.532  1.00  0.00     0.060 C 
ATOM     10  C   UNL     1      43.545 132.087  17.106  1.00  0.00    -0.026 A 
ATOM     11  C   UNL     1      41.488 133.603  17.570  1.00  0.00     0.076 C 
ATOM     12  C   UNL     1      44.367 131.320  16.239  1.00  0.00     0.042 A 
ATOM     13  C   UNL     1      43.826 132.091  18.503  1.00  0.00    -0.018 A 
ATOM     14  C   UNL     1      41.514 132.951  18.954  1.00  0.00     0.031 C 
ATOM     15  C   UNL     1      45.501 130.668  16.747  1.00  0.00     0.011 A 
ATOM     16  C   UNL     1      44.964 131.405  18.989  1.00  0.00     0.047 A 
ATOM     17  C   UNL     1      42.962 132.904  19.459  1.00  0.00     0.113 C 
ATOM     18  C   UNL     1      45.800 130.718  18.102  1.00  0.00     0.015 A 
ATOM     19  C   UNL     1      45.230 131.348  20.442  1.00  0.00     0.284 C 
ATOM     20  C   UNL     1      43.033 132.399  20.884  1.00  0.00     0.261 C 
ATOM     21  N   UNL     1      44.221 131.765  21.363  1.00  0.00    -0.151 N 
ATOM     22  O   UNL     1      46.325 130.899  20.877  1.00  0.00    -0.266 OA
ATOM     23  O   UNL     1      42.089 132.633  21.689  1.00  0.00    -0.271 OA
BRANCH  11  24
ATOM     24  C   UNL     1      40.063 133.788  17.109  1.00  0.00     0.222 C 
ATOM     25  O   UNL     1      39.261 132.815  17.156  1.00  0.00    -0.292 OA
BRANCH  24  26
ATOM     26  N   UNL     1      39.619 135.065  16.641  1.00  0.00    -0.022 NA
BRANCH  26  27
ATOM     27  N   UNL     1      38.463 135.447  16.829  1.00  0.00     0.008 N 
ATOM     28  N   UNL     1      37.309 135.830  17.018  1.00  0.00    -0.003 NA
ENDBRANCH  26  27
ENDBRANCH  24  26
ENDBRANCH  11  24
BRANCH  12  29
ATOM     29  N   UNL     1      44.022 131.200  14.849  1.00  0.00    -0.060 NA
BRANCH  29  30
ATOM     30  N   UNL     1      44.827 130.832  13.992  1.00  0.00     0.005 N 
ATOM     31  N   UNL     1      45.629 130.466  13.135  1.00  0.00    -0.003 NA
ENDBRANCH  29  30
ENDBRANCH  12  29
BRANCH  21  32
ATOM     32  O   UNL     1      44.392 131.561  22.693  1.00  0.00    -0.278 OA
ATOM     33  H   UNL     1      44.760 132.415  23.038  1.00  0.00     0.247 HD
ENDBRANCH  21  32
ENDBRANCH   1   9
TORSDOF 12
ENDMDL
MODEL 9
REMARK VINA RESULT:      -5.3      2.543      5.810
REMARK SMILES C#CCOC(O)=C[C@H]1c2c(N=[N+]=[N-])ccc3c2[C@@H](C[C@@H]1C(=O)N=[N+]=[N-])C(=O)N(O)C3=O
REMARK SMILES IDX 7 1 5 2 4 3 3 4 2 5 1 6 6 7 8 9 9 10 20 11 10 12 17 13 19 14
REMARK SMILES IDX 14 15 16 16 18 17 15 18 30 19 26 20 28 21 31 22 27 23 21 24
REMARK SMILES IDX 22 25 23 26 24 27 25 28 11 29 12 30 13 31 29 32
REMARK H PARENT 6 8 29 33
ROOT
ATOM      1  C   UNL     1      42.666 135.046  18.367  1.00  0.00     0.070 C 
ENDROOT
BRANCH   1   2
ATOM      2  C   UNL     1      43.683 135.836  18.012  1.00  0.00     0.274 C 
BRANCH   2   3
ATOM      3  O   UNL     1      44.742 136.059  18.901  1.00  0.00    -0.453 OA
BRANCH   3   4
ATOM      4  C   UNL     1      44.916 137.264  19.634  1.00  0.00     0.322 C 
BRANCH   4   5
ATOM      5  C   UNL     1      46.133 137.932  19.175  1.00  0.00    -0.065 C 
ATOM      6  C   UNL     1      47.137 138.482  18.795  1.00  0.00     0.007 C 
ENDBRANCH   4   5
ENDBRANCH   3   4
ENDBRANCH   2   3
BRANCH   2   7
ATOM      7  O   UNL     1      43.659 136.426  16.746  1.00  0.00    -0.481 OA
ATOM      8  H   UNL     1      43.621 137.428  16.615  1.00  0.00     0.296 HD
ENDBRANCH   2   7
ENDBRANCH   1   2
BRANCH   1   9
ATOM      9  C   UNL     1      42.720 133.534  18.271  1.00  0.00     0.060 C 
ATOM     10  C   UNL     1      42.779 133.104  16.800  1.00  0.00    -0.026 A 
ATOM     11  C   UNL     1      43.905 133.031  19.139  1.00  0.00     0.076 C 
ATOM     12  C   UNL     1      41.745 133.517  15.919  1.00  0.00     0.042 A 
ATOM     13  C   UNL     1      43.781 132.211  16.322  1.00  0.00    -0.018 A 
ATOM     14  C   UNL     1      44.396 131.653  18.688  1.00  0.00     0.031 C 
ATOM     15  C   UNL     1      41.781 133.131  14.570  1.00  0.00     0.011 A 
ATOM     16  C   UNL     1      43.778 131.820  14.962  1.00  0.00     0.047 A 
ATOM     17  C   UNL     1      44.903 131.750  17.243  1.00  0.00     0.113 C 
ATOM     18  C   UNL     1      42.789 132.301  14.097  1.00  0.00     0.015 A 
ATOM     19  C   UNL     1      44.772 130.844  14.470  1.00  0.00     0.284 C 
ATOM     20  C   UNL     1      45.533 130.449  16.792  1.00  0.00     0.261 C 
ATOM     21  N   UNL     1      45.569 130.113  15.403  1.00  0.00    -0.151 N 
ATOM     22  O   UNL     1      44.897 130.622  13.234  1.00  0.00    -0.266 OA
ATOM     23  O   UNL     1      46.127 129.709  17.623  1.00  0.00    -0.271 OA
BRANCH  11  24
ATOM     24  C   UNL     1      43.529 132.996  20.600  1.00  0.00     0.222 C 
ATOM     25  O   UNL     1      42.684 132.152  21.007  1.00  0.00    -0.292 OA
BRANCH  24  26
ATOM     26  N   UNL     1      44.145 133.901  21.522  1.00  0.00    -0.022 NA
BRANCH  26  27
ATOM     27  N   UNL     1      45.367 134.052  21.548  1.00  0.00     0.008 N 
ATOM     28  N   UNL     1      46.588 134.205  21.575  1.00  0.00    -0.003 NA
ENDBRANCH  26  27
ENDBRANCH  24  26
ENDBRANCH  11  24
BRANCH  12  29
ATOM     29  N   UNL     1      40.656 134.313  16.418  1.00  0.00    -0.060 NA
BRANCH  29  30
ATOM     30  N   UNL     1      39.559 133.833  16.709  1.00  0.00     0.005 N 
ATOM     31  N   UNL     1      38.464 133.356  17.000  1.00  0.00    -0.003 NA
ENDBRANCH  29  30
ENDBRANCH  12  29
BRANCH  21  32
ATOM     32  O   UNL     1      46.361 129.101  14.970  1.00  0.00    -0.278 OA
ATOM     33  H   UNL     1      47.288 129.441  15.068  1.00  0.00     0.247 HD
ENDBRANCH  21  32
ENDBRANCH   1   9
TORSDOF 12
ENDMDL


