MODEL 1
REMARK VINA RESULT:      -7.0      0.000      0.000
REMARK SMILES C#CCOC(=O)C[C@@H]1CC[C@H]2C(=O)[N-]c3c(N=[N+]=[N-])cc(Cl)c1c32
REMARK SMILES IDX 5 1 6 2 4 3 3 4 2 5 1 6 7 7 8 8 23 9 9 10 21 11 24 12 10 13
REMARK SMILES IDX 20 14 15 15 11 16 16 17 14 18 12 19 22 20 13 21 17 22 18 23
REMARK SMILES IDX 19 24
REMARK H PARENT
ROOT
ATOM      1  C   UNL     1      46.419 130.213  15.655  1.00  0.00     0.307 C 
ATOM      2  O   UNL     1      45.612 129.295  15.963  1.00  0.00    -0.252 OA
ENDROOT
BRANCH   1   3
ATOM      3  O   UNL     1      47.732 129.913  15.281  1.00  0.00    -0.452 OA
BRANCH   3   4
ATOM      4  C   UNL     1      48.052 129.281  14.047  1.00  0.00     0.322 C 
BRANCH   4   5
ATOM      5  C   UNL     1      47.451 130.036  12.948  1.00  0.00    -0.065 C 
ATOM      6  C   UNL     1      46.955 130.659  12.043  1.00  0.00     0.007 C 
ENDBRANCH   4   5
ENDBRANCH   3   4
ENDBRANCH   1   3
BRANCH   1   7
ATOM      7  C   UNL     1      45.981 131.645  15.713  1.00  0.00     0.131 C 
BRANCH   7   8
ATOM      8  C   UNL     1      44.467 131.759  15.992  1.00  0.00     0.032 C 
ATOM      9  C   UNL     1      44.220 132.836  17.046  1.00  0.00    -0.023 A 
ATOM     10  C   UNL     1      43.664 131.978  14.654  1.00  0.00     0.010 C 
ATOM     11  C   UNL     1      44.417 132.620  18.434  1.00  0.00     0.045 A 
ATOM     12  C   UNL     1      43.646 134.044  16.657  1.00  0.00    -0.048 A 
ATOM     13  C   UNL     1      42.568 133.064  14.715  1.00  0.00     0.015 C 
ATOM     14  C   UNL     1      43.977 133.583  19.368  1.00  0.00     0.029 A 
ATOM     15  C   UNL     1      43.113 134.927  17.568  1.00  0.00    -0.120 A 
ATOM     16  C   UNL     1      43.174 134.344  15.287  1.00  0.00     0.066 C 
ATOM     17  C   UNL     1      43.281 134.736  18.940  1.00  0.00     0.025 A 
ATOM     18  N   UNL     1      42.211 135.844  16.965  1.00  0.00    -0.626 NA
ATOM     19  C   UNL     1      42.204 135.444  15.593  1.00  0.00     0.062 C 
ATOM     20  Cl  UNL     1      45.122 131.129  19.048  1.00  0.00    -0.084 Cl
ATOM     21  O   UNL     1      41.479 136.003  14.729  1.00  0.00    -0.320 OA
BRANCH  17  22
ATOM     22  N   UNL     1      42.705 135.670  19.863  1.00  0.00    -0.062 NA
BRANCH  22  23
ATOM     23  N   UNL     1      41.690 135.411  20.511  1.00  0.00     0.005 N 
ATOM     24  N   UNL     1      40.677 135.154  21.159  1.00  0.00    -0.003 NA
ENDBRANCH  22  23
ENDBRANCH  17  22
ENDBRANCH   7   8
ENDBRANCH   1   7
TORSDOF 7
ENDMDL
MODEL 2
REMARK VINA RESULT:      -6.7      2.056      2.248
REMARK SMILES C#CCOC(=O)C[C@@H]1CC[C@H]2C(=O)[N-]c3c(N=[N+]=[N-])cc(Cl)c1c32
REMARK SMILES IDX 5 1 6 2 4 3 3 4 2 5 1 6 7 7 8 8 23 9 9 10 21 11 24 12 10 13
REMARK SMILES IDX 20 14 15 15 11 16 16 17 14 18 12 19 22 20 13 21 17 22 18 23
REMARK SMILES IDX 19 24
REMARK H PARENT
ROOT
ATOM      1  C   UNL     1      45.802 130.953  16.905  1.00  0.00     0.307 C 
ATOM      2  O   UNL     1      45.675 130.344  18.002  1.00  0.00    -0.252 OA
ENDROOT
BRANCH   1   3
ATOM      3  O   UNL     1      46.685 130.485  15.928  1.00  0.00    -0.452 OA
BRANCH   3   4
ATOM      4  C   UNL     1      46.288 129.576  14.907  1.00  0.00     0.322 C 
BRANCH   4   5
ATOM      5  C   UNL     1      46.659 130.124  13.603  1.00  0.00    -0.065 C 
ATOM      6  C   UNL     1      46.965 130.574  12.527  1.00  0.00     0.007 C 
ENDBRANCH   4   5
ENDBRANCH   3   4
ENDBRANCH   1   3
BRANCH   1   7
ATOM      7  C   UNL     1      45.021 132.205  16.650  1.00  0.00     0.131 C 
BRANCH   7   8
ATOM      8  C   UNL     1      43.555 131.889  16.282  1.00  0.00     0.032 C 
ATOM      9  C   UNL     1      42.630 132.913  16.935  1.00  0.00    -0.023 A 
ATOM     10  C   UNL     1      43.381 131.775  14.720  1.00  0.00     0.010 C 
ATOM     11  C   UNL     1      42.255 132.857  18.302  1.00  0.00     0.045 A 
ATOM     12  C   UNL     1      42.012 133.872  16.136  1.00  0.00    -0.048 A 
ATOM     13  C   UNL     1      42.142 132.493  14.143  1.00  0.00     0.015 C 
ATOM     14  C   UNL     1      41.241 133.708  18.792  1.00  0.00     0.029 A 
ATOM     15  C   UNL     1      40.945 134.618  16.584  1.00  0.00    -0.120 A 
ATOM     16  C   UNL     1      42.120 133.929  14.662  1.00  0.00     0.066 C 
ATOM     17  C   UNL     1      40.545 134.576  17.919  1.00  0.00     0.025 A 
ATOM     18  N   UNL     1      40.202 135.189  15.516  1.00  0.00    -0.626 NA
ATOM     19  C   UNL     1      40.881 134.715  14.352  1.00  0.00     0.062 C 
ATOM     20  Cl  UNL     1      42.959 131.682  19.407  1.00  0.00    -0.084 Cl
ATOM     21  O   UNL     1      40.490 134.978  13.185  1.00  0.00    -0.320 OA
BRANCH  17  22
ATOM     22  N   UNL     1      39.424 135.358  18.351  1.00  0.00    -0.062 NA
BRANCH  22  23
ATOM     23  N   UNL     1      38.298 134.877  18.478  1.00  0.00     0.005 N 
ATOM     24  N   UNL     1      37.172 134.398  18.605  1.00  0.00    -0.003 NA
ENDBRANCH  22  23
ENDBRANCH  17  22
ENDBRANCH   7   8
ENDBRANCH   1   7
TORSDOF 7
ENDMDL
MODEL 3
REMARK VINA RESULT:      -6.7      1.652      2.169
REMARK SMILES C#CCOC(=O)C[C@@H]1CC[C@H]2C(=O)[N-]c3c(N=[N+]=[N-])cc(Cl)c1c32
REMARK SMILES IDX 5 1 6 2 4 3 3 4 2 5 1 6 7 7 8 8 23 9 9 10 21 11 24 12 10 13
REMARK SMILES IDX 20 14 15 15 11 16 16 17 14 18 12 19 22 20 13 21 17 22 18 23
REMARK SMILES IDX 19 24
REMARK H PARENT
ROOT
ATOM      1  C   UNL     1      45.553 131.408  15.250  1.00  0.00     0.307 C 
ATOM      2  O   UNL     1      46.213 132.466  15.063  1.00  0.00    -0.252 OA
ENDROOT
BRANCH   1   3
ATOM      3  O   UNL     1      45.304 130.526  14.193  1.00  0.00    -0.452 OA
BRANCH   3   4
ATOM      4  C   UNL     1      46.050 130.551  12.982  1.00  0.00     0.322 C 
BRANCH   4   5
ATOM      5  C   UNL     1      47.336 129.887  13.194  1.00  0.00    -0.065 C 
ATOM      6  C   UNL     1      48.396 129.341  13.370  1.00  0.00     0.007 C 
ENDBRANCH   4   5
ENDBRANCH   3   4
ENDBRANCH   1   3
BRANCH   1   7
ATOM      7  C   UNL     1      45.005 131.098  16.609  1.00  0.00     0.131 C 
BRANCH   7   8
ATOM      8  C   UNL     1      43.719 131.904  16.894  1.00  0.00     0.032 C 
ATOM      9  C   UNL     1      44.057 133.124  17.747  1.00  0.00    -0.023 A 
ATOM     10  C   UNL     1      42.965 132.250  15.555  1.00  0.00     0.010 C 
ATOM     11  C   UNL     1      44.274 133.053  19.147  1.00  0.00     0.045 A 
ATOM     12  C   UNL     1      44.021 134.388  17.164  1.00  0.00    -0.048 A 
ATOM     13  C   UNL     1      42.449 133.701  15.446  1.00  0.00     0.015 C 
ATOM     14  C   UNL     1      44.378 134.239  19.906  1.00  0.00     0.029 A 
ATOM     15  C   UNL     1      44.006 135.540  17.916  1.00  0.00    -0.120 A 
ATOM     16  C   UNL     1      43.596 134.656  15.773  1.00  0.00     0.066 C 
ATOM     17  C   UNL     1      44.204 135.503  19.296  1.00  0.00     0.025 A 
ATOM     18  N   UNL     1      43.530 136.658  17.180  1.00  0.00    -0.626 NA
ATOM     19  C   UNL     1      43.222 136.102  15.900  1.00  0.00     0.062 C 
ATOM     20  Cl  UNL     1      44.328 131.514  19.999  1.00  0.00    -0.084 Cl
ATOM     21  O   UNL     1      42.728 136.785  14.966  1.00  0.00    -0.320 OA
BRANCH  17  22
ATOM     22  N   UNL     1      44.173 136.720  20.053  1.00  0.00    -0.062 NA
BRANCH  22  23
ATOM     23  N   UNL     1      45.121 137.506  20.070  1.00  0.00     0.005 N 
ATOM     24  N   UNL     1      46.067 138.291  20.087  1.00  0.00    -0.003 NA
ENDBRANCH  22  23
ENDBRANCH  17  22
ENDBRANCH   7   8
ENDBRANCH   1   7
TORSDOF 7
ENDMDL
MODEL 4
REMARK VINA RESULT:      -6.6      1.823      2.201
REMARK SMILES C#CCOC(=O)C[C@@H]1CC[C@H]2C(=O)[N-]c3c(N=[N+]=[N-])cc(Cl)c1c32
REMARK SMILES IDX 5 1 6 2 4 3 3 4 2 5 1 6 7 7 8 8 23 9 9 10 21 11 24 12 10 13
REMARK SMILES IDX 20 14 15 15 11 16 16 17 14 18 12 19 22 20 13 21 17 22 18 23
REMARK SMILES IDX 19 24
REMARK H PARENT
ROOT
ATOM      1  C   UNL     1      45.902 130.619  15.846  1.00  0.00     0.307 C 
ATOM      2  O   UNL     1      46.943 130.138  16.370  1.00  0.00    -0.252 OA
ENDROOT
BRANCH   1   3
ATOM      3  O   UNL     1      45.197 129.903  14.874  1.00  0.00    -0.452 OA
BRANCH   3   4
ATOM      4  C   UNL     1      44.972 130.408  13.563  1.00  0.00     0.322 C 
BRANCH   4   5
ATOM      5  C   UNL     1      46.252 130.519  12.862  1.00  0.00    -0.065 C 
ATOM      6  C   UNL     1      47.307 130.611  12.287  1.00  0.00     0.007 C 
ENDBRANCH   4   5
ENDBRANCH   3   4
ENDBRANCH   1   3
BRANCH   1   7
ATOM      7  C   UNL     1      45.425 131.981  16.244  1.00  0.00     0.131 C 
BRANCH   7   8
ATOM      8  C   UNL     1      44.071 131.909  16.984  1.00  0.00     0.032 C 
ATOM      9  C   UNL     1      44.143 132.734  18.267  1.00  0.00    -0.023 A 
ATOM     10  C   UNL     1      42.887 132.317  16.028  1.00  0.00     0.010 C 
ATOM     11  C   UNL     1      44.769 132.269  19.452  1.00  0.00     0.045 A 
ATOM     12  C   UNL     1      43.453 133.941  18.334  1.00  0.00    -0.048 A 
ATOM     13  C   UNL     1      41.843 133.272  16.645  1.00  0.00     0.015 C 
ATOM     14  C   UNL     1      44.622 132.989  20.657  1.00  0.00     0.029 A 
ATOM     15  C   UNL     1      43.213 134.580  19.530  1.00  0.00    -0.120 A 
ATOM     16  C   UNL     1      42.571 134.462  17.267  1.00  0.00     0.066 C 
ATOM     17  C   UNL     1      43.804 134.140  20.714  1.00  0.00     0.025 A 
ATOM     18  N   UNL     1      42.149 135.518  19.435  1.00  0.00    -0.626 NA
ATOM     19  C   UNL     1      41.722 135.394  18.077  1.00  0.00     0.062 C 
ATOM     20  Cl  UNL     1      45.660 130.752  19.494  1.00  0.00    -0.084 Cl
ATOM     21  O   UNL     1      40.752 136.047  17.610  1.00  0.00    -0.320 OA
BRANCH  17  22
ATOM     22  N   UNL     1      43.526 134.822  21.944  1.00  0.00    -0.062 NA
BRANCH  22  23
ATOM     23  N   UNL     1      44.024 134.474  23.015  1.00  0.00     0.005 N 
ATOM     24  N   UNL     1      44.521 134.126  24.085  1.00  0.00    -0.003 NA
ENDBRANCH  22  23
ENDBRANCH  17  22
ENDBRANCH   7   8
ENDBRANCH   1   7
TORSDOF 7
ENDMDL
MODEL 5
REMARK VINA RESULT:      -6.6      0.884      1.038
REMARK SMILES C#CCOC(=O)C[C@@H]1CC[C@H]2C(=O)[N-]c3c(N=[N+]=[N-])cc(Cl)c1c32
REMARK SMILES IDX 5 1 6 2 4 3 3 4 2 5 1 6 7 7 8 8 23 9 9 10 21 11 24 12 10 13
REMARK SMILES IDX 20 14 15 15 11 16 16 17 14 18 12 19 22 20 13 21 17 22 18 23
REMARK SMILES IDX 19 24
REMARK H PARENT
ROOT
ATOM      1  C   UNL     1      46.266 130.426  15.935  1.00  0.00     0.307 C 
ATOM      2  O   UNL     1      46.807 130.109  17.029  1.00  0.00    -0.252 OA
ENDROOT
BRANCH   1   3
ATOM      3  O   UNL     1      46.165 129.499  14.894  1.00  0.00    -0.452 OA
BRANCH   3   4
ATOM      4  C   UNL     1      47.272 129.142  14.075  1.00  0.00     0.322 C 
BRANCH   4   5
ATOM      5  C   UNL     1      47.287 129.994  12.885  1.00  0.00    -0.065 C 
ATOM      6  C   UNL     1      47.299 130.695  11.905  1.00  0.00     0.007 C 
ENDBRANCH   4   5
ENDBRANCH   3   4
ENDBRANCH   1   3
BRANCH   1   7
ATOM      7  C   UNL     1      45.748 131.817  15.732  1.00  0.00     0.131 C 
BRANCH   7   8
ATOM      8  C   UNL     1      44.233 131.900  16.018  1.00  0.00     0.032 C 
ATOM      9  C   UNL     1      43.948 133.088  16.933  1.00  0.00    -0.023 A 
ATOM     10  C   UNL     1      43.408 131.915  14.676  1.00  0.00     0.010 C 
ATOM     11  C   UNL     1      44.169 133.057  18.335  1.00  0.00     0.045 A 
ATOM     12  C   UNL     1      43.317 134.212  16.406  1.00  0.00    -0.048 A 
ATOM     13  C   UNL     1      42.265 132.952  14.618  1.00  0.00     0.015 C 
ATOM     14  C   UNL     1      43.695 134.109  19.148  1.00  0.00     0.029 A 
ATOM     15  C   UNL     1      42.754 135.178  17.208  1.00  0.00    -0.120 A 
ATOM     16  C   UNL     1      42.819 134.318  15.017  1.00  0.00     0.066 C 
ATOM     17  C   UNL     1      42.943 135.169  18.590  1.00  0.00     0.025 A 
ATOM     18  N   UNL     1      41.806 135.973  16.509  1.00  0.00    -0.626 NA
ATOM     19  C   UNL     1      41.803 135.405  15.198  1.00  0.00     0.062 C 
ATOM     20  Cl  UNL     1      44.945 131.686  19.118  1.00  0.00    -0.084 Cl
ATOM     21  O   UNL     1      41.045 135.819  14.282  1.00  0.00    -0.320 OA
BRANCH  17  22
ATOM     22  N   UNL     1      42.335 136.184  19.399  1.00  0.00    -0.062 NA
BRANCH  22  23
ATOM     23  N   UNL     1      42.889 136.648  20.396  1.00  0.00     0.005 N 
ATOM     24  N   UNL     1      43.442 137.110  21.393  1.00  0.00    -0.003 NA
ENDBRANCH  22  23
ENDBRANCH  17  22
ENDBRANCH   7   8
ENDBRANCH   1   7
TORSDOF 7
ENDMDL
MODEL 6
REMARK VINA RESULT:      -6.6      1.280      1.777
REMARK SMILES C#CCOC(=O)C[C@@H]1CC[C@H]2C(=O)[N-]c3c(N=[N+]=[N-])cc(Cl)c1c32
REMARK SMILES IDX 5 1 6 2 4 3 3 4 2 5 1 6 7 7 8 8 23 9 9 10 21 11 24 12 10 13
REMARK SMILES IDX 20 14 15 15 11 16 16 17 14 18 12 19 22 20 13 21 17 22 18 23
REMARK SMILES IDX 19 24
REMARK H PARENT
ROOT
ATOM      1  C   UNL     1      45.156 130.224  14.631  1.00  0.00     0.307 C 
ATOM      2  O   UNL     1      44.952 129.126  15.217  1.00  0.00    -0.252 OA
ENDROOT
BRANCH   1   3
ATOM      3  O   UNL     1      45.297 130.276  13.241  1.00  0.00    -0.452 OA
BRANCH   3   4
ATOM      4  C   UNL     1      46.491 130.719  12.608  1.00  0.00     0.322 C 
BRANCH   4   5
ATOM      5  C   UNL     1      47.631 129.986  13.159  1.00  0.00    -0.065 C 
ATOM      6  C   UNL     1      48.570 129.381  13.612  1.00  0.00     0.007 C 
ENDBRANCH   4   5
ENDBRANCH   3   4
ENDBRANCH   1   3
BRANCH   1   7
ATOM      7  C   UNL     1      45.275 131.486  15.428  1.00  0.00     0.131 C 
BRANCH   7   8
ATOM      8  C   UNL     1      43.891 131.990  15.894  1.00  0.00     0.032 C 
ATOM      9  C   UNL     1      44.071 133.109  16.918  1.00  0.00    -0.023 A 
ATOM     10  C   UNL     1      42.995 132.390  14.662  1.00  0.00     0.010 C 
ATOM     11  C   UNL     1      44.396 132.869  18.278  1.00  0.00     0.045 A 
ATOM     12  C   UNL     1      43.774 134.418  16.547  1.00  0.00    -0.048 A 
ATOM     13  C   UNL     1      42.228 133.721  14.811  1.00  0.00     0.015 C 
ATOM     14  C   UNL     1      44.345 133.925  19.212  1.00  0.00     0.029 A 
ATOM     15  C   UNL     1      43.611 135.421  17.476  1.00  0.00    -0.120 A 
ATOM     16  C   UNL     1      43.210 134.810  15.238  1.00  0.00     0.066 C 
ATOM     17  C   UNL     1      43.911 135.213  18.822  1.00  0.00     0.025 A 
ATOM     18  N   UNL     1      42.897 136.531  16.950  1.00  0.00    -0.626 NA
ATOM     19  C   UNL     1      42.600 136.127  15.612  1.00  0.00     0.062 C 
ATOM     20  Cl  UNL     1      44.778 131.255  18.867  1.00  0.00    -0.084 Cl
ATOM     21  O   UNL     1      41.929 136.841  14.822  1.00  0.00    -0.320 OA
BRANCH  17  22
ATOM     22  N   UNL     1      43.722 136.276  19.766  1.00  0.00    -0.062 NA
BRANCH  22  23
ATOM     23  N   UNL     1      44.667 136.828  20.330  1.00  0.00     0.005 N 
ATOM     24  N   UNL     1      45.610 137.380  20.895  1.00  0.00    -0.003 NA
ENDBRANCH  22  23
ENDBRANCH  17  22
ENDBRANCH   7   8
ENDBRANCH   1   7
TORSDOF 7
ENDMDL
MODEL 7
REMARK VINA RESULT:      -6.5      2.408      3.898
REMARK SMILES C#CCOC(=O)C[C@@H]1CC[C@H]2C(=O)[N-]c3c(N=[N+]=[N-])cc(Cl)c1c32
REMARK SMILES IDX 5 1 6 2 4 3 3 4 2 5 1 6 7 7 8 8 23 9 9 10 21 11 24 12 10 13
REMARK SMILES IDX 20 14 15 15 11 16 16 17 14 18 12 19 22 20 13 21 17 22 18 23
REMARK SMILES IDX 19 24
REMARK H PARENT
ROOT
ATOM      1  C   UNL     1      44.511 131.204  14.967  1.00  0.00     0.307 C 
ATOM      2  O   UNL     1      44.052 130.313  14.203  1.00  0.00    -0.252 OA
ENDROOT
BRANCH   1   3
ATOM      3  O   UNL     1      45.646 131.937  14.609  1.00  0.00    -0.452 OA
BRANCH   3   4
ATOM      4  C   UNL     1      46.933 131.343  14.481  1.00  0.00     0.322 C 
BRANCH   4   5
ATOM      5  C   UNL     1      47.125 130.901  13.100  1.00  0.00    -0.065 C 
ATOM      6  C   UNL     1      47.283 130.535  11.962  1.00  0.00     0.007 C 
ENDBRANCH   4   5
ENDBRANCH   3   4
ENDBRANCH   1   3
BRANCH   1   7
ATOM      7  C   UNL     1      43.853 131.470  16.287  1.00  0.00     0.131 C 
BRANCH   7   8
ATOM      8  C   UNL     1      44.874 131.960  17.336  1.00  0.00     0.032 C 
ATOM      9  C   UNL     1      44.224 133.012  18.232  1.00  0.00    -0.023 A 
ATOM     10  C   UNL     1      45.496 130.746  18.124  1.00  0.00     0.010 C 
ATOM     11  C   UNL     1      44.044 134.362  17.836  1.00  0.00     0.045 A 
ATOM     12  C   UNL     1      43.911 132.680  19.548  1.00  0.00    -0.048 A 
ATOM     13  C   UNL     1      45.597 130.937  19.653  1.00  0.00     0.015 C 
ATOM     14  C   UNL     1      43.628 135.326  18.779  1.00  0.00     0.029 A 
ATOM     15  C   UNL     1      43.618 133.636  20.493  1.00  0.00    -0.120 A 
ATOM     16  C   UNL     1      44.237 131.385  20.184  1.00  0.00     0.066 C 
ATOM     17  C   UNL     1      43.447 134.974  20.137  1.00  0.00     0.025 A 
ATOM     18  N   UNL     1      43.767 133.146  21.819  1.00  0.00    -0.626 NA
ATOM     19  C   UNL     1      44.205 131.800  21.624  1.00  0.00     0.062 C 
ATOM     20  Cl  UNL     1      44.417 134.905  16.203  1.00  0.00    -0.084 Cl
ATOM     21  O   UNL     1      44.488 131.035  22.583  1.00  0.00    -0.320 OA
BRANCH  17  22
ATOM     22  N   UNL     1      43.152 135.947  21.147  1.00  0.00    -0.062 NA
BRANCH  22  23
ATOM     23  N   UNL     1      42.000 136.193  21.506  1.00  0.00     0.005 N 
ATOM     24  N   UNL     1      40.849 136.439  21.863  1.00  0.00    -0.003 NA
ENDBRANCH  22  23
ENDBRANCH  17  22
ENDBRANCH   7   8
ENDBRANCH   1   7
TORSDOF 7
ENDMDL
MODEL 8
REMARK VINA RESULT:      -6.4      2.787      4.371
REMARK SMILES C#CCOC(=O)C[C@@H]1CC[C@H]2C(=O)[N-]c3c(N=[N+]=[N-])cc(Cl)c1c32
REMARK SMILES IDX 5 1 6 2 4 3 3 4 2 5 1 6 7 7 8 8 23 9 9 10 21 11 24 12 10 13
REMARK SMILES IDX 20 14 15 15 11 16 16 17 14 18 12 19 22 20 13 21 17 22 18 23
REMARK SMILES IDX 19 24
REMARK H PARENT
ROOT
ATOM      1  C   UNL     1      43.360 131.907  14.878  1.00  0.00     0.307 C 
ATOM      2  O   UNL     1      42.378 131.878  14.087  1.00  0.00    -0.252 OA
ENDROOT
BRANCH   1   3
ATOM      3  O   UNL     1      44.668 131.803  14.396  1.00  0.00    -0.452 OA
BRANCH   3   4
ATOM      4  C   UNL     1      45.175 130.612  13.805  1.00  0.00     0.322 C 
BRANCH   4   5
ATOM      5  C   UNL     1      46.557 130.835  13.380  1.00  0.00    -0.065 C 
ATOM      6  C   UNL     1      47.695 131.018  13.027  1.00  0.00     0.007 C 
ENDBRANCH   4   5
ENDBRANCH   3   4
ENDBRANCH   1   3
BRANCH   1   7
ATOM      7  C   UNL     1      43.129 132.027  16.353  1.00  0.00     0.131 C 
BRANCH   7   8
ATOM      8  C   UNL     1      44.452 132.266  17.112  1.00  0.00     0.032 C 
ATOM      9  C   UNL     1      44.230 133.293  18.220  1.00  0.00    -0.023 A 
ATOM     10  C   UNL     1      45.063 130.904  17.617  1.00  0.00     0.010 C 
ATOM     11  C   UNL     1      44.165 134.689  17.979  1.00  0.00     0.045 A 
ATOM     12  C   UNL     1      44.225 132.867  19.546  1.00  0.00    -0.048 A 
ATOM     13  C   UNL     1      45.590 130.917  19.068  1.00  0.00     0.015 C 
ATOM     14  C   UNL     1      44.164 135.594  19.063  1.00  0.00     0.029 A 
ATOM     15  C   UNL     1      44.342 133.748  20.596  1.00  0.00    -0.120 A 
ATOM     16  C   UNL     1      44.502 131.481  19.981  1.00  0.00     0.066 C 
ATOM     17  C   UNL     1      44.293 135.127  20.391  1.00  0.00     0.025 A 
ATOM     18  N   UNL     1      44.755 133.105  21.795  1.00  0.00    -0.626 NA
ATOM     19  C   UNL     1      44.913 131.741  21.399  1.00  0.00     0.062 C 
ATOM     20  Cl  UNL     1      44.176 135.348  16.347  1.00  0.00    -0.084 Cl
ATOM     21  O   UNL     1      45.316 130.849  22.189  1.00  0.00    -0.320 OA
BRANCH  17  22
ATOM     22  N   UNL     1      44.427 136.018  21.506  1.00  0.00    -0.062 NA
BRANCH  22  23
ATOM     23  N   UNL     1      45.365 136.810  21.605  1.00  0.00     0.005 N 
ATOM     24  N   UNL     1      46.302 137.600  21.703  1.00  0.00    -0.003 NA
ENDBRANCH  22  23
ENDBRANCH  17  22
ENDBRANCH   7   8
ENDBRANCH   1   7
TORSDOF 7
ENDMDL
MODEL 9
REMARK VINA RESULT:      -6.4      2.474      3.874
REMARK SMILES C#CCOC(=O)C[C@@H]1CC[C@H]2C(=O)[N-]c3c(N=[N+]=[N-])cc(Cl)c1c32
REMARK SMILES IDX 5 1 6 2 4 3 3 4 2 5 1 6 7 7 8 8 23 9 9 10 21 11 24 12 10 13
REMARK SMILES IDX 20 14 15 15 11 16 16 17 14 18 12 19 22 20 13 21 17 22 18 23
REMARK SMILES IDX 19 24
REMARK H PARENT
ROOT
ATOM      1  C   UNL     1      45.870 129.899  15.930  1.00  0.00     0.307 C 
ATOM      2  O   UNL     1      47.075 130.164  16.189  1.00  0.00    -0.252 OA
ENDROOT
BRANCH   1   3
ATOM      3  O   UNL     1      45.490 129.483  14.651  1.00  0.00    -0.452 OA
BRANCH   3   4
ATOM      4  C   UNL     1      45.239 130.397  13.590  1.00  0.00     0.322 C 
BRANCH   4   5
ATOM      5  C   UNL     1      46.451 130.544  12.783  1.00  0.00    -0.065 C 
ATOM      6  C   UNL     1      47.449 130.665  12.117  1.00  0.00     0.007 C 
ENDBRANCH   4   5
ENDBRANCH   3   4
ENDBRANCH   1   3
BRANCH   1   7
ATOM      7  C   UNL     1      44.825 130.054  16.992  1.00  0.00     0.131 C 
BRANCH   7   8
ATOM      8  C   UNL     1      45.122 131.267  17.901  1.00  0.00     0.032 C 
ATOM      9  C   UNL     1      43.888 132.162  17.982  1.00  0.00    -0.023 A 
ATOM     10  C   UNL     1      45.665 130.798  19.303  1.00  0.00     0.010 C 
ATOM     11  C   UNL     1      43.522 133.072  16.957  1.00  0.00     0.045 A 
ATOM     12  C   UNL     1      43.153 132.195  19.165  1.00  0.00    -0.048 A 
ATOM     13  C   UNL     1      45.051 131.521  20.521  1.00  0.00     0.015 C 
ATOM     14  C   UNL     1      42.493 134.012  17.182  1.00  0.00     0.029 A 
ATOM     15  C   UNL     1      42.233 133.184  19.426  1.00  0.00    -0.120 A 
ATOM     16  C   UNL     1      43.528 131.478  20.403  1.00  0.00     0.066 C 
ATOM     17  C   UNL     1      41.861 134.101  18.443  1.00  0.00     0.025 A 
ATOM     18  N   UNL     1      41.937 133.292  20.812  1.00  0.00    -0.626 NA
ATOM     19  C   UNL     1      42.774 132.298  21.406  1.00  0.00     0.062 C 
ATOM     20  Cl  UNL     1      44.381 133.131  15.423  1.00  0.00    -0.084 Cl
ATOM     21  O   UNL     1      42.827 132.112  22.649  1.00  0.00    -0.320 OA
BRANCH  17  22
ATOM     22  N   UNL     1      40.905 135.125  18.750  1.00  0.00    -0.062 NA
BRANCH  22  23
ATOM     23  N   UNL     1      40.595 135.998  17.939  1.00  0.00     0.005 N 
ATOM     24  N   UNL     1      40.285 136.869  17.128  1.00  0.00    -0.003 NA
ENDBRANCH  22  23
ENDBRANCH  17  22
ENDBRANCH   7   8
ENDBRANCH   1   7
TORSDOF 7
ENDMDL


