REMARK SMILES C#CCO/C(O)=C/[C@@H]1c2c(N=[N+]=[N-])ccc3c2[C@@H](C[C@H]1C(=O)N=[N+]=[N-])C(=O)N(O)C3=O
REMARK SMILES IDX 7 1 5 2 4 3 3 4 2 5 1 6 6 7 8 9 9 10 20 11 10 12 17 13 19 14
REMARK SMILES IDX 14 15 16 16 18 17 15 18 30 19 26 20 28 21 31 22 27 23 21 24
REMARK SMILES IDX 22 25 23 26 24 27 25 28 11 29 12 30 13 31 29 32
REMARK H PARENT 6 8 29 33
ROOT
ATOM      1  C   UNL     1      -1.236   2.248  -0.032  1.00  0.00     0.070 C 
ENDROOT
BRANCH   1   2
ATOM      2  C   UNL     1      -1.774   3.373   0.449  1.00  0.00     0.274 C 
BRANCH   2   3
ATOM      3  O   UNL     1      -2.176   4.363  -0.456  1.00  0.00    -0.453 OA
BRANCH   3   4
ATOM      4  C   UNL     1      -2.759   5.599  -0.062  1.00  0.00     0.322 C 
BRANCH   4   5
ATOM      5  C   UNL     1      -3.056   6.393  -1.254  1.00  0.00    -0.065 C 
ATOM      6  C   UNL     1      -3.301   7.047  -2.237  1.00  0.00     0.007 C 
ENDBRANCH   4   5
ENDBRANCH   3   4
ENDBRANCH   2   3
BRANCH   2   7
ATOM      7  O   UNL     1      -1.926   3.542   1.828  1.00  0.00    -0.481 OA
ATOM      8  H   UNL     1      -2.329   4.377   2.232  1.00  0.00     0.296 HD
ENDBRANCH   2   7
ENDBRANCH   1   2
BRANCH   1   9
ATOM      9  C   UNL     1      -0.783   1.110   0.858  1.00  0.00     0.060 C 
ATOM     10  C   UNL     1       0.289   0.308   0.126  1.00  0.00    -0.026 A 
ATOM     11  C   UNL     1      -1.997   0.254   1.297  1.00  0.00     0.076 C 
ATOM     12  C   UNL     1       1.592   0.849   0.011  1.00  0.00     0.042 A 
ATOM     13  C   UNL     1      -0.030  -0.904  -0.548  1.00  0.00    -0.018 A 
ATOM     14  C   UNL     1      -2.461  -0.659   0.154  1.00  0.00     0.031 C 
ATOM     15  C   UNL     1       2.559   0.180  -0.755  1.00  0.00     0.011 A 
ATOM     16  C   UNL     1       0.952  -1.535  -1.347  1.00  0.00     0.047 A 
ATOM     17  C   UNL     1      -1.347  -1.626  -0.281  1.00  0.00     0.113 C 
ATOM     18  C   UNL     1       2.239  -0.991  -1.434  1.00  0.00     0.015 A 
ATOM     19  C   UNL     1       0.596  -2.731  -2.140  1.00  0.00     0.284 C 
ATOM     20  C   UNL     1      -1.771  -2.476  -1.456  1.00  0.00     0.261 C 
ATOM     21  N   UNL     1      -0.776  -3.115  -2.264  1.00  0.00    -0.151 N 
ATOM     22  O   UNL     1       1.486  -3.390  -2.744  1.00  0.00    -0.266 OA
ATOM     23  O   UNL     1      -2.991  -2.716  -1.668  1.00  0.00    -0.271 OA
BRANCH  11  24
ATOM     24  C   UNL     1      -1.723  -0.535   2.557  1.00  0.00     0.222 C 
ATOM     25  O   UNL     1      -0.562  -0.965   2.807  1.00  0.00    -0.292 OA
BRANCH  24  26
ATOM     26  N   UNL     1      -2.804  -0.835   3.443  1.00  0.00    -0.022 NA
BRANCH  26  27
ATOM     27  N   UNL     1      -2.627  -1.494   4.468  1.00  0.00     0.008 N 
ATOM     28  N   UNL     1      -2.450  -2.153   5.492  1.00  0.00    -0.003 NA
ENDBRANCH  26  27
ENDBRANCH  24  26
ENDBRANCH  11  24
BRANCH  12  29
ATOM     29  N   UNL     1       1.909   2.087   0.671  1.00  0.00    -0.060 NA
BRANCH  29  30
ATOM     30  N   UNL     1       3.021   2.611   0.599  1.00  0.00     0.005 N 
ATOM     31  N   UNL     1       4.131   3.137   0.529  1.00  0.00    -0.003 NA
ENDBRANCH  29  30
ENDBRANCH  12  29
BRANCH  21  32
ATOM     32  O   UNL     1      -1.133  -4.090  -3.136  1.00  0.00    -0.278 OA
ATOM     33  H   UNL     1      -1.325  -3.617  -3.986  1.00  0.00     0.247 HD
ENDBRANCH  21  32
ENDBRANCH   1   9
TORSDOF 12


