MODEL 1
REMARK VINA RESULT:      -6.3      0.000      0.000
REMARK SMILES C[C@@H](C#N)N(C)CCCCc1cn(-c2cc(N)c3c4c(cccc24)C(=O)[N-]3)nn1
REMARK SMILES IDX 8 1 7 2 5 3 6 4 2 5 1 6 3 7 4 8 9 9 10 10 11 11 12 12 29 13
REMARK SMILES IDX 13 14 28 15 14 16 15 17 24 18 16 19 23 20 19 21 18 22 22 23
REMARK SMILES IDX 20 24 27 25 21 26 25 27 26 28 17 29
REMARK H PARENT 17 30 17 31
ROOT
ATOM      1  C   UNL     1      44.776 130.732  17.773  1.00  0.00     0.016 C 
ENDROOT
BRANCH   1   2
ATOM      2  C   UNL     1      45.698 131.196  16.642  1.00  0.00     0.085 C 
BRANCH   2   3
ATOM      3  N   UNL     1      45.810 130.129  15.615  1.00  0.00    -0.291 NA
ATOM      4  C   UNL     1      47.221 129.851  15.290  1.00  0.00     0.106 C 
BRANCH   3   5
ATOM      5  C   UNL     1      45.019 130.381  14.382  1.00  0.00     0.157 C 
ATOM      6  C   UNL     1      44.145 131.629  14.541  1.00  0.00     0.041 C 
BRANCH   5   7
ATOM      7  C   UNL     1      45.862 130.484  13.173  1.00  0.00     0.081 C 
ATOM      8  N   UNL     1      46.522 130.565  12.226  1.00  0.00    -0.197 NA
ENDBRANCH   5   7
ENDBRANCH   3   5
ENDBRANCH   2   3
ENDBRANCH   1   2
BRANCH   1   9
ATOM      9  C   UNL     1      44.795 131.725  18.946  1.00  0.00     0.008 C 
BRANCH   9  10
ATOM     10  C   UNL     1      43.393 131.982  19.513  1.00  0.00     0.060 C 
BRANCH  10  11
ATOM     11  C   UNL     1      42.459 132.514  18.469  1.00  0.00     0.083 A 
ATOM     12  C   UNL     1      42.362 133.818  18.038  1.00  0.00     0.140 A 
ATOM     13  N   UNL     1      41.639 131.752  17.716  1.00  0.00    -0.135 NA
ATOM     14  N   UNL     1      41.454 133.815  17.046  1.00  0.00    -0.220 N 
ATOM     15  N   UNL     1      41.046 132.570  16.857  1.00  0.00    -0.062 NA
BRANCH  14  16
ATOM     16  C   UNL     1      41.079 134.920  16.210  1.00  0.00     0.076 A 
ATOM     17  C   UNL     1      42.071 135.869  15.830  1.00  0.00     0.053 A 
ATOM     18  C   UNL     1      39.744 135.100  15.758  1.00  0.00     0.007 A 
ATOM     19  C   UNL     1      41.747 137.000  15.043  1.00  0.00     0.019 A 
ATOM     20  C   UNL     1      38.660 134.214  15.963  1.00  0.00     0.011 A 
ATOM     21  C   UNL     1      39.483 136.232  15.001  1.00  0.00    -0.020 A 
ATOM     22  C   UNL     1      40.418 137.160  14.643  1.00  0.00    -0.102 A 
ATOM     23  C   UNL     1      37.382 134.520  15.426  1.00  0.00     0.001 A 
ATOM     24  C   UNL     1      38.269 136.537  14.476  1.00  0.00     0.006 A 
ATOM     25  N   UNL     1      39.852 138.193  13.827  1.00  0.00    -0.620 NA
ATOM     26  C   UNL     1      37.175 135.697  14.671  1.00  0.00     0.011 A 
ATOM     27  C   UNL     1      38.480 137.776  13.735  1.00  0.00     0.086 C 
ATOM     28  O   UNL     1      37.599 138.403  13.092  1.00  0.00    -0.315 OA
BRANCH  19  29
ATOM     29  N   UNL     1      42.751 137.948  14.670  1.00  0.00    -0.400 N 
ATOM     30  H   UNL     1      42.850 138.262  13.679  1.00  0.00     0.156 HD
ATOM     31  H   UNL     1      43.400 138.344  15.386  1.00  0.00     0.156 HD
ENDBRANCH  19  29
ENDBRANCH  14  16
ENDBRANCH  10  11
ENDBRANCH   9  10
ENDBRANCH   1   9
TORSDOF 9
ENDMDL
MODEL 2
REMARK VINA RESULT:      -6.1      2.083      3.517
REMARK SMILES C[C@@H](C#N)N(C)CCCCc1cn(-c2cc(N)c3c4c(cccc24)C(=O)[N-]3)nn1
REMARK SMILES IDX 8 1 7 2 5 3 6 4 2 5 1 6 3 7 4 8 9 9 10 10 11 11 12 12 29 13
REMARK SMILES IDX 13 14 28 15 14 16 15 17 24 18 16 19 23 20 19 21 18 22 22 23
REMARK SMILES IDX 20 24 27 25 21 26 25 27 26 28 17 29
REMARK H PARENT 17 30 17 31
ROOT
ATOM      1  C   UNL     1      45.343 130.635  18.318  1.00  0.00     0.016 C 
ENDROOT
BRANCH   1   2
ATOM      2  C   UNL     1      44.524 131.378  19.378  1.00  0.00     0.085 C 
BRANCH   2   3
ATOM      3  N   UNL     1      45.358 132.427  20.015  1.00  0.00    -0.291 NA
ATOM      4  C   UNL     1      46.188 131.862  21.095  1.00  0.00     0.106 C 
BRANCH   3   5
ATOM      5  C   UNL     1      44.595 133.610  20.492  1.00  0.00     0.157 C 
ATOM      6  C   UNL     1      45.432 134.440  21.470  1.00  0.00     0.041 C 
BRANCH   5   7
ATOM      7  C   UNL     1      44.096 134.453  19.385  1.00  0.00     0.081 C 
ATOM      8  N   UNL     1      43.706 135.113  18.518  1.00  0.00    -0.197 NA
ENDBRANCH   5   7
ENDBRANCH   3   5
ENDBRANCH   2   3
ENDBRANCH   1   2
BRANCH   1   9
ATOM      9  C   UNL     1      45.412 131.436  17.009  1.00  0.00     0.008 C 
BRANCH   9  10
ATOM     10  C   UNL     1      44.246 131.110  16.066  1.00  0.00     0.060 C 
BRANCH  10  11
ATOM     11  C   UNL     1      43.168 132.148  16.135  1.00  0.00     0.083 A 
ATOM     12  C   UNL     1      43.102 133.316  15.409  1.00  0.00     0.140 A 
ATOM     13  N   UNL     1      42.035 132.028  16.857  1.00  0.00    -0.135 NA
ATOM     14  N   UNL     1      41.932 133.892  15.737  1.00  0.00    -0.220 N 
ATOM     15  N   UNL     1      41.301 133.100  16.591  1.00  0.00    -0.062 NA
BRANCH  14  16
ATOM     16  C   UNL     1      41.360 135.080  15.169  1.00  0.00     0.076 A 
ATOM     17  C   UNL     1      42.062 136.313  15.291  1.00  0.00     0.053 A 
ATOM     18  C   UNL     1      40.108 135.062  14.496  1.00  0.00     0.007 A 
ATOM     19  C   UNL     1      41.523 137.521  14.786  1.00  0.00     0.019 A 
ATOM     20  C   UNL     1      39.324 133.919  14.207  1.00  0.00     0.011 A 
ATOM     21  C   UNL     1      39.625 136.277  14.034  1.00  0.00    -0.020 A 
ATOM     22  C   UNL     1      40.276 137.470  14.158  1.00  0.00    -0.102 A 
ATOM     23  C   UNL     1      38.100 134.058  13.502  1.00  0.00     0.001 A 
ATOM     24  C   UNL     1      38.459 136.426  13.355  1.00  0.00     0.006 A 
ATOM     25  N   UNL     1      39.542 138.538  13.546  1.00  0.00    -0.620 NA
ATOM     26  C   UNL     1      37.654 135.327  13.067  1.00  0.00     0.011 A 
ATOM     27  C   UNL     1      38.386 137.849  13.042  1.00  0.00     0.086 C 
ATOM     28  O   UNL     1      37.454 138.413  12.412  1.00  0.00    -0.315 OA
BRANCH  19  29
ATOM     29  N   UNL     1      42.235 138.754  14.917  1.00  0.00    -0.400 N 
ATOM     30  H   UNL     1      43.103 138.813  15.494  1.00  0.00     0.156 HD
ATOM     31  H   UNL     1      41.898 139.617  14.434  1.00  0.00     0.156 HD
ENDBRANCH  19  29
ENDBRANCH  14  16
ENDBRANCH  10  11
ENDBRANCH   9  10
ENDBRANCH   1   9
TORSDOF 9
ENDMDL
MODEL 3
REMARK VINA RESULT:      -6.1      3.101      7.628
REMARK SMILES C[C@@H](C#N)N(C)CCCCc1cn(-c2cc(N)c3c4c(cccc24)C(=O)[N-]3)nn1
REMARK SMILES IDX 8 1 7 2 5 3 6 4 2 5 1 6 3 7 4 8 9 9 10 10 11 11 12 12 29 13
REMARK SMILES IDX 13 14 28 15 14 16 15 17 24 18 16 19 23 20 19 21 18 22 22 23
REMARK SMILES IDX 20 24 27 25 21 26 25 27 26 28 17 29
REMARK H PARENT 17 30 17 31
ROOT
ATOM      1  C   UNL     1      39.445 138.084  17.340  1.00  0.00     0.016 C 
ENDROOT
BRANCH   1   2
ATOM      2  C   UNL     1      38.765 136.867  16.707  1.00  0.00     0.085 C 
BRANCH   2   3
ATOM      3  N   UNL     1      39.188 136.734  15.290  1.00  0.00    -0.291 NA
ATOM      4  C   UNL     1      38.191 137.328  14.381  1.00  0.00     0.106 C 
BRANCH   3   5
ATOM      5  C   UNL     1      39.525 135.346  14.879  1.00  0.00     0.157 C 
ATOM      6  C   UNL     1      40.874 135.306  14.154  1.00  0.00     0.041 C 
BRANCH   5   7
ATOM      7  C   UNL     1      39.512 134.396  16.011  1.00  0.00     0.081 C 
ATOM      8  N   UNL     1      39.502 133.652  16.897  1.00  0.00    -0.197 NA
ENDBRANCH   5   7
ENDBRANCH   3   5
ENDBRANCH   2   3
ENDBRANCH   1   2
BRANCH   1   9
ATOM      9  C   UNL     1      40.125 137.711  18.667  1.00  0.00     0.008 C 
BRANCH   9  10
ATOM     10  C   UNL     1      41.626 137.444  18.495  1.00  0.00     0.060 C 
BRANCH  10  11
ATOM     11  C   UNL     1      41.958 135.994  18.677  1.00  0.00     0.083 A 
ATOM     12  C   UNL     1      42.785 135.233  17.882  1.00  0.00     0.140 A 
ATOM     13  N   UNL     1      41.567 135.246  19.728  1.00  0.00    -0.135 NA
ATOM     14  N   UNL     1      42.848 134.022  18.464  1.00  0.00    -0.220 N 
ATOM     15  N   UNL     1      42.128 134.054  19.574  1.00  0.00    -0.062 NA
BRANCH  14  16
ATOM     16  C   UNL     1      43.665 132.910  18.066  1.00  0.00     0.076 A 
ATOM     17  C   UNL     1      44.508 132.291  19.032  1.00  0.00     0.053 A 
ATOM     18  C   UNL     1      43.664 132.417  16.734  1.00  0.00     0.007 A 
ATOM     19  C   UNL     1      45.365 131.218  18.683  1.00  0.00     0.019 A 
ATOM     20  C   UNL     1      42.828 132.851  15.676  1.00  0.00     0.011 A 
ATOM     21  C   UNL     1      44.531 131.374  16.448  1.00  0.00    -0.020 A 
ATOM     22  C   UNL     1      45.359 130.781  17.356  1.00  0.00    -0.102 A 
ATOM     23  C   UNL     1      42.926 132.242  14.398  1.00  0.00     0.001 A 
ATOM     24  C   UNL     1      44.635 130.777  15.233  1.00  0.00     0.006 A 
ATOM     25  N   UNL     1      46.104 129.707  16.769  1.00  0.00    -0.620 NA
ATOM     26  C   UNL     1      43.841 131.190  14.165  1.00  0.00     0.011 A 
ATOM     27  C   UNL     1      45.628 129.725  15.414  1.00  0.00     0.086 C 
ATOM     28  O   UNL     1      46.019 128.927  14.523  1.00  0.00    -0.315 OA
BRANCH  19  29
ATOM     29  N   UNL     1      46.210 130.606  19.661  1.00  0.00    -0.400 N 
ATOM     30  H   UNL     1      46.252 129.567  19.756  1.00  0.00     0.156 HD
ATOM     31  H   UNL     1      46.801 131.189  20.293  1.00  0.00     0.156 HD
ENDBRANCH  19  29
ENDBRANCH  14  16
ENDBRANCH  10  11
ENDBRANCH   9  10
ENDBRANCH   1   9
TORSDOF 9
ENDMDL
MODEL 4
REMARK VINA RESULT:      -6.1      1.218      1.728
REMARK SMILES C[C@@H](C#N)N(C)CCCCc1cn(-c2cc(N)c3c4c(cccc24)C(=O)[N-]3)nn1
REMARK SMILES IDX 8 1 7 2 5 3 6 4 2 5 1 6 3 7 4 8 9 9 10 10 11 11 12 12 29 13
REMARK SMILES IDX 13 14 28 15 14 16 15 17 24 18 16 19 23 20 19 21 18 22 22 23
REMARK SMILES IDX 20 24 27 25 21 26 25 27 26 28 17 29
REMARK H PARENT 17 30 17 31
ROOT
ATOM      1  C   UNL     1      45.722 131.266  16.858  1.00  0.00     0.016 C 
ENDROOT
BRANCH   1   2
ATOM      2  C   UNL     1      45.362 130.156  15.866  1.00  0.00     0.085 C 
BRANCH   2   3
ATOM      3  N   UNL     1      45.433 130.679  14.479  1.00  0.00    -0.291 NA
ATOM      4  C   UNL     1      44.087 130.810  13.891  1.00  0.00     0.106 C 
BRANCH   3   5
ATOM      5  C   UNL     1      46.335 129.911  13.580  1.00  0.00     0.157 C 
ATOM      6  C   UNL     1      46.558 130.660  12.263  1.00  0.00     0.041 C 
BRANCH   5   7
ATOM      7  C   UNL     1      47.626 129.576  14.217  1.00  0.00     0.081 C 
ATOM      8  N   UNL     1      48.637 129.314  14.715  1.00  0.00    -0.197 NA
ENDBRANCH   5   7
ENDBRANCH   3   5
ENDBRANCH   2   3
ENDBRANCH   1   2
BRANCH   1   9
ATOM      9  C   UNL     1      44.886 131.154  18.142  1.00  0.00     0.008 C 
BRANCH   9  10
ATOM     10  C   UNL     1      43.394 131.409  17.888  1.00  0.00     0.060 C 
BRANCH  10  11
ATOM     11  C   UNL     1      43.124 132.845  17.552  1.00  0.00     0.083 A 
ATOM     12  C   UNL     1      42.378 133.316  16.495  1.00  0.00     0.140 A 
ATOM     13  N   UNL     1      43.496 133.892  18.315  1.00  0.00    -0.135 NA
ATOM     14  N   UNL     1      42.344 134.654  16.632  1.00  0.00    -0.220 N 
ATOM     15  N   UNL     1      43.003 134.978  17.734  1.00  0.00    -0.062 NA
BRANCH  14  16
ATOM     16  C   UNL     1      41.604 135.589  15.833  1.00  0.00     0.076 A 
ATOM     17  C   UNL     1      42.249 136.774  15.379  1.00  0.00     0.053 A 
ATOM     18  C   UNL     1      40.242 135.370  15.489  1.00  0.00     0.007 A 
ATOM     19  C   UNL     1      41.554 137.750  14.624  1.00  0.00     0.019 A 
ATOM     20  C   UNL     1      39.477 134.214  15.776  1.00  0.00     0.011 A 
ATOM     21  C   UNL     1      39.610 136.364  14.759  1.00  0.00    -0.020 A 
ATOM     22  C   UNL     1      40.208 137.514  14.332  1.00  0.00    -0.102 A 
ATOM     23  C   UNL     1      38.128 134.130  15.344  1.00  0.00     0.001 A 
ATOM     24  C   UNL     1      38.322 136.298  14.334  1.00  0.00     0.006 A 
ATOM     25  N   UNL     1      39.307 138.325  13.568  1.00  0.00    -0.620 NA
ATOM     26  C   UNL     1      37.534 135.184  14.613  1.00  0.00     0.011 A 
ATOM     27  C   UNL     1      38.110 137.531  13.584  1.00  0.00     0.086 C 
ATOM     28  O   UNL     1      37.039 137.866  13.015  1.00  0.00    -0.315 OA
BRANCH  19  29
ATOM     29  N   UNL     1      42.211 138.938  14.176  1.00  0.00    -0.400 N 
ATOM     30  H   UNL     1      42.907 139.426  14.783  1.00  0.00     0.156 HD
ATOM     31  H   UNL     1      42.006 139.337  13.233  1.00  0.00     0.156 HD
ENDBRANCH  19  29
ENDBRANCH  14  16
ENDBRANCH  10  11
ENDBRANCH   9  10
ENDBRANCH   1   9
TORSDOF 9
ENDMDL
MODEL 5
REMARK VINA RESULT:      -6.1      2.395      3.360
REMARK SMILES C[C@@H](C#N)N(C)CCCCc1cn(-c2cc(N)c3c4c(cccc24)C(=O)[N-]3)nn1
REMARK SMILES IDX 8 1 7 2 5 3 6 4 2 5 1 6 3 7 4 8 9 9 10 10 11 11 12 12 29 13
REMARK SMILES IDX 13 14 28 15 14 16 15 17 24 18 16 19 23 20 19 21 18 22 22 23
REMARK SMILES IDX 20 24 27 25 21 26 25 27 26 28 17 29
REMARK H PARENT 17 30 17 31
ROOT
ATOM      1  C   UNL     1      44.755 130.963  17.377  1.00  0.00     0.016 C 
ENDROOT
BRANCH   1   2
ATOM      2  C   UNL     1      45.002 130.001  16.212  1.00  0.00     0.085 C 
BRANCH   2   3
ATOM      3  N   UNL     1      46.167 130.462  15.417  1.00  0.00    -0.291 NA
ATOM      4  C   UNL     1      46.137 131.924  15.228  1.00  0.00     0.106 C 
BRANCH   3   5
ATOM      5  C   UNL     1      46.339 129.761  14.118  1.00  0.00     0.157 C 
ATOM      6  C   UNL     1      45.688 130.554  12.980  1.00  0.00     0.041 C 
BRANCH   5   7
ATOM      7  C   UNL     1      47.755 129.469  13.808  1.00  0.00     0.081 C 
ATOM      8  N   UNL     1      48.863 129.241  13.566  1.00  0.00    -0.197 NA
ENDBRANCH   5   7
ENDBRANCH   3   5
ENDBRANCH   2   3
ENDBRANCH   1   2
BRANCH   1   9
ATOM      9  C   UNL     1      45.679 130.647  18.563  1.00  0.00     0.008 C 
BRANCH   9  10
ATOM     10  C   UNL     1      45.100 131.135  19.898  1.00  0.00     0.060 C 
BRANCH  10  11
ATOM     11  C   UNL     1      43.871 131.969  19.700  1.00  0.00     0.083 A 
ATOM     12  C   UNL     1      43.198 132.175  18.516  1.00  0.00     0.140 A 
ATOM     13  N   UNL     1      43.179 132.559  20.695  1.00  0.00    -0.135 NA
ATOM     14  N   UNL     1      42.122 132.919  18.826  1.00  0.00    -0.220 N 
ATOM     15  N   UNL     1      42.118 133.124  20.134  1.00  0.00    -0.062 NA
BRANCH  14  16
ATOM     16  C   UNL     1      41.056 133.312  17.947  1.00  0.00     0.076 A 
ATOM     17  C   UNL     1      39.750 133.496  18.482  1.00  0.00     0.053 A 
ATOM     18  C   UNL     1      41.267 133.513  16.556  1.00  0.00     0.007 A 
ATOM     19  C   UNL     1      38.655 133.842  17.653  1.00  0.00     0.019 A 
ATOM     20  C   UNL     1      42.508 133.462  15.877  1.00  0.00     0.011 A 
ATOM     21  C   UNL     1      40.157 133.838  15.792  1.00  0.00    -0.020 A 
ATOM     22  C   UNL     1      38.895 134.001  16.286  1.00  0.00    -0.102 A 
ATOM     23  C   UNL     1      42.564 133.710  14.481  1.00  0.00     0.001 A 
ATOM     24  C   UNL     1      40.193 134.083  14.457  1.00  0.00     0.006 A 
ATOM     25  N   UNL     1      37.970 134.373  15.257  1.00  0.00    -0.620 NA
ATOM     26  C   UNL     1      41.394 134.025  13.753  1.00  0.00     0.011 A 
ATOM     27  C   UNL     1      38.820 134.418  14.099  1.00  0.00     0.086 C 
ATOM     28  O   UNL     1      38.417 134.716  12.945  1.00  0.00    -0.315 OA
BRANCH  19  29
ATOM     29  N   UNL     1      37.346 134.021  18.200  1.00  0.00    -0.400 N 
ATOM     30  H   UNL     1      36.648 133.245  18.183  1.00  0.00     0.156 HD
ATOM     31  H   UNL     1      37.069 134.933  18.628  1.00  0.00     0.156 HD
ENDBRANCH  19  29
ENDBRANCH  14  16
ENDBRANCH  10  11
ENDBRANCH   9  10
ENDBRANCH   1   9
TORSDOF 9
ENDMDL
MODEL 6
REMARK VINA RESULT:      -6.0      2.222      3.150
REMARK SMILES C[C@@H](C#N)N(C)CCCCc1cn(-c2cc(N)c3c4c(cccc24)C(=O)[N-]3)nn1
REMARK SMILES IDX 8 1 7 2 5 3 6 4 2 5 1 6 3 7 4 8 9 9 10 10 11 11 12 12 29 13
REMARK SMILES IDX 13 14 28 15 14 16 15 17 24 18 16 19 23 20 19 21 18 22 22 23
REMARK SMILES IDX 20 24 27 25 21 26 25 27 26 28 17 29
REMARK H PARENT 17 30 17 31
ROOT
ATOM      1  C   UNL     1      44.618 131.179  17.638  1.00  0.00     0.016 C 
ENDROOT
BRANCH   1   2
ATOM      2  C   UNL     1      45.759 130.463  16.907  1.00  0.00     0.085 C 
BRANCH   2   3
ATOM      3  N   UNL     1      45.289 129.990  15.581  1.00  0.00    -0.291 NA
ATOM      4  C   UNL     1      45.230 128.518  15.532  1.00  0.00     0.106 C 
BRANCH   3   5
ATOM      5  C   UNL     1      46.058 130.532  14.430  1.00  0.00     0.157 C 
ATOM      6  C   UNL     1      46.608 131.925  14.750  1.00  0.00     0.041 C 
BRANCH   5   7
ATOM      7  C   UNL     1      47.143 129.629  13.993  1.00  0.00     0.081 C 
ATOM      8  N   UNL     1      47.993 128.922  13.650  1.00  0.00    -0.197 NA
ENDBRANCH   5   7
ENDBRANCH   3   5
ENDBRANCH   2   3
ENDBRANCH   1   2
BRANCH   1   9
ATOM      9  C   UNL     1      44.894 131.264  19.147  1.00  0.00     0.008 C 
BRANCH   9  10
ATOM     10  C   UNL     1      44.851 132.708  19.664  1.00  0.00     0.060 C 
BRANCH  10  11
ATOM     11  C   UNL     1      43.500 133.328  19.475  1.00  0.00     0.083 A 
ATOM     12  C   UNL     1      42.761 133.353  18.313  1.00  0.00     0.140 A 
ATOM     13  N   UNL     1      42.760 133.865  20.465  1.00  0.00    -0.135 NA
ATOM     14  N   UNL     1      41.593 133.940  18.629  1.00  0.00    -0.220 N 
ATOM     15  N   UNL     1      41.604 134.223  19.922  1.00  0.00    -0.062 NA
BRANCH  14  16
ATOM     16  C   UNL     1      40.448 134.107  17.778  1.00  0.00     0.076 A 
ATOM     17  C   UNL     1      39.149 134.116  18.360  1.00  0.00     0.053 A 
ATOM     18  C   UNL     1      40.575 134.255  16.371  1.00  0.00     0.007 A 
ATOM     19  C   UNL     1      37.985 134.236  17.562  1.00  0.00     0.019 A 
ATOM     20  C   UNL     1      41.784 134.358  15.641  1.00  0.00     0.011 A 
ATOM     21  C   UNL     1      39.402 134.355  15.640  1.00  0.00    -0.020 A 
ATOM     22  C   UNL     1      38.148 134.348  16.180  1.00  0.00    -0.102 A 
ATOM     23  C   UNL     1      41.750 134.528  14.232  1.00  0.00     0.001 A 
ATOM     24  C   UNL     1      39.351 134.522  14.294  1.00  0.00     0.006 A 
ATOM     25  N   UNL     1      37.140 134.508  15.174  1.00  0.00    -0.620 NA
ATOM     26  C   UNL     1      40.520 134.611  13.541  1.00  0.00     0.011 A 
ATOM     27  C   UNL     1      37.930 134.616  13.979  1.00  0.00     0.086 C 
ATOM     28  O   UNL     1      37.444 134.777  12.830  1.00  0.00    -0.315 OA
BRANCH  19  29
ATOM     29  N   UNL     1      36.684 134.240  18.157  1.00  0.00    -0.400 N 
ATOM     30  H   UNL     1      35.962 133.542  17.871  1.00  0.00     0.156 HD
ATOM     31  H   UNL     1      36.437 134.942  18.890  1.00  0.00     0.156 HD
ENDBRANCH  19  29
ENDBRANCH  14  16
ENDBRANCH  10  11
ENDBRANCH   9  10
ENDBRANCH   1   9
TORSDOF 9
ENDMDL
MODEL 7
REMARK VINA RESULT:      -5.9      3.301      8.205
REMARK SMILES C[C@@H](C#N)N(C)CCCCc1cn(-c2cc(N)c3c4c(cccc24)C(=O)[N-]3)nn1
REMARK SMILES IDX 8 1 7 2 5 3 6 4 2 5 1 6 3 7 4 8 9 9 10 10 11 11 12 12 29 13
REMARK SMILES IDX 13 14 28 15 14 16 15 17 24 18 16 19 23 20 19 21 18 22 22 23
REMARK SMILES IDX 20 24 27 25 21 26 25 27 26 28 17 29
REMARK H PARENT 17 30 17 31
ROOT
ATOM      1  C   UNL     1      39.665 138.788  15.254  1.00  0.00     0.016 C 
ENDROOT
BRANCH   1   2
ATOM      2  C   UNL     1      40.169 139.023  16.681  1.00  0.00     0.085 C 
BRANCH   2   3
ATOM      3  N   UNL     1      39.775 137.885  17.548  1.00  0.00    -0.291 NA
ATOM      4  C   UNL     1      40.853 136.882  17.630  1.00  0.00     0.106 C 
BRANCH   3   5
ATOM      5  C   UNL     1      38.483 137.251  17.177  1.00  0.00     0.157 C 
ATOM      6  C   UNL     1      38.488 135.760  17.526  1.00  0.00     0.041 C 
BRANCH   5   7
ATOM      7  C   UNL     1      37.319 137.927  17.788  1.00  0.00     0.081 C 
ATOM      8  N   UNL     1      36.408 138.455  18.267  1.00  0.00    -0.197 NA
ENDBRANCH   5   7
ENDBRANCH   3   5
ENDBRANCH   2   3
ENDBRANCH   1   2
BRANCH   1   9
ATOM      9  C   UNL     1      40.560 137.786  14.508  1.00  0.00     0.008 C 
BRANCH   9  10
ATOM     10  C   UNL     1      39.744 136.729  13.752  1.00  0.00     0.060 C 
BRANCH  10  11
ATOM     11  C   UNL     1      40.276 135.347  13.980  1.00  0.00     0.083 A 
ATOM     12  C   UNL     1      41.524 135.013  14.456  1.00  0.00     0.140 A 
ATOM     13  N   UNL     1      39.551 134.218  13.849  1.00  0.00    -0.135 NA
ATOM     14  N   UNL     1      41.531 133.673  14.572  1.00  0.00    -0.220 N 
ATOM     15  N   UNL     1      40.339 133.217  14.220  1.00  0.00    -0.062 NA
BRANCH  14  16
ATOM     16  C   UNL     1      42.575 132.856  15.122  1.00  0.00     0.076 A 
ATOM     17  C   UNL     1      43.365 132.059  14.246  1.00  0.00     0.053 A 
ATOM     18  C   UNL     1      42.836 132.811  16.518  1.00  0.00     0.007 A 
ATOM     19  C   UNL     1      44.380 131.203  14.739  1.00  0.00     0.019 A 
ATOM     20  C   UNL     1      42.213 133.598  17.516  1.00  0.00     0.011 A 
ATOM     21  C   UNL     1      43.832 131.946  16.945  1.00  0.00    -0.020 A 
ATOM     22  C   UNL     1      44.586 131.163  16.120  1.00  0.00    -0.102 A 
ATOM     23  C   UNL     1      42.599 133.458  18.875  1.00  0.00     0.001 A 
ATOM     24  C   UNL     1      44.216 131.802  18.239  1.00  0.00     0.006 A 
ATOM     25  N   UNL     1      45.559 130.408  16.854  1.00  0.00    -0.620 NA
ATOM     26  C   UNL     1      43.614 132.548  19.250  1.00  0.00     0.011 A 
ATOM     27  C   UNL     1      45.304 130.831  18.203  1.00  0.00     0.086 C 
ATOM     28  O   UNL     1      45.946 130.415  19.201  1.00  0.00    -0.315 OA
BRANCH  19  29
ATOM     29  N   UNL     1      45.165 130.405  13.850  1.00  0.00    -0.400 N 
ATOM     30  H   UNL     1      45.683 129.568  14.198  1.00  0.00     0.156 HD
ATOM     31  H   UNL     1      45.231 130.647  12.836  1.00  0.00     0.156 HD
ENDBRANCH  19  29
ENDBRANCH  14  16
ENDBRANCH  10  11
ENDBRANCH   9  10
ENDBRANCH   1   9
TORSDOF 9
ENDMDL
MODEL 8
REMARK VINA RESULT:      -5.8      4.366      7.518
REMARK SMILES C[C@@H](C#N)N(C)CCCCc1cn(-c2cc(N)c3c4c(cccc24)C(=O)[N-]3)nn1
REMARK SMILES IDX 8 1 7 2 5 3 6 4 2 5 1 6 3 7 4 8 9 9 10 10 11 11 12 12 29 13
REMARK SMILES IDX 13 14 28 15 14 16 15 17 24 18 16 19 23 20 19 21 18 22 22 23
REMARK SMILES IDX 20 24 27 25 21 26 25 27 26 28 17 29
REMARK H PARENT 17 30 17 31
ROOT
ATOM      1  C   UNL     1      43.063 138.512  20.308  1.00  0.00     0.016 C 
ENDROOT
BRANCH   1   2
ATOM      2  C   UNL     1      44.452 138.881  20.838  1.00  0.00     0.085 C 
BRANCH   2   3
ATOM      3  N   UNL     1      45.439 138.846  19.731  1.00  0.00    -0.291 NA
ATOM      4  C   UNL     1      44.877 138.185  18.539  1.00  0.00     0.106 C 
BRANCH   3   5
ATOM      5  C   UNL     1      46.752 138.254  20.100  1.00  0.00     0.157 C 
ATOM      6  C   UNL     1      46.596 136.777  20.477  1.00  0.00     0.041 C 
BRANCH   5   7
ATOM      7  C   UNL     1      47.770 138.418  19.041  1.00  0.00     0.081 C 
ATOM      8  N   UNL     1      48.568 138.547  18.212  1.00  0.00    -0.197 NA
ENDBRANCH   5   7
ENDBRANCH   3   5
ENDBRANCH   2   3
ENDBRANCH   1   2
BRANCH   1   9
ATOM      9  C   UNL     1      42.258 137.730  21.357  1.00  0.00     0.008 C 
BRANCH   9  10
ATOM     10  C   UNL     1      42.761 136.289  21.520  1.00  0.00     0.060 C 
BRANCH  10  11
ATOM     11  C   UNL     1      42.376 135.430  20.353  1.00  0.00     0.083 A 
ATOM     12  C   UNL     1      43.208 134.978  19.354  1.00  0.00     0.140 A 
ATOM     13  N   UNL     1      41.156 134.884  20.176  1.00  0.00    -0.135 NA
ATOM     14  N   UNL     1      42.453 134.185  18.573  1.00  0.00    -0.220 N 
ATOM     15  N   UNL     1      41.235 134.128  19.089  1.00  0.00    -0.062 NA
BRANCH  14  16
ATOM     16  C   UNL     1      42.891 133.397  17.455  1.00  0.00     0.076 A 
ATOM     17  C   UNL     1      42.341 133.657  16.168  1.00  0.00     0.053 A 
ATOM     18  C   UNL     1      43.851 132.360  17.599  1.00  0.00     0.007 A 
ATOM     19  C   UNL     1      42.706 132.882  15.040  1.00  0.00     0.019 A 
ATOM     20  C   UNL     1      44.562 132.028  18.778  1.00  0.00     0.011 A 
ATOM     21  C   UNL     1      44.161 131.627  16.463  1.00  0.00    -0.020 A 
ATOM     22  C   UNL     1      43.630 131.851  15.226  1.00  0.00    -0.102 A 
ATOM     23  C   UNL     1      45.514 130.975  18.760  1.00  0.00     0.001 A 
ATOM     24  C   UNL     1      45.071 130.621  16.428  1.00  0.00     0.006 A 
ATOM     25  N   UNL     1      44.175 130.956  14.248  1.00  0.00    -0.620 NA
ATOM     26  C   UNL     1      45.777 130.256  17.572  1.00  0.00     0.011 A 
ATOM     27  C   UNL     1      45.091 130.180  15.038  1.00  0.00     0.086 C 
ATOM     28  O   UNL     1      45.809 129.257  14.573  1.00  0.00    -0.315 OA
BRANCH  19  29
ATOM     29  N   UNL     1      42.145 133.149  13.752  1.00  0.00    -0.400 N 
ATOM     30  H   UNL     1      42.007 132.381  13.058  1.00  0.00     0.156 HD
ATOM     31  H   UNL     1      41.861 134.118  13.486  1.00  0.00     0.156 HD
ENDBRANCH  19  29
ENDBRANCH  14  16
ENDBRANCH  10  11
ENDBRANCH   9  10
ENDBRANCH   1   9
TORSDOF 9
ENDMDL
MODEL 9
REMARK VINA RESULT:      -5.8      1.777      2.399
REMARK SMILES C[C@@H](C#N)N(C)CCCCc1cn(-c2cc(N)c3c4c(cccc24)C(=O)[N-]3)nn1
REMARK SMILES IDX 8 1 7 2 5 3 6 4 2 5 1 6 3 7 4 8 9 9 10 10 11 11 12 12 29 13
REMARK SMILES IDX 13 14 28 15 14 16 15 17 24 18 16 19 23 20 19 21 18 22 22 23
REMARK SMILES IDX 20 24 27 25 21 26 25 27 26 28 17 29
REMARK H PARENT 17 30 17 31
ROOT
ATOM      1  C   UNL     1      45.111 131.048  16.740  1.00  0.00     0.016 C 
ENDROOT
BRANCH   1   2
ATOM      2  C   UNL     1      46.277 131.205  15.759  1.00  0.00     0.085 C 
BRANCH   2   3
ATOM      3  N   UNL     1      45.761 131.262  14.368  1.00  0.00    -0.291 NA
ATOM      4  C   UNL     1      44.402 130.697  14.283  1.00  0.00     0.106 C 
BRANCH   3   5
ATOM      5  C   UNL     1      46.659 130.645  13.356  1.00  0.00     0.157 C 
ATOM      6  C   UNL     1      47.787 131.607  12.972  1.00  0.00     0.041 C 
BRANCH   5   7
ATOM      7  C   UNL     1      47.207 129.345  13.795  1.00  0.00     0.081 C 
ATOM      8  N   UNL     1      47.637 128.327  14.139  1.00  0.00    -0.197 NA
ENDBRANCH   5   7
ENDBRANCH   3   5
ENDBRANCH   2   3
ENDBRANCH   1   2
BRANCH   1   9
ATOM      9  C   UNL     1      45.599 130.537  18.104  1.00  0.00     0.008 C 
BRANCH   9  10
ATOM     10  C   UNL     1      45.201 131.474  19.252  1.00  0.00     0.060 C 
BRANCH  10  11
ATOM     11  C   UNL     1      43.931 132.212  18.953  1.00  0.00     0.083 A 
ATOM     12  C   UNL     1      43.817 133.451  18.364  1.00  0.00     0.140 A 
ATOM     13  N   UNL     1      42.693 131.706  19.127  1.00  0.00    -0.135 NA
ATOM     14  N   UNL     1      42.499 133.677  18.224  1.00  0.00    -0.220 N 
ATOM     15  N   UNL     1      41.844 132.616  18.671  1.00  0.00    -0.062 NA
BRANCH  14  16
ATOM     16  C   UNL     1      41.874 134.792  17.570  1.00  0.00     0.076 A 
ATOM     17  C   UNL     1      41.654 135.991  18.305  1.00  0.00     0.053 A 
ATOM     18  C   UNL     1      41.462 134.730  16.211  1.00  0.00     0.007 A 
ATOM     19  C   UNL     1      41.004 137.105  17.721  1.00  0.00     0.019 A 
ATOM     20  C   UNL     1      41.682 133.658  15.313  1.00  0.00     0.011 A 
ATOM     21  C   UNL     1      40.820 135.846  15.697  1.00  0.00    -0.020 A 
ATOM     22  C   UNL     1      40.584 136.996  16.393  1.00  0.00    -0.102 A 
ATOM     23  C   UNL     1      41.230 133.753  13.971  1.00  0.00     0.001 A 
ATOM     24  C   UNL     1      40.385 135.954  14.416  1.00  0.00     0.006 A 
ATOM     25  N   UNL     1      39.939 137.983  15.579  1.00  0.00    -0.620 NA
ATOM     26  C   UNL     1      40.570 134.914  13.508  1.00  0.00     0.011 A 
ATOM     27  C   UNL     1      39.820 137.296  14.323  1.00  0.00     0.086 C 
ATOM     28  O   UNL     1      39.304 137.803  13.293  1.00  0.00    -0.315 OA
BRANCH  19  29
ATOM     29  N   UNL     1      40.784 138.303  18.470  1.00  0.00    -0.400 N 
ATOM     30  H   UNL     1      40.255 139.103  18.058  1.00  0.00     0.156 HD
ATOM     31  H   UNL     1      41.149 138.396  19.445  1.00  0.00     0.156 HD
ENDBRANCH  19  29
ENDBRANCH  14  16
ENDBRANCH  10  11
ENDBRANCH   9  10
ENDBRANCH   1   9
TORSDOF 9
ENDMDL


