MODEL 1
REMARK VINA RESULT:      -8.1      0.000      0.000
REMARK SMILES CCc1n[nH+]n(CC2(C#N)CCCC2)c1C[N+](C)(C)Cc1cccc2ccccc12
REMARK SMILES IDX 3 1 4 2 5 3 6 4 15 5 2 7 1 8 16 9 17 10 18 11 19 12 20 13
REMARK SMILES IDX 21 14 22 15 30 16 23 17 29 18 25 19 24 20 28 21 26 22 27 23
REMARK SMILES IDX 7 24 8 25 11 26 14 27 12 28 13 29 9 30 10 31
REMARK H PARENT 5 6
ROOT
ATOM      1  C   UNL     1      44.288 131.559  19.162  1.00  0.00     0.141 A 
ATOM      2  N   UNL     1      45.487 131.011  18.880  1.00  0.00     0.020 NA
ATOM      3  N   UNL     1      45.550 130.897  17.564  1.00  0.00    -0.017 N 
ATOM      4  N   UNL     1      44.464 131.379  16.978  1.00  0.00    -0.126 N 
ATOM      5  C   UNL     1      43.618 131.774  17.962  1.00  0.00     0.160 A 
ATOM      6  H   UNL     1      46.375 130.504  17.058  1.00  0.00     0.526 HD
ENDROOT
BRANCH   1   7
ATOM      7  C   UNL     1      43.932 132.072  20.525  1.00  0.00     0.062 C 
ATOM      8  C   UNL     1      43.956 130.938  21.543  1.00  0.00     0.011 C 
ENDBRANCH   1   7
BRANCH   5   9
ATOM      9  C   UNL     1      42.232 132.372  17.772  1.00  0.00     0.327 C 
BRANCH   9  10
ATOM     10  N   UNL     1      42.201 133.806  17.330  1.00  0.00    -0.319 N 
ATOM     11  C   UNL     1      43.481 134.473  17.683  1.00  0.00     0.334 C 
ATOM     12  C   UNL     1      41.105 134.561  17.990  1.00  0.00     0.334 C 
BRANCH  10  13
ATOM     13  C   UNL     1      42.060 133.883  15.836  1.00  0.00     0.301 C 
BRANCH  13  14
ATOM     14  C   UNL     1      41.414 135.168  15.307  1.00  0.00     0.014 A 
ATOM     15  C   UNL     1      42.211 136.328  15.269  1.00  0.00     0.010 A 
ATOM     16  C   UNL     1      40.062 135.250  14.851  1.00  0.00    -0.010 A 
ATOM     17  C   UNL     1      41.688 137.552  14.858  1.00  0.00     0.001 A 
ATOM     18  C   UNL     1      39.206 134.126  14.780  1.00  0.00     0.009 A 
ATOM     19  C   UNL     1      39.540 136.513  14.449  1.00  0.00    -0.018 A 
ATOM     20  C   UNL     1      40.359 137.649  14.460  1.00  0.00     0.009 A 
ATOM     21  C   UNL     1      37.877 134.261  14.368  1.00  0.00     0.001 A 
ATOM     22  C   UNL     1      38.202 136.629  14.035  1.00  0.00     0.009 A 
ATOM     23  C   UNL     1      37.376 135.508  14.002  1.00  0.00     0.001 A 
ENDBRANCH  13  14
ENDBRANCH  10  13
ENDBRANCH   9  10
ENDBRANCH   5   9
BRANCH   4  24
ATOM     24  C   UNL     1      44.350 131.580  15.524  1.00  0.00     0.214 C 
BRANCH  24  25
ATOM     25  C   UNL     1      45.360 130.709  14.724  1.00  0.00     0.081 C 
ATOM     26  C   UNL     1      45.067 130.755  13.219  1.00  0.00     0.024 C 
ATOM     27  C   UNL     1      46.802 131.220  14.817  1.00  0.00     0.024 C 
ATOM     28  C   UNL     1      46.398 130.480  12.521  1.00  0.00     0.002 C 
ATOM     29  C   UNL     1      47.498 130.735  13.552  1.00  0.00     0.002 C 
BRANCH  25  30
ATOM     30  C   UNL     1      45.301 129.302  15.182  1.00  0.00     0.071 C 
ATOM     31  N   UNL     1      45.260 128.202  15.543  1.00  0.00    -0.198 NA
ENDBRANCH  25  30
ENDBRANCH  24  25
ENDBRANCH   4  24
TORSDOF 8
ENDMDL
MODEL 2
REMARK VINA RESULT:      -8.1      1.568      2.375
REMARK SMILES CCc1n[nH+]n(CC2(C#N)CCCC2)c1C[N+](C)(C)Cc1cccc2ccccc12
REMARK SMILES IDX 3 1 4 2 5 3 6 4 15 5 2 7 1 8 16 9 17 10 18 11 19 12 20 13
REMARK SMILES IDX 21 14 22 15 30 16 23 17 29 18 25 19 24 20 28 21 26 22 27 23
REMARK SMILES IDX 7 24 8 25 11 26 14 27 12 28 13 29 9 30 10 31
REMARK H PARENT 5 6
ROOT
ATOM      1  C   UNL     1      44.053 132.175  18.629  1.00  0.00     0.141 A 
ATOM      2  N   UNL     1      44.611 130.950  18.551  1.00  0.00     0.020 NA
ATOM      3  N   UNL     1      45.260 130.905  17.399  1.00  0.00    -0.017 N 
ATOM      4  N   UNL     1      45.181 132.055  16.746  1.00  0.00    -0.126 N 
ATOM      5  C   UNL     1      44.387 132.878  17.476  1.00  0.00     0.160 A 
ATOM      6  H   UNL     1      45.796 130.070  17.071  1.00  0.00     0.526 HD
ENDROOT
BRANCH   1   7
ATOM      7  C   UNL     1      43.436 132.705  19.890  1.00  0.00     0.062 C 
ATOM      8  C   UNL     1      44.473 133.466  20.708  1.00  0.00     0.011 C 
ENDBRANCH   1   7
BRANCH   5   9
ATOM      9  C   UNL     1      43.987 134.300  17.112  1.00  0.00     0.327 C 
BRANCH   9  10
ATOM     10  N   UNL     1      42.808 134.425  16.192  1.00  0.00    -0.319 N 
ATOM     11  C   UNL     1      43.240 134.229  14.785  1.00  0.00     0.334 C 
ATOM     12  C   UNL     1      42.178 135.767  16.285  1.00  0.00     0.334 C 
BRANCH  10  13
ATOM     13  C   UNL     1      41.800 133.354  16.498  1.00  0.00     0.301 C 
BRANCH  13  14
ATOM     14  C   UNL     1      40.382 133.857  16.789  1.00  0.00     0.014 A 
ATOM     15  C   UNL     1      40.043 134.103  18.134  1.00  0.00     0.010 A 
ATOM     16  C   UNL     1      39.397 134.093  15.781  1.00  0.00    -0.010 A 
ATOM     17  C   UNL     1      38.760 134.506  18.495  1.00  0.00     0.001 A 
ATOM     18  C   UNL     1      39.663 133.947  14.399  1.00  0.00     0.009 A 
ATOM     19  C   UNL     1      38.085 134.489  16.169  1.00  0.00    -0.018 A 
ATOM     20  C   UNL     1      37.782 134.689  17.522  1.00  0.00     0.009 A 
ATOM     21  C   UNL     1      38.657 134.145  13.449  1.00  0.00     0.001 A 
ATOM     22  C   UNL     1      37.087 134.687  15.200  1.00  0.00     0.009 A 
ATOM     23  C   UNL     1      37.374 134.509  13.849  1.00  0.00     0.001 A 
ENDBRANCH  13  14
ENDBRANCH  10  13
ENDBRANCH   9  10
ENDBRANCH   5   9
BRANCH   4  24
ATOM     24  C   UNL     1      45.979 132.363  15.548  1.00  0.00     0.214 C 
BRANCH  24  25
ATOM     25  C   UNL     1      46.107 131.144  14.591  1.00  0.00     0.081 C 
ATOM     26  C   UNL     1      47.125 131.415  13.476  1.00  0.00     0.024 C 
ATOM     27  C   UNL     1      46.663 129.893  15.279  1.00  0.00     0.024 C 
ATOM     28  C   UNL     1      47.657 130.047  13.050  1.00  0.00     0.002 C 
ATOM     29  C   UNL     1      47.325 129.072  14.180  1.00  0.00     0.002 C 
BRANCH  25  30
ATOM     30  C   UNL     1      44.795 130.833  13.978  1.00  0.00     0.071 C 
ATOM     31  N   UNL     1      43.772 130.584  13.496  1.00  0.00    -0.198 NA
ENDBRANCH  25  30
ENDBRANCH  24  25
ENDBRANCH   4  24
TORSDOF 8
ENDMDL
MODEL 3
REMARK VINA RESULT:      -7.9      1.399      1.716
REMARK SMILES CCc1n[nH+]n(CC2(C#N)CCCC2)c1C[N+](C)(C)Cc1cccc2ccccc12
REMARK SMILES IDX 3 1 4 2 5 3 6 4 15 5 2 7 1 8 16 9 17 10 18 11 19 12 20 13
REMARK SMILES IDX 21 14 22 15 30 16 23 17 29 18 25 19 24 20 28 21 26 22 27 23
REMARK SMILES IDX 7 24 8 25 11 26 14 27 12 28 13 29 9 30 10 31
REMARK H PARENT 5 6
ROOT
ATOM      1  C   UNL     1      43.532 131.945  18.138  1.00  0.00     0.141 A 
ATOM      2  N   UNL     1      44.599 131.320  18.675  1.00  0.00     0.020 NA
ATOM      3  N   UNL     1      45.538 131.309  17.744  1.00  0.00    -0.017 N 
ATOM      4  N   UNL     1      45.143 131.931  16.643  1.00  0.00    -0.126 N 
ATOM      5  C   UNL     1      43.857 132.316  16.838  1.00  0.00     0.160 A 
ATOM      6  H   UNL     1      46.484 130.889  17.883  1.00  0.00     0.526 HD
ENDROOT
BRANCH   1   7
ATOM      7  C   UNL     1      42.349 132.374  18.955  1.00  0.00     0.062 C 
ATOM      8  C   UNL     1      41.074 131.731  18.422  1.00  0.00     0.011 C 
ENDBRANCH   1   7
BRANCH   5   9
ATOM      9  C   UNL     1      42.973 133.047  15.838  1.00  0.00     0.327 C 
BRANCH   9  10
ATOM     10  N   UNL     1      42.956 134.542  15.962  1.00  0.00    -0.319 N 
ATOM     11  C   UNL     1      44.305 135.036  16.339  1.00  0.00     0.334 C 
ATOM     12  C   UNL     1      42.004 134.996  17.009  1.00  0.00     0.334 C 
BRANCH  10  13
ATOM     13  C   UNL     1      42.611 135.166  14.639  1.00  0.00     0.301 C 
BRANCH  13  14
ATOM     14  C   UNL     1      41.362 136.054  14.642  1.00  0.00     0.014 A 
ATOM     15  C   UNL     1      41.545 137.432  14.860  1.00  0.00     0.010 A 
ATOM     16  C   UNL     1      40.035 135.564  14.434  1.00  0.00    -0.010 A 
ATOM     17  C   UNL     1      40.461 138.304  14.938  1.00  0.00     0.001 A 
ATOM     18  C   UNL     1      39.755 134.210  14.133  1.00  0.00     0.009 A 
ATOM     19  C   UNL     1      38.937 136.467  14.532  1.00  0.00    -0.018 A 
ATOM     20  C   UNL     1      39.164 137.825  14.785  1.00  0.00     0.009 A 
ATOM     21  C   UNL     1      38.438 133.767  13.980  1.00  0.00     0.001 A 
ATOM     22  C   UNL     1      37.621 136.003  14.372  1.00  0.00     0.009 A 
ATOM     23  C   UNL     1      37.376 134.658  14.103  1.00  0.00     0.001 A 
ENDBRANCH  13  14
ENDBRANCH  10  13
ENDBRANCH   9  10
ENDBRANCH   5   9
BRANCH   4  24
ATOM     24  C   UNL     1      46.048 132.260  15.529  1.00  0.00     0.214 C 
BRANCH  24  25
ATOM     25  C   UNL     1      46.214 131.078  14.532  1.00  0.00     0.081 C 
ATOM     26  C   UNL     1      47.248 131.405  13.447  1.00  0.00     0.024 C 
ATOM     27  C   UNL     1      46.780 129.813  15.186  1.00  0.00     0.024 C 
ATOM     28  C   UNL     1      47.813 130.063  12.984  1.00  0.00     0.002 C 
ATOM     29  C   UNL     1      47.476 129.043  14.071  1.00  0.00     0.002 C 
BRANCH  25  30
ATOM     30  C   UNL     1      44.920 130.767  13.883  1.00  0.00     0.071 C 
ATOM     31  N   UNL     1      43.905 130.523  13.382  1.00  0.00    -0.198 NA
ENDBRANCH  25  30
ENDBRANCH  24  25
ENDBRANCH   4  24
TORSDOF 8
ENDMDL
MODEL 4
REMARK VINA RESULT:      -7.8      2.359      7.480
REMARK SMILES CCc1n[nH+]n(CC2(C#N)CCCC2)c1C[N+](C)(C)Cc1cccc2ccccc12
REMARK SMILES IDX 3 1 4 2 5 3 6 4 15 5 2 7 1 8 16 9 17 10 18 11 19 12 20 13
REMARK SMILES IDX 21 14 22 15 30 16 23 17 29 18 25 19 24 20 28 21 26 22 27 23
REMARK SMILES IDX 7 24 8 25 11 26 14 27 12 28 13 29 9 30 10 31
REMARK H PARENT 5 6
ROOT
ATOM      1  C   UNL     1      42.205 133.969  18.791  1.00  0.00     0.141 A 
ATOM      2  N   UNL     1      41.968 135.105  19.478  1.00  0.00     0.020 NA
ATOM      3  N   UNL     1      41.401 135.947  18.629  1.00  0.00    -0.017 N 
ATOM      4  N   UNL     1      41.225 135.396  17.437  1.00  0.00    -0.126 N 
ATOM      5  C   UNL     1      41.759 134.150  17.486  1.00  0.00     0.160 A 
ATOM      6  H   UNL     1      41.101 136.913  18.889  1.00  0.00     0.526 HD
ENDROOT
BRANCH   1   7
ATOM      7  C   UNL     1      42.617 132.690  19.459  1.00  0.00     0.062 C 
ATOM      8  C   UNL     1      44.026 132.818  20.027  1.00  0.00     0.011 C 
ENDBRANCH   1   7
BRANCH   5   9
ATOM      9  C   UNL     1      41.814 133.148  16.343  1.00  0.00     0.327 C 
BRANCH   9  10
ATOM     10  N   UNL     1      42.929 133.349  15.359  1.00  0.00    -0.319 N 
ATOM     11  C   UNL     1      44.148 133.821  16.064  1.00  0.00     0.334 C 
ATOM     12  C   UNL     1      42.581 134.366  14.335  1.00  0.00     0.334 C 
BRANCH  10  13
ATOM     13  C   UNL     1      43.278 132.044  14.701  1.00  0.00     0.301 C 
BRANCH  13  14
ATOM     14  C   UNL     1      44.473 131.304  15.310  1.00  0.00     0.014 A 
ATOM     15  C   UNL     1      44.473 131.107  16.705  1.00  0.00     0.010 A 
ATOM     16  C   UNL     1      45.574 130.804  14.548  1.00  0.00    -0.010 A 
ATOM     17  C   UNL     1      45.546 130.497  17.350  1.00  0.00     0.001 A 
ATOM     18  C   UNL     1      45.631 130.886  13.137  1.00  0.00     0.009 A 
ATOM     19  C   UNL     1      46.670 130.197  15.226  1.00  0.00    -0.018 A 
ATOM     20  C   UNL     1      46.643 130.053  16.619  1.00  0.00     0.009 A 
ATOM     21  C   UNL     1      46.748 130.423  12.436  1.00  0.00     0.001 A 
ATOM     22  C   UNL     1      47.783 129.734  14.504  1.00  0.00     0.009 A 
ATOM     23  C   UNL     1      47.821 129.854  13.117  1.00  0.00     0.001 A 
ENDBRANCH  13  14
ENDBRANCH  10  13
ENDBRANCH   9  10
ENDBRANCH   5   9
BRANCH   4  24
ATOM     24  C   UNL     1      40.428 136.019  16.367  1.00  0.00     0.214 C 
BRANCH  24  25
ATOM     25  C   UNL     1      40.871 137.481  16.073  1.00  0.00     0.081 C 
ATOM     26  C   UNL     1      42.369 137.556  15.751  1.00  0.00     0.024 C 
ATOM     27  C   UNL     1      40.213 138.069  14.820  1.00  0.00     0.024 C 
ATOM     28  C   UNL     1      42.550 138.789  14.868  1.00  0.00     0.002 C 
ATOM     29  C   UNL     1      41.170 139.140  14.310  1.00  0.00     0.002 C 
BRANCH  25  30
ATOM     30  C   UNL     1      40.586 138.349  17.239  1.00  0.00     0.071 C 
ATOM     31  N   UNL     1      40.362 139.022  18.154  1.00  0.00    -0.198 NA
ENDBRANCH  25  30
ENDBRANCH  24  25
ENDBRANCH   4  24
TORSDOF 8
ENDMDL
MODEL 5
REMARK VINA RESULT:      -7.8      2.255      4.206
REMARK SMILES CCc1n[nH+]n(CC2(C#N)CCCC2)c1C[N+](C)(C)Cc1cccc2ccccc12
REMARK SMILES IDX 3 1 4 2 5 3 6 4 15 5 2 7 1 8 16 9 17 10 18 11 19 12 20 13
REMARK SMILES IDX 21 14 22 15 30 16 23 17 29 18 25 19 24 20 28 21 26 22 27 23
REMARK SMILES IDX 7 24 8 25 11 26 14 27 12 28 13 29 9 30 10 31
REMARK H PARENT 5 6
ROOT
ATOM      1  C   UNL     1      45.075 131.926  19.173  1.00  0.00     0.141 A 
ATOM      2  N   UNL     1      45.577 130.700  18.922  1.00  0.00     0.020 NA
ATOM      3  N   UNL     1      45.249 130.408  17.674  1.00  0.00    -0.017 N 
ATOM      4  N   UNL     1      44.592 131.402  17.094  1.00  0.00    -0.126 N 
ATOM      5  C   UNL     1      44.426 132.372  18.027  1.00  0.00     0.160 A 
ATOM      6  H   UNL     1      45.512 129.513  17.203  1.00  0.00     0.526 HD
ENDROOT
BRANCH   1   7
ATOM      7  C   UNL     1      45.439 132.713  20.397  1.00  0.00     0.062 C 
ATOM      8  C   UNL     1      45.315 131.845  21.644  1.00  0.00     0.011 C 
ENDBRANCH   1   7
BRANCH   5   9
ATOM      9  C   UNL     1      43.705 133.698  17.830  1.00  0.00     0.327 C 
BRANCH   9  10
ATOM     10  N   UNL     1      42.248 133.702  18.189  1.00  0.00    -0.319 N 
ATOM     11  C   UNL     1      41.931 132.521  19.033  1.00  0.00     0.334 C 
ATOM     12  C   UNL     1      41.385 133.635  16.983  1.00  0.00     0.334 C 
BRANCH  10  13
ATOM     13  C   UNL     1      41.920 134.925  18.999  1.00  0.00     0.301 C 
BRANCH  13  14
ATOM     14  C   UNL     1      42.623 136.211  18.551  1.00  0.00     0.014 A 
ATOM     15  C   UNL     1      42.002 136.973  17.544  1.00  0.00     0.010 A 
ATOM     16  C   UNL     1      43.859 136.676  19.099  1.00  0.00    -0.010 A 
ATOM     17  C   UNL     1      42.599 138.125  17.036  1.00  0.00     0.001 A 
ATOM     18  C   UNL     1      44.521 136.021  20.164  1.00  0.00     0.009 A 
ATOM     19  C   UNL     1      44.463 137.846  18.556  1.00  0.00    -0.018 A 
ATOM     20  C   UNL     1      43.827 138.555  17.530  1.00  0.00     0.009 A 
ATOM     21  C   UNL     1      45.750 136.486  20.639  1.00  0.00     0.001 A 
ATOM     22  C   UNL     1      45.698 138.301  19.049  1.00  0.00     0.009 A 
ATOM     23  C   UNL     1      46.338 137.618  20.081  1.00  0.00     0.001 A 
ENDBRANCH  13  14
ENDBRANCH  10  13
ENDBRANCH   9  10
ENDBRANCH   5   9
BRANCH   4  24
ATOM     24  C   UNL     1      44.293 131.443  15.653  1.00  0.00     0.214 C 
BRANCH  24  25
ATOM     25  C   UNL     1      45.318 130.632  14.811  1.00  0.00     0.081 C 
ATOM     26  C   UNL     1      45.050 130.784  13.308  1.00  0.00     0.024 C 
ATOM     27  C   UNL     1      46.757 131.138  14.964  1.00  0.00     0.024 C 
ATOM     28  C   UNL     1      46.393 130.561  12.615  1.00  0.00     0.002 C 
ATOM     29  C   UNL     1      47.475 130.744  13.679  1.00  0.00     0.002 C 
BRANCH  25  30
ATOM     30  C   UNL     1      45.255 129.196  15.167  1.00  0.00     0.071 C 
ATOM     31  N   UNL     1      45.209 128.072  15.442  1.00  0.00    -0.198 NA
ENDBRANCH  25  30
ENDBRANCH  24  25
ENDBRANCH   4  24
TORSDOF 8
ENDMDL
MODEL 6
REMARK VINA RESULT:      -7.7      1.870      2.651
REMARK SMILES CCc1n[nH+]n(CC2(C#N)CCCC2)c1C[N+](C)(C)Cc1cccc2ccccc12
REMARK SMILES IDX 3 1 4 2 5 3 6 4 15 5 2 7 1 8 16 9 17 10 18 11 19 12 20 13
REMARK SMILES IDX 21 14 22 15 30 16 23 17 29 18 25 19 24 20 28 21 26 22 27 23
REMARK SMILES IDX 7 24 8 25 11 26 14 27 12 28 13 29 9 30 10 31
REMARK H PARENT 5 6
ROOT
ATOM      1  C   UNL     1      44.831 131.034  19.663  1.00  0.00     0.141 A 
ATOM      2  N   UNL     1      46.015 130.587  19.198  1.00  0.00     0.020 NA
ATOM      3  N   UNL     1      45.956 130.666  17.879  1.00  0.00    -0.017 N 
ATOM      4  N   UNL     1      44.805 131.179  17.470  1.00  0.00    -0.126 N 
ATOM      5  C   UNL     1      44.044 131.390  18.572  1.00  0.00     0.160 A 
ATOM      6  H   UNL     1      46.741 130.388  17.249  1.00  0.00     0.526 HD
ENDROOT
BRANCH   1   7
ATOM      7  C   UNL     1      44.590 131.330  21.114  1.00  0.00     0.062 C 
ATOM      8  C   UNL     1      45.623 132.325  21.631  1.00  0.00     0.011 C 
ENDBRANCH   1   7
BRANCH   5   9
ATOM      9  C   UNL     1      42.628 131.946  18.597  1.00  0.00     0.327 C 
BRANCH   9  10
ATOM     10  N   UNL     1      42.502 133.374  19.044  1.00  0.00    -0.319 N 
ATOM     11  C   UNL     1      43.743 134.120  18.714  1.00  0.00     0.334 C 
ATOM     12  C   UNL     1      42.295 133.473  20.511  1.00  0.00     0.334 C 
BRANCH  10  13
ATOM     13  C   UNL     1      41.374 134.045  18.312  1.00  0.00     0.301 C 
BRANCH  13  14
ATOM     14  C   UNL     1      41.714 134.536  16.901  1.00  0.00     0.014 A 
ATOM     15  C   UNL     1      41.730 133.581  15.867  1.00  0.00     0.010 A 
ATOM     16  C   UNL     1      42.007 135.898  16.579  1.00  0.00    -0.010 A 
ATOM     17  C   UNL     1      42.084 133.928  14.566  1.00  0.00     0.001 A 
ATOM     18  C   UNL     1      41.943 136.942  17.532  1.00  0.00     0.009 A 
ATOM     19  C   UNL     1      42.383 136.232  15.247  1.00  0.00    -0.018 A 
ATOM     20  C   UNL     1      42.419 135.243  14.257  1.00  0.00     0.009 A 
ATOM     21  C   UNL     1      42.281 138.253  17.183  1.00  0.00     0.001 A 
ATOM     22  C   UNL     1      42.715 137.556  14.914  1.00  0.00     0.009 A 
ATOM     23  C   UNL     1      42.669 138.558  15.882  1.00  0.00     0.001 A 
ENDBRANCH  13  14
ENDBRANCH  10  13
ENDBRANCH   9  10
ENDBRANCH   5   9
BRANCH   4  24
ATOM     24  C   UNL     1      44.547 131.581  16.077  1.00  0.00     0.214 C 
BRANCH  24  25
ATOM     25  C   UNL     1      45.328 130.708  15.054  1.00  0.00     0.081 C 
ATOM     26  C   UNL     1      44.805 130.920  13.627  1.00  0.00     0.024 C 
ATOM     27  C   UNL     1      46.809 131.087  14.945  1.00  0.00     0.024 C 
ATOM     28  C   UNL     1      45.975 130.602  12.697  1.00  0.00     0.002 C 
ATOM     29  C   UNL     1      47.244 130.667  13.546  1.00  0.00     0.002 C 
BRANCH  25  30
ATOM     30  C   UNL     1      45.206 129.274  15.402  1.00  0.00     0.071 C 
ATOM     31  N   UNL     1      45.104 128.153  15.674  1.00  0.00    -0.198 NA
ENDBRANCH  25  30
ENDBRANCH  24  25
ENDBRANCH   4  24
TORSDOF 8
ENDMDL
MODEL 7
REMARK VINA RESULT:      -7.7      1.192      2.455
REMARK SMILES CCc1n[nH+]n(CC2(C#N)CCCC2)c1C[N+](C)(C)Cc1cccc2ccccc12
REMARK SMILES IDX 3 1 4 2 5 3 6 4 15 5 2 7 1 8 16 9 17 10 18 11 19 12 20 13
REMARK SMILES IDX 21 14 22 15 30 16 23 17 29 18 25 19 24 20 28 21 26 22 27 23
REMARK SMILES IDX 7 24 8 25 11 26 14 27 12 28 13 29 9 30 10 31
REMARK H PARENT 5 6
ROOT
ATOM      1  C   UNL     1      44.592 131.593  18.991  1.00  0.00     0.141 A 
ATOM      2  N   UNL     1      45.372 130.512  18.789  1.00  0.00     0.020 NA
ATOM      3  N   UNL     1      45.855 130.620  17.562  1.00  0.00    -0.017 N 
ATOM      4  N   UNL     1      45.456 131.739  16.976  1.00  0.00    -0.126 N 
ATOM      5  C   UNL     1      44.618 132.368  17.837  1.00  0.00     0.160 A 
ATOM      6  H   UNL     1      46.500 129.920  17.132  1.00  0.00     0.526 HD
ENDROOT
BRANCH   1   7
ATOM      7  C   UNL     1      44.058 131.963  20.343  1.00  0.00     0.062 C 
ATOM      8  C   UNL     1      42.542 131.806  20.376  1.00  0.00     0.011 C 
ENDBRANCH   1   7
BRANCH   5   9
ATOM      9  C   UNL     1      43.892 133.682  17.590  1.00  0.00     0.327 C 
BRANCH   9  10
ATOM     10  N   UNL     1      42.642 133.585  16.764  1.00  0.00    -0.319 N 
ATOM     11  C   UNL     1      42.111 132.199  16.809  1.00  0.00     0.334 C 
ATOM     12  C   UNL     1      42.898 133.921  15.340  1.00  0.00     0.334 C 
BRANCH  10  13
ATOM     13  C   UNL     1      41.579 134.485  17.329  1.00  0.00     0.301 C 
BRANCH  13  14
ATOM     14  C   UNL     1      40.503 134.927  16.333  1.00  0.00     0.014 A 
ATOM     15  C   UNL     1      39.414 134.059  16.124  1.00  0.00     0.010 A 
ATOM     16  C   UNL     1      40.540 136.163  15.615  1.00  0.00    -0.010 A 
ATOM     17  C   UNL     1      38.420 134.354  15.194  1.00  0.00     0.001 A 
ATOM     18  C   UNL     1      41.551 137.133  15.810  1.00  0.00     0.009 A 
ATOM     19  C   UNL     1      39.524 136.441  14.656  1.00  0.00    -0.018 A 
ATOM     20  C   UNL     1      38.478 135.532  14.456  1.00  0.00     0.009 A 
ATOM     21  C   UNL     1      41.572 138.309  15.054  1.00  0.00     0.001 A 
ATOM     22  C   UNL     1      39.560 137.630  13.908  1.00  0.00     0.009 A 
ATOM     23  C   UNL     1      40.584 138.554  14.104  1.00  0.00     0.001 A 
ENDBRANCH  13  14
ENDBRANCH  10  13
ENDBRANCH   9  10
ENDBRANCH   5   9
BRANCH   4  24
ATOM     24  C   UNL     1      46.006 132.225  15.699  1.00  0.00     0.214 C 
BRANCH  24  25
ATOM     25  C   UNL     1      46.147 131.091  14.644  1.00  0.00     0.081 C 
ATOM     26  C   UNL     1      47.167 131.462  13.560  1.00  0.00     0.024 C 
ATOM     27  C   UNL     1      46.713 129.792  15.229  1.00  0.00     0.024 C 
ATOM     28  C   UNL     1      47.714 130.139  13.025  1.00  0.00     0.002 C 
ATOM     29  C   UNL     1      47.386 129.071  14.068  1.00  0.00     0.002 C 
BRANCH  25  30
ATOM     30  C   UNL     1      44.841 130.819  14.002  1.00  0.00     0.071 C 
ATOM     31  N   UNL     1      43.818 130.603  13.504  1.00  0.00    -0.198 NA
ENDBRANCH  25  30
ENDBRANCH  24  25
ENDBRANCH   4  24
TORSDOF 8
ENDMDL
MODEL 8
REMARK VINA RESULT:      -7.6      2.490      5.302
REMARK SMILES CCc1n[nH+]n(CC2(C#N)CCCC2)c1C[N+](C)(C)Cc1cccc2ccccc12
REMARK SMILES IDX 3 1 4 2 5 3 6 4 15 5 2 7 1 8 16 9 17 10 18 11 19 12 20 13
REMARK SMILES IDX 21 14 22 15 30 16 23 17 29 18 25 19 24 20 28 21 26 22 27 23
REMARK SMILES IDX 7 24 8 25 11 26 14 27 12 28 13 29 9 30 10 31
REMARK H PARENT 5 6
ROOT
ATOM      1  C   UNL     1      41.786 134.404  14.670  1.00  0.00     0.141 A 
ATOM      2  N   UNL     1      41.685 133.443  13.730  1.00  0.00     0.020 NA
ATOM      3  N   UNL     1      42.262 132.363  14.231  1.00  0.00    -0.017 N 
ATOM      4  N   UNL     1      42.698 132.569  15.465  1.00  0.00    -0.126 N 
ATOM      5  C   UNL     1      42.450 133.867  15.769  1.00  0.00     0.160 A 
ATOM      6  H   UNL     1      42.329 131.455  13.720  1.00  0.00     0.526 HD
ENDROOT
BRANCH   1   7
ATOM      7  C   UNL     1      41.042 135.703  14.583  1.00  0.00     0.062 C 
ATOM      8  C   UNL     1      39.885 135.588  13.596  1.00  0.00     0.011 C 
ENDBRANCH   1   7
BRANCH   5   9
ATOM      9  C   UNL     1      42.798 134.571  17.072  1.00  0.00     0.327 C 
BRANCH   9  10
ATOM     10  N   UNL     1      41.849 134.332  18.209  1.00  0.00    -0.319 N 
ATOM     11  C   UNL     1      42.440 133.365  19.170  1.00  0.00     0.334 C 
ATOM     12  C   UNL     1      40.560 133.764  17.738  1.00  0.00     0.334 C 
BRANCH  10  13
ATOM     13  C   UNL     1      41.611 135.612  18.960  1.00  0.00     0.301 C 
BRANCH  13  14
ATOM     14  C   UNL     1      42.463 136.802  18.506  1.00  0.00     0.014 A 
ATOM     15  C   UNL     1      41.910 137.667  17.543  1.00  0.00     0.010 A 
ATOM     16  C   UNL     1      43.773 137.081  19.007  1.00  0.00    -0.010 A 
ATOM     17  C   UNL     1      42.636 138.740  17.032  1.00  0.00     0.001 A 
ATOM     18  C   UNL     1      44.383 136.315  20.027  1.00  0.00     0.009 A 
ATOM     19  C   UNL     1      44.507 138.172  18.460  1.00  0.00    -0.018 A 
ATOM     20  C   UNL     1      43.931 138.987  17.478  1.00  0.00     0.009 A 
ATOM     21  C   UNL     1      45.684 136.598  20.455  1.00  0.00     0.001 A 
ATOM     22  C   UNL     1      45.812 138.443  18.905  1.00  0.00     0.009 A 
ATOM     23  C   UNL     1      46.397 137.654  19.893  1.00  0.00     0.001 A 
ENDBRANCH  13  14
ENDBRANCH  10  13
ENDBRANCH   9  10
ENDBRANCH   5   9
BRANCH   4  24
ATOM     24  C   UNL     1      43.185 131.491  16.342  1.00  0.00     0.214 C 
BRANCH  24  25
ATOM     25  C   UNL     1      44.680 131.149  16.087  1.00  0.00     0.081 C 
ATOM     26  C   UNL     1      44.825 129.984  15.099  1.00  0.00     0.024 C 
ATOM     27  C   UNL     1      45.450 132.285  15.405  1.00  0.00     0.024 C 
ATOM     28  C   UNL     1      46.184 130.167  14.426  1.00  0.00     0.002 C 
ATOM     29  C   UNL     1      46.600 131.620  14.658  1.00  0.00     0.002 C 
BRANCH  25  30
ATOM     30  C   UNL     1      45.349 130.787  17.357  1.00  0.00     0.071 C 
ATOM     31  N   UNL     1      45.868 130.501  18.352  1.00  0.00    -0.198 NA
ENDBRANCH  25  30
ENDBRANCH  24  25
ENDBRANCH   4  24
TORSDOF 8
ENDMDL
MODEL 9
REMARK VINA RESULT:      -7.6      2.428      7.628
REMARK SMILES CCc1n[nH+]n(CC2(C#N)CCCC2)c1C[N+](C)(C)Cc1cccc2ccccc12
REMARK SMILES IDX 3 1 4 2 5 3 6 4 15 5 2 7 1 8 16 9 17 10 18 11 19 12 20 13
REMARK SMILES IDX 21 14 22 15 30 16 23 17 29 18 25 19 24 20 28 21 26 22 27 23
REMARK SMILES IDX 7 24 8 25 11 26 14 27 12 28 13 29 9 30 10 31
REMARK H PARENT 5 6
ROOT
ATOM      1  C   UNL     1      39.401 134.926  16.804  1.00  0.00     0.141 A 
ATOM      2  N   UNL     1      39.028 136.093  17.365  1.00  0.00     0.020 NA
ATOM      3  N   UNL     1      40.096 136.572  17.983  1.00  0.00    -0.017 N 
ATOM      4  N   UNL     1      41.151 135.789  17.816  1.00  0.00    -0.126 N 
ATOM      5  C   UNL     1      40.742 134.709  17.104  1.00  0.00     0.160 A 
ATOM      6  H   UNL     1      40.102 137.476  18.507  1.00  0.00     0.526 HD
ENDROOT
BRANCH   1   7
ATOM      7  C   UNL     1      38.545 134.195  15.812  1.00  0.00     0.062 C 
ATOM      8  C   UNL     1      37.890 135.179  14.849  1.00  0.00     0.011 C 
ENDBRANCH   1   7
BRANCH   5   9
ATOM      9  C   UNL     1      41.602 133.525  16.688  1.00  0.00     0.327 C 
BRANCH   9  10
ATOM     10  N   UNL     1      42.438 133.733  15.459  1.00  0.00    -0.319 N 
ATOM     11  C   UNL     1      42.025 134.982  14.771  1.00  0.00     0.334 C 
ATOM     12  C   UNL     1      42.282 132.616  14.493  1.00  0.00     0.334 C 
BRANCH  10  13
ATOM     13  C   UNL     1      43.883 133.895  15.840  1.00  0.00     0.301 C 
BRANCH  13  14
ATOM     14  C   UNL     1      44.510 132.690  16.549  1.00  0.00     0.014 A 
ATOM     15  C   UNL     1      44.183 132.491  17.904  1.00  0.00     0.010 A 
ATOM     16  C   UNL     1      45.394 131.763  15.914  1.00  0.00    -0.010 A 
ATOM     17  C   UNL     1      44.752 131.455  18.641  1.00  0.00     0.001 A 
ATOM     18  C   UNL     1      45.722 131.834  14.540  1.00  0.00     0.009 A 
ATOM     19  C   UNL     1      45.978 130.719  16.687  1.00  0.00    -0.018 A 
ATOM     20  C   UNL     1      45.652 130.579  18.041  1.00  0.00     0.009 A 
ATOM     21  C   UNL     1      46.626 130.932  13.970  1.00  0.00     0.001 A 
ATOM     22  C   UNL     1      46.882 129.820  16.096  1.00  0.00     0.009 A 
ATOM     23  C   UNL     1      47.207 129.933  14.746  1.00  0.00     0.001 A 
ENDBRANCH  13  14
ENDBRANCH  10  13
ENDBRANCH   9  10
ENDBRANCH   5   9
BRANCH   4  24
ATOM     24  C   UNL     1      42.517 136.176  18.206  1.00  0.00     0.214 C 
BRANCH  24  25
ATOM     25  C   UNL     1      42.830 135.830  19.690  1.00  0.00     0.081 C 
ATOM     26  C   UNL     1      42.106 134.550  20.128  1.00  0.00     0.024 C 
ATOM     27  C   UNL     1      44.307 135.499  19.932  1.00  0.00     0.024 C 
ATOM     28  C   UNL     1      42.948 133.954  21.256  1.00  0.00     0.002 C 
ATOM     29  C   UNL     1      44.335 134.591  21.156  1.00  0.00     0.002 C 
BRANCH  25  30
ATOM     30  C   UNL     1      42.418 136.942  20.576  1.00  0.00     0.071 C 
ATOM     31  N   UNL     1      42.089 137.810  21.269  1.00  0.00    -0.198 NA
ENDBRANCH  25  30
ENDBRANCH  24  25
ENDBRANCH   4  24
TORSDOF 8
ENDMDL


