REMARK SMILES C[C@H]1CN(C(=O)[C@]2(N)C[C@H](CO)C2)CCC[NH2+]1
REMARK SMILES IDX 4 1 3 2 2 3 1 4 17 5 16 8 5 10 6 11 7 12 9 13 13 14 10 15
REMARK SMILES IDX 8 16 11 19 12 20 14 22 15 23
REMARK H PARENT 17 6 17 7 8 17 8 18 12 21
REMARK Flexibility Score:   15.900
ROOT
ATOM      1  N   UNL     1      -1.391  -0.014  -0.533  1.00  0.00    -0.335 N 
ENDROOT
BRANCH   1   2
ATOM      2  C   UNL     1      -1.483   0.414   0.869  1.00  0.00     0.184 C 
BRANCH   2   3
ATOM      3  C   UNL     1      -1.593   1.948   0.975  1.00  0.00     0.199 C 
ATOM      4  C   UNL     1      -1.715   2.348   2.454  1.00  0.00     0.077 C 
BRANCH   3   5
ATOM      5  N   UNL     1      -2.746   2.475   0.206  1.00  0.00    -0.343 N 
ATOM      6  H   UNL     1      -3.619   1.945   0.439  1.00  0.00     0.346 HD
ATOM      7  H   UNL     1      -2.909   3.469   0.492  1.00  0.00     0.346 HD
BRANCH   5   8
ATOM      8  C   UNL     1      -2.506   2.481  -1.254  1.00  0.00     0.262 CG0
ATOM      9  G   UNL     1      -3.026   1.215  -1.964  1.00  0.00     0.000 G0
ENDBRANCH   5   8
ENDBRANCH   3   5
ENDBRANCH   2   3
ENDBRANCH   1   2
BRANCH   1  10
ATOM     10  C   UNL     1      -0.128  -0.089  -1.233  1.00  0.00     0.242 C 
ATOM     11  O   UNL     1      -0.067   0.298  -2.432  1.00  0.00    -0.273 OA
BRANCH  10  12
ATOM     12  C   UNL     1       1.143  -0.601  -0.573  1.00  0.00     0.096 C 
ATOM     13  C   UNL     1       0.955  -1.792   0.378  1.00  0.00     0.038 C 
ATOM     14  C   UNL     1       1.999  -1.489  -1.492  1.00  0.00     0.038 C 
ATOM     15  C   UNL     1       1.821  -2.663  -0.530  1.00  0.00     0.019 C 
BRANCH  12  16
ATOM     16  N   UNL     1       1.947   0.471   0.021  1.00  0.00    -0.317 NA
ATOM     17  H   UNL     1       1.391   0.953   0.762  1.00  0.00     0.119 HD
ATOM     18  H   UNL     1       2.153   1.182  -0.718  1.00  0.00     0.119 HD
ENDBRANCH  12  16
BRANCH  15  19
ATOM     19  C   UNL     1       1.066  -3.856  -1.138  1.00  0.00     0.159 C 
BRANCH  19  20
ATOM     20  O   UNL     1       1.860  -4.495  -2.099  1.00  0.00    -0.396 OA
ATOM     21  H   UNL     1       2.552  -5.005  -1.602  1.00  0.00     0.210 HD
ENDBRANCH  19  20
ENDBRANCH  15  19
ENDBRANCH  10  12
ENDBRANCH   1  10
BRANCH   1  22
ATOM     22  C   UNL     1      -2.641  -0.116  -1.295  1.00  0.00     0.125 C 
BRANCH  22  23
ATOM     23  C   UNL     1      -3.026   1.215  -1.964  1.00  0.00     0.083 CG0
ATOM     24  G   UNL     1      -2.506   2.481  -1.254  1.00  0.00     0.000 G0
ENDBRANCH  22  23
ENDBRANCH   1  22
TORSDOF 5


