MODEL 1
REMARK VINA RESULT:      -6.6      0.000      0.000
REMARK SMILES [N-]=[N+]=Nc1c(Cl)c(Cl)c(OC(=O)[C@]2(N)C[C@@H](CO)C2)ccccc([O-])c1NC1(CF)COC1
REMARK SMILES IDX 10 1 11 2 12 3 13 4 16 5 15 6 19 7 17 8 18 9 14 11 9 14
REMARK SMILES IDX 20 15 7 16 21 17 5 18 22 19 4 20 23 21 26 22 24 23 8 24 6 25
REMARK SMILES IDX 25 26 3 27 2 28 1 29 27 30 28 32 31 33 33 34 32 35 29 36
REMARK SMILES IDX 30 37
REMARK H PARENT 18 10 14 12 14 13 27 31
ROOT
ATOM      1  O   UNL     1      43.297 131.989  16.592  1.00  0.00    -0.424 OA
ENDROOT
BRANCH   1   2
ATOM      2  C   UNL     1      44.499 131.273  16.491  1.00  0.00     0.331 C 
ATOM      3  O   UNL     1      45.137 130.921  17.519  1.00  0.00    -0.250 OA
BRANCH   2   4
ATOM      4  C   UNL     1      45.035 130.958  15.113  1.00  0.00     0.116 C 
ATOM      5  C   UNL     1      46.986 130.141  14.651  1.00  0.00     0.019 C 
ATOM      6  C   UNL     1      45.620 129.544  14.997  1.00  0.00     0.040 C 
ATOM      7  C   UNL     1      46.413 131.554  14.780  1.00  0.00     0.040 C 
BRANCH   5   8
ATOM      8  C   UNL     1      47.501 129.788  13.243  1.00  0.00     0.159 C 
BRANCH   8   9
ATOM      9  O   UNL     1      48.747 129.151  13.299  1.00  0.00    -0.396 OA
ATOM     10  H   UNL     1      49.386 129.830  13.646  1.00  0.00     0.210 HD
ENDBRANCH   8   9
ENDBRANCH   5   8
BRANCH   4  11
ATOM     11  N   UNL     1      44.054 131.230  14.059  1.00  0.00    -0.316 NA
ATOM     12  H   UNL     1      43.174 131.578  14.511  1.00  0.00     0.119 HD
ATOM     13  H   UNL     1      43.819 130.329  13.578  1.00  0.00     0.119 HD
ENDBRANCH   4  11
ENDBRANCH   2   4
ENDBRANCH   1   2
BRANCH   1  14
ATOM     14  C   UNL     1      43.056 133.112  17.403  1.00  0.00     0.151 A 
ATOM     15  C   UNL     1      43.964 134.184  17.424  1.00  0.00     0.049 A 
ATOM     16  C   UNL     1      41.829 133.137  18.102  1.00  0.00     0.102 A 
ATOM     17  C   UNL     1      44.053 135.091  18.486  1.00  0.00     0.004 A 
ATOM     18  C   UNL     1      41.134 134.309  18.501  1.00  0.00     0.075 A 
ATOM     19  C   UNL     1      44.190 136.467  18.281  1.00  0.00    -0.000 A 
ATOM     20  C   UNL     1      41.267 135.583  17.897  1.00  0.00     0.080 A 
ATOM     21  C   UNL     1      43.735 137.150  17.139  1.00  0.00    -0.006 A 
ATOM     22  C   UNL     1      41.741 135.752  16.571  1.00  0.00     0.038 A 
ATOM     23  C   UNL     1      42.743 136.694  16.245  1.00  0.00    -0.084 A 
ATOM     24  Cl  UNL     1      41.098 131.572  18.469  1.00  0.00    -0.079 Cl
ATOM     25  Cl  UNL     1      40.065 134.190  19.902  1.00  0.00    -0.082 Cl
ATOM     26  O   UNL     1      42.768 137.202  14.950  1.00  0.00    -0.871 OA
BRANCH  20  27
ATOM     27  N   UNL     1      40.917 136.732  18.690  1.00  0.00    -0.057 NA
BRANCH  27  28
ATOM     28  N   UNL     1      39.877 137.371  18.518  1.00  0.00     0.005 N 
ATOM     29  N   UNL     1      38.840 138.012  18.352  1.00  0.00    -0.003 NA
ENDBRANCH  27  28
ENDBRANCH  20  27
BRANCH  22  30
ATOM     30  N   UNL     1      41.231 134.923  15.513  1.00  0.00    -0.373 N 
ATOM     31  H   UNL     1      41.926 134.340  14.990  1.00  0.00     0.161 HD
BRANCH  30  32
ATOM     32  C   UNL     1      39.875 135.032  14.953  1.00  0.00     0.113 C 
ATOM     33  C   UNL     1      39.347 136.450  14.811  1.00  0.00     0.193 C 
ATOM     34  C   UNL     1      39.896 135.090  13.432  1.00  0.00     0.193 C 
ATOM     35  O   UNL     1      39.387 136.402  13.406  1.00  0.00    -0.376 OA
BRANCH  32  36
ATOM     36  C   UNL     1      38.881 134.007  15.525  1.00  0.00     0.247 C 
ATOM     37  F   UNL     1      37.730 133.977  14.767  1.00  0.00    -0.248 F 
ENDBRANCH  32  36
ENDBRANCH  30  32
ENDBRANCH  22  30
ENDBRANCH   1  14
TORSDOF 11
ENDMDL
MODEL 2
REMARK VINA RESULT:      -6.5      0.929      1.167
REMARK SMILES [N-]=[N+]=Nc1c(Cl)c(Cl)c(OC(=O)[C@]2(N)C[C@@H](CO)C2)ccccc([O-])c1NC1(CF)COC1
REMARK SMILES IDX 10 1 11 2 12 3 13 4 16 5 15 6 19 7 17 8 18 9 14 11 9 14
REMARK SMILES IDX 20 15 7 16 21 17 5 18 22 19 4 20 23 21 26 22 24 23 8 24 6 25
REMARK SMILES IDX 25 26 3 27 2 28 1 29 27 30 28 32 31 33 33 34 32 35 29 36
REMARK SMILES IDX 30 37
REMARK H PARENT 18 10 14 12 14 13 27 31
ROOT
ATOM      1  O   UNL     1      43.485 132.472  16.252  1.00  0.00    -0.424 OA
ENDROOT
BRANCH   1   2
ATOM      2  C   UNL     1      44.582 131.605  16.364  1.00  0.00     0.331 C 
ATOM      3  O   UNL     1      45.117 131.372  17.480  1.00  0.00    -0.250 OA
BRANCH   2   4
ATOM      4  C   UNL     1      45.135 130.977  15.105  1.00  0.00     0.116 C 
ATOM      5  C   UNL     1      47.096 130.091  14.867  1.00  0.00     0.019 C 
ATOM      6  C   UNL     1      45.732 129.581  15.333  1.00  0.00     0.040 C 
ATOM      7  C   UNL     1      46.512 131.490  14.652  1.00  0.00     0.040 C 
BRANCH   5   8
ATOM      8  C   UNL     1      47.629 129.419  13.588  1.00  0.00     0.159 C 
BRANCH   8   9
ATOM      9  O   UNL     1      49.020 129.258  13.636  1.00  0.00    -0.396 OA
ATOM     10  H   UNL     1      49.231 128.521  13.002  1.00  0.00     0.210 HD
ENDBRANCH   8   9
ENDBRANCH   5   8
BRANCH   4  11
ATOM     11  N   UNL     1      44.164 130.982  14.008  1.00  0.00    -0.316 NA
ATOM     12  H   UNL     1      44.192 131.924  13.548  1.00  0.00     0.119 HD
ATOM     13  H   UNL     1      43.203 130.863  14.409  1.00  0.00     0.119 HD
ENDBRANCH   4  11
ENDBRANCH   2   4
ENDBRANCH   1   2
BRANCH   1  14
ATOM     14  C   UNL     1      43.165 133.534  17.114  1.00  0.00     0.151 A 
ATOM     15  C   UNL     1      43.956 134.696  17.139  1.00  0.00     0.049 A 
ATOM     16  C   UNL     1      41.974 133.406  17.863  1.00  0.00     0.102 A 
ATOM     17  C   UNL     1      43.997 135.570  18.230  1.00  0.00     0.004 A 
ATOM     18  C   UNL     1      41.179 134.484  18.334  1.00  0.00     0.075 A 
ATOM     19  C   UNL     1      43.981 136.959  18.073  1.00  0.00    -0.000 A 
ATOM     20  C   UNL     1      41.152 135.785  17.775  1.00  0.00     0.080 A 
ATOM     21  C   UNL     1      43.406 137.629  16.977  1.00  0.00    -0.006 A 
ATOM     22  C   UNL     1      41.545 136.047  16.438  1.00  0.00     0.038 A 
ATOM     23  C   UNL     1      42.428 137.100  16.107  1.00  0.00    -0.084 A 
ATOM     24  Cl  UNL     1      41.428 131.761  18.200  1.00  0.00    -0.079 Cl
ATOM     25  Cl  UNL     1      40.192 134.205  19.773  1.00  0.00    -0.082 Cl
ATOM     26  O   UNL     1      42.342 137.651  14.833  1.00  0.00    -0.871 OA
BRANCH  20  27
ATOM     27  N   UNL     1      40.719 136.862  18.624  1.00  0.00    -0.057 NA
BRANCH  27  28
ATOM     28  N   UNL     1      39.578 137.326  18.589  1.00  0.00     0.005 N 
ATOM     29  N   UNL     1      38.440 137.794  18.552  1.00  0.00    -0.003 NA
ENDBRANCH  27  28
ENDBRANCH  20  27
BRANCH  22  30
ATOM     30  N   UNL     1      41.078 135.205  15.371  1.00  0.00    -0.373 N 
ATOM     31  H   UNL     1      41.807 134.732  14.785  1.00  0.00     0.161 HD
BRANCH  30  32
ATOM     32  C   UNL     1      39.689 135.171  14.888  1.00  0.00     0.113 C 
ATOM     33  C   UNL     1      39.501 134.578  13.502  1.00  0.00     0.193 C 
ATOM     34  C   UNL     1      38.972 133.901  15.322  1.00  0.00     0.193 C 
ATOM     35  O   UNL     1      38.832 133.445  13.998  1.00  0.00    -0.376 OA
BRANCH  32  36
ATOM     36  C   UNL     1      38.900 136.461  15.172  1.00  0.00     0.247 C 
ATOM     37  F   UNL     1      38.987 137.326  14.102  1.00  0.00    -0.248 F 
ENDBRANCH  32  36
ENDBRANCH  30  32
ENDBRANCH  22  30
ENDBRANCH   1  14
TORSDOF 11
ENDMDL
MODEL 3
REMARK VINA RESULT:      -6.3      2.769      4.295
REMARK SMILES [N-]=[N+]=Nc1c(Cl)c(Cl)c(OC(=O)[C@]2(N)C[C@@H](CO)C2)ccccc([O-])c1NC1(CF)COC1
REMARK SMILES IDX 10 1 11 2 12 3 13 4 16 5 15 6 19 7 17 8 18 9 14 11 9 14
REMARK SMILES IDX 20 15 7 16 21 17 5 18 22 19 4 20 23 21 26 22 24 23 8 24 6 25
REMARK SMILES IDX 25 26 3 27 2 28 1 29 27 30 28 32 31 33 33 34 32 35 29 36
REMARK SMILES IDX 30 37
REMARK H PARENT 18 10 14 12 14 13 27 31
ROOT
ATOM      1  O   UNL     1      43.413 132.393  14.623  1.00  0.00    -0.424 OA
ENDROOT
BRANCH   1   2
ATOM      2  C   UNL     1      44.128 131.677  15.596  1.00  0.00     0.331 C 
ATOM      3  O   UNL     1      43.936 131.878  16.824  1.00  0.00    -0.250 OA
BRANCH   2   4
ATOM      4  C   UNL     1      45.163 130.677  15.137  1.00  0.00     0.116 C 
ATOM      5  C   UNL     1      46.680 131.001  13.626  1.00  0.00     0.019 C 
ATOM      6  C   UNL     1      46.592 131.238  15.134  1.00  0.00     0.040 C 
ATOM      7  C   UNL     1      45.250 130.454  13.617  1.00  0.00     0.040 C 
BRANCH   5   8
ATOM      8  C   UNL     1      47.754 129.983  13.198  1.00  0.00     0.159 C 
BRANCH   8   9
ATOM      9  O   UNL     1      47.697 128.821  13.979  1.00  0.00    -0.396 OA
ATOM     10  H   UNL     1      48.247 129.007  14.786  1.00  0.00     0.210 HD
ENDBRANCH   8   9
ENDBRANCH   5   8
BRANCH   4  11
ATOM     11  N   UNL     1      45.077 129.410  15.868  1.00  0.00    -0.316 NA
ATOM     12  H   UNL     1      44.092 129.057  15.799  1.00  0.00     0.119 HD
ATOM     13  H   UNL     1      45.268 129.594  16.883  1.00  0.00     0.119 HD
ENDBRANCH   4  11
ENDBRANCH   2   4
ENDBRANCH   1   2
BRANCH   1  14
ATOM     14  C   UNL     1      42.573 133.497  14.844  1.00  0.00     0.151 A 
ATOM     15  C   UNL     1      41.220 133.450  14.467  1.00  0.00     0.049 A 
ATOM     16  C   UNL     1      43.134 134.592  15.538  1.00  0.00     0.102 A 
ATOM     17  C   UNL     1      40.452 134.595  14.229  1.00  0.00     0.004 A 
ATOM     18  C   UNL     1      42.411 135.517  16.336  1.00  0.00     0.075 A 
ATOM     19  C   UNL     1      39.139 134.721  14.692  1.00  0.00    -0.000 A 
ATOM     20  C   UNL     1      41.160 135.265  16.949  1.00  0.00     0.080 A 
ATOM     21  C   UNL     1      38.629 134.061  15.825  1.00  0.00    -0.006 A 
ATOM     22  C   UNL     1      40.698 133.953  17.224  1.00  0.00     0.038 A 
ATOM     23  C   UNL     1      39.394 133.528  16.884  1.00  0.00    -0.084 A 
ATOM     24  Cl  UNL     1      44.885 134.787  15.420  1.00  0.00    -0.079 Cl
ATOM     25  Cl  UNL     1      43.091 137.137  16.530  1.00  0.00    -0.082 Cl
ATOM     26  O   UNL     1      38.822 132.504  17.631  1.00  0.00    -0.871 OA
BRANCH  20  27
ATOM     27  N   UNL     1      40.341 136.402  17.277  1.00  0.00    -0.057 NA
BRANCH  27  28
ATOM     28  N   UNL     1      40.299 136.892  18.406  1.00  0.00     0.005 N 
ATOM     29  N   UNL     1      40.252 137.381  19.535  1.00  0.00    -0.003 NA
ENDBRANCH  27  28
ENDBRANCH  20  27
BRANCH  22  30
ATOM     30  N   UNL     1      41.577 132.992  17.833  1.00  0.00    -0.373 N 
ATOM     31  H   UNL     1      41.796 132.131  17.280  1.00  0.00     0.161 HD
BRANCH  30  32
ATOM     32  C   UNL     1      41.971 133.009  19.250  1.00  0.00     0.113 C 
ATOM     33  C   UNL     1      42.973 134.086  19.631  1.00  0.00     0.193 C 
ATOM     34  C   UNL     1      41.026 133.859  20.088  1.00  0.00     0.193 C 
ATOM     35  O   UNL     1      42.030 134.795  20.397  1.00  0.00    -0.376 OA
BRANCH  32  36
ATOM     36  C   UNL     1      42.241 131.614  19.838  1.00  0.00     0.247 C 
ATOM     37  F   UNL     1      42.355 131.681  21.211  1.00  0.00    -0.248 F 
ENDBRANCH  32  36
ENDBRANCH  30  32
ENDBRANCH  22  30
ENDBRANCH   1  14
TORSDOF 11
ENDMDL
MODEL 4
REMARK VINA RESULT:      -6.3      2.920      4.383
REMARK SMILES [N-]=[N+]=Nc1c(Cl)c(Cl)c(OC(=O)[C@]2(N)C[C@@H](CO)C2)ccccc([O-])c1NC1(CF)COC1
REMARK SMILES IDX 10 1 11 2 12 3 13 4 16 5 15 6 19 7 17 8 18 9 14 11 9 14
REMARK SMILES IDX 20 15 7 16 21 17 5 18 22 19 4 20 23 21 26 22 24 23 8 24 6 25
REMARK SMILES IDX 25 26 3 27 2 28 1 29 27 30 28 32 31 33 33 34 32 35 29 36
REMARK SMILES IDX 30 37
REMARK H PARENT 18 10 14 12 14 13 27 31
ROOT
ATOM      1  O   UNL     1      43.293 132.437  15.571  1.00  0.00    -0.424 OA
ENDROOT
BRANCH   1   2
ATOM      2  C   UNL     1      43.907 131.533  14.691  1.00  0.00     0.331 C 
ATOM      3  O   UNL     1      43.338 131.169  13.627  1.00  0.00    -0.250 OA
BRANCH   2   4
ATOM      4  C   UNL     1      45.262 130.976  15.062  1.00  0.00     0.116 C 
ATOM      5  C   UNL     1      46.646 129.974  13.732  1.00  0.00     0.019 C 
ATOM      6  C   UNL     1      46.386 131.431  14.120  1.00  0.00     0.040 C 
ATOM      7  C   UNL     1      45.516 129.514  14.657  1.00  0.00     0.040 C 
BRANCH   5   8
ATOM      8  C   UNL     1      48.041 129.448  14.118  1.00  0.00     0.159 C 
BRANCH   8   9
ATOM      9  O   UNL     1      48.707 128.903  13.012  1.00  0.00    -0.396 OA
ATOM     10  H   UNL     1      49.272 129.635  12.645  1.00  0.00     0.210 HD
ENDBRANCH   8   9
ENDBRANCH   5   8
BRANCH   4  11
ATOM     11  N   UNL     1      45.598 131.218  16.467  1.00  0.00    -0.316 NA
ATOM     12  H   UNL     1      46.630 131.387  16.534  1.00  0.00     0.119 HD
ATOM     13  H   UNL     1      45.390 130.350  17.017  1.00  0.00     0.119 HD
ENDBRANCH   4  11
ENDBRANCH   2   4
ENDBRANCH   1   2
BRANCH   1  14
ATOM     14  C   UNL     1      42.455 133.509  15.221  1.00  0.00     0.151 A 
ATOM     15  C   UNL     1      41.190 133.271  14.657  1.00  0.00     0.049 A 
ATOM     16  C   UNL     1      42.912 134.804  15.551  1.00  0.00     0.102 A 
ATOM     17  C   UNL     1      40.506 134.216  13.886  1.00  0.00     0.004 A 
ATOM     18  C   UNL     1      42.082 135.926  15.814  1.00  0.00     0.075 A 
ATOM     19  C   UNL     1      39.135 134.448  14.033  1.00  0.00    -0.000 A 
ATOM     20  C   UNL     1      40.736 135.863  16.248  1.00  0.00     0.080 A 
ATOM     21  C   UNL     1      38.415 134.227  15.221  1.00  0.00    -0.006 A 
ATOM     22  C   UNL     1      40.199 134.725  16.901  1.00  0.00     0.038 A 
ATOM     23  C   UNL     1      38.966 134.150  16.518  1.00  0.00    -0.084 A 
ATOM     24  Cl  UNL     1      44.660 135.016  15.678  1.00  0.00    -0.079 Cl
ATOM     25  Cl  UNL     1      42.758 137.531  15.516  1.00  0.00    -0.082 Cl
ATOM     26  O   UNL     1      38.244 133.447  17.477  1.00  0.00    -0.871 OA
BRANCH  20  27
ATOM     27  N   UNL     1      39.902 137.006  15.988  1.00  0.00    -0.057 NA
BRANCH  27  28
ATOM     28  N   UNL     1      39.811 137.529  14.876  1.00  0.00     0.005 N 
ATOM     29  N   UNL     1      39.721 138.047  13.763  1.00  0.00    -0.003 NA
ENDBRANCH  27  28
ENDBRANCH  20  27
BRANCH  22  30
ATOM     30  N   UNL     1      40.931 134.090  17.963  1.00  0.00    -0.373 N 
ATOM     31  H   UNL     1      41.035 133.050  17.914  1.00  0.00     0.161 HD
BRANCH  30  32
ATOM     32  C   UNL     1      41.309 134.753  19.221  1.00  0.00     0.113 C 
ATOM     33  C   UNL     1      40.350 135.832  19.697  1.00  0.00     0.193 C 
ATOM     34  C   UNL     1      40.773 134.007  20.435  1.00  0.00     0.193 C 
ATOM     35  O   UNL     1      39.928 135.072  20.802  1.00  0.00    -0.376 OA
BRANCH  32  36
ATOM     36  C   UNL     1      42.804 135.104  19.316  1.00  0.00     0.247 C 
ATOM     37  F   UNL     1      43.010 136.429  18.996  1.00  0.00    -0.248 F 
ENDBRANCH  32  36
ENDBRANCH  30  32
ENDBRANCH  22  30
ENDBRANCH   1  14
TORSDOF 11
ENDMDL
MODEL 5
REMARK VINA RESULT:      -6.3      0.980      1.378
REMARK SMILES [N-]=[N+]=Nc1c(Cl)c(Cl)c(OC(=O)[C@]2(N)C[C@@H](CO)C2)ccccc([O-])c1NC1(CF)COC1
REMARK SMILES IDX 10 1 11 2 12 3 13 4 16 5 15 6 19 7 17 8 18 9 14 11 9 14
REMARK SMILES IDX 20 15 7 16 21 17 5 18 22 19 4 20 23 21 26 22 24 23 8 24 6 25
REMARK SMILES IDX 25 26 3 27 2 28 1 29 27 30 28 32 31 33 33 34 32 35 29 36
REMARK SMILES IDX 30 37
REMARK H PARENT 18 10 14 12 14 13 27 31
ROOT
ATOM      1  O   UNL     1      43.150 131.892  16.484  1.00  0.00    -0.424 OA
ENDROOT
BRANCH   1   2
ATOM      2  C   UNL     1      44.037 131.815  15.400  1.00  0.00     0.331 C 
ATOM      3  O   UNL     1      43.796 132.412  14.317  1.00  0.00    -0.250 OA
BRANCH   2   4
ATOM      4  C   UNL     1      45.280 130.967  15.546  1.00  0.00     0.116 C 
ATOM      5  C   UNL     1      46.559 130.278  13.941  1.00  0.00     0.019 C 
ATOM      6  C   UNL     1      46.497 131.540  14.804  1.00  0.00     0.040 C 
ATOM      7  C   UNL     1      45.337 129.708  14.665  1.00  0.00     0.040 C 
BRANCH   5   8
ATOM      8  C   UNL     1      47.845 129.449  14.111  1.00  0.00     0.159 C 
BRANCH   8   9
ATOM      9  O   UNL     1      48.395 129.097  12.871  1.00  0.00    -0.396 OA
ATOM     10  H   UNL     1      48.947 129.874  12.586  1.00  0.00     0.210 HD
ENDBRANCH   8   9
ENDBRANCH   5   8
BRANCH   4  11
ATOM     11  N   UNL     1      45.588 130.667  16.946  1.00  0.00    -0.316 NA
ATOM     12  H   UNL     1      44.699 130.733  17.499  1.00  0.00     0.119 HD
ATOM     13  H   UNL     1      46.235 131.405  17.314  1.00  0.00     0.119 HD
ENDBRANCH   4  11
ENDBRANCH   2   4
ENDBRANCH   1   2
BRANCH   1  14
ATOM     14  C   UNL     1      42.953 132.998  17.328  1.00  0.00     0.151 A 
ATOM     15  C   UNL     1      43.905 134.031  17.384  1.00  0.00     0.049 A 
ATOM     16  C   UNL     1      41.726 133.053  18.026  1.00  0.00     0.102 A 
ATOM     17  C   UNL     1      44.027 134.901  18.473  1.00  0.00     0.004 A 
ATOM     18  C   UNL     1      41.079 134.240  18.459  1.00  0.00     0.075 A 
ATOM     19  C   UNL     1      44.221 136.276  18.311  1.00  0.00    -0.000 A 
ATOM     20  C   UNL     1      41.265 135.525  17.895  1.00  0.00     0.080 A 
ATOM     21  C   UNL     1      43.797 137.012  17.189  1.00  0.00    -0.006 A 
ATOM     22  C   UNL     1      41.749 135.714  16.575  1.00  0.00     0.038 A 
ATOM     23  C   UNL     1      42.790 136.624  16.280  1.00  0.00    -0.084 A 
ATOM     24  Cl  UNL     1      40.931 131.509  18.344  1.00  0.00    -0.079 Cl
ATOM     25  Cl  UNL     1      40.001 134.121  19.854  1.00  0.00    -0.082 Cl
ATOM     26  O   UNL     1      42.840 137.169  15.001  1.00  0.00    -0.871 OA
BRANCH  20  27
ATOM     27  N   UNL     1      40.960 136.662  18.721  1.00  0.00    -0.057 NA
BRANCH  27  28
ATOM     28  N   UNL     1      41.384 136.787  19.871  1.00  0.00     0.005 N 
ATOM     29  N   UNL     1      41.803 136.912  21.022  1.00  0.00    -0.003 NA
ENDBRANCH  27  28
ENDBRANCH  20  27
BRANCH  22  30
ATOM     30  N   UNL     1      41.210 134.939  15.492  1.00  0.00    -0.373 N 
ATOM     31  H   UNL     1      41.869 134.298  14.991  1.00  0.00     0.161 HD
BRANCH  30  32
ATOM     32  C   UNL     1      39.892 135.173  14.880  1.00  0.00     0.113 C 
ATOM     33  C   UNL     1      39.406 136.612  14.924  1.00  0.00     0.193 C 
ATOM     34  C   UNL     1      40.004 135.455  13.389  1.00  0.00     0.193 C 
ATOM     35  O   UNL     1      39.528 136.772  13.531  1.00  0.00    -0.376 OA
BRANCH  32  36
ATOM     36  C   UNL     1      38.843 134.106  15.236  1.00  0.00     0.247 C 
ATOM     37  F   UNL     1      38.640 133.254  14.170  1.00  0.00    -0.248 F 
ENDBRANCH  32  36
ENDBRANCH  30  32
ENDBRANCH  22  30
ENDBRANCH   1  14
TORSDOF 11
ENDMDL
MODEL 6
REMARK VINA RESULT:      -6.3      1.685      2.034
REMARK SMILES [N-]=[N+]=Nc1c(Cl)c(Cl)c(OC(=O)[C@]2(N)C[C@@H](CO)C2)ccccc([O-])c1NC1(CF)COC1
REMARK SMILES IDX 10 1 11 2 12 3 13 4 16 5 15 6 19 7 17 8 18 9 14 11 9 14
REMARK SMILES IDX 20 15 7 16 21 17 5 18 22 19 4 20 23 21 26 22 24 23 8 24 6 25
REMARK SMILES IDX 25 26 3 27 2 28 1 29 27 30 28 32 31 33 33 34 32 35 29 36
REMARK SMILES IDX 30 37
REMARK H PARENT 18 10 14 12 14 13 27 31
ROOT
ATOM      1  O   UNL     1      43.912 132.053  17.896  1.00  0.00    -0.424 OA
ENDROOT
BRANCH   1   2
ATOM      2  C   UNL     1      43.743 131.878  16.515  1.00  0.00     0.331 C 
ATOM      3  O   UNL     1      42.594 131.808  16.002  1.00  0.00    -0.250 OA
BRANCH   2   4
ATOM      4  C   UNL     1      44.976 131.741  15.651  1.00  0.00     0.116 C 
ATOM      5  C   UNL     1      45.731 129.911  14.773  1.00  0.00     0.019 C 
ATOM      6  C   UNL     1      44.720 130.977  14.344  1.00  0.00     0.040 C 
ATOM      7  C   UNL     1      45.979 130.660  16.085  1.00  0.00     0.040 C 
BRANCH   5   8
ATOM      8  C   UNL     1      46.967 129.796  13.861  1.00  0.00     0.159 C 
BRANCH   8   9
ATOM      9  O   UNL     1      47.656 128.596  14.082  1.00  0.00    -0.396 OA
ATOM     10  H   UNL     1      48.370 128.809  14.741  1.00  0.00     0.210 HD
ENDBRANCH   8   9
ENDBRANCH   5   8
BRANCH   4  11
ATOM     11  N   UNL     1      45.632 133.028  15.410  1.00  0.00    -0.316 NA
ATOM     12  H   UNL     1      45.012 133.602  14.789  1.00  0.00     0.119 HD
ATOM     13  H   UNL     1      46.523 132.858  14.884  1.00  0.00     0.119 HD
ENDBRANCH   4  11
ENDBRANCH   2   4
ENDBRANCH   1   2
BRANCH   1  14
ATOM     14  C   UNL     1      43.608 133.207  18.638  1.00  0.00     0.151 A 
ATOM     15  C   UNL     1      44.190 134.443  18.305  1.00  0.00     0.049 A 
ATOM     16  C   UNL     1      42.633 133.071  19.651  1.00  0.00     0.102 A 
ATOM     17  C   UNL     1      44.311 135.500  19.213  1.00  0.00     0.004 A 
ATOM     18  C   UNL     1      41.788 134.110  20.123  1.00  0.00     0.075 A 
ATOM     19  C   UNL     1      44.040 136.824  18.855  1.00  0.00    -0.000 A 
ATOM     20  C   UNL     1      41.437 135.273  19.395  1.00  0.00     0.080 A 
ATOM     21  C   UNL     1      43.152 137.205  17.832  1.00  0.00    -0.006 A 
ATOM     22  C   UNL     1      41.501 135.333  17.979  1.00  0.00     0.038 A 
ATOM     23  C   UNL     1      42.115 136.409  17.300  1.00  0.00    -0.084 A 
ATOM     24  Cl  UNL     1      42.439 131.461  20.348  1.00  0.00    -0.079 Cl
ATOM     25  Cl  UNL     1      41.174 133.978  21.775  1.00  0.00    -0.082 Cl
ATOM     26  O   UNL     1      41.683 136.702  16.011  1.00  0.00    -0.871 OA
BRANCH  20  27
ATOM     27  N   UNL     1      41.019 136.425  20.148  1.00  0.00    -0.057 NA
BRANCH  27  28
ATOM     28  N   UNL     1      39.890 136.911  20.057  1.00  0.00     0.005 N 
ATOM     29  N   UNL     1      38.761 137.392  19.963  1.00  0.00    -0.003 NA
ENDBRANCH  27  28
ENDBRANCH  20  27
BRANCH  22  30
ATOM     30  N   UNL     1      40.968 134.258  17.187  1.00  0.00    -0.373 N 
ATOM     31  H   UNL     1      41.654 133.577  16.786  1.00  0.00     0.161 HD
BRANCH  30  32
ATOM     32  C   UNL     1      39.583 134.200  16.693  1.00  0.00     0.113 C 
ATOM     33  C   UNL     1      38.628 133.376  17.540  1.00  0.00     0.193 C 
ATOM     34  C   UNL     1      38.748 135.359  17.217  1.00  0.00     0.193 C 
ATOM     35  O   UNL     1      37.906 134.508  17.958  1.00  0.00    -0.376 OA
BRANCH  32  36
ATOM     36  C   UNL     1      39.473 133.990  15.173  1.00  0.00     0.247 C 
ATOM     37  F   UNL     1      38.181 133.655  14.824  1.00  0.00    -0.248 F 
ENDBRANCH  32  36
ENDBRANCH  30  32
ENDBRANCH  22  30
ENDBRANCH   1  14
TORSDOF 11
ENDMDL
MODEL 7
REMARK VINA RESULT:      -6.3      2.840      4.323
REMARK SMILES [N-]=[N+]=Nc1c(Cl)c(Cl)c(OC(=O)[C@]2(N)C[C@@H](CO)C2)ccccc([O-])c1NC1(CF)COC1
REMARK SMILES IDX 10 1 11 2 12 3 13 4 16 5 15 6 19 7 17 8 18 9 14 11 9 14
REMARK SMILES IDX 20 15 7 16 21 17 5 18 22 19 4 20 23 21 26 22 24 23 8 24 6 25
REMARK SMILES IDX 25 26 3 27 2 28 1 29 27 30 28 32 31 33 33 34 32 35 29 36
REMARK SMILES IDX 30 37
REMARK H PARENT 18 10 14 12 14 13 27 31
ROOT
ATOM      1  O   UNL     1      43.536 132.636  14.893  1.00  0.00    -0.424 OA
ENDROOT
BRANCH   1   2
ATOM      2  C   UNL     1      43.784 131.673  15.882  1.00  0.00     0.331 C 
ATOM      3  O   UNL     1      42.961 131.467  16.813  1.00  0.00    -0.250 OA
BRANCH   2   4
ATOM      4  C   UNL     1      45.085 130.905  15.828  1.00  0.00     0.116 C 
ATOM      5  C   UNL     1      46.034 130.113  14.050  1.00  0.00     0.019 C 
ATOM      6  C   UNL     1      46.072 131.453  14.786  1.00  0.00     0.040 C 
ATOM      7  C   UNL     1      45.038 129.565  15.076  1.00  0.00     0.040 C 
BRANCH   5   8
ATOM      8  C   UNL     1      47.381 129.367  14.008  1.00  0.00     0.159 C 
BRANCH   8   9
ATOM      9  O   UNL     1      48.028 129.548  12.778  1.00  0.00    -0.396 OA
ATOM     10  H   UNL     1      49.000 129.440  12.963  1.00  0.00     0.210 HD
ENDBRANCH   8   9
ENDBRANCH   5   8
BRANCH   4  11
ATOM     11  N   UNL     1      45.707 130.769  17.147  1.00  0.00    -0.316 NA
ATOM     12  H   UNL     1      45.016 131.085  17.870  1.00  0.00     0.119 HD
ATOM     13  H   UNL     1      46.529 131.417  17.201  1.00  0.00     0.119 HD
ENDBRANCH   4  11
ENDBRANCH   2   4
ENDBRANCH   1   2
BRANCH   1  14
ATOM     14  C   UNL     1      42.615 133.694  14.966  1.00  0.00     0.151 A 
ATOM     15  C   UNL     1      41.299 133.529  14.499  1.00  0.00     0.049 A 
ATOM     16  C   UNL     1      43.053 134.873  15.611  1.00  0.00     0.102 A 
ATOM     17  C   UNL     1      40.483 134.599  14.118  1.00  0.00     0.004 A 
ATOM     18  C   UNL     1      42.215 135.803  16.281  1.00  0.00     0.075 A 
ATOM     19  C   UNL     1      39.133 134.671  14.475  1.00  0.00    -0.000 A 
ATOM     20  C   UNL     1      40.939 135.513  16.821  1.00  0.00     0.080 A 
ATOM     21  C   UNL     1      38.580 134.063  15.617  1.00  0.00    -0.006 A 
ATOM     22  C   UNL     1      40.539 134.197  17.165  1.00  0.00     0.038 A 
ATOM     23  C   UNL     1      39.294 133.662  16.766  1.00  0.00    -0.084 A 
ATOM     24  Cl  UNL     1      44.792 135.175  15.603  1.00  0.00    -0.079 Cl
ATOM     25  Cl  UNL     1      42.778 137.474  16.395  1.00  0.00    -0.082 Cl
ATOM     26  O   UNL     1      38.731 132.658  17.549  1.00  0.00    -0.871 OA
BRANCH  20  27
ATOM     27  N   UNL     1      40.030 136.614  17.000  1.00  0.00    -0.057 NA
BRANCH  27  28
ATOM     28  N   UNL     1      39.772 137.421  16.106  1.00  0.00     0.005 N 
ATOM     29  N   UNL     1      39.509 138.229  15.215  1.00  0.00    -0.003 NA
ENDBRANCH  27  28
ENDBRANCH  20  27
BRANCH  22  30
ATOM     30  N   UNL     1      41.427 133.345  17.907  1.00  0.00    -0.373 N 
ATOM     31  H   UNL     1      41.705 132.441  17.458  1.00  0.00     0.161 HD
BRANCH  30  32
ATOM     32  C   UNL     1      41.755 133.527  19.330  1.00  0.00     0.113 C 
ATOM     33  C   UNL     1      42.438 134.840  19.674  1.00  0.00     0.193 C 
ATOM     34  C   UNL     1      40.597 134.145  20.101  1.00  0.00     0.193 C 
ATOM     35  O   UNL     1      41.321 135.319  20.381  1.00  0.00    -0.376 OA
BRANCH  32  36
ATOM     36  C   UNL     1      42.350 132.275  19.997  1.00  0.00     0.247 C 
ATOM     37  F   UNL     1      42.248 132.364  21.369  1.00  0.00    -0.248 F 
ENDBRANCH  32  36
ENDBRANCH  30  32
ENDBRANCH  22  30
ENDBRANCH   1  14
TORSDOF 11
ENDMDL
MODEL 8
REMARK VINA RESULT:      -6.3      0.909      1.125
REMARK SMILES [N-]=[N+]=Nc1c(Cl)c(Cl)c(OC(=O)[C@]2(N)C[C@@H](CO)C2)ccccc([O-])c1NC1(CF)COC1
REMARK SMILES IDX 10 1 11 2 12 3 13 4 16 5 15 6 19 7 17 8 18 9 14 11 9 14
REMARK SMILES IDX 20 15 7 16 21 17 5 18 22 19 4 20 23 21 26 22 24 23 8 24 6 25
REMARK SMILES IDX 25 26 3 27 2 28 1 29 27 30 28 32 31 33 33 34 32 35 29 36
REMARK SMILES IDX 30 37
REMARK H PARENT 18 10 14 12 14 13 27 31
ROOT
ATOM      1  O   UNL     1      43.295 131.779  16.667  1.00  0.00    -0.424 OA
ENDROOT
BRANCH   1   2
ATOM      2  C   UNL     1      43.741 131.786  15.337  1.00  0.00     0.331 C 
ATOM      3  O   UNL     1      42.945 131.992  14.383  1.00  0.00    -0.250 OA
BRANCH   2   4
ATOM      4  C   UNL     1      45.202 131.508  15.068  1.00  0.00     0.116 C 
ATOM      5  C   UNL     1      46.051 129.627  14.414  1.00  0.00     0.019 C 
ATOM      6  C   UNL     1      45.454 130.844  13.706  1.00  0.00     0.040 C 
ATOM      7  C   UNL     1      45.789 130.276  15.776  1.00  0.00     0.040 C 
BRANCH   5   8
ATOM      8  C   UNL     1      47.538 129.372  14.105  1.00  0.00     0.159 C 
BRANCH   8   9
ATOM      9  O   UNL     1      47.796 129.447  12.730  1.00  0.00    -0.396 OA
ATOM     10  H   UNL     1      48.712 129.081  12.604  1.00  0.00     0.210 HD
ENDBRANCH   8   9
ENDBRANCH   5   8
BRANCH   4  11
ATOM     11  N   UNL     1      46.039 132.696  15.257  1.00  0.00    -0.316 NA
ATOM     12  H   UNL     1      46.980 132.505  14.835  1.00  0.00     0.119 HD
ATOM     13  H   UNL     1      46.186 132.844  16.284  1.00  0.00     0.119 HD
ENDBRANCH   4  11
ENDBRANCH   2   4
ENDBRANCH   1   2
BRANCH   1  14
ATOM     14  C   UNL     1      43.015 132.902  17.463  1.00  0.00     0.151 A 
ATOM     15  C   UNL     1      43.936 133.960  17.554  1.00  0.00     0.049 A 
ATOM     16  C   UNL     1      41.741 132.946  18.073  1.00  0.00     0.102 A 
ATOM     17  C   UNL     1      43.963 134.862  18.623  1.00  0.00     0.004 A 
ATOM     18  C   UNL     1      41.039 134.128  18.426  1.00  0.00     0.075 A 
ATOM     19  C   UNL     1      44.137 136.236  18.435  1.00  0.00    -0.000 A 
ATOM     20  C   UNL     1      41.235 135.402  17.839  1.00  0.00     0.080 A 
ATOM     21  C   UNL     1      43.775 136.930  17.266  1.00  0.00    -0.006 A 
ATOM     22  C   UNL     1      41.805 135.566  16.551  1.00  0.00     0.038 A 
ATOM     23  C   UNL     1      42.843 136.493  16.301  1.00  0.00    -0.084 A 
ATOM     24  Cl  UNL     1      40.961 131.392  18.380  1.00  0.00    -0.079 Cl
ATOM     25  Cl  UNL     1      39.870 134.022  19.747  1.00  0.00    -0.082 Cl
ATOM     26  O   UNL     1      42.969 137.004  15.014  1.00  0.00    -0.871 OA
BRANCH  20  27
ATOM     27  N   UNL     1      40.847 136.553  18.609  1.00  0.00    -0.057 NA
BRANCH  27  28
ATOM     28  N   UNL     1      40.265 137.522  18.118  1.00  0.00     0.005 N 
ATOM     29  N   UNL     1      39.687 138.489  17.623  1.00  0.00    -0.003 NA
ENDBRANCH  27  28
ENDBRANCH  20  27
BRANCH  22  30
ATOM     30  N   UNL     1      41.359 134.749  15.456  1.00  0.00    -0.373 N 
ATOM     31  H   UNL     1      42.083 134.171  14.968  1.00  0.00     0.161 HD
BRANCH  30  32
ATOM     32  C   UNL     1      40.039 134.866  14.817  1.00  0.00     0.113 C 
ATOM     33  C   UNL     1      39.467 136.273  14.767  1.00  0.00     0.193 C 
ATOM     34  C   UNL     1      40.155 135.064  13.313  1.00  0.00     0.193 C 
ATOM     35  O   UNL     1      39.599 136.356  13.370  1.00  0.00    -0.376 OA
BRANCH  32  36
ATOM     36  C   UNL     1      39.050 133.761  15.226  1.00  0.00     0.247 C 
ATOM     37  F   UNL     1      38.363 134.125  16.365  1.00  0.00    -0.248 F 
ENDBRANCH  32  36
ENDBRANCH  30  32
ENDBRANCH  22  30
ENDBRANCH   1  14
TORSDOF 11
ENDMDL
MODEL 9
REMARK VINA RESULT:      -6.2      2.564      3.585
REMARK SMILES [N-]=[N+]=Nc1c(Cl)c(Cl)c(OC(=O)[C@]2(N)C[C@@H](CO)C2)ccccc([O-])c1NC1(CF)COC1
REMARK SMILES IDX 10 1 11 2 12 3 13 4 16 5 15 6 19 7 17 8 18 9 14 11 9 14
REMARK SMILES IDX 20 15 7 16 21 17 5 18 22 19 4 20 23 21 26 22 24 23 8 24 6 25
REMARK SMILES IDX 25 26 3 27 2 28 1 29 27 30 28 32 31 33 33 34 32 35 29 36
REMARK SMILES IDX 30 37
REMARK H PARENT 18 10 14 12 14 13 27 31
ROOT
ATOM      1  O   UNL     1      42.920 132.120  17.006  1.00  0.00    -0.424 OA
ENDROOT
BRANCH   1   2
ATOM      2  C   UNL     1      44.202 131.592  17.220  1.00  0.00     0.331 C 
ATOM      3  O   UNL     1      44.573 131.223  18.366  1.00  0.00    -0.250 OA
BRANCH   2   4
ATOM      4  C   UNL     1      45.149 131.504  16.045  1.00  0.00     0.116 C 
ATOM      5  C   UNL     1      45.750 129.697  15.014  1.00  0.00     0.019 C 
ATOM      6  C   UNL     1      44.590 130.684  14.873  1.00  0.00     0.040 C 
ATOM      7  C   UNL     1      46.305 130.500  16.193  1.00  0.00     0.040 C 
BRANCH   5   8
ATOM      8  C   UNL     1      46.685 129.629  13.792  1.00  0.00     0.159 C 
BRANCH   8   9
ATOM      9  O   UNL     1      47.710 128.694  13.984  1.00  0.00    -0.396 OA
ATOM     10  H   UNL     1      48.123 128.555  13.089  1.00  0.00     0.210 HD
ENDBRANCH   8   9
ENDBRANCH   5   8
BRANCH   4  11
ATOM     11  N   UNL     1      45.622 132.820  15.611  1.00  0.00    -0.316 NA
ATOM     12  H   UNL     1      44.947 133.195  14.903  1.00  0.00     0.119 HD
ATOM     13  H   UNL     1      46.545 132.704  15.127  1.00  0.00     0.119 HD
ENDBRANCH   4  11
ENDBRANCH   2   4
ENDBRANCH   1   2
BRANCH   1  14
ATOM     14  C   UNL     1      42.608 133.317  16.340  1.00  0.00     0.151 A 
ATOM     15  C   UNL     1      42.046 133.291  15.052  1.00  0.00     0.049 A 
ATOM     16  C   UNL     1      42.800 134.515  17.065  1.00  0.00     0.102 A 
ATOM     17  C   UNL     1      42.125 134.367  14.161  1.00  0.00     0.004 A 
ATOM     18  C   UNL     1      42.082 135.723  16.861  1.00  0.00     0.075 A 
ATOM     19  C   UNL     1      41.033 134.777  13.390  1.00  0.00    -0.000 A 
ATOM     20  C   UNL     1      40.796 135.821  16.276  1.00  0.00     0.080 A 
ATOM     21  C   UNL     1      39.688 134.587  13.752  1.00  0.00    -0.006 A 
ATOM     22  C   UNL     1      39.891 134.730  16.241  1.00  0.00     0.038 A 
ATOM     23  C   UNL     1      39.210 134.356  15.060  1.00  0.00    -0.084 A 
ATOM     24  Cl  UNL     1      44.010 134.474  18.350  1.00  0.00    -0.079 Cl
ATOM     25  Cl  UNL     1      42.878 137.234  17.313  1.00  0.00    -0.082 Cl
ATOM     26  O   UNL     1      37.988 133.703  15.188  1.00  0.00    -0.871 OA
BRANCH  20  27
ATOM     27  N   UNL     1      40.430 137.082  15.687  1.00  0.00    -0.057 NA
BRANCH  27  28
ATOM     28  N   UNL     1      39.435 137.719  16.036  1.00  0.00     0.005 N 
ATOM     29  N   UNL     1      38.438 138.353  16.379  1.00  0.00    -0.003 NA
ENDBRANCH  27  28
ENDBRANCH  20  27
BRANCH  22  30
ATOM     30  N   UNL     1      39.671 133.938  17.420  1.00  0.00    -0.373 N 
ATOM     31  H   UNL     1      39.920 132.922  17.364  1.00  0.00     0.161 HD
BRANCH  30  32
ATOM     32  C   UNL     1      38.893 134.384  18.586  1.00  0.00     0.113 C 
ATOM     33  C   UNL     1      37.850 135.452  18.298  1.00  0.00     0.193 C 
ATOM     34  C   UNL     1      37.664 133.515  18.811  1.00  0.00     0.193 C 
ATOM     35  O   UNL     1      36.779 134.575  18.542  1.00  0.00    -0.376 OA
BRANCH  32  36
ATOM     36  C   UNL     1      39.739 134.607  19.851  1.00  0.00     0.247 C 
ATOM     37  F   UNL     1      40.788 133.713  19.893  1.00  0.00    -0.248 F 
ENDBRANCH  32  36
ENDBRANCH  30  32
ENDBRANCH  22  30
ENDBRANCH   1  14
TORSDOF 11
ENDMDL


