REMARK SMILES Cc1nnn(C/C(C#N)=N/c2cccc(C#N)c2C)c1-c1cc2ccccc2c2ccccc12
REMARK SMILES IDX 10 1 11 2 13 3 14 4 12 5 15 6 18 7 19 8 16 9 17 10 7 11 8 12
REMARK SMILES IDX 9 13 6 14 5 15 4 16 20 17 3 18 2 19 1 20 21 21 22 22 34 23
REMARK SMILES IDX 23 24 33 25 29 26 24 27 28 28 32 29 30 30 25 31 27 32 31 33
REMARK SMILES IDX 26 34
REMARK H PARENT
ROOT
ATOM      1  N   UNL     1       2.011   0.940   0.570  1.00  0.00    -0.240 NA
ENDROOT
BRANCH   1   2
ATOM      2  C   UNL     1       2.526   0.330  -0.630  1.00  0.00     0.068 A 
ATOM      3  C   UNL     1       2.176  -0.586  -2.857  1.00  0.00     0.004 A 
ATOM      4  C   UNL     1       3.522  -0.939  -2.932  1.00  0.00     0.020 A 
ATOM      5  C   UNL     1       1.680   0.042  -1.717  1.00  0.00     0.029 A 
ATOM      6  C   UNL     1       4.379  -0.688  -1.854  1.00  0.00     0.057 A 
ATOM      7  C   UNL     1       3.879  -0.083  -0.675  1.00  0.00    -0.008 A 
ATOM      8  C   UNL     1       4.796   0.203   0.493  1.00  0.00     0.048 C 
BRANCH   6   9
ATOM      9  C   UNL     1       5.769  -1.057  -1.986  1.00  0.00     0.099 C 
ATOM     10  N   UNL     1       6.883  -1.352  -2.092  1.00  0.00    -0.192 NA
ENDBRANCH   6   9
ENDBRANCH   1   2
BRANCH   1  11
ATOM     11  C   UNL     1       1.121   1.888   0.674  1.00  0.00     0.139 C 
BRANCH  11  12
ATOM     12  C   UNL     1       0.597   2.586  -0.479  1.00  0.00     0.117 C 
ATOM     13  N   UNL     1       0.174   3.145  -1.399  1.00  0.00    -0.191 NA
ENDBRANCH  11  12
BRANCH  11  14
ATOM     14  C   UNL     1       0.688   2.331   2.042  1.00  0.00     0.214 C 
BRANCH  14  15
ATOM     15  N   UNL     1       0.248   1.194   2.852  1.00  0.00    -0.238 N 
ATOM     16  N   UNL     1       0.709   0.931   4.066  1.00  0.00    -0.066 NA
ATOM     17  C   UNL     1      -0.689   0.270   2.556  1.00  0.00     0.093 A 
ATOM     18  N   UNL     1       0.110  -0.139   4.573  1.00  0.00    -0.135 NA
ATOM     19  C   UNL     1      -0.778  -0.564   3.651  1.00  0.00     0.088 A 
ATOM     20  C   UNL     1      -1.635  -1.778   3.802  1.00  0.00     0.071 C 
BRANCH  17  21
ATOM     21  C   UNL     1      -1.440   0.176   1.286  1.00  0.00     0.010 A 
ATOM     22  C   UNL     1      -2.387   1.163   1.020  1.00  0.00     0.019 A 
ATOM     23  C   UNL     1      -1.197  -0.846   0.340  1.00  0.00    -0.008 A 
ATOM     24  C   UNL     1      -3.120   1.156  -0.168  1.00  0.00    -0.017 A 
ATOM     25  C   UNL     1      -0.198  -1.818   0.569  1.00  0.00     0.009 A 
ATOM     26  C   UNL     1      -1.939  -0.878  -0.881  1.00  0.00    -0.010 A 
ATOM     27  C   UNL     1      -4.061   2.173  -0.395  1.00  0.00     0.009 A 
ATOM     28  C   UNL     1      -2.914   0.135  -1.135  1.00  0.00    -0.010 A 
ATOM     29  C   UNL     1       0.057  -2.815  -0.367  1.00  0.00     0.001 A 
ATOM     30  C   UNL     1      -1.655  -1.912  -1.809  1.00  0.00     0.009 A 
ATOM     31  C   UNL     1      -4.808   2.194  -1.570  1.00  0.00     0.001 A 
ATOM     32  C   UNL     1      -3.692   0.183  -2.321  1.00  0.00     0.009 A 
ATOM     33  C   UNL     1      -0.671  -2.864  -1.548  1.00  0.00     0.001 A 
ATOM     34  C   UNL     1      -4.624   1.202  -2.528  1.00  0.00     0.001 A 
ENDBRANCH  17  21
ENDBRANCH  14  15
ENDBRANCH  11  14
ENDBRANCH   1  11
TORSDOF 7


