MODEL 1
REMARK VINA RESULT:      -6.4      0.000      0.000
REMARK SMILES Cc1ccc2ccccc2c1C[N+](C)(C)CCc1cn(/C(=N\O)c2ccccc2N=[N+]=[N-])[nH+]n1
REMARK SMILES IDX 20 1 19 2 18 3 34 4 33 5 21 7 22 8 23 9 24 11 25 12 29 13
REMARK SMILES IDX 26 14 28 15 27 16 30 17 31 18 32 19 17 20 16 21 13 22 14 23
REMARK SMILES IDX 15 24 12 25 11 26 2 27 10 28 3 29 9 30 5 31 4 32 8 33 6 34
REMARK SMILES IDX 7 35 1 36
REMARK H PARENT 33 6 23 10
ROOT
ATOM      1  N   UNL     1      42.538 133.450  15.286  1.00  0.00    -0.081 N 
ATOM      2  C   UNL     1      41.431 134.142  15.609  1.00  0.00     0.192 A 
ATOM      3  C   UNL     1      40.424 133.656  14.796  1.00  0.00     0.138 A 
ATOM      4  N   UNL     1      40.946 132.714  13.982  1.00  0.00     0.020 NA
ATOM      5  N   UNL     1      42.226 132.617  14.306  1.00  0.00    -0.011 N 
ATOM      6  H   UNL     1      42.899 131.968  13.838  1.00  0.00     0.527 HD
ENDROOT
BRANCH   1   7
ATOM      7  C   UNL     1      43.861 133.636  15.812  1.00  0.00     0.241 C 
BRANCH   7   8
ATOM      8  N   UNL     1      44.547 134.711  15.544  1.00  0.00    -0.064 NA
BRANCH   8   9
ATOM      9  O   UNL     1      44.062 135.795  14.840  1.00  0.00    -0.409 OA
ATOM     10  H   UNL     1      43.088 136.069  14.864  1.00  0.00     0.330 HD
ENDBRANCH   8   9
ENDBRANCH   7   8
BRANCH   7  11
ATOM     11  C   UNL     1      44.449 132.616  16.719  1.00  0.00     0.036 A 
ATOM     12  C   UNL     1      44.345 132.797  18.112  1.00  0.00     0.013 A 
ATOM     13  C   UNL     1      45.108 131.467  16.219  1.00  0.00     0.049 A 
ATOM     14  C   UNL     1      44.864 131.848  18.994  1.00  0.00     0.001 A 
ATOM     15  C   UNL     1      45.623 130.517  17.124  1.00  0.00     0.011 A 
ATOM     16  C   UNL     1      45.497 130.708  18.501  1.00  0.00     0.001 A 
BRANCH  13  17
ATOM     17  N   UNL     1      45.283 131.299  14.803  1.00  0.00    -0.060 NA
BRANCH  17  18
ATOM     18  N   UNL     1      46.381 131.399  14.253  1.00  0.00     0.005 N 
ATOM     19  N   UNL     1      47.476 131.500  13.702  1.00  0.00    -0.003 NA
ENDBRANCH  17  18
ENDBRANCH  13  17
ENDBRANCH   7  11
ENDBRANCH   1   7
BRANCH   3  20
ATOM     20  C   UNL     1      38.993 134.106  14.763  1.00  0.00     0.126 C 
BRANCH  20  21
ATOM     21  C   UNL     1      38.572 134.928  16.012  1.00  0.00     0.270 C 
BRANCH  21  22
ATOM     22  N   UNL     1      37.271 135.675  15.928  1.00  0.00    -0.324 N 
ATOM     23  C   UNL     1      36.408 135.323  17.083  1.00  0.00     0.334 C 
ATOM     24  C   UNL     1      36.584 135.187  14.702  1.00  0.00     0.334 C 
BRANCH  22  25
ATOM     25  C   UNL     1      37.515 137.158  15.877  1.00  0.00     0.301 C 
BRANCH  25  26
ATOM     26  C   UNL     1      38.992 137.601  15.931  1.00  0.00     0.017 A 
ATOM     27  C   UNL     1      39.759 137.714  14.729  1.00  0.00    -0.042 A 
ATOM     28  C   UNL     1      39.633 137.917  17.175  1.00  0.00    -0.009 A 
ATOM     29  C   UNL     1      41.143 137.927  14.802  1.00  0.00     0.004 A 
ATOM     30  C   UNL     1      38.926 138.034  18.399  1.00  0.00     0.009 A 
ATOM     31  C   UNL     1      41.038 138.145  17.203  1.00  0.00    -0.018 A 
ATOM     32  C   UNL     1      41.777 138.112  16.021  1.00  0.00     0.009 A 
ATOM     33  C   UNL     1      39.594 138.311  19.594  1.00  0.00     0.001 A 
ATOM     34  C   UNL     1      41.693 138.413  18.415  1.00  0.00     0.009 A 
ATOM     35  C   UNL     1      40.973 138.491  19.604  1.00  0.00     0.001 A 
ATOM     36  C   UNL     1      39.145 137.665  13.348  1.00  0.00     0.045 C 
ENDBRANCH  25  26
ENDBRANCH  22  25
ENDBRANCH  21  22
ENDBRANCH  20  21
ENDBRANCH   3  20
TORSDOF 11
ENDMDL
MODEL 2
REMARK VINA RESULT:      -6.3      3.758      5.961
REMARK SMILES Cc1ccc2ccccc2c1C[N+](C)(C)CCc1cn(/C(=N\O)c2ccccc2N=[N+]=[N-])[nH+]n1
REMARK SMILES IDX 20 1 19 2 18 3 34 4 33 5 21 7 22 8 23 9 24 11 25 12 29 13
REMARK SMILES IDX 26 14 28 15 27 16 30 17 31 18 32 19 17 20 16 21 13 22 14 23
REMARK SMILES IDX 15 24 12 25 11 26 2 27 10 28 3 29 9 30 5 31 4 32 8 33 6 34
REMARK SMILES IDX 7 35 1 36
REMARK H PARENT 33 6 23 10
ROOT
ATOM      1  N   UNL     1      43.855 132.468  15.039  1.00  0.00    -0.081 N 
ATOM      2  C   UNL     1      44.681 133.223  15.785  1.00  0.00     0.192 A 
ATOM      3  C   UNL     1      43.955 134.342  16.147  1.00  0.00     0.138 A 
ATOM      4  N   UNL     1      42.729 134.259  15.589  1.00  0.00     0.020 NA
ATOM      5  N   UNL     1      42.705 133.114  14.925  1.00  0.00    -0.011 N 
ATOM      6  H   UNL     1      41.882 132.773  14.378  1.00  0.00     0.527 HD
ENDROOT
BRANCH   1   7
ATOM      7  C   UNL     1      44.170 131.234  14.376  1.00  0.00     0.241 C 
BRANCH   7   8
ATOM      8  N   UNL     1      43.248 130.538  13.773  1.00  0.00    -0.064 NA
BRANCH   8   9
ATOM      9  O   UNL     1      42.293 131.068  12.928  1.00  0.00    -0.409 OA
ATOM     10  H   UNL     1      42.510 131.765  12.228  1.00  0.00     0.330 HD
ENDBRANCH   8   9
ENDBRANCH   7   8
BRANCH   7  11
ATOM     11  C   UNL     1      45.577 130.758  14.326  1.00  0.00     0.036 A 
ATOM     12  C   UNL     1      46.341 130.996  13.168  1.00  0.00     0.013 A 
ATOM     13  C   UNL     1      46.169 130.072  15.415  1.00  0.00     0.049 A 
ATOM     14  C   UNL     1      47.672 130.584  13.095  1.00  0.00     0.001 A 
ATOM     15  C   UNL     1      47.516 129.667  15.326  1.00  0.00     0.011 A 
ATOM     16  C   UNL     1      48.260 129.926  14.173  1.00  0.00     0.001 A 
BRANCH  13  17
ATOM     17  N   UNL     1      45.386 129.761  16.579  1.00  0.00    -0.060 NA
BRANCH  17  18
ATOM     18  N   UNL     1      45.587 130.286  17.675  1.00  0.00     0.005 N 
ATOM     19  N   UNL     1      45.789 130.811  18.768  1.00  0.00    -0.003 NA
ENDBRANCH  17  18
ENDBRANCH  13  17
ENDBRANCH   7  11
ENDBRANCH   1   7
BRANCH   3  20
ATOM     20  C   UNL     1      44.430 135.496  16.980  1.00  0.00     0.126 C 
BRANCH  20  21
ATOM     21  C   UNL     1      44.372 135.223  18.508  1.00  0.00     0.270 C 
BRANCH  21  22
ATOM     22  N   UNL     1      43.249 135.865  19.272  1.00  0.00    -0.324 N 
ATOM     23  C   UNL     1      42.401 134.821  19.902  1.00  0.00     0.334 C 
ATOM     24  C   UNL     1      42.406 136.569  18.270  1.00  0.00     0.334 C 
BRANCH  22  25
ATOM     25  C   UNL     1      43.788 136.810  20.311  1.00  0.00     0.301 C 
BRANCH  25  26
ATOM     26  C   UNL     1      45.233 137.303  20.089  1.00  0.00     0.017 A 
ATOM     27  C   UNL     1      45.495 138.425  19.242  1.00  0.00    -0.042 A 
ATOM     28  C   UNL     1      46.347 136.660  20.725  1.00  0.00    -0.009 A 
ATOM     29  C   UNL     1      46.816 138.743  18.894  1.00  0.00     0.004 A 
ATOM     30  C   UNL     1      46.196 135.674  21.733  1.00  0.00     0.009 A 
ATOM     31  C   UNL     1      47.672 137.025  20.356  1.00  0.00    -0.018 A 
ATOM     32  C   UNL     1      47.886 138.038  19.422  1.00  0.00     0.009 A 
ATOM     33  C   UNL     1      47.308 135.049  22.302  1.00  0.00     0.001 A 
ATOM     34  C   UNL     1      48.777 136.380  20.933  1.00  0.00     0.009 A 
ATOM     35  C   UNL     1      48.593 135.394  21.899  1.00  0.00     0.001 A 
ATOM     36  C   UNL     1      44.410 139.343  18.726  1.00  0.00     0.045 C 
ENDBRANCH  25  26
ENDBRANCH  22  25
ENDBRANCH  21  22
ENDBRANCH  20  21
ENDBRANCH   3  20
TORSDOF 11
ENDMDL
MODEL 3
REMARK VINA RESULT:      -6.3      3.654      6.070
REMARK SMILES Cc1ccc2ccccc2c1C[N+](C)(C)CCc1cn(/C(=N\O)c2ccccc2N=[N+]=[N-])[nH+]n1
REMARK SMILES IDX 20 1 19 2 18 3 34 4 33 5 21 7 22 8 23 9 24 11 25 12 29 13
REMARK SMILES IDX 26 14 28 15 27 16 30 17 31 18 32 19 17 20 16 21 13 22 14 23
REMARK SMILES IDX 15 24 12 25 11 26 2 27 10 28 3 29 9 30 5 31 4 32 8 33 6 34
REMARK SMILES IDX 7 35 1 36
REMARK H PARENT 33 6 23 10
ROOT
ATOM      1  N   UNL     1      44.015 132.051  15.416  1.00  0.00    -0.081 N 
ATOM      2  C   UNL     1      44.489 133.303  15.545  1.00  0.00     0.192 A 
ATOM      3  C   UNL     1      44.029 133.763  16.765  1.00  0.00     0.138 A 
ATOM      4  N   UNL     1      43.267 132.801  17.327  1.00  0.00     0.020 NA
ATOM      5  N   UNL     1      43.279 131.782  16.483  1.00  0.00    -0.011 N 
ATOM      6  H   UNL     1      42.767 130.885  16.641  1.00  0.00     0.527 HD
ENDROOT
BRANCH   1   7
ATOM      7  C   UNL     1      44.169 131.179  14.285  1.00  0.00     0.241 C 
BRANCH   7   8
ATOM      8  N   UNL     1      43.170 130.930  13.487  1.00  0.00    -0.064 NA
BRANCH   8   9
ATOM      9  O   UNL     1      41.967 131.607  13.501  1.00  0.00    -0.409 OA
ATOM     10  H   UNL     1      41.278 131.480  14.233  1.00  0.00     0.330 HD
ENDBRANCH   8   9
ENDBRANCH   7   8
BRANCH   7  11
ATOM     11  C   UNL     1      45.497 130.585  13.982  1.00  0.00     0.036 A 
ATOM     12  C   UNL     1      46.119 130.888  12.756  1.00  0.00     0.013 A 
ATOM     13  C   UNL     1      46.153 129.724  14.896  1.00  0.00     0.049 A 
ATOM     14  C   UNL     1      47.377 130.367  12.448  1.00  0.00     0.001 A 
ATOM     15  C   UNL     1      47.424 129.210  14.570  1.00  0.00     0.011 A 
ATOM     16  C   UNL     1      48.030 129.534  13.355  1.00  0.00     0.001 A 
BRANCH  13  17
ATOM     17  N   UNL     1      45.504 129.350  16.122  1.00  0.00    -0.060 NA
BRANCH  17  18
ATOM     18  N   UNL     1      45.680 129.957  17.179  1.00  0.00     0.005 N 
ATOM     19  N   UNL     1      45.856 130.562  18.235  1.00  0.00    -0.003 NA
ENDBRANCH  17  18
ENDBRANCH  13  17
ENDBRANCH   7  11
ENDBRANCH   1   7
BRANCH   3  20
ATOM     20  C   UNL     1      44.277 135.111  17.375  1.00  0.00     0.126 C 
BRANCH  20  21
ATOM     21  C   UNL     1      42.994 135.976  17.512  1.00  0.00     0.270 C 
BRANCH  21  22
ATOM     22  N   UNL     1      42.747 136.619  18.847  1.00  0.00    -0.324 N 
ATOM     23  C   UNL     1      41.826 135.780  19.653  1.00  0.00     0.334 C 
ATOM     24  C   UNL     1      42.046 137.902  18.573  1.00  0.00     0.334 C 
BRANCH  22  25
ATOM     25  C   UNL     1      44.044 136.839  19.577  1.00  0.00     0.301 C 
BRANCH  25  26
ATOM     26  C   UNL     1      44.071 136.393  21.054  1.00  0.00     0.017 A 
ATOM     27  C   UNL     1      43.649 137.286  22.088  1.00  0.00    -0.042 A 
ATOM     28  C   UNL     1      44.510 135.080  21.430  1.00  0.00    -0.009 A 
ATOM     29  C   UNL     1      43.859 136.945  23.432  1.00  0.00     0.004 A 
ATOM     30  C   UNL     1      44.760 134.050  20.486  1.00  0.00     0.009 A 
ATOM     31  C   UNL     1      44.693 134.769  22.807  1.00  0.00    -0.018 A 
ATOM     32  C   UNL     1      44.396 135.717  23.785  1.00  0.00     0.009 A 
ATOM     33  C   UNL     1      45.218 132.796  20.894  1.00  0.00     0.001 A 
ATOM     34  C   UNL     1      45.162 133.504  23.196  1.00  0.00     0.009 A 
ATOM     35  C   UNL     1      45.427 132.525  22.242  1.00  0.00     0.001 A 
ATOM     36  C   UNL     1      42.927 138.586  21.815  1.00  0.00     0.045 C 
ENDBRANCH  25  26
ENDBRANCH  22  25
ENDBRANCH  21  22
ENDBRANCH  20  21
ENDBRANCH   3  20
TORSDOF 11
ENDMDL
MODEL 4
REMARK VINA RESULT:      -6.3      4.194      6.675
REMARK SMILES Cc1ccc2ccccc2c1C[N+](C)(C)CCc1cn(/C(=N\O)c2ccccc2N=[N+]=[N-])[nH+]n1
REMARK SMILES IDX 20 1 19 2 18 3 34 4 33 5 21 7 22 8 23 9 24 11 25 12 29 13
REMARK SMILES IDX 26 14 28 15 27 16 30 17 31 18 32 19 17 20 16 21 13 22 14 23
REMARK SMILES IDX 15 24 12 25 11 26 2 27 10 28 3 29 9 30 5 31 4 32 8 33 6 34
REMARK SMILES IDX 7 35 1 36
REMARK H PARENT 33 6 23 10
ROOT
ATOM      1  N   UNL     1      43.553 133.561  15.548  1.00  0.00    -0.081 N 
ATOM      2  C   UNL     1      44.225 134.025  16.618  1.00  0.00     0.192 A 
ATOM      3  C   UNL     1      43.969 135.382  16.672  1.00  0.00     0.138 A 
ATOM      4  N   UNL     1      43.184 135.714  15.625  1.00  0.00     0.020 NA
ATOM      5  N   UNL     1      42.954 134.589  14.967  1.00  0.00    -0.011 N 
ATOM      6  H   UNL     1      42.378 134.527  14.097  1.00  0.00     0.527 HD
ENDROOT
BRANCH   1   7
ATOM      7  C   UNL     1      43.557 132.219  15.038  1.00  0.00     0.241 C 
BRANCH   7   8
ATOM      8  N   UNL     1      42.482 131.691  14.523  1.00  0.00    -0.064 NA
BRANCH   8   9
ATOM      9  O   UNL     1      41.512 132.397  13.840  1.00  0.00    -0.409 OA
ATOM     10  H   UNL     1      41.113 133.257  14.194  1.00  0.00     0.330 HD
ENDBRANCH   8   9
ENDBRANCH   7   8
BRANCH   7  11
ATOM     11  C   UNL     1      44.814 131.427  15.045  1.00  0.00     0.036 A 
ATOM     12  C   UNL     1      45.491 131.205  13.831  1.00  0.00     0.013 A 
ATOM     13  C   UNL     1      45.349 130.892  16.243  1.00  0.00     0.049 A 
ATOM     14  C   UNL     1      46.687 130.486  13.804  1.00  0.00     0.001 A 
ATOM     15  C   UNL     1      46.559 130.171  16.197  1.00  0.00     0.011 A 
ATOM     16  C   UNL     1      47.222 129.974  14.985  1.00  0.00     0.001 A 
BRANCH  13  17
ATOM     17  N   UNL     1      44.637 131.051  17.481  1.00  0.00    -0.060 NA
BRANCH  17  18
ATOM     18  N   UNL     1      45.189 130.972  18.579  1.00  0.00     0.005 N 
ATOM     19  N   UNL     1      45.739 130.891  19.676  1.00  0.00    -0.003 NA
ENDBRANCH  17  18
ENDBRANCH  13  17
ENDBRANCH   7  11
ENDBRANCH   1   7
BRANCH   3  20
ATOM     20  C   UNL     1      44.493 136.361  17.681  1.00  0.00     0.126 C 
BRANCH  20  21
ATOM     21  C   UNL     1      43.497 136.654  18.836  1.00  0.00     0.270 C 
BRANCH  21  22
ATOM     22  N   UNL     1      43.798 136.031  20.169  1.00  0.00    -0.324 N 
ATOM     23  C   UNL     1      44.587 134.787  19.983  1.00  0.00     0.334 C 
ATOM     24  C   UNL     1      42.489 135.637  20.755  1.00  0.00     0.334 C 
BRANCH  22  25
ATOM     25  C   UNL     1      44.534 137.002  21.052  1.00  0.00     0.301 C 
BRANCH  25  26
ATOM     26  C   UNL     1      46.027 136.696  21.293  1.00  0.00     0.017 A 
ATOM     27  C   UNL     1      46.425 135.801  22.335  1.00  0.00    -0.042 A 
ATOM     28  C   UNL     1      47.051 137.290  20.483  1.00  0.00    -0.009 A 
ATOM     29  C   UNL     1      47.781 135.680  22.671  1.00  0.00     0.004 A 
ATOM     30  C   UNL     1      46.771 138.029  19.305  1.00  0.00     0.009 A 
ATOM     31  C   UNL     1      48.417 137.128  20.849  1.00  0.00    -0.018 A 
ATOM     32  C   UNL     1      48.759 136.354  21.956  1.00  0.00     0.009 A 
ATOM     33  C   UNL     1      47.797 138.619  18.564  1.00  0.00     0.001 A 
ATOM     34  C   UNL     1      49.434 137.736  20.096  1.00  0.00     0.009 A 
ATOM     35  C   UNL     1      49.123 138.480  18.961  1.00  0.00     0.001 A 
ATOM     36  C   UNL     1      45.452 134.917  23.083  1.00  0.00     0.045 C 
ENDBRANCH  25  26
ENDBRANCH  22  25
ENDBRANCH  21  22
ENDBRANCH  20  21
ENDBRANCH   3  20
TORSDOF 11
ENDMDL
MODEL 5
REMARK VINA RESULT:      -6.0      3.359      7.781
REMARK SMILES Cc1ccc2ccccc2c1C[N+](C)(C)CCc1cn(/C(=N\O)c2ccccc2N=[N+]=[N-])[nH+]n1
REMARK SMILES IDX 20 1 19 2 18 3 34 4 33 5 21 7 22 8 23 9 24 11 25 12 29 13
REMARK SMILES IDX 26 14 28 15 27 16 30 17 31 18 32 19 17 20 16 21 13 22 14 23
REMARK SMILES IDX 15 24 12 25 11 26 2 27 10 28 3 29 9 30 5 31 4 32 8 33 6 34
REMARK SMILES IDX 7 35 1 36
REMARK H PARENT 33 6 23 10
ROOT
ATOM      1  N   UNL     1      39.513 134.369  18.488  1.00  0.00    -0.081 N 
ATOM      2  C   UNL     1      40.164 133.194  18.562  1.00  0.00     0.192 A 
ATOM      3  C   UNL     1      41.045 133.310  19.621  1.00  0.00     0.138 A 
ATOM      4  N   UNL     1      40.934 134.552  20.138  1.00  0.00     0.020 NA
ATOM      5  N   UNL     1      40.000 135.165  19.427  1.00  0.00    -0.011 N 
ATOM      6  H   UNL     1      39.696 136.151  19.588  1.00  0.00     0.527 HD
ENDROOT
BRANCH   1   7
ATOM      7  C   UNL     1      38.541 134.761  17.506  1.00  0.00     0.241 C 
BRANCH   7   8
ATOM      8  N   UNL     1      37.304 134.998  17.840  1.00  0.00    -0.064 NA
BRANCH   8   9
ATOM      9  O   UNL     1      36.378 135.618  17.026  1.00  0.00    -0.409 OA
ATOM     10  H   UNL     1      35.380 135.496  17.143  1.00  0.00     0.330 HD
ENDBRANCH   8   9
ENDBRANCH   7   8
BRANCH   7  11
ATOM     11  C   UNL     1      38.952 134.950  16.090  1.00  0.00     0.036 A 
ATOM     12  C   UNL     1      38.715 133.917  15.164  1.00  0.00     0.013 A 
ATOM     13  C   UNL     1      39.574 136.144  15.650  1.00  0.00     0.049 A 
ATOM     14  C   UNL     1      39.067 134.069  13.822  1.00  0.00     0.001 A 
ATOM     15  C   UNL     1      39.919 136.282  14.290  1.00  0.00     0.011 A 
ATOM     16  C   UNL     1      39.663 135.250  13.385  1.00  0.00     0.001 A 
BRANCH  13  17
ATOM     17  N   UNL     1      39.885 137.182  16.593  1.00  0.00    -0.060 NA
BRANCH  17  18
ATOM     18  N   UNL     1      40.875 137.906  16.482  1.00  0.00     0.005 N 
ATOM     19  N   UNL     1      41.862 138.630  16.369  1.00  0.00    -0.003 NA
ENDBRANCH  17  18
ENDBRANCH  13  17
ENDBRANCH   7  11
ENDBRANCH   1   7
BRANCH   3  20
ATOM     20  C   UNL     1      42.008 132.271  20.114  1.00  0.00     0.126 C 
BRANCH  20  21
ATOM     21  C   UNL     1      43.073 131.862  19.060  1.00  0.00     0.270 C 
BRANCH  21  22
ATOM     22  N   UNL     1      44.490 132.283  19.326  1.00  0.00    -0.324 N 
ATOM     23  C   UNL     1      45.349 131.087  19.513  1.00  0.00     0.334 C 
ATOM     24  C   UNL     1      44.475 133.019  20.618  1.00  0.00     0.334 C 
BRANCH  22  25
ATOM     25  C   UNL     1      45.007 133.139  18.202  1.00  0.00     0.301 C 
BRANCH  25  26
ATOM     26  C   UNL     1      44.341 132.923  16.827  1.00  0.00     0.017 A 
ATOM     27  C   UNL     1      43.258 133.758  16.407  1.00  0.00    -0.042 A 
ATOM     28  C   UNL     1      44.787 131.892  15.935  1.00  0.00    -0.009 A 
ATOM     29  C   UNL     1      42.536 133.433  15.250  1.00  0.00     0.004 A 
ATOM     30  C   UNL     1      45.969 131.139  16.155  1.00  0.00     0.009 A 
ATOM     31  C   UNL     1      44.035 131.607  14.761  1.00  0.00    -0.018 A 
ATOM     32  C   UNL     1      42.902 132.359  14.454  1.00  0.00     0.009 A 
ATOM     33  C   UNL     1      46.349 130.121  15.278  1.00  0.00     0.001 A 
ATOM     34  C   UNL     1      44.428 130.573  13.895  1.00  0.00     0.009 A 
ATOM     35  C   UNL     1      45.578 129.833  14.157  1.00  0.00     0.001 A 
ATOM     36  C   UNL     1      42.867 135.029  17.126  1.00  0.00     0.045 C 
ENDBRANCH  25  26
ENDBRANCH  22  25
ENDBRANCH  21  22
ENDBRANCH  20  21
ENDBRANCH   3  20
TORSDOF 11
ENDMDL
MODEL 6
REMARK VINA RESULT:      -5.9      2.603      5.015
REMARK SMILES Cc1ccc2ccccc2c1C[N+](C)(C)CCc1cn(/C(=N\O)c2ccccc2N=[N+]=[N-])[nH+]n1
REMARK SMILES IDX 20 1 19 2 18 3 34 4 33 5 21 7 22 8 23 9 24 11 25 12 29 13
REMARK SMILES IDX 26 14 28 15 27 16 30 17 31 18 32 19 17 20 16 21 13 22 14 23
REMARK SMILES IDX 15 24 12 25 11 26 2 27 10 28 3 29 9 30 5 31 4 32 8 33 6 34
REMARK SMILES IDX 7 35 1 36
REMARK H PARENT 33 6 23 10
ROOT
ATOM      1  N   UNL     1      43.857 132.359  15.538  1.00  0.00    -0.081 N 
ATOM      2  C   UNL     1      44.745 133.018  16.303  1.00  0.00     0.192 A 
ATOM      3  C   UNL     1      44.003 133.838  17.133  1.00  0.00     0.138 A 
ATOM      4  N   UNL     1      42.696 133.684  16.831  1.00  0.00     0.020 NA
ATOM      5  N   UNL     1      42.646 132.784  15.861  1.00  0.00    -0.011 N 
ATOM      6  H   UNL     1      41.761 132.460  15.410  1.00  0.00     0.527 HD
ENDROOT
BRANCH   1   7
ATOM      7  C   UNL     1      44.145 131.439  14.474  1.00  0.00     0.241 C 
BRANCH   7   8
ATOM      8  N   UNL     1      43.249 131.149  13.573  1.00  0.00    -0.064 NA
BRANCH   8   9
ATOM      9  O   UNL     1      41.996 131.725  13.500  1.00  0.00    -0.409 OA
ATOM     10  H   UNL     1      41.190 131.338  13.974  1.00  0.00     0.330 HD
ENDBRANCH   8   9
ENDBRANCH   7   8
BRANCH   7  11
ATOM     11  C   UNL     1      45.500 130.839  14.359  1.00  0.00     0.036 A 
ATOM     12  C   UNL     1      46.251 131.061  13.190  1.00  0.00     0.013 A 
ATOM     13  C   UNL     1      46.055 130.051  15.398  1.00  0.00     0.049 A 
ATOM     14  C   UNL     1      47.536 130.533  13.057  1.00  0.00     0.001 A 
ATOM     15  C   UNL     1      47.355 129.529  15.248  1.00  0.00     0.011 A 
ATOM     16  C   UNL     1      48.089 129.773  14.086  1.00  0.00     0.001 A 
BRANCH  13  17
ATOM     17  N   UNL     1      45.278 129.758  16.570  1.00  0.00    -0.060 NA
BRANCH  17  18
ATOM     18  N   UNL     1      45.549 130.219  17.679  1.00  0.00     0.005 N 
ATOM     19  N   UNL     1      45.820 130.681  18.786  1.00  0.00    -0.003 NA
ENDBRANCH  17  18
ENDBRANCH  13  17
ENDBRANCH   7  11
ENDBRANCH   1   7
BRANCH   3  20
ATOM     20  C   UNL     1      44.526 134.783  18.173  1.00  0.00     0.126 C 
BRANCH  20  21
ATOM     21  C   UNL     1      44.348 136.280  17.798  1.00  0.00     0.270 C 
BRANCH  21  22
ATOM     22  N   UNL     1      44.479 137.281  18.910  1.00  0.00    -0.324 N 
ATOM     23  C   UNL     1      45.644 138.167  18.663  1.00  0.00     0.334 C 
ATOM     24  C   UNL     1      44.772 136.504  20.144  1.00  0.00     0.334 C 
BRANCH  22  25
ATOM     25  C   UNL     1      43.216 138.088  19.047  1.00  0.00     0.301 C 
BRANCH  25  26
ATOM     26  C   UNL     1      42.017 137.614  18.199  1.00  0.00     0.017 A 
ATOM     27  C   UNL     1      41.087 136.665  18.727  1.00  0.00    -0.042 A 
ATOM     28  C   UNL     1      41.798 138.111  16.871  1.00  0.00    -0.009 A 
ATOM     29  C   UNL     1      40.118 136.097  17.887  1.00  0.00     0.004 A 
ATOM     30  C   UNL     1      42.532 139.193  16.322  1.00  0.00     0.009 A 
ATOM     31  C   UNL     1      40.792 137.518  16.057  1.00  0.00    -0.018 A 
ATOM     32  C   UNL     1      39.990 136.497  16.566  1.00  0.00     0.009 A 
ATOM     33  C   UNL     1      42.310 139.623  15.012  1.00  0.00     0.001 A 
ATOM     34  C   UNL     1      40.589 137.959  14.740  1.00  0.00     0.009 A 
ATOM     35  C   UNL     1      41.348 139.004  14.221  1.00  0.00     0.001 A 
ATOM     36  C   UNL     1      41.051 136.263  20.184  1.00  0.00     0.045 C 
ENDBRANCH  25  26
ENDBRANCH  22  25
ENDBRANCH  21  22
ENDBRANCH  20  21
ENDBRANCH   3  20
TORSDOF 11
ENDMDL
MODEL 7
REMARK VINA RESULT:      -5.8      3.089      5.110
REMARK SMILES Cc1ccc2ccccc2c1C[N+](C)(C)CCc1cn(/C(=N\O)c2ccccc2N=[N+]=[N-])[nH+]n1
REMARK SMILES IDX 20 1 19 2 18 3 34 4 33 5 21 7 22 8 23 9 24 11 25 12 29 13
REMARK SMILES IDX 26 14 28 15 27 16 30 17 31 18 32 19 17 20 16 21 13 22 14 23
REMARK SMILES IDX 15 24 12 25 11 26 2 27 10 28 3 29 9 30 5 31 4 32 8 33 6 34
REMARK SMILES IDX 7 35 1 36
REMARK H PARENT 33 6 23 10
ROOT
ATOM      1  N   UNL     1      45.294 130.563  17.290  1.00  0.00    -0.081 N 
ATOM      2  C   UNL     1      44.589 131.708  17.319  1.00  0.00     0.192 A 
ATOM      3  C   UNL     1      44.781 132.245  18.578  1.00  0.00     0.138 A 
ATOM      4  N   UNL     1      45.563 131.404  19.289  1.00  0.00     0.020 NA
ATOM      5  N   UNL     1      45.852 130.398  18.479  1.00  0.00    -0.011 N 
ATOM      6  H   UNL     1      46.441 129.579  18.752  1.00  0.00     0.527 HD
ENDROOT
BRANCH   1   7
ATOM      7  C   UNL     1      45.357 129.611  16.216  1.00  0.00     0.241 C 
BRANCH   7   8
ATOM      8  N   UNL     1      44.778 128.448  16.312  1.00  0.00    -0.064 NA
BRANCH   8   9
ATOM      9  O   UNL     1      45.167 127.319  15.619  1.00  0.00    -0.409 OA
ATOM     10  H   UNL     1      44.517 126.589  15.356  1.00  0.00     0.330 HD
ENDBRANCH   8   9
ENDBRANCH   7   8
BRANCH   7  11
ATOM     11  C   UNL     1      46.051 129.967  14.951  1.00  0.00     0.036 A 
ATOM     12  C   UNL     1      47.453 129.865  14.885  1.00  0.00     0.013 A 
ATOM     13  C   UNL     1      45.335 130.404  13.809  1.00  0.00     0.049 A 
ATOM     14  C   UNL     1      48.135 130.169  13.706  1.00  0.00     0.001 A 
ATOM     15  C   UNL     1      46.040 130.703  12.625  1.00  0.00     0.011 A 
ATOM     16  C   UNL     1      47.430 130.582  12.578  1.00  0.00     0.001 A 
BRANCH  13  17
ATOM     17  N   UNL     1      43.911 130.578  13.877  1.00  0.00    -0.060 NA
BRANCH  17  18
ATOM     18  N   UNL     1      43.386 131.657  14.156  1.00  0.00     0.005 N 
ATOM     19  N   UNL     1      42.863 132.734  14.433  1.00  0.00    -0.003 NA
ENDBRANCH  17  18
ENDBRANCH  13  17
ENDBRANCH   7  11
ENDBRANCH   1   7
BRANCH   3  20
ATOM     20  C   UNL     1      44.201 133.519  19.115  1.00  0.00     0.126 C 
BRANCH  20  21
ATOM     21  C   UNL     1      42.841 133.325  19.841  1.00  0.00     0.270 C 
BRANCH  21  22
ATOM     22  N   UNL     1      41.945 134.527  19.939  1.00  0.00    -0.324 N 
ATOM     23  C   UNL     1      42.422 135.594  19.024  1.00  0.00     0.334 C 
ATOM     24  C   UNL     1      42.085 135.044  21.327  1.00  0.00     0.334 C 
BRANCH  22  25
ATOM     25  C   UNL     1      40.522 134.153  19.625  1.00  0.00     0.301 C 
BRANCH  25  26
ATOM     26  C   UNL     1      39.714 135.189  18.816  1.00  0.00     0.017 A 
ATOM     27  C   UNL     1      39.696 135.138  17.387  1.00  0.00    -0.042 A 
ATOM     28  C   UNL     1      38.959 136.221  19.467  1.00  0.00    -0.009 A 
ATOM     29  C   UNL     1      39.123 136.191  16.659  1.00  0.00     0.004 A 
ATOM     30  C   UNL     1      38.742 136.250  20.868  1.00  0.00     0.009 A 
ATOM     31  C   UNL     1      38.378 137.261  18.688  1.00  0.00    -0.018 A 
ATOM     32  C   UNL     1      38.498 137.248  17.300  1.00  0.00     0.009 A 
ATOM     33  C   UNL     1      38.028 137.292  21.464  1.00  0.00     0.001 A 
ATOM     34  C   UNL     1      37.671 138.305  19.307  1.00  0.00     0.009 A 
ATOM     35  C   UNL     1      37.502 138.320  20.689  1.00  0.00     0.001 A 
ATOM     36  C   UNL     1      40.226 133.965  16.594  1.00  0.00     0.045 C 
ENDBRANCH  25  26
ENDBRANCH  22  25
ENDBRANCH  21  22
ENDBRANCH  20  21
ENDBRANCH   3  20
TORSDOF 11
ENDMDL
MODEL 8
REMARK VINA RESULT:      -5.7      3.431      8.496
REMARK SMILES Cc1ccc2ccccc2c1C[N+](C)(C)CCc1cn(/C(=N\O)c2ccccc2N=[N+]=[N-])[nH+]n1
REMARK SMILES IDX 20 1 19 2 18 3 34 4 33 5 21 7 22 8 23 9 24 11 25 12 29 13
REMARK SMILES IDX 26 14 28 15 27 16 30 17 31 18 32 19 17 20 16 21 13 22 14 23
REMARK SMILES IDX 15 24 12 25 11 26 2 27 10 28 3 29 9 30 5 31 4 32 8 33 6 34
REMARK SMILES IDX 7 35 1 36
REMARK H PARENT 33 6 23 10
ROOT
ATOM      1  N   UNL     1      40.105 135.912  13.830  1.00  0.00    -0.081 N 
ATOM      2  C   UNL     1      41.010 135.115  14.428  1.00  0.00     0.192 A 
ATOM      3  C   UNL     1      41.907 135.958  15.056  1.00  0.00     0.138 A 
ATOM      4  N   UNL     1      41.550 137.234  14.800  1.00  0.00     0.020 NA
ATOM      5  N   UNL     1      40.458 137.168  14.055  1.00  0.00    -0.011 N 
ATOM      6  H   UNL     1      39.948 138.003  13.689  1.00  0.00     0.527 HD
ENDROOT
BRANCH   1   7
ATOM      7  C   UNL     1      39.008 135.505  12.997  1.00  0.00     0.241 C 
BRANCH   7   8
ATOM      8  N   UNL     1      38.358 134.401  13.231  1.00  0.00    -0.064 NA
BRANCH   8   9
ATOM      9  O   UNL     1      38.926 133.250  13.742  1.00  0.00    -0.409 OA
ATOM     10  H   UNL     1      39.754 133.262  14.323  1.00  0.00     0.330 HD
ENDBRANCH   8   9
ENDBRANCH   7   8
BRANCH   7  11
ATOM     11  C   UNL     1      38.566 136.376  11.877  1.00  0.00     0.036 A 
ATOM     12  C   UNL     1      39.057 136.127  10.581  1.00  0.00     0.013 A 
ATOM     13  C   UNL     1      37.663 137.448  12.080  1.00  0.00     0.049 A 
ATOM     14  C   UNL     1      38.646 136.910   9.501  1.00  0.00     0.001 A 
ATOM     15  C   UNL     1      37.255 138.225  10.977  1.00  0.00     0.011 A 
ATOM     16  C   UNL     1      37.743 137.953   9.698  1.00  0.00     0.001 A 
BRANCH  13  17
ATOM     17  N   UNL     1      37.203 137.759  13.405  1.00  0.00    -0.060 NA
BRANCH  17  18
ATOM     18  N   UNL     1      37.680 138.675  14.075  1.00  0.00     0.005 N 
ATOM     19  N   UNL     1      38.155 139.590  14.746  1.00  0.00    -0.003 NA
ENDBRANCH  17  18
ENDBRANCH  13  17
ENDBRANCH   7  11
ENDBRANCH   1   7
BRANCH   3  20
ATOM     20  C   UNL     1      43.111 135.560  15.859  1.00  0.00     0.126 C 
BRANCH  20  21
ATOM     21  C   UNL     1      43.128 136.163  17.290  1.00  0.00     0.270 C 
BRANCH  21  22
ATOM     22  N   UNL     1      43.063 135.194  18.437  1.00  0.00    -0.324 N 
ATOM     23  C   UNL     1      42.154 135.713  19.490  1.00  0.00     0.334 C 
ATOM     24  C   UNL     1      44.429 135.143  19.023  1.00  0.00     0.334 C 
BRANCH  22  25
ATOM     25  C   UNL     1      42.610 133.841  17.961  1.00  0.00     0.301 C 
BRANCH  25  26
ATOM     26  C   UNL     1      43.542 132.659  18.300  1.00  0.00     0.017 A 
ATOM     27  C   UNL     1      43.566 132.110  19.620  1.00  0.00    -0.042 A 
ATOM     28  C   UNL     1      44.400 132.076  17.309  1.00  0.00    -0.009 A 
ATOM     29  C   UNL     1      44.548 131.172  19.968  1.00  0.00     0.004 A 
ATOM     30  C   UNL     1      44.319 132.402  15.931  1.00  0.00     0.009 A 
ATOM     31  C   UNL     1      45.372 131.114  17.701  1.00  0.00    -0.018 A 
ATOM     32  C   UNL     1      45.454 130.701  19.031  1.00  0.00     0.009 A 
ATOM     33  C   UNL     1      45.197 131.835  15.004  1.00  0.00     0.001 A 
ATOM     34  C   UNL     1      46.252 130.562  16.756  1.00  0.00     0.009 A 
ATOM     35  C   UNL     1      46.165 130.925  15.415  1.00  0.00     0.001 A 
ATOM     36  C   UNL     1      42.539 132.451  20.677  1.00  0.00     0.045 C 
ENDBRANCH  25  26
ENDBRANCH  22  25
ENDBRANCH  21  22
ENDBRANCH  20  21
ENDBRANCH   3  20
TORSDOF 11
ENDMDL
MODEL 9
REMARK VINA RESULT:      -5.6      2.966      5.081
REMARK SMILES Cc1ccc2ccccc2c1C[N+](C)(C)CCc1cn(/C(=N\O)c2ccccc2N=[N+]=[N-])[nH+]n1
REMARK SMILES IDX 20 1 19 2 18 3 34 4 33 5 21 7 22 8 23 9 24 11 25 12 29 13
REMARK SMILES IDX 26 14 28 15 27 16 30 17 31 18 32 19 17 20 16 21 13 22 14 23
REMARK SMILES IDX 15 24 12 25 11 26 2 27 10 28 3 29 9 30 5 31 4 32 8 33 6 34
REMARK SMILES IDX 7 35 1 36
REMARK H PARENT 33 6 23 10
ROOT
ATOM      1  N   UNL     1      44.740 131.043  16.801  1.00  0.00    -0.081 N 
ATOM      2  C   UNL     1      43.889 131.022  17.843  1.00  0.00     0.192 A 
ATOM      3  C   UNL     1      43.927 132.290  18.394  1.00  0.00     0.138 A 
ATOM      4  N   UNL     1      44.817 133.032  17.702  1.00  0.00     0.020 NA
ATOM      5  N   UNL     1      45.290 132.246  16.749  1.00  0.00    -0.011 N 
ATOM      6  H   UNL     1      46.010 132.541  16.051  1.00  0.00     0.527 HD
ENDROOT
BRANCH   1   7
ATOM      7  C   UNL     1      45.096 129.941  15.951  1.00  0.00     0.241 C 
BRANCH   7   8
ATOM      8  N   UNL     1      44.640 128.742  16.176  1.00  0.00    -0.064 NA
BRANCH   8   9
ATOM      9  O   UNL     1      45.227 127.581  15.714  1.00  0.00    -0.409 OA
ATOM     10  H   UNL     1      45.692 126.923  16.327  1.00  0.00     0.330 HD
ENDBRANCH   8   9
ENDBRANCH   7   8
BRANCH   7  11
ATOM     11  C   UNL     1      45.958 130.171  14.762  1.00  0.00     0.036 A 
ATOM     12  C   UNL     1      47.354 130.046  14.893  1.00  0.00     0.013 A 
ATOM     13  C   UNL     1      45.410 130.512  13.501  1.00  0.00     0.049 A 
ATOM     14  C   UNL     1      48.192 130.231  13.793  1.00  0.00     0.001 A 
ATOM     15  C   UNL     1      46.271 130.692  12.400  1.00  0.00     0.011 A 
ATOM     16  C   UNL     1      47.651 130.549  12.548  1.00  0.00     0.001 A 
BRANCH  13  17
ATOM     17  N   UNL     1      43.993 130.710  13.364  1.00  0.00    -0.060 NA
BRANCH  17  18
ATOM     18  N   UNL     1      43.372 131.544  14.024  1.00  0.00     0.005 N 
ATOM     19  N   UNL     1      42.751 132.376  14.682  1.00  0.00    -0.003 NA
ENDBRANCH  17  18
ENDBRANCH  13  17
ENDBRANCH   7  11
ENDBRANCH   1   7
BRANCH   3  20
ATOM     20  C   UNL     1      43.157 132.781  19.584  1.00  0.00     0.126 C 
BRANCH  20  21
ATOM     21  C   UNL     1      41.853 133.538  19.211  1.00  0.00     0.270 C 
BRANCH  21  22
ATOM     22  N   UNL     1      41.468 134.700  20.081  1.00  0.00    -0.324 N 
ATOM     23  C   UNL     1      42.599 135.657  20.181  1.00  0.00     0.334 C 
ATOM     24  C   UNL     1      41.238 134.148  21.443  1.00  0.00     0.334 C 
BRANCH  22  25
ATOM     25  C   UNL     1      40.240 135.381  19.541  1.00  0.00     0.301 C 
BRANCH  25  26
ATOM     26  C   UNL     1      39.880 135.060  18.075  1.00  0.00     0.017 A 
ATOM     27  C   UNL     1      38.923 134.041  17.771  1.00  0.00    -0.042 A 
ATOM     28  C   UNL     1      40.483 135.770  16.985  1.00  0.00    -0.009 A 
ATOM     29  C   UNL     1      38.747 133.625  16.444  1.00  0.00     0.004 A 
ATOM     30  C   UNL     1      41.288 136.924  17.167  1.00  0.00     0.009 A 
ATOM     31  C   UNL     1      40.264 135.325  15.651  1.00  0.00    -0.018 A 
ATOM     32  C   UNL     1      39.426 134.239  15.403  1.00  0.00     0.009 A 
ATOM     33  C   UNL     1      41.884 137.566  16.079  1.00  0.00     0.001 A 
ATOM     34  C   UNL     1      40.878 135.978  14.571  1.00  0.00     0.009 A 
ATOM     35  C   UNL     1      41.687 137.091  14.786  1.00  0.00     0.001 A 
ATOM     36  C   UNL     1      38.032 133.405  18.814  1.00  0.00     0.045 C 
ENDBRANCH  25  26
ENDBRANCH  22  25
ENDBRANCH  21  22
ENDBRANCH  20  21
ENDBRANCH   3  20
TORSDOF 11
ENDMDL


