MODEL 1
REMARK VINA RESULT:      -6.3      0.000      0.000
REMARK SMILES [N-]=[N+]=Nc1c(Cl)c(Cl)c(OC(=O)[C@]2([NH3+])C[C@H](CO)C2)ccccc(O)c1NC1(CF)COC1
REMARK SMILES IDX 10 1 9 2 24 3 23 4 26 5 22 6 4 7 21 8 5 9 20 10 7 11 6 12
REMARK SMILES IDX 8 13 25 14 27 16 28 18 31 19 33 20 32 21 29 22 30 23 3 24
REMARK SMILES IDX 2 25 1 26 11 27 12 28 13 29 15 30 19 31 16 32 14 33 17 37
REMARK SMILES IDX 18 38
REMARK H PARENT 25 15 27 17 14 34 14 35 14 36 18 39
ROOT
ATOM      1  O   UNL     1      44.682 133.176  15.230  1.00  0.00    -0.420 OA
ENDROOT
BRANCH   1   2
ATOM      2  C   UNL     1      43.668 134.149  15.176  1.00  0.00     0.151 A 
ATOM      3  C   UNL     1      42.476 136.525  17.938  1.00  0.00     0.139 A 
ATOM      4  C   UNL     1      42.727 137.661  17.138  1.00  0.00     0.048 A 
ATOM      5  C   UNL     1      41.932 135.310  17.447  1.00  0.00     0.088 A 
ATOM      6  C   UNL     1      42.891 137.678  15.739  1.00  0.00     0.004 A 
ATOM      7  C   UNL     1      41.053 135.294  16.344  1.00  0.00     0.085 A 
ATOM      8  C   UNL     1      43.214 136.562  14.963  1.00  0.00     0.004 A 
ATOM      9  C   UNL     1      41.151 134.323  15.311  1.00  0.00     0.075 A 
ATOM     10  C   UNL     1      43.958 135.493  15.467  1.00  0.00     0.049 A 
ATOM     11  C   UNL     1      42.358 133.684  14.909  1.00  0.00     0.102 A 
ATOM     12  Cl  UNL     1      39.654 133.826  14.512  1.00  0.00    -0.082 Cl
ATOM     13  Cl  UNL     1      42.243 132.143  14.055  1.00  0.00    -0.079 Cl
BRANCH   3  14
ATOM     14  O   UNL     1      42.795 136.626  19.293  1.00  0.00    -0.506 OA
ATOM     15  H   UNL     1      42.754 137.505  19.794  1.00  0.00     0.293 HD
ENDBRANCH   3  14
BRANCH   5  16
ATOM     16  N   UNL     1      42.315 134.084  18.094  1.00  0.00    -0.369 N 
ATOM     17  H   UNL     1      43.330 133.835  18.074  1.00  0.00     0.161 HD
BRANCH  16  18
ATOM     18  C   UNL     1      41.440 133.292  18.974  1.00  0.00     0.113 C 
ATOM     19  C   UNL     1      40.342 134.079  19.673  1.00  0.00     0.193 C 
ATOM     20  C   UNL     1      42.003 133.186  20.382  1.00  0.00     0.193 C 
ATOM     21  O   UNL     1      40.935 133.912  20.940  1.00  0.00    -0.376 OA
BRANCH  18  22
ATOM     22  C   UNL     1      41.007 131.949  18.361  1.00  0.00     0.247 C 
ATOM     23  F   UNL     1      41.885 131.531  17.375  1.00  0.00    -0.248 F 
ENDBRANCH  18  22
ENDBRANCH  16  18
ENDBRANCH   5  16
BRANCH   7  24
ATOM     24  N   UNL     1      40.064 136.337  16.285  1.00  0.00    -0.057 NA
BRANCH  24  25
ATOM     25  N   UNL     1      39.040 136.325  16.971  1.00  0.00     0.005 N 
ATOM     26  N   UNL     1      38.018 136.308  17.656  1.00  0.00    -0.003 NA
ENDBRANCH  24  25
ENDBRANCH   7  24
ENDBRANCH   1   2
BRANCH   1  27
ATOM     27  C   UNL     1      45.018 132.375  16.333  1.00  0.00     0.373 C 
ATOM     28  O   UNL     1      44.782 132.764  17.510  1.00  0.00    -0.244 OA
BRANCH  27  29
ATOM     29  C   UNL     1      45.700 131.039  16.126  1.00  0.00     0.194 C 
ATOM     30  C   UNL     1      44.916 130.113  15.183  1.00  0.00     0.087 C 
ATOM     31  C   UNL     1      46.882 131.039  15.138  1.00  0.00     0.087 C 
ATOM     32  C   UNL     1      46.107 130.091  14.220  1.00  0.00     0.028 C 
BRANCH  29  33
ATOM     33  N   UNL     1      46.040 130.386  17.401  1.00  0.00    -0.343 N 
ATOM     34  H   UNL     1      46.190 129.362  17.250  1.00  0.00     0.345 HD
ATOM     35  H   UNL     1      45.257 130.520  18.081  1.00  0.00     0.345 HD
ATOM     36  H   UNL     1      46.913 130.791  17.810  1.00  0.00     0.345 HD
ENDBRANCH  29  33
BRANCH  32  37
ATOM     37  C   UNL     1      45.813 130.651  12.818  1.00  0.00     0.160 C 
BRANCH  37  38
ATOM     38  O   UNL     1      46.915 130.501  11.966  1.00  0.00    -0.396 OA
ATOM     39  H   UNL     1      47.656 130.165  12.535  1.00  0.00     0.210 HD
ENDBRANCH  37  38
ENDBRANCH  32  37
ENDBRANCH  27  29
ENDBRANCH   1  27
TORSDOF 12
ENDMDL
MODEL 2
REMARK VINA RESULT:      -5.9      0.896      1.219
REMARK SMILES [N-]=[N+]=Nc1c(Cl)c(Cl)c(OC(=O)[C@]2([NH3+])C[C@H](CO)C2)ccccc(O)c1NC1(CF)COC1
REMARK SMILES IDX 10 1 9 2 24 3 23 4 26 5 22 6 4 7 21 8 5 9 20 10 7 11 6 12
REMARK SMILES IDX 8 13 25 14 27 16 28 18 31 19 33 20 32 21 29 22 30 23 3 24
REMARK SMILES IDX 2 25 1 26 11 27 12 28 13 29 15 30 19 31 16 32 14 33 17 37
REMARK SMILES IDX 18 38
REMARK H PARENT 25 15 27 17 14 34 14 35 14 36 18 39
ROOT
ATOM      1  O   UNL     1      44.679 133.155  15.282  1.00  0.00    -0.420 OA
ENDROOT
BRANCH   1   2
ATOM      2  C   UNL     1      43.653 134.114  15.197  1.00  0.00     0.151 A 
ATOM      3  C   UNL     1      42.341 136.469  17.922  1.00  0.00     0.139 A 
ATOM      4  C   UNL     1      42.600 137.610  17.131  1.00  0.00     0.048 A 
ATOM      5  C   UNL     1      41.831 135.247  17.414  1.00  0.00     0.088 A 
ATOM      6  C   UNL     1      42.808 137.631  15.738  1.00  0.00     0.004 A 
ATOM      7  C   UNL     1      40.987 135.220  16.283  1.00  0.00     0.085 A 
ATOM      8  C   UNL     1      43.171 136.520  14.972  1.00  0.00     0.004 A 
ATOM      9  C   UNL     1      41.131 134.252  15.253  1.00  0.00     0.075 A 
ATOM     10  C   UNL     1      43.915 135.461  15.498  1.00  0.00     0.049 A 
ATOM     11  C   UNL     1      42.359 133.630  14.890  1.00  0.00     0.102 A 
ATOM     12  Cl  UNL     1      39.667 133.733  14.408  1.00  0.00    -0.082 Cl
ATOM     13  Cl  UNL     1      42.293 132.088  14.031  1.00  0.00    -0.079 Cl
BRANCH   3  14
ATOM     14  O   UNL     1      42.616 136.575  19.287  1.00  0.00    -0.506 OA
ATOM     15  H   UNL     1      43.378 136.073  19.725  1.00  0.00     0.293 HD
ENDBRANCH   3  14
BRANCH   5  16
ATOM     16  N   UNL     1      42.210 134.026  18.072  1.00  0.00    -0.369 N 
ATOM     17  H   UNL     1      43.172 133.664  17.879  1.00  0.00     0.161 HD
BRANCH  16  18
ATOM     18  C   UNL     1      41.452 133.390  19.162  1.00  0.00     0.113 C 
ATOM     19  C   UNL     1      42.157 133.361  20.509  1.00  0.00     0.193 C 
ATOM     20  C   UNL     1      41.691 131.890  19.214  1.00  0.00     0.193 C 
ATOM     21  O   UNL     1      42.317 131.963  20.472  1.00  0.00    -0.376 OA
BRANCH  18  22
ATOM     22  C   UNL     1      39.969 133.798  19.197  1.00  0.00     0.247 C 
ATOM     23  F   UNL     1      39.252 133.203  18.171  1.00  0.00    -0.248 F 
ENDBRANCH  18  22
ENDBRANCH  16  18
ENDBRANCH   5  16
BRANCH   7  24
ATOM     24  N   UNL     1      39.985 136.248  16.194  1.00  0.00    -0.057 NA
BRANCH  24  25
ATOM     25  N   UNL     1      39.652 136.766  15.126  1.00  0.00     0.005 N 
ATOM     26  N   UNL     1      39.315 137.281  14.061  1.00  0.00    -0.003 NA
ENDBRANCH  24  25
ENDBRANCH   7  24
ENDBRANCH   1   2
BRANCH   1  27
ATOM     27  C   UNL     1      44.962 132.325  16.379  1.00  0.00     0.373 C 
ATOM     28  O   UNL     1      44.635 132.665  17.549  1.00  0.00    -0.244 OA
BRANCH  27  29
ATOM     29  C   UNL     1      45.692 131.014  16.174  1.00  0.00     0.194 C 
ATOM     30  C   UNL     1      44.915 130.035  15.280  1.00  0.00     0.087 C 
ATOM     31  C   UNL     1      46.836 131.043  15.143  1.00  0.00     0.087 C 
ATOM     32  C   UNL     1      46.070 130.043  14.274  1.00  0.00     0.028 C 
BRANCH  29  33
ATOM     33  N   UNL     1      46.106 130.405  17.448  1.00  0.00    -0.343 N 
ATOM     34  H   UNL     1      47.147 130.315  17.481  1.00  0.00     0.345 HD
ATOM     35  H   UNL     1      45.678 129.454  17.536  1.00  0.00     0.345 HD
ATOM     36  H   UNL     1      45.799 130.986  18.262  1.00  0.00     0.345 HD
ENDBRANCH  29  33
BRANCH  32  37
ATOM     37  C   UNL     1      45.702 130.558  12.873  1.00  0.00     0.160 C 
BRANCH  37  38
ATOM     38  O   UNL     1      46.823 130.603  12.033  1.00  0.00    -0.396 OA
ATOM     39  H   UNL     1      46.543 131.116  11.231  1.00  0.00     0.210 HD
ENDBRANCH  37  38
ENDBRANCH  32  37
ENDBRANCH  27  29
ENDBRANCH   1  27
TORSDOF 12
ENDMDL
MODEL 3
REMARK VINA RESULT:      -5.8      3.531      4.556
REMARK SMILES [N-]=[N+]=Nc1c(Cl)c(Cl)c(OC(=O)[C@]2([NH3+])C[C@H](CO)C2)ccccc(O)c1NC1(CF)COC1
REMARK SMILES IDX 10 1 9 2 24 3 23 4 26 5 22 6 4 7 21 8 5 9 20 10 7 11 6 12
REMARK SMILES IDX 8 13 25 14 27 16 28 18 31 19 33 20 32 21 29 22 30 23 3 24
REMARK SMILES IDX 2 25 1 26 11 27 12 28 13 29 15 30 19 31 16 32 14 33 17 37
REMARK SMILES IDX 18 38
REMARK H PARENT 25 15 27 17 14 34 14 35 14 36 18 39
ROOT
ATOM      1  O   UNL     1      45.068 131.847  17.445  1.00  0.00    -0.420 OA
ENDROOT
BRANCH   1   2
ATOM      2  C   UNL     1      43.890 132.040  18.188  1.00  0.00     0.151 A 
ATOM      3  C   UNL     1      41.672 135.160  18.396  1.00  0.00     0.139 A 
ATOM      4  C   UNL     1      40.531 134.438  17.981  1.00  0.00     0.048 A 
ATOM      5  C   UNL     1      42.658 134.651  19.279  1.00  0.00     0.088 A 
ATOM      6  C   UNL     1      40.376 133.038  18.000  1.00  0.00     0.004 A 
ATOM      7  C   UNL     1      42.334 133.701  20.270  1.00  0.00     0.085 A 
ATOM      8  C   UNL     1      41.430 132.123  18.063  1.00  0.00     0.004 A 
ATOM      9  C   UNL     1      43.163 132.581  20.548  1.00  0.00     0.075 A 
ATOM     10  C   UNL     1      42.695 132.404  17.543  1.00  0.00     0.049 A 
ATOM     11  C   UNL     1      44.005 131.940  19.595  1.00  0.00     0.102 A 
ATOM     12  Cl  UNL     1      43.201 131.982  22.211  1.00  0.00    -0.082 Cl
ATOM     13  Cl  UNL     1      45.359 130.976  20.193  1.00  0.00    -0.079 Cl
BRANCH   3  14
ATOM     14  O   UNL     1      41.817 136.453  17.890  1.00  0.00    -0.506 OA
ATOM     15  H   UNL     1      42.429 136.664  17.112  1.00  0.00     0.293 HD
ENDBRANCH   3  14
BRANCH   5  16
ATOM     16  N   UNL     1      44.011 135.116  19.127  1.00  0.00    -0.369 N 
ATOM     17  H   UNL     1      44.470 134.942  18.205  1.00  0.00     0.161 HD
BRANCH  16  18
ATOM     18  C   UNL     1      44.699 136.014  20.069  1.00  0.00     0.113 C 
ATOM     19  C   UNL     1      43.813 137.058  20.731  1.00  0.00     0.193 C 
ATOM     20  C   UNL     1      45.284 137.227  19.365  1.00  0.00     0.193 C 
ATOM     21  O   UNL     1      44.431 138.118  20.042  1.00  0.00    -0.376 OA
BRANCH  18  22
ATOM     22  C   UNL     1      45.682 135.286  21.004  1.00  0.00     0.247 C 
ATOM     23  F   UNL     1      46.070 136.092  22.062  1.00  0.00    -0.248 F 
ENDBRANCH  18  22
ENDBRANCH  16  18
ENDBRANCH   5  16
BRANCH   7  24
ATOM     24  N   UNL     1      41.093 133.892  20.974  1.00  0.00    -0.057 NA
BRANCH  24  25
ATOM     25  N   UNL     1      40.954 134.733  21.864  1.00  0.00     0.005 N 
ATOM     26  N   UNL     1      40.815 135.577  22.748  1.00  0.00    -0.003 NA
ENDBRANCH  24  25
ENDBRANCH   7  24
ENDBRANCH   1   2
BRANCH   1  27
ATOM     27  C   UNL     1      45.328 130.803  16.543  1.00  0.00     0.373 C 
ATOM     28  O   UNL     1      45.566 129.635  16.957  1.00  0.00    -0.244 OA
BRANCH  27  29
ATOM     29  C   UNL     1      45.355 131.072  15.053  1.00  0.00     0.194 C 
ATOM     30  C   UNL     1      46.685 131.683  14.584  1.00  0.00     0.087 C 
ATOM     31  C   UNL     1      45.607 129.844  14.158  1.00  0.00     0.087 C 
ATOM     32  C   UNL     1      46.913 130.475  13.671  1.00  0.00     0.028 C 
BRANCH  29  33
ATOM     33  N   UNL     1      44.189 131.855  14.610  1.00  0.00    -0.343 N 
ATOM     34  H   UNL     1      43.314 131.459  15.023  1.00  0.00     0.345 HD
ATOM     35  H   UNL     1      44.121 131.820  13.567  1.00  0.00     0.345 HD
ATOM     36  H   UNL     1      44.271 132.854  14.907  1.00  0.00     0.345 HD
ENDBRANCH  29  33
BRANCH  32  37
ATOM     37  C   UNL     1      48.178 129.658  13.988  1.00  0.00     0.160 C 
BRANCH  37  38
ATOM     38  O   UNL     1      48.611 128.933  12.870  1.00  0.00    -0.396 OA
ATOM     39  H   UNL     1      49.540 129.235  12.692  1.00  0.00     0.210 HD
ENDBRANCH  37  38
ENDBRANCH  32  37
ENDBRANCH  27  29
ENDBRANCH   1  27
TORSDOF 12
ENDMDL
MODEL 4
REMARK VINA RESULT:      -5.6      2.499      3.579
REMARK SMILES [N-]=[N+]=Nc1c(Cl)c(Cl)c(OC(=O)[C@]2([NH3+])C[C@H](CO)C2)ccccc(O)c1NC1(CF)COC1
REMARK SMILES IDX 10 1 9 2 24 3 23 4 26 5 22 6 4 7 21 8 5 9 20 10 7 11 6 12
REMARK SMILES IDX 8 13 25 14 27 16 28 18 31 19 33 20 32 21 29 22 30 23 3 24
REMARK SMILES IDX 2 25 1 26 11 27 12 28 13 29 15 30 19 31 16 32 14 33 17 37
REMARK SMILES IDX 18 38
REMARK H PARENT 25 15 27 17 14 34 14 35 14 36 18 39
ROOT
ATOM      1  O   UNL     1      43.193 133.048  15.335  1.00  0.00    -0.420 OA
ENDROOT
BRANCH   1   2
ATOM      2  C   UNL     1      41.846 133.451  15.371  1.00  0.00     0.151 A 
ATOM      3  C   UNL     1      40.329 136.832  14.389  1.00  0.00     0.139 A 
ATOM      4  C   UNL     1      39.459 136.227  13.455  1.00  0.00     0.048 A 
ATOM      5  C   UNL     1      40.646 136.280  15.656  1.00  0.00     0.088 A 
ATOM      6  C   UNL     1      39.105 134.865  13.405  1.00  0.00     0.004 A 
ATOM      7  C   UNL     1      39.726 135.466  16.351  1.00  0.00     0.085 A 
ATOM      8  C   UNL     1      39.830 133.832  14.005  1.00  0.00     0.004 A 
ATOM      9  C   UNL     1      40.121 134.278  17.023  1.00  0.00     0.075 A 
ATOM     10  C   UNL     1      41.211 133.907  14.203  1.00  0.00     0.049 A 
ATOM     11  C   UNL     1      41.221 133.457  16.640  1.00  0.00     0.102 A 
ATOM     12  Cl  UNL     1      39.225 133.823  18.477  1.00  0.00    -0.082 Cl
ATOM     13  Cl  UNL     1      41.924 132.385  17.854  1.00  0.00    -0.079 Cl
BRANCH   3  14
ATOM     14  O   UNL     1      40.904 138.048  14.016  1.00  0.00    -0.506 OA
ATOM     15  H   UNL     1      41.763 138.390  14.429  1.00  0.00     0.293 HD
ENDBRANCH   3  14
BRANCH   5  16
ATOM     16  N   UNL     1      41.943 136.555  16.213  1.00  0.00    -0.369 N 
ATOM     17  H   UNL     1      42.772 136.255  15.651  1.00  0.00     0.161 HD
BRANCH  16  18
ATOM     18  C   UNL     1      42.189 137.426  17.374  1.00  0.00     0.113 C 
ATOM     19  C   UNL     1      41.193 138.562  17.553  1.00  0.00     0.193 C 
ATOM     20  C   UNL     1      43.139 138.563  17.033  1.00  0.00     0.193 C 
ATOM     21  O   UNL     1      42.151 139.544  17.240  1.00  0.00    -0.376 OA
BRANCH  18  22
ATOM     22  C   UNL     1      42.555 136.655  18.653  1.00  0.00     0.247 C 
ATOM     23  F   UNL     1      41.430 136.343  19.400  1.00  0.00    -0.248 F 
ENDBRANCH  18  22
ENDBRANCH  16  18
ENDBRANCH   5  16
BRANCH   7  24
ATOM     24  N   UNL     1      38.346 135.871  16.321  1.00  0.00    -0.057 NA
BRANCH  24  25
ATOM     25  N   UNL     1      37.897 136.765  17.041  1.00  0.00     0.005 N 
ATOM     26  N   UNL     1      37.443 137.656  17.757  1.00  0.00    -0.003 NA
ENDBRANCH  24  25
ENDBRANCH   7  24
ENDBRANCH   1   2
BRANCH   1  27
ATOM     27  C   UNL     1      43.697 131.853  14.796  1.00  0.00     0.373 C 
ATOM     28  O   UNL     1      43.138 131.304  13.808  1.00  0.00    -0.244 OA
BRANCH  27  29
ATOM     29  C   UNL     1      44.908 131.189  15.416  1.00  0.00     0.194 C 
ATOM     30  C   UNL     1      45.260 129.852  14.745  1.00  0.00     0.087 C 
ATOM     31  C   UNL     1      46.274 131.760  14.989  1.00  0.00     0.087 C 
ATOM     32  C   UNL     1      46.629 130.415  14.352  1.00  0.00     0.028 C 
BRANCH  29  33
ATOM     33  N   UNL     1      44.788 131.070  16.879  1.00  0.00    -0.343 N 
ATOM     34  H   UNL     1      44.382 130.140  17.130  1.00  0.00     0.345 HD
ATOM     35  H   UNL     1      44.161 131.825  17.240  1.00  0.00     0.345 HD
ATOM     36  H   UNL     1      45.721 131.159  17.343  1.00  0.00     0.345 HD
ENDBRANCH  29  33
BRANCH  32  37
ATOM     37  C   UNL     1      46.892 130.471  12.837  1.00  0.00     0.160 C 
BRANCH  37  38
ATOM     38  O   UNL     1      47.920 129.595  12.464  1.00  0.00    -0.396 OA
ATOM     39  H   UNL     1      48.732 129.909  12.941  1.00  0.00     0.210 HD
ENDBRANCH  37  38
ENDBRANCH  32  37
ENDBRANCH  27  29
ENDBRANCH   1  27
TORSDOF 12
ENDMDL
MODEL 5
REMARK VINA RESULT:      -5.6      2.337      3.332
REMARK SMILES [N-]=[N+]=Nc1c(Cl)c(Cl)c(OC(=O)[C@]2([NH3+])C[C@H](CO)C2)ccccc(O)c1NC1(CF)COC1
REMARK SMILES IDX 10 1 9 2 24 3 23 4 26 5 22 6 4 7 21 8 5 9 20 10 7 11 6 12
REMARK SMILES IDX 8 13 25 14 27 16 28 18 31 19 33 20 32 21 29 22 30 23 3 24
REMARK SMILES IDX 2 25 1 26 11 27 12 28 13 29 15 30 19 31 16 32 14 33 17 37
REMARK SMILES IDX 18 38
REMARK H PARENT 25 15 27 17 14 34 14 35 14 36 18 39
ROOT
ATOM      1  O   UNL     1      44.523 132.184  16.895  1.00  0.00    -0.420 OA
ENDROOT
BRANCH   1   2
ATOM      2  C   UNL     1      43.246 132.763  16.789  1.00  0.00     0.151 A 
ATOM      3  C   UNL     1      42.293 136.250  15.513  1.00  0.00     0.139 A 
ATOM      4  C   UNL     1      41.429 135.711  14.534  1.00  0.00     0.048 A 
ATOM      5  C   UNL     1      42.424 135.737  16.829  1.00  0.00     0.088 A 
ATOM      6  C   UNL     1      40.897 134.407  14.517  1.00  0.00     0.004 A 
ATOM      7  C   UNL     1      41.347 135.094  17.475  1.00  0.00     0.085 A 
ATOM      8  C   UNL     1      41.422 133.325  15.229  1.00  0.00     0.004 A 
ATOM      9  C   UNL     1      41.518 133.906  18.236  1.00  0.00     0.075 A 
ATOM     10  C   UNL     1      42.778 133.228  15.548  1.00  0.00     0.049 A 
ATOM     11  C   UNL     1      42.523 132.926  17.994  1.00  0.00     0.102 A 
ATOM     12  Cl  UNL     1      40.450 133.661  19.623  1.00  0.00    -0.082 Cl
ATOM     13  Cl  UNL     1      42.970 131.845  19.317  1.00  0.00    -0.079 Cl
BRANCH   3  14
ATOM     14  O   UNL     1      43.057 137.356  15.137  1.00  0.00    -0.506 OA
ATOM     15  H   UNL     1      43.847 137.678  15.682  1.00  0.00     0.293 HD
ENDBRANCH   3  14
BRANCH   5  16
ATOM     16  N   UNL     1      43.695 135.872  17.487  1.00  0.00    -0.369 N 
ATOM     17  H   UNL     1      44.527 135.474  16.995  1.00  0.00     0.161 HD
BRANCH  16  18
ATOM     18  C   UNL     1      43.945 136.723  18.662  1.00  0.00     0.113 C 
ATOM     19  C   UNL     1      43.240 138.071  18.644  1.00  0.00     0.193 C 
ATOM     20  C   UNL     1      45.187 137.580  18.482  1.00  0.00     0.193 C 
ATOM     21  O   UNL     1      44.449 138.778  18.495  1.00  0.00    -0.376 OA
BRANCH  18  22
ATOM     22  C   UNL     1      43.888 135.960  19.997  1.00  0.00     0.247 C 
ATOM     23  F   UNL     1      42.629 136.031  20.571  1.00  0.00    -0.248 F 
ENDBRANCH  18  22
ENDBRANCH  16  18
ENDBRANCH   5  16
BRANCH   7  24
ATOM     24  N   UNL     1      40.042 135.676  17.301  1.00  0.00    -0.057 NA
BRANCH  24  25
ATOM     25  N   UNL     1      39.018 134.999  17.198  1.00  0.00     0.005 N 
ATOM     26  N   UNL     1      37.992 134.328  17.094  1.00  0.00    -0.003 NA
ENDBRANCH  24  25
ENDBRANCH   7  24
ENDBRANCH   1   2
BRANCH   1  27
ATOM     27  C   UNL     1      45.420 131.932  15.844  1.00  0.00     0.373 C 
ATOM     28  O   UNL     1      46.085 132.869  15.323  1.00  0.00    -0.244 OA
BRANCH  27  29
ATOM     29  C   UNL     1      45.581 130.528  15.300  1.00  0.00     0.194 C 
ATOM     30  C   UNL     1      45.241 130.429  13.805  1.00  0.00     0.087 C 
ATOM     31  C   UNL     1      47.027 130.093  14.997  1.00  0.00     0.087 C 
ATOM     32  C   UNL     1      46.671 129.965  13.514  1.00  0.00     0.028 C 
BRANCH  29  33
ATOM     33  N   UNL     1      44.858 129.534  16.109  1.00  0.00    -0.343 N 
ATOM     34  H   UNL     1      43.870 129.450  15.774  1.00  0.00     0.345 HD
ATOM     35  H   UNL     1      44.855 129.833  17.110  1.00  0.00     0.345 HD
ATOM     36  H   UNL     1      45.309 128.593  16.042  1.00  0.00     0.345 HD
ENDBRANCH  29  33
BRANCH  32  37
ATOM     37  C   UNL     1      47.471 130.888  12.579  1.00  0.00     0.160 C 
BRANCH  37  38
ATOM     38  O   UNL     1      47.356 130.485  11.242  1.00  0.00    -0.396 OA
ATOM     39  H   UNL     1      47.021 129.551  11.266  1.00  0.00     0.210 HD
ENDBRANCH  37  38
ENDBRANCH  32  37
ENDBRANCH  27  29
ENDBRANCH   1  27
TORSDOF 12
ENDMDL
MODEL 6
REMARK VINA RESULT:      -5.6      2.963      4.125
REMARK SMILES [N-]=[N+]=Nc1c(Cl)c(Cl)c(OC(=O)[C@]2([NH3+])C[C@H](CO)C2)ccccc(O)c1NC1(CF)COC1
REMARK SMILES IDX 10 1 9 2 24 3 23 4 26 5 22 6 4 7 21 8 5 9 20 10 7 11 6 12
REMARK SMILES IDX 8 13 25 14 27 16 28 18 31 19 33 20 32 21 29 22 30 23 3 24
REMARK SMILES IDX 2 25 1 26 11 27 12 28 13 29 15 30 19 31 16 32 14 33 17 37
REMARK SMILES IDX 18 38
REMARK H PARENT 25 15 27 17 14 34 14 35 14 36 18 39
ROOT
ATOM      1  O   UNL     1      43.851 133.138  14.967  1.00  0.00    -0.420 OA
ENDROOT
BRANCH   1   2
ATOM      2  C   UNL     1      43.356 133.825  16.089  1.00  0.00     0.151 A 
ATOM      3  C   UNL     1      39.996 133.381  17.881  1.00  0.00     0.139 A 
ATOM      4  C   UNL     1      40.631 133.124  19.116  1.00  0.00     0.048 A 
ATOM      5  C   UNL     1      40.438 134.351  16.945  1.00  0.00     0.088 A 
ATOM      6  C   UNL     1      41.964 133.432  19.449  1.00  0.00     0.004 A 
ATOM      7  C   UNL     1      41.113 135.517  17.362  1.00  0.00     0.085 A 
ATOM      8  C   UNL     1      42.978 133.684  18.521  1.00  0.00     0.004 A 
ATOM      9  C   UNL     1      42.252 136.021  16.677  1.00  0.00     0.075 A 
ATOM     10  C   UNL     1      42.978 133.118  17.244  1.00  0.00     0.049 A 
ATOM     11  C   UNL     1      43.180 135.222  15.950  1.00  0.00     0.102 A 
ATOM     12  Cl  UNL     1      42.495 137.772  16.672  1.00  0.00    -0.082 Cl
ATOM     13  Cl  UNL     1      44.170 136.007  14.716  1.00  0.00    -0.079 Cl
BRANCH   3  14
ATOM     14  O   UNL     1      38.865 132.618  17.584  1.00  0.00    -0.506 OA
ATOM     15  H   UNL     1      37.937 132.886  17.886  1.00  0.00     0.293 HD
ENDBRANCH   3  14
BRANCH   5  16
ATOM     16  N   UNL     1      40.196 134.107  15.548  1.00  0.00    -0.369 N 
ATOM     17  H   UNL     1      40.589 133.225  15.148  1.00  0.00     0.161 HD
BRANCH  16  18
ATOM     18  C   UNL     1      39.252 134.870  14.715  1.00  0.00     0.113 C 
ATOM     19  C   UNL     1      38.015 135.377  15.440  1.00  0.00     0.193 C 
ATOM     20  C   UNL     1      38.248 133.960  14.027  1.00  0.00     0.193 C 
ATOM     21  O   UNL     1      37.162 134.506  14.736  1.00  0.00    -0.376 OA
BRANCH  18  22
ATOM     22  C   UNL     1      39.938 135.882  13.781  1.00  0.00     0.247 C 
ATOM     23  F   UNL     1      39.448 137.164  13.971  1.00  0.00    -0.248 F 
ENDBRANCH  18  22
ENDBRANCH  16  18
ENDBRANCH   5  16
BRANCH   7  24
ATOM     24  N   UNL     1      40.620 136.166  18.548  1.00  0.00    -0.057 NA
BRANCH  24  25
ATOM     25  N   UNL     1      41.360 136.725  19.360  1.00  0.00     0.005 N 
ATOM     26  N   UNL     1      42.102 137.283  20.167  1.00  0.00    -0.003 NA
ENDBRANCH  24  25
ENDBRANCH   7  24
ENDBRANCH   1   2
BRANCH   1  27
ATOM     27  C   UNL     1      44.930 132.240  14.941  1.00  0.00     0.373 C 
ATOM     28  O   UNL     1      46.021 132.524  15.509  1.00  0.00    -0.244 OA
BRANCH  27  29
ATOM     29  C   UNL     1      44.809 130.923  14.204  1.00  0.00     0.194 C 
ATOM     30  C   UNL     1      45.878 130.754  13.113  1.00  0.00     0.087 C 
ATOM     31  C   UNL     1      45.369 129.692  14.941  1.00  0.00     0.087 C 
ATOM     32  C   UNL     1      46.410 129.511  13.834  1.00  0.00     0.028 C 
BRANCH  29  33
ATOM     33  N   UNL     1      43.446 130.696  13.695  1.00  0.00    -0.343 N 
ATOM     34  H   UNL     1      42.743 130.997  14.409  1.00  0.00     0.345 HD
ATOM     35  H   UNL     1      43.314 129.679  13.493  1.00  0.00     0.345 HD
ATOM     36  H   UNL     1      43.276 131.238  12.817  1.00  0.00     0.345 HD
ENDBRANCH  29  33
BRANCH  32  37
ATOM     37  C   UNL     1      47.871 129.613  14.303  1.00  0.00     0.160 C 
BRANCH  37  38
ATOM     38  O   UNL     1      48.746 129.022  13.382  1.00  0.00    -0.396 OA
ATOM     39  H   UNL     1      48.954 129.725  12.713  1.00  0.00     0.210 HD
ENDBRANCH  37  38
ENDBRANCH  32  37
ENDBRANCH  27  29
ENDBRANCH   1  27
TORSDOF 12
ENDMDL
MODEL 7
REMARK VINA RESULT:      -5.6      2.364      3.315
REMARK SMILES [N-]=[N+]=Nc1c(Cl)c(Cl)c(OC(=O)[C@]2([NH3+])C[C@H](CO)C2)ccccc(O)c1NC1(CF)COC1
REMARK SMILES IDX 10 1 9 2 24 3 23 4 26 5 22 6 4 7 21 8 5 9 20 10 7 11 6 12
REMARK SMILES IDX 8 13 25 14 27 16 28 18 31 19 33 20 32 21 29 22 30 23 3 24
REMARK SMILES IDX 2 25 1 26 11 27 12 28 13 29 15 30 19 31 16 32 14 33 17 37
REMARK SMILES IDX 18 38
REMARK H PARENT 25 15 27 17 14 34 14 35 14 36 18 39
ROOT
ATOM      1  O   UNL     1      42.891 132.687  14.854  1.00  0.00    -0.420 OA
ENDROOT
BRANCH   1   2
ATOM      2  C   UNL     1      41.671 133.346  15.090  1.00  0.00     0.151 A 
ATOM      3  C   UNL     1      40.842 137.068  14.699  1.00  0.00     0.139 A 
ATOM      4  C   UNL     1      39.785 136.790  13.805  1.00  0.00     0.048 A 
ATOM      5  C   UNL     1      41.139 136.289  15.847  1.00  0.00     0.088 A 
ATOM      6  C   UNL     1      39.142 135.549  13.632  1.00  0.00     0.004 A 
ATOM      7  C   UNL     1      40.128 135.589  16.539  1.00  0.00     0.085 A 
ATOM      8  C   UNL     1      39.675 134.316  14.018  1.00  0.00     0.004 A 
ATOM      9  C   UNL     1      40.313 134.263  17.014  1.00  0.00     0.075 A 
ATOM     10  C   UNL     1      41.051 134.081  14.065  1.00  0.00     0.049 A 
ATOM     11  C   UNL     1      41.172 133.299  16.414  1.00  0.00     0.102 A 
ATOM     12  Cl  UNL     1      39.467 133.799  18.496  1.00  0.00    -0.082 Cl
ATOM     13  Cl  UNL     1      41.729 131.946  17.403  1.00  0.00    -0.079 Cl
BRANCH   3  14
ATOM     14  O   UNL     1      41.632 138.183  14.412  1.00  0.00    -0.506 OA
ATOM     15  H   UNL     1      41.527 138.715  13.558  1.00  0.00     0.293 HD
ENDBRANCH   3  14
BRANCH   5  16
ATOM     16  N   UNL     1      42.508 136.215  16.282  1.00  0.00    -0.369 N 
ATOM     17  H   UNL     1      43.211 135.894  15.579  1.00  0.00     0.161 HD
BRANCH  16  18
ATOM     18  C   UNL     1      43.018 136.777  17.543  1.00  0.00     0.113 C 
ATOM     19  C   UNL     1      44.526 136.694  17.724  1.00  0.00     0.193 C 
ATOM     20  C   UNL     1      43.015 135.746  18.660  1.00  0.00     0.193 C 
ATOM     21  O   UNL     1      44.419 135.752  18.765  1.00  0.00    -0.376 OA
BRANCH  18  22
ATOM     22  C   UNL     1      42.376 138.123  17.920  1.00  0.00     0.247 C 
ATOM     23  F   UNL     1      43.060 138.743  18.953  1.00  0.00    -0.248 F 
ENDBRANCH  18  22
ENDBRANCH  16  18
ENDBRANCH   5  16
BRANCH   7  24
ATOM     24  N   UNL     1      38.871 136.266  16.714  1.00  0.00    -0.057 NA
BRANCH  24  25
ATOM     25  N   UNL     1      38.696 137.140  17.566  1.00  0.00     0.005 N 
ATOM     26  N   UNL     1      38.524 138.015  18.413  1.00  0.00    -0.003 NA
ENDBRANCH  24  25
ENDBRANCH   7  24
ENDBRANCH   1   2
BRANCH   1  27
ATOM     27  C   UNL     1      44.127 132.971  15.455  1.00  0.00     0.373 C 
ATOM     28  O   UNL     1      44.490 134.162  15.656  1.00  0.00    -0.244 OA
BRANCH  27  29
ATOM     29  C   UNL     1      45.060 131.844  15.848  1.00  0.00     0.194 C 
ATOM     30  C   UNL     1      44.700 130.513  15.171  1.00  0.00     0.087 C 
ATOM     31  C   UNL     1      46.427 131.833  15.139  1.00  0.00     0.087 C 
ATOM     32  C   UNL     1      46.074 130.490  14.494  1.00  0.00     0.028 C 
BRANCH  29  33
ATOM     33  N   UNL     1      45.190 131.716  17.309  1.00  0.00    -0.343 N 
ATOM     34  H   UNL     1      45.674 130.821  17.548  1.00  0.00     0.345 HD
ATOM     35  H   UNL     1      44.239 131.717  17.746  1.00  0.00     0.345 HD
ATOM     36  H   UNL     1      45.744 132.508  17.710  1.00  0.00     0.345 HD
ENDBRANCH  29  33
BRANCH  32  37
ATOM     37  C   UNL     1      46.036 130.506  12.957  1.00  0.00     0.160 C 
BRANCH  37  38
ATOM     38  O   UNL     1      47.293 130.214  12.411  1.00  0.00    -0.396 OA
ATOM     39  H   UNL     1      47.117 129.820  11.516  1.00  0.00     0.210 HD
ENDBRANCH  37  38
ENDBRANCH  32  37
ENDBRANCH  27  29
ENDBRANCH   1  27
TORSDOF 12
ENDMDL
MODEL 8
REMARK VINA RESULT:      -5.5      3.338      4.313
REMARK SMILES [N-]=[N+]=Nc1c(Cl)c(Cl)c(OC(=O)[C@]2([NH3+])C[C@H](CO)C2)ccccc(O)c1NC1(CF)COC1
REMARK SMILES IDX 10 1 9 2 24 3 23 4 26 5 22 6 4 7 21 8 5 9 20 10 7 11 6 12
REMARK SMILES IDX 8 13 25 14 27 16 28 18 31 19 33 20 32 21 29 22 30 23 3 24
REMARK SMILES IDX 2 25 1 26 11 27 12 28 13 29 15 30 19 31 16 32 14 33 17 37
REMARK SMILES IDX 18 38
REMARK H PARENT 25 15 27 17 14 34 14 35 14 36 18 39
ROOT
ATOM      1  O   UNL     1      45.453 131.831  17.503  1.00  0.00    -0.420 OA
ENDROOT
BRANCH   1   2
ATOM      2  C   UNL     1      44.204 131.997  18.127  1.00  0.00     0.151 A 
ATOM      3  C   UNL     1      41.953 135.100  18.202  1.00  0.00     0.139 A 
ATOM      4  C   UNL     1      40.867 134.387  17.650  1.00  0.00     0.048 A 
ATOM      5  C   UNL     1      42.848 134.567  19.166  1.00  0.00     0.088 A 
ATOM      6  C   UNL     1      40.721 132.986  17.610  1.00  0.00     0.004 A 
ATOM      7  C   UNL     1      42.430 133.585  20.089  1.00  0.00     0.085 A 
ATOM      8  C   UNL     1      41.769 132.073  17.752  1.00  0.00     0.004 A 
ATOM      9  C   UNL     1      43.234 132.459  20.415  1.00  0.00     0.075 A 
ATOM     10  C   UNL     1      43.079 132.376  17.375  1.00  0.00     0.049 A 
ATOM     11  C   UNL     1      44.175 131.852  19.535  1.00  0.00     0.102 A 
ATOM     12  Cl  UNL     1      43.106 131.809  22.054  1.00  0.00    -0.082 Cl
ATOM     13  Cl  UNL     1      45.467 130.876  20.239  1.00  0.00    -0.079 Cl
BRANCH   3  14
ATOM     14  O   UNL     1      42.140 136.408  17.754  1.00  0.00    -0.506 OA
ATOM     15  H   UNL     1      41.376 136.978  17.413  1.00  0.00     0.293 HD
ENDBRANCH   3  14
BRANCH   5  16
ATOM     16  N   UNL     1      44.205 135.041  19.168  1.00  0.00    -0.369 N 
ATOM     17  H   UNL     1      44.739 134.954  18.274  1.00  0.00     0.161 HD
BRANCH  16  18
ATOM     18  C   UNL     1      44.810 135.846  20.243  1.00  0.00     0.113 C 
ATOM     19  C   UNL     1      43.861 136.806  20.944  1.00  0.00     0.193 C 
ATOM     20  C   UNL     1      45.419 137.132  19.709  1.00  0.00     0.193 C 
ATOM     21  O   UNL     1      44.505 137.939  20.412  1.00  0.00    -0.376 OA
BRANCH  18  22
ATOM     22  C   UNL     1      45.740 135.038  21.165  1.00  0.00     0.247 C 
ATOM     23  F   UNL     1      45.160 134.812  22.403  1.00  0.00    -0.248 F 
ENDBRANCH  18  22
ENDBRANCH  16  18
ENDBRANCH   5  16
BRANCH   7  24
ATOM     24  N   UNL     1      41.123 133.749  20.667  1.00  0.00    -0.057 NA
BRANCH  24  25
ATOM     25  N   UNL     1      40.891 134.546  21.578  1.00  0.00     0.005 N 
ATOM     26  N   UNL     1      40.664 135.345  22.485  1.00  0.00    -0.003 NA
ENDBRANCH  24  25
ENDBRANCH   7  24
ENDBRANCH   1   2
BRANCH   1  27
ATOM     27  C   UNL     1      45.688 131.654  16.130  1.00  0.00     0.373 C 
ATOM     28  O   UNL     1      45.690 132.640  15.343  1.00  0.00    -0.244 OA
BRANCH  27  29
ATOM     29  C   UNL     1      45.916 130.267  15.569  1.00  0.00     0.194 C 
ATOM     30  C   UNL     1      45.136 130.018  14.268  1.00  0.00     0.087 C 
ATOM     31  C   UNL     1      47.241 130.064  14.810  1.00  0.00     0.087 C 
ATOM     32  C   UNL     1      46.456 129.785  13.527  1.00  0.00     0.028 C 
BRANCH  29  33
ATOM     33  N   UNL     1      45.683 129.217  16.574  1.00  0.00    -0.343 N 
ATOM     34  H   UNL     1      46.594 128.884  16.963  1.00  0.00     0.345 HD
ATOM     35  H   UNL     1      45.187 128.411  16.129  1.00  0.00     0.345 HD
ATOM     36  H   UNL     1      45.098 129.574  17.364  1.00  0.00     0.345 HD
ENDBRANCH  29  33
BRANCH  32  37
ATOM     37  C   UNL     1      46.733 130.769  12.378  1.00  0.00     0.160 C 
BRANCH  37  38
ATOM     38  O   UNL     1      47.612 130.220  11.435  1.00  0.00    -0.396 OA
ATOM     39  H   UNL     1      48.373 129.849  11.954  1.00  0.00     0.210 HD
ENDBRANCH  37  38
ENDBRANCH  32  37
ENDBRANCH  27  29
ENDBRANCH   1  27
TORSDOF 12
ENDMDL
MODEL 9
REMARK VINA RESULT:      -5.5      2.535      3.452
REMARK SMILES [N-]=[N+]=Nc1c(Cl)c(Cl)c(OC(=O)[C@]2([NH3+])C[C@H](CO)C2)ccccc(O)c1NC1(CF)COC1
REMARK SMILES IDX 10 1 9 2 24 3 23 4 26 5 22 6 4 7 21 8 5 9 20 10 7 11 6 12
REMARK SMILES IDX 8 13 25 14 27 16 28 18 31 19 33 20 32 21 29 22 30 23 3 24
REMARK SMILES IDX 2 25 1 26 11 27 12 28 13 29 15 30 19 31 16 32 14 33 17 37
REMARK SMILES IDX 18 38
REMARK H PARENT 25 15 27 17 14 34 14 35 14 36 18 39
ROOT
ATOM      1  O   UNL     1      43.925 131.908  16.225  1.00  0.00    -0.420 OA
ENDROOT
BRANCH   1   2
ATOM      2  C   UNL     1      42.721 132.634  16.218  1.00  0.00     0.151 A 
ATOM      3  C   UNL     1      42.136 136.294  15.236  1.00  0.00     0.139 A 
ATOM      4  C   UNL     1      41.179 135.931  14.262  1.00  0.00     0.048 A 
ATOM      5  C   UNL     1      42.255 135.671  16.505  1.00  0.00     0.088 A 
ATOM      6  C   UNL     1      40.498 134.701  14.178  1.00  0.00     0.004 A 
ATOM      7  C   UNL     1      41.135 135.108  17.153  1.00  0.00     0.085 A 
ATOM      8  C   UNL     1      40.919 133.516  14.787  1.00  0.00     0.004 A 
ATOM      9  C   UNL     1      41.194 133.855  17.820  1.00  0.00     0.075 A 
ATOM     10  C   UNL     1      42.265 133.242  15.035  1.00  0.00     0.049 A 
ATOM     11  C   UNL     1      42.068 132.788  17.464  1.00  0.00     0.102 A 
ATOM     12  Cl  UNL     1      40.157 133.630  19.233  1.00  0.00    -0.082 Cl
ATOM     13  Cl  UNL     1      42.434 131.566  18.685  1.00  0.00    -0.079 Cl
BRANCH   3  14
ATOM     14  O   UNL     1      43.010 137.330  14.904  1.00  0.00    -0.506 OA
ATOM     15  H   UNL     1      42.870 138.279  15.225  1.00  0.00     0.293 HD
ENDBRANCH   3  14
BRANCH   5  16
ATOM     16  N   UNL     1      43.557 135.610  17.112  1.00  0.00    -0.369 N 
ATOM     17  H   UNL     1      44.344 135.279  16.510  1.00  0.00     0.161 HD
BRANCH  16  18
ATOM     18  C   UNL     1      43.901 136.197  18.418  1.00  0.00     0.113 C 
ATOM     19  C   UNL     1      43.095 137.427  18.807  1.00  0.00     0.193 C 
ATOM     20  C   UNL     1      45.033 137.205  18.301  1.00  0.00     0.193 C 
ATOM     21  O   UNL     1      44.209 138.279  18.687  1.00  0.00    -0.376 OA
BRANCH  18  22
ATOM     22  C   UNL     1      44.095 135.151  19.529  1.00  0.00     0.247 C 
ATOM     23  F   UNL     1      44.067 135.731  20.787  1.00  0.00    -0.248 F 
ENDBRANCH  18  22
ENDBRANCH  16  18
ENDBRANCH   5  16
BRANCH   7  24
ATOM     24  N   UNL     1      39.902 135.846  17.080  1.00  0.00    -0.057 NA
BRANCH  24  25
ATOM     25  N   UNL     1      39.748 136.945  17.616  1.00  0.00     0.005 N 
ATOM     26  N   UNL     1      39.598 138.044  18.147  1.00  0.00    -0.003 NA
ENDBRANCH  24  25
ENDBRANCH   7  24
ENDBRANCH   1   2
BRANCH   1  27
ATOM     27  C   UNL     1      45.132 132.278  15.610  1.00  0.00     0.373 C 
ATOM     28  O   UNL     1      45.499 133.485  15.582  1.00  0.00    -0.244 OA
BRANCH  27  29
ATOM     29  C   UNL     1      46.001 131.232  14.945  1.00  0.00     0.194 C 
ATOM     30  C   UNL     1      46.516 130.173  15.933  1.00  0.00     0.087 C 
ATOM     31  C   UNL     1      45.249 130.136  14.167  1.00  0.00     0.087 C 
ATOM     32  C   UNL     1      45.792 129.084  15.136  1.00  0.00     0.028 C 
BRANCH  29  33
ATOM     33  N   UNL     1      47.085 131.834  14.151  1.00  0.00    -0.343 N 
ATOM     34  H   UNL     1      47.648 132.483  14.748  1.00  0.00     0.345 HD
ATOM     35  H   UNL     1      46.676 132.373  13.354  1.00  0.00     0.345 HD
ATOM     36  H   UNL     1      47.724 131.101  13.767  1.00  0.00     0.345 HD
ENDBRANCH  29  33
BRANCH  32  37
ATOM     37  C   UNL     1      44.716 128.317  15.923  1.00  0.00     0.160 C 
BRANCH  37  38
ATOM     38  O   UNL     1      44.903 126.932  15.830  1.00  0.00    -0.396 OA
ATOM     39  H   UNL     1      45.841 126.764  16.107  1.00  0.00     0.210 HD
ENDBRANCH  37  38
ENDBRANCH  32  37
ENDBRANCH  27  29
ENDBRANCH   1  27
TORSDOF 12
ENDMDL


