REMARK SMILES CC[C@H]1C[C@]1(N)C(=O)Oc1ccccc(O)c(NC2(CF)COC2)c(N=[N+]=[N-])c(Cl)c1Cl
REMARK SMILES IDX 15 1 14 2 13 3 12 4 11 5 10 6 31 7 32 8 29 9 30 10 25 11
REMARK SMILES IDX 17 12 16 13 18 15 19 17 22 18 24 19 23 20 20 21 21 22 26 23
REMARK SMILES IDX 27 24 28 25 9 26 7 27 8 28 5 29 4 30 3 31 6 32 2 35 1 36
REMARK H PARENT 16 14 18 16 6 33 6 34
ROOT
ATOM      1  C   UNL     1      -1.048  -1.505  -3.572  1.00  0.00     0.139 A 
ATOM      2  C   UNL     1       0.009  -1.331  -4.497  1.00  0.00     0.048 A 
ATOM      3  C   UNL     1       1.000  -0.327  -4.460  1.00  0.00     0.004 A 
ATOM      4  C   UNL     1       1.339   0.407  -3.321  1.00  0.00     0.004 A 
ATOM      5  C   UNL     1       1.204  -0.121  -2.034  1.00  0.00     0.049 A 
ATOM      6  C   UNL     1       0.731   0.623  -0.940  1.00  0.00     0.151 A 
ATOM      7  C   UNL     1      -0.178   1.700  -1.074  1.00  0.00     0.102 A 
ATOM      8  Cl  UNL     1      -0.204   2.862   0.259  1.00  0.00    -0.079 Cl
ATOM      9  C   UNL     1      -1.086   1.891  -2.154  1.00  0.00     0.075 A 
ATOM     10  Cl  UNL     1      -1.819   3.488  -2.342  1.00  0.00    -0.082 Cl
ATOM     11  C   UNL     1      -1.463   0.885  -3.083  1.00  0.00     0.085 A 
ATOM     12  C   UNL     1      -1.547  -0.479  -2.722  1.00  0.00     0.088 A 
ENDROOT
BRANCH   1  13
ATOM     13  O   UNL     1      -1.617  -2.781  -3.509  1.00  0.00    -0.506 OA
ATOM     14  H   UNL     1      -2.397  -3.001  -2.904  1.00  0.00     0.293 HD
ENDBRANCH   1  13
BRANCH  12  15
ATOM     15  N   UNL     1      -2.171  -0.856  -1.477  1.00  0.00    -0.369 N 
ATOM     16  H   UNL     1      -1.704  -1.620  -0.935  1.00  0.00     0.161 HD
BRANCH  15  17
ATOM     17  C   UNL     1      -3.536  -0.437  -1.095  1.00  0.00     0.113 C 
ATOM     18  C   UNL     1      -4.081  -1.195   0.107  1.00  0.00     0.193 C 
ATOM     19  C   UNL     1      -3.562   0.736  -0.139  1.00  0.00     0.193 C 
ATOM     20  O   UNL     1      -4.078  -0.043   0.915  1.00  0.00    -0.376 OA
BRANCH  17  21
ATOM     21  C   UNL     1      -4.534  -0.341  -2.268  1.00  0.00     0.247 C 
ATOM     22  F   UNL     1      -4.632  -1.567  -2.900  1.00  0.00    -0.248 F 
ENDBRANCH  17  21
ENDBRANCH  15  17
ENDBRANCH  12  15
BRANCH  11  23
ATOM     23  N   UNL     1      -1.738   1.219  -4.456  1.00  0.00    -0.057 NA
BRANCH  23  24
ATOM     24  N   UNL     1      -1.260   2.218  -5.001  1.00  0.00     0.005 N 
ATOM     25  N   UNL     1      -0.770   3.205  -5.544  1.00  0.00    -0.003 NA
ENDBRANCH  23  24
ENDBRANCH  11  23
BRANCH   6  26
ATOM     26  O   UNL     1       1.086   0.254   0.370  1.00  0.00    -0.424 OA
BRANCH  26  27
ATOM     27  C   UNL     1       2.196  -0.525   0.738  1.00  0.00     0.331 C 
ATOM     28  O   UNL     1       3.132  -0.760  -0.075  1.00  0.00    -0.250 OA
BRANCH  27  29
ATOM     29  C   UNL     1       2.292  -1.043   2.141  1.00  0.00     0.118 C 
ATOM     30  C   UNL     1       1.130  -1.922   2.606  1.00  0.00     0.040 C 
ATOM     31  C   UNL     1       2.502  -2.547   2.336  1.00  0.00     0.022 C 
BRANCH  29  32
ATOM     32  N   UNL     1       2.844  -0.162   3.171  1.00  0.00    -0.316 NA
ATOM     33  H   UNL     1       2.050   0.354   3.628  1.00  0.00     0.119 HD
ATOM     34  H   UNL     1       3.446   0.569   2.712  1.00  0.00     0.119 HD
ENDBRANCH  29  32
BRANCH  31  35
ATOM     35  C   UNL     1       3.265  -3.002   3.591  1.00  0.00     0.003 C 
ATOM     36  C   UNL     1       2.889  -4.436   3.947  1.00  0.00     0.004 C 
ENDBRANCH  31  35
ENDBRANCH  27  29
ENDBRANCH  26  27
ENDBRANCH   6  26
TORSDOF 11


