MODEL 1
REMARK VINA RESULT:      -6.6      0.000      0.000
REMARK SMILES C[C@@H](C#N)N(C)CCCCc1cn(-c2cc(N)c3c4c(cccc24)C(=O)[N-]3)nn1
REMARK SMILES IDX 8 1 7 2 5 3 6 4 2 5 1 6 3 7 4 8 9 9 10 10 11 11 12 12 29 13
REMARK SMILES IDX 13 14 28 15 14 16 15 17 24 18 16 19 23 20 19 21 18 22 22 23
REMARK SMILES IDX 20 24 27 25 21 26 25 27 26 28 17 29
REMARK H PARENT 17 30 17 31
ROOT
ATOM      1  C   UNL     1      45.216 132.083  15.385  1.00  0.00     0.016 C 
ENDROOT
BRANCH   1   2
ATOM      2  C   UNL     1      44.583 131.100  14.392  1.00  0.00     0.085 C 
BRANCH   2   3
ATOM      3  N   UNL     1      45.519 129.982  14.116  1.00  0.00    -0.291 NA
ATOM      4  C   UNL     1      45.486 128.986  15.203  1.00  0.00     0.106 C 
BRANCH   3   5
ATOM      5  C   UNL     1      46.913 130.411  13.828  1.00  0.00     0.157 C 
ATOM      6  C   UNL     1      47.918 129.456  14.478  1.00  0.00     0.041 C 
BRANCH   5   7
ATOM      7  C   UNL     1      47.184 130.544  12.380  1.00  0.00     0.081 C 
ATOM      8  N   UNL     1      47.395 130.649  11.247  1.00  0.00    -0.197 NA
ENDBRANCH   5   7
ENDBRANCH   3   5
ENDBRANCH   2   3
ENDBRANCH   1   2
BRANCH   1   9
ATOM      9  C   UNL     1      45.108 131.621  16.850  1.00  0.00     0.008 C 
BRANCH   9  10
ATOM     10  C   UNL     1      44.273 132.556  17.745  1.00  0.00     0.060 C 
BRANCH  10  11
ATOM     11  C   UNL     1      43.051 133.072  17.044  1.00  0.00     0.083 A 
ATOM     12  C   UNL     1      42.831 134.360  16.609  1.00  0.00     0.140 A 
ATOM     13  N   UNL     1      41.963 132.330  16.755  1.00  0.00    -0.135 NA
ATOM     14  N   UNL     1      41.589 134.371  16.091  1.00  0.00    -0.220 N 
ATOM     15  N   UNL     1      41.093 133.145  16.174  1.00  0.00    -0.062 NA
BRANCH  14  16
ATOM     16  C   UNL     1      40.907 135.500  15.519  1.00  0.00     0.076 A 
ATOM     17  C   UNL     1      41.658 136.648  15.130  1.00  0.00     0.053 A 
ATOM     18  C   UNL     1      39.499 135.500  15.322  1.00  0.00     0.007 A 
ATOM     19  C   UNL     1      41.035 137.769  14.530  1.00  0.00     0.019 A 
ATOM     20  C   UNL     1      38.592 134.487  15.718  1.00  0.00     0.011 A 
ATOM     21  C   UNL     1      38.948 136.622  14.719  1.00  0.00    -0.020 A 
ATOM     22  C   UNL     1      39.655 137.721  14.330  1.00  0.00    -0.102 A 
ATOM     23  C   UNL     1      37.203 134.640  15.467  1.00  0.00     0.001 A 
ATOM     24  C   UNL     1      37.622 136.783  14.474  1.00  0.00     0.006 A 
ATOM     25  N   UNL     1      38.802 138.725  13.765  1.00  0.00    -0.620 NA
ATOM     26  C   UNL     1      36.704 135.801  14.836  1.00  0.00     0.011 A 
ATOM     27  C   UNL     1      37.510 138.104  13.868  1.00  0.00     0.086 C 
ATOM     28  O   UNL     1      36.440 138.646  13.485  1.00  0.00    -0.315 OA
BRANCH  19  29
ATOM     29  N   UNL     1      41.801 138.909  14.134  1.00  0.00    -0.400 N 
ATOM     30  H   UNL     1      41.423 139.875  14.261  1.00  0.00     0.156 HD
ATOM     31  H   UNL     1      42.746 138.798  13.706  1.00  0.00     0.156 HD
ENDBRANCH  19  29
ENDBRANCH  14  16
ENDBRANCH  10  11
ENDBRANCH   9  10
ENDBRANCH   1   9
TORSDOF 9
ENDMDL
MODEL 2
REMARK VINA RESULT:      -6.1      4.842      8.554
REMARK SMILES C[C@@H](C#N)N(C)CCCCc1cn(-c2cc(N)c3c4c(cccc24)C(=O)[N-]3)nn1
REMARK SMILES IDX 8 1 7 2 5 3 6 4 2 5 1 6 3 7 4 8 9 9 10 10 11 11 12 12 29 13
REMARK SMILES IDX 13 14 28 15 14 16 15 17 24 18 16 19 23 20 19 21 18 22 22 23
REMARK SMILES IDX 20 24 27 25 21 26 25 27 26 28 17 29
REMARK H PARENT 17 30 17 31
ROOT
ATOM      1  C   UNL     1      42.486 138.042  20.717  1.00  0.00     0.016 C 
ENDROOT
BRANCH   1   2
ATOM      2  C   UNL     1      43.930 137.533  20.824  1.00  0.00     0.085 C 
BRANCH   2   3
ATOM      3  N   UNL     1      44.786 138.212  19.821  1.00  0.00    -0.291 NA
ATOM      4  C   UNL     1      45.185 137.279  18.750  1.00  0.00     0.106 C 
BRANCH   3   5
ATOM      5  C   UNL     1      45.971 138.901  20.397  1.00  0.00     0.157 C 
ATOM      6  C   UNL     1      45.660 139.432  21.799  1.00  0.00     0.041 C 
BRANCH   5   7
ATOM      7  C   UNL     1      47.176 138.044  20.420  1.00  0.00     0.081 C 
ATOM      8  N   UNL     1      48.120 137.374  20.438  1.00  0.00    -0.197 NA
ENDBRANCH   5   7
ENDBRANCH   3   5
ENDBRANCH   2   3
ENDBRANCH   1   2
BRANCH   1   9
ATOM      9  C   UNL     1      41.718 137.443  19.525  1.00  0.00     0.008 C 
BRANCH   9  10
ATOM     10  C   UNL     1      40.718 136.338  19.912  1.00  0.00     0.060 C 
BRANCH  10  11
ATOM     11  C   UNL     1      41.113 134.997  19.369  1.00  0.00     0.083 A 
ATOM     12  C   UNL     1      42.389 134.571  19.069  1.00  0.00     0.140 A 
ATOM     13  N   UNL     1      40.250 134.005  19.073  1.00  0.00    -0.135 NA
ATOM     14  N   UNL     1      42.258 133.331  18.564  1.00  0.00    -0.220 N 
ATOM     15  N   UNL     1      40.975 133.005  18.589  1.00  0.00    -0.062 NA
BRANCH  14  16
ATOM     16  C   UNL     1      43.317 132.479  18.096  1.00  0.00     0.076 A 
ATOM     17  C   UNL     1      44.278 131.980  19.024  1.00  0.00     0.053 A 
ATOM     18  C   UNL     1      43.429 132.111  16.727  1.00  0.00     0.007 A 
ATOM     19  C   UNL     1      45.316 131.110  18.615  1.00  0.00     0.019 A 
ATOM     20  C   UNL     1      42.618 132.573  15.661  1.00  0.00     0.011 A 
ATOM     21  C   UNL     1      44.460 131.247  16.389  1.00  0.00    -0.020 A 
ATOM     22  C   UNL     1      45.377 130.752  17.267  1.00  0.00    -0.102 A 
ATOM     23  C   UNL     1      42.865 132.126  14.336  1.00  0.00     0.001 A 
ATOM     24  C   UNL     1      44.709 130.813  15.127  1.00  0.00     0.006 A 
ATOM     25  N   UNL     1      46.334 129.908  16.613  1.00  0.00    -0.620 NA
ATOM     26  C   UNL     1      43.923 131.233  14.057  1.00  0.00     0.011 A 
ATOM     27  C   UNL     1      45.888 129.962  15.248  1.00  0.00     0.086 C 
ATOM     28  O   UNL     1      46.454 129.356  14.302  1.00  0.00    -0.315 OA
BRANCH  19  29
ATOM     29  N   UNL     1      46.266 130.607  19.558  1.00  0.00    -0.400 N 
ATOM     30  H   UNL     1      46.859 129.778  19.327  1.00  0.00     0.156 HD
ATOM     31  H   UNL     1      46.381 131.054  20.494  1.00  0.00     0.156 HD
ENDBRANCH  19  29
ENDBRANCH  14  16
ENDBRANCH  10  11
ENDBRANCH   9  10
ENDBRANCH   1   9
TORSDOF 9
ENDMDL
MODEL 3
REMARK VINA RESULT:      -6.1      1.948      2.665
REMARK SMILES C[C@@H](C#N)N(C)CCCCc1cn(-c2cc(N)c3c4c(cccc24)C(=O)[N-]3)nn1
REMARK SMILES IDX 8 1 7 2 5 3 6 4 2 5 1 6 3 7 4 8 9 9 10 10 11 11 12 12 29 13
REMARK SMILES IDX 13 14 28 15 14 16 15 17 24 18 16 19 23 20 19 21 18 22 22 23
REMARK SMILES IDX 20 24 27 25 21 26 25 27 26 28 17 29
REMARK H PARENT 17 30 17 31
ROOT
ATOM      1  C   UNL     1      46.630 130.095  16.204  1.00  0.00     0.016 C 
ENDROOT
BRANCH   1   2
ATOM      2  C   UNL     1      46.515 128.964  15.173  1.00  0.00     0.085 C 
BRANCH   2   3
ATOM      3  N   UNL     1      47.164 129.366  13.901  1.00  0.00    -0.291 NA
ATOM      4  C   UNL     1      48.619 129.527  14.079  1.00  0.00     0.106 C 
BRANCH   3   5
ATOM      5  C   UNL     1      46.568 130.573  13.267  1.00  0.00     0.157 C 
ATOM      6  C   UNL     1      46.883 130.608  11.769  1.00  0.00     0.041 C 
BRANCH   5   7
ATOM      7  C   UNL     1      45.111 130.679  13.495  1.00  0.00     0.081 C 
ATOM      8  N   UNL     1      43.971 130.762  13.674  1.00  0.00    -0.197 NA
ENDBRANCH   5   7
ENDBRANCH   3   5
ENDBRANCH   2   3
ENDBRANCH   1   2
BRANCH   1   9
ATOM      9  C   UNL     1      45.486 130.097  17.233  1.00  0.00     0.008 C 
BRANCH   9  10
ATOM     10  C   UNL     1      45.495 131.309  18.183  1.00  0.00     0.060 C 
BRANCH  10  11
ATOM     11  C   UNL     1      44.286 132.178  18.008  1.00  0.00     0.083 A 
ATOM     12  C   UNL     1      44.228 133.395  17.364  1.00  0.00     0.140 A 
ATOM     13  N   UNL     1      43.059 131.890  18.488  1.00  0.00    -0.135 NA
ATOM     14  N   UNL     1      42.963 133.829  17.501  1.00  0.00    -0.220 N 
ATOM     15  N   UNL     1      42.276 132.910  18.162  1.00  0.00    -0.062 NA
BRANCH  14  16
ATOM     16  C   UNL     1      42.421 135.064  17.003  1.00  0.00     0.076 A 
ATOM     17  C   UNL     1      42.701 136.281  17.691  1.00  0.00     0.053 A 
ATOM     18  C   UNL     1      41.616 135.107  15.831  1.00  0.00     0.007 A 
ATOM     19  C   UNL     1      42.219 137.525  17.218  1.00  0.00     0.019 A 
ATOM     20  C   UNL     1      41.173 133.997  15.071  1.00  0.00     0.011 A 
ATOM     21  C   UNL     1      41.183 136.356  15.410  1.00  0.00    -0.020 A 
ATOM     22  C   UNL     1      41.454 137.529  16.051  1.00  0.00    -0.102 A 
ATOM     23  C   UNL     1      40.354 134.199  13.929  1.00  0.00     0.001 A 
ATOM     24  C   UNL     1      40.398 136.565  14.322  1.00  0.00     0.006 A 
ATOM     25  N   UNL     1      40.845 138.645  15.389  1.00  0.00    -0.620 NA
ATOM     26  C   UNL     1      39.957 135.499  13.542  1.00  0.00     0.011 A 
ATOM     27  C   UNL     1      40.176 138.006  14.290  1.00  0.00     0.086 C 
ATOM     28  O   UNL     1      39.495 138.623  13.430  1.00  0.00    -0.315 OA
BRANCH  19  29
ATOM     29  N   UNL     1      42.517 138.739  17.911  1.00  0.00    -0.400 N 
ATOM     30  H   UNL     1      43.444 138.874  18.376  1.00  0.00     0.156 HD
ATOM     31  H   UNL     1      41.815 139.508  17.971  1.00  0.00     0.156 HD
ENDBRANCH  19  29
ENDBRANCH  14  16
ENDBRANCH  10  11
ENDBRANCH   9  10
ENDBRANCH   1   9
TORSDOF 9
ENDMDL
MODEL 4
REMARK VINA RESULT:      -6.1      2.965      4.866
REMARK SMILES C[C@@H](C#N)N(C)CCCCc1cn(-c2cc(N)c3c4c(cccc24)C(=O)[N-]3)nn1
REMARK SMILES IDX 8 1 7 2 5 3 6 4 2 5 1 6 3 7 4 8 9 9 10 10 11 11 12 12 29 13
REMARK SMILES IDX 13 14 28 15 14 16 15 17 24 18 16 19 23 20 19 21 18 22 22 23
REMARK SMILES IDX 20 24 27 25 21 26 25 27 26 28 17 29
REMARK H PARENT 17 30 17 31
ROOT
ATOM      1  C   UNL     1      46.038 130.368  16.554  1.00  0.00     0.016 C 
ENDROOT
BRANCH   1   2
ATOM      2  C   UNL     1      45.077 130.412  17.750  1.00  0.00     0.085 C 
BRANCH   2   3
ATOM      3  N   UNL     1      45.453 131.516  18.665  1.00  0.00    -0.291 NA
ATOM      4  C   UNL     1      45.913 130.991  19.965  1.00  0.00     0.106 C 
BRANCH   3   5
ATOM      5  C   UNL     1      44.392 132.542  18.851  1.00  0.00     0.157 C 
ATOM      6  C   UNL     1      43.024 131.879  19.033  1.00  0.00     0.041 C 
BRANCH   5   7
ATOM      7  C   UNL     1      44.677 133.464  19.972  1.00  0.00     0.081 C 
ATOM      8  N   UNL     1      44.901 134.185  20.849  1.00  0.00    -0.197 NA
ENDBRANCH   5   7
ENDBRANCH   3   5
ENDBRANCH   2   3
ENDBRANCH   1   2
BRANCH   1   9
ATOM      9  C   UNL     1      45.337 130.044  15.222  1.00  0.00     0.008 C 
BRANCH   9  10
ATOM     10  C   UNL     1      45.153 131.260  14.296  1.00  0.00     0.060 C 
BRANCH  10  11
ATOM     11  C   UNL     1      43.825 131.929  14.492  1.00  0.00     0.083 A 
ATOM     12  C   UNL     1      43.511 132.883  15.435  1.00  0.00     0.140 A 
ATOM     13  N   UNL     1      42.719 131.666  13.766  1.00  0.00    -0.135 NA
ATOM     14  N   UNL     1      42.203 133.151  15.273  1.00  0.00    -0.220 N 
ATOM     15  N   UNL     1      41.752 132.425  14.261  1.00  0.00    -0.062 NA
BRANCH  14  16
ATOM     16  C   UNL     1      41.416 134.080  16.038  1.00  0.00     0.076 A 
ATOM     17  C   UNL     1      40.438 133.585  16.949  1.00  0.00     0.053 A 
ATOM     18  C   UNL     1      41.594 135.486  15.917  1.00  0.00     0.007 A 
ATOM     19  C   UNL     1      39.665 134.459  17.750  1.00  0.00     0.019 A 
ATOM     20  C   UNL     1      42.456 136.152  15.012  1.00  0.00     0.011 A 
ATOM     21  C   UNL     1      40.816 136.291  16.736  1.00  0.00    -0.020 A 
ATOM     22  C   UNL     1      39.886 135.832  17.620  1.00  0.00    -0.102 A 
ATOM     23  C   UNL     1      42.510 137.571  14.997  1.00  0.00     0.001 A 
ATOM     24  C   UNL     1      40.855 137.649  16.731  1.00  0.00     0.006 A 
ATOM     25  N   UNL     1      39.226 136.907  18.300  1.00  0.00    -0.620 NA
ATOM     26  C   UNL     1      41.703 138.337  15.866  1.00  0.00     0.011 A 
ATOM     27  C   UNL     1      39.860 138.057  17.716  1.00  0.00     0.086 C 
ATOM     28  O   UNL     1      39.578 139.245  18.023  1.00  0.00    -0.315 OA
BRANCH  19  29
ATOM     29  N   UNL     1      38.695 133.950  18.668  1.00  0.00    -0.400 N 
ATOM     30  H   UNL     1      37.807 134.471  18.849  1.00  0.00     0.156 HD
ATOM     31  H   UNL     1      38.858 133.054  19.177  1.00  0.00     0.156 HD
ENDBRANCH  19  29
ENDBRANCH  14  16
ENDBRANCH  10  11
ENDBRANCH   9  10
ENDBRANCH   1   9
TORSDOF 9
ENDMDL
MODEL 5
REMARK VINA RESULT:      -6.1      3.548      8.113
REMARK SMILES C[C@@H](C#N)N(C)CCCCc1cn(-c2cc(N)c3c4c(cccc24)C(=O)[N-]3)nn1
REMARK SMILES IDX 8 1 7 2 5 3 6 4 2 5 1 6 3 7 4 8 9 9 10 10 11 11 12 12 29 13
REMARK SMILES IDX 13 14 28 15 14 16 15 17 24 18 16 19 23 20 19 21 18 22 22 23
REMARK SMILES IDX 20 24 27 25 21 26 25 27 26 28 17 29
REMARK H PARENT 17 30 17 31
ROOT
ATOM      1  C   UNL     1      38.583 137.989  16.939  1.00  0.00     0.016 C 
ENDROOT
BRANCH   1   2
ATOM      2  C   UNL     1      38.426 138.380  15.464  1.00  0.00     0.085 C 
BRANCH   2   3
ATOM      3  N   UNL     1      39.555 137.838  14.669  1.00  0.00    -0.291 NA
ATOM      4  C   UNL     1      39.184 137.706  13.248  1.00  0.00     0.106 C 
BRANCH   3   5
ATOM      5  C   UNL     1      40.113 136.563  15.195  1.00  0.00     0.157 C 
ATOM      6  C   UNL     1      39.629 135.375  14.359  1.00  0.00     0.041 C 
BRANCH   5   7
ATOM      7  C   UNL     1      41.590 136.575  15.276  1.00  0.00     0.081 C 
ATOM      8  N   UNL     1      42.745 136.585  15.339  1.00  0.00    -0.197 NA
ENDBRANCH   5   7
ENDBRANCH   3   5
ENDBRANCH   2   3
ENDBRANCH   1   2
BRANCH   1   9
ATOM      9  C   UNL     1      37.523 136.980  17.416  1.00  0.00     0.008 C 
BRANCH   9  10
ATOM     10  C   UNL     1      37.892 136.248  18.719  1.00  0.00     0.060 C 
BRANCH  10  11
ATOM     11  C   UNL     1      38.694 135.006  18.466  1.00  0.00     0.083 A 
ATOM     12  C   UNL     1      40.044 134.836  18.684  1.00  0.00     0.140 A 
ATOM     13  N   UNL     1      38.196 133.861  17.957  1.00  0.00    -0.135 NA
ATOM     14  N   UNL     1      40.334 133.590  18.267  1.00  0.00    -0.220 N 
ATOM     15  N   UNL     1      39.214 133.019  17.851  1.00  0.00    -0.062 NA
BRANCH  14  16
ATOM     16  C   UNL     1      41.626 132.959  18.284  1.00  0.00     0.076 A 
ATOM     17  C   UNL     1      42.231 132.634  19.533  1.00  0.00     0.053 A 
ATOM     18  C   UNL     1      42.316 132.639  17.082  1.00  0.00     0.007 A 
ATOM     19  C   UNL     1      43.484 131.980  19.599  1.00  0.00     0.019 A 
ATOM     20  C   UNL     1      41.906 132.957  15.764  1.00  0.00     0.011 A 
ATOM     21  C   UNL     1      43.534 131.988  17.210  1.00  0.00    -0.020 A 
ATOM     22  C   UNL     1      44.119 131.660  18.397  1.00  0.00    -0.102 A 
ATOM     23  C   UNL     1      42.717 132.585  14.659  1.00  0.00     0.001 A 
ATOM     24  C   UNL     1      44.321 131.628  16.164  1.00  0.00     0.006 A 
ATOM     25  N   UNL     1      45.387 131.020  18.203  1.00  0.00    -0.620 NA
ATOM     26  C   UNL     1      43.942 131.910  14.854  1.00  0.00     0.011 A 
ATOM     27  C   UNL     1      45.495 131.011  16.771  1.00  0.00     0.086 C 
ATOM     28  O   UNL     1      46.478 130.535  16.145  1.00  0.00    -0.315 OA
BRANCH  19  29
ATOM     29  N   UNL     1      44.075 131.650  20.858  1.00  0.00    -0.400 N 
ATOM     30  H   UNL     1      44.137 132.361  21.621  1.00  0.00     0.156 HD
ATOM     31  H   UNL     1      44.459 130.696  21.036  1.00  0.00     0.156 HD
ENDBRANCH  19  29
ENDBRANCH  14  16
ENDBRANCH  10  11
ENDBRANCH   9  10
ENDBRANCH   1   9
TORSDOF 9
ENDMDL
MODEL 6
REMARK VINA RESULT:      -5.9      4.576      6.807
REMARK SMILES C[C@@H](C#N)N(C)CCCCc1cn(-c2cc(N)c3c4c(cccc24)C(=O)[N-]3)nn1
REMARK SMILES IDX 8 1 7 2 5 3 6 4 2 5 1 6 3 7 4 8 9 9 10 10 11 11 12 12 29 13
REMARK SMILES IDX 13 14 28 15 14 16 15 17 24 18 16 19 23 20 19 21 18 22 22 23
REMARK SMILES IDX 20 24 27 25 21 26 25 27 26 28 17 29
REMARK H PARENT 17 30 17 31
ROOT
ATOM      1  C   UNL     1      43.857 132.327  14.884  1.00  0.00     0.016 C 
ENDROOT
BRANCH   1   2
ATOM      2  C   UNL     1      44.278 131.135  15.754  1.00  0.00     0.085 C 
BRANCH   2   3
ATOM      3  N   UNL     1      45.757 131.025  15.787  1.00  0.00    -0.291 NA
ATOM      4  C   UNL     1      46.381 132.044  14.923  1.00  0.00     0.106 C 
BRANCH   3   5
ATOM      5  C   UNL     1      46.275 129.668  15.471  1.00  0.00     0.157 C 
ATOM      6  C   UNL     1      45.139 128.641  15.470  1.00  0.00     0.041 C 
BRANCH   5   7
ATOM      7  C   UNL     1      47.018 129.622  14.192  1.00  0.00     0.081 C 
ATOM      8  N   UNL     1      47.600 129.587  13.193  1.00  0.00    -0.197 NA
ENDBRANCH   5   7
ENDBRANCH   3   5
ENDBRANCH   2   3
ENDBRANCH   1   2
BRANCH   1   9
ATOM      9  C   UNL     1      42.331 132.467  14.743  1.00  0.00     0.008 C 
BRANCH   9  10
ATOM     10  C   UNL     1      41.832 133.924  14.716  1.00  0.00     0.060 C 
BRANCH  10  11
ATOM     11  C   UNL     1      42.151 134.657  15.985  1.00  0.00     0.083 A 
ATOM     12  C   UNL     1      43.396 135.058  16.417  1.00  0.00     0.140 A 
ATOM     13  N   UNL     1      41.240 135.018  16.911  1.00  0.00    -0.135 NA
ATOM     14  N   UNL     1      43.207 135.627  17.621  1.00  0.00    -0.220 N 
ATOM     15  N   UNL     1      41.911 135.607  17.892  1.00  0.00    -0.062 NA
BRANCH  14  16
ATOM     16  C   UNL     1      44.220 136.189  18.473  1.00  0.00     0.076 A 
ATOM     17  C   UNL     1      44.703 137.505  18.214  1.00  0.00     0.053 A 
ATOM     18  C   UNL     1      44.750 135.468  19.578  1.00  0.00     0.007 A 
ATOM     19  C   UNL     1      45.673 138.113  19.046  1.00  0.00     0.019 A 
ATOM     20  C   UNL     1      44.448 134.130  19.936  1.00  0.00     0.011 A 
ATOM     21  C   UNL     1      45.688 136.120  20.364  1.00  0.00    -0.020 A 
ATOM     22  C   UNL     1      46.150 137.382  20.136  1.00  0.00    -0.102 A 
ATOM     23  C   UNL     1      45.075 133.538  21.063  1.00  0.00     0.001 A 
ATOM     24  C   UNL     1      46.298 135.566  21.444  1.00  0.00     0.006 A 
ATOM     25  N   UNL     1      47.135 137.768  21.104  1.00  0.00    -0.620 NA
ATOM     26  C   UNL     1      46.013 134.260  21.833  1.00  0.00     0.011 A 
ATOM     27  C   UNL     1      47.213 136.593  21.927  1.00  0.00     0.086 C 
ATOM     28  O   UNL     1      47.976 136.484  22.922  1.00  0.00    -0.315 OA
BRANCH  19  29
ATOM     29  N   UNL     1      46.140 139.438  18.782  1.00  0.00    -0.400 N 
ATOM     30  H   UNL     1      45.908 139.916  17.883  1.00  0.00     0.156 HD
ATOM     31  H   UNL     1      46.726 139.948  19.479  1.00  0.00     0.156 HD
ENDBRANCH  19  29
ENDBRANCH  14  16
ENDBRANCH  10  11
ENDBRANCH   9  10
ENDBRANCH   1   9
TORSDOF 9
ENDMDL
MODEL 7
REMARK VINA RESULT:      -5.8      2.472      4.529
REMARK SMILES C[C@@H](C#N)N(C)CCCCc1cn(-c2cc(N)c3c4c(cccc24)C(=O)[N-]3)nn1
REMARK SMILES IDX 8 1 7 2 5 3 6 4 2 5 1 6 3 7 4 8 9 9 10 10 11 11 12 12 29 13
REMARK SMILES IDX 13 14 28 15 14 16 15 17 24 18 16 19 23 20 19 21 18 22 22 23
REMARK SMILES IDX 20 24 27 25 21 26 25 27 26 28 17 29
REMARK H PARENT 17 30 17 31
ROOT
ATOM      1  C   UNL     1      43.823 131.334  17.091  1.00  0.00     0.016 C 
ENDROOT
BRANCH   1   2
ATOM      2  C   UNL     1      44.650 131.960  18.222  1.00  0.00     0.085 C 
BRANCH   2   3
ATOM      3  N   UNL     1      43.916 131.859  19.506  1.00  0.00    -0.291 NA
ATOM      4  C   UNL     1      42.497 132.226  19.334  1.00  0.00     0.106 C 
BRANCH   3   5
ATOM      5  C   UNL     1      44.531 132.625  20.623  1.00  0.00     0.157 C 
ATOM      6  C   UNL     1      44.579 134.119  20.292  1.00  0.00     0.041 C 
BRANCH   5   7
ATOM      7  C   UNL     1      43.850 132.400  21.916  1.00  0.00     0.081 C 
ATOM      8  N   UNL     1      43.317 132.225  22.928  1.00  0.00    -0.197 NA
ENDBRANCH   5   7
ENDBRANCH   3   5
ENDBRANCH   2   3
ENDBRANCH   1   2
BRANCH   1   9
ATOM      9  C   UNL     1      44.683 130.832  15.917  1.00  0.00     0.008 C 
BRANCH   9  10
ATOM     10  C   UNL     1      44.596 131.707  14.653  1.00  0.00     0.060 C 
BRANCH  10  11
ATOM     11  C   UNL     1      43.248 132.345  14.494  1.00  0.00     0.083 A 
ATOM     12  C   UNL     1      42.841 133.557  15.010  1.00  0.00     0.140 A 
ATOM     13  N   UNL     1      42.214 131.796  13.825  1.00  0.00    -0.135 NA
ATOM     14  N   UNL     1      41.549 133.694  14.661  1.00  0.00    -0.220 N 
ATOM     15  N   UNL     1      41.198 132.640  13.941  1.00  0.00    -0.062 NA
BRANCH  14  16
ATOM     16  C   UNL     1      40.687 134.798  14.983  1.00  0.00     0.076 A 
ATOM     17  C   UNL     1      40.829 136.028  14.275  1.00  0.00     0.053 A 
ATOM     18  C   UNL     1      39.685 134.696  15.987  1.00  0.00     0.007 A 
ATOM     19  C   UNL     1      39.979 137.130  14.532  1.00  0.00     0.019 A 
ATOM     20  C   UNL     1      39.455 133.587  16.838  1.00  0.00     0.011 A 
ATOM     21  C   UNL     1      38.875 135.805  16.185  1.00  0.00    -0.020 A 
ATOM     22  C   UNL     1      38.991 136.982  15.507  1.00  0.00    -0.102 A 
ATOM     23  C   UNL     1      38.422 133.640  17.811  1.00  0.00     0.001 A 
ATOM     24  C   UNL     1      37.886 135.871  17.112  1.00  0.00     0.006 A 
ATOM     25  N   UNL     1      38.031 137.947  15.956  1.00  0.00    -0.620 NA
ATOM     26  C   UNL     1      37.622 134.795  17.955  1.00  0.00     0.011 A 
ATOM     27  C   UNL     1      37.337 137.216  16.980  1.00  0.00     0.086 C 
ATOM     28  O   UNL     1      36.391 137.691  17.662  1.00  0.00    -0.315 OA
BRANCH  19  29
ATOM     29  N   UNL     1      40.124 138.354  13.807  1.00  0.00    -0.400 N 
ATOM     30  H   UNL     1      39.286 138.855  13.433  1.00  0.00     0.156 HD
ATOM     31  H   UNL     1      41.067 138.765  13.633  1.00  0.00     0.156 HD
ENDBRANCH  19  29
ENDBRANCH  14  16
ENDBRANCH  10  11
ENDBRANCH   9  10
ENDBRANCH   1   9
TORSDOF 9
ENDMDL
MODEL 8
REMARK VINA RESULT:      -5.8      3.374      8.578
REMARK SMILES C[C@@H](C#N)N(C)CCCCc1cn(-c2cc(N)c3c4c(cccc24)C(=O)[N-]3)nn1
REMARK SMILES IDX 8 1 7 2 5 3 6 4 2 5 1 6 3 7 4 8 9 9 10 10 11 11 12 12 29 13
REMARK SMILES IDX 13 14 28 15 14 16 15 17 24 18 16 19 23 20 19 21 18 22 22 23
REMARK SMILES IDX 20 24 27 25 21 26 25 27 26 28 17 29
REMARK H PARENT 17 30 17 31
ROOT
ATOM      1  C   UNL     1      37.533 136.915  17.467  1.00  0.00     0.016 C 
ENDROOT
BRANCH   1   2
ATOM      2  C   UNL     1      37.032 137.499  16.139  1.00  0.00     0.085 C 
BRANCH   2   3
ATOM      3  N   UNL     1      36.883 136.420  15.132  1.00  0.00    -0.291 NA
ATOM      4  C   UNL     1      36.967 135.091  15.766  1.00  0.00     0.106 C 
BRANCH   3   5
ATOM      5  C   UNL     1      37.823 136.523  13.984  1.00  0.00     0.157 C 
ATOM      6  C   UNL     1      38.040 137.987  13.592  1.00  0.00     0.041 C 
BRANCH   5   7
ATOM      7  C   UNL     1      39.118 135.856  14.243  1.00  0.00     0.081 C 
ATOM      8  N   UNL     1      40.131 135.335  14.447  1.00  0.00    -0.197 NA
ENDBRANCH   5   7
ENDBRANCH   3   5
ENDBRANCH   2   3
ENDBRANCH   1   2
BRANCH   1   9
ATOM      9  C   UNL     1      39.035 137.155  17.708  1.00  0.00     0.008 C 
BRANCH   9  10
ATOM     10  C   UNL     1      39.645 136.273  18.812  1.00  0.00     0.060 C 
BRANCH  10  11
ATOM     11  C   UNL     1      40.106 134.945  18.289  1.00  0.00     0.083 A 
ATOM     12  C   UNL     1      41.340 134.653  17.750  1.00  0.00     0.140 A 
ATOM     13  N   UNL     1      39.350 133.829  18.254  1.00  0.00    -0.135 NA
ATOM     14  N   UNL     1      41.286 133.364  17.371  1.00  0.00    -0.220 N 
ATOM     15  N   UNL     1      40.094 132.885  17.694  1.00  0.00    -0.062 NA
BRANCH  14  16
ATOM     16  C   UNL     1      42.336 132.609  16.743  1.00  0.00     0.076 A 
ATOM     17  C   UNL     1      42.277 132.358  15.340  1.00  0.00     0.053 A 
ATOM     18  C   UNL     1      43.442 132.109  17.484  1.00  0.00     0.007 A 
ATOM     19  C   UNL     1      43.305 131.651  14.673  1.00  0.00     0.019 A 
ATOM     20  C   UNL     1      43.624 132.194  18.886  1.00  0.00     0.011 A 
ATOM     21  C   UNL     1      44.423 131.435  16.773  1.00  0.00    -0.020 A 
ATOM     22  C   UNL     1      44.386 131.199  15.431  1.00  0.00    -0.102 A 
ATOM     23  C   UNL     1      44.779 131.627  19.488  1.00  0.00     0.001 A 
ATOM     24  C   UNL     1      45.532 130.886  17.334  1.00  0.00     0.006 A 
ATOM     25  N   UNL     1      45.530 130.453  14.993  1.00  0.00    -0.620 NA
ATOM     26  C   UNL     1      45.751 130.964  18.707  1.00  0.00     0.011 A 
ATOM     27  C   UNL     1      46.246 130.264  16.225  1.00  0.00     0.086 C 
ATOM     28  O   UNL     1      47.336 129.641  16.313  1.00  0.00    -0.315 OA
BRANCH  19  29
ATOM     29  N   UNL     1      43.239 131.417  13.264  1.00  0.00    -0.400 N 
ATOM     30  H   UNL     1      43.279 132.213  12.589  1.00  0.00     0.156 HD
ATOM     31  H   UNL     1      43.145 130.449  12.886  1.00  0.00     0.156 HD
ENDBRANCH  19  29
ENDBRANCH  14  16
ENDBRANCH  10  11
ENDBRANCH   9  10
ENDBRANCH   1   9
TORSDOF 9
ENDMDL
MODEL 9
REMARK VINA RESULT:      -5.8      2.195      4.064
REMARK SMILES C[C@@H](C#N)N(C)CCCCc1cn(-c2cc(N)c3c4c(cccc24)C(=O)[N-]3)nn1
REMARK SMILES IDX 8 1 7 2 5 3 6 4 2 5 1 6 3 7 4 8 9 9 10 10 11 11 12 12 29 13
REMARK SMILES IDX 13 14 28 15 14 16 15 17 24 18 16 19 23 20 19 21 18 22 22 23
REMARK SMILES IDX 20 24 27 25 21 26 25 27 26 28 17 29
REMARK H PARENT 17 30 17 31
ROOT
ATOM      1  C   UNL     1      45.615 130.144  17.065  1.00  0.00     0.016 C 
ENDROOT
BRANCH   1   2
ATOM      2  C   UNL     1      45.808 131.266  18.094  1.00  0.00     0.085 C 
BRANCH   2   3
ATOM      3  N   UNL     1      44.607 131.379  18.957  1.00  0.00    -0.291 NA
ATOM      4  C   UNL     1      44.054 132.745  18.916  1.00  0.00     0.106 C 
BRANCH   3   5
ATOM      5  C   UNL     1      44.820 130.933  20.360  1.00  0.00     0.157 C 
ATOM      6  C   UNL     1      46.083 131.570  20.945  1.00  0.00     0.041 C 
BRANCH   5   7
ATOM      7  C   UNL     1      43.653 131.198  21.229  1.00  0.00     0.081 C 
ATOM      8  N   UNL     1      42.741 131.407  21.909  1.00  0.00    -0.197 NA
ENDBRANCH   5   7
ENDBRANCH   3   5
ENDBRANCH   2   3
ENDBRANCH   1   2
BRANCH   1   9
ATOM      9  C   UNL     1      44.343 130.314  16.213  1.00  0.00     0.008 C 
BRANCH   9  10
ATOM     10  C   UNL     1      44.551 131.141  14.932  1.00  0.00     0.060 C 
BRANCH  10  11
ATOM     11  C   UNL     1      44.188 132.584  15.121  1.00  0.00     0.083 A 
ATOM     12  C   UNL     1      42.995 133.187  14.786  1.00  0.00     0.140 A 
ATOM     13  N   UNL     1      45.008 133.519  15.641  1.00  0.00    -0.135 NA
ATOM     14  N   UNL     1      43.140 134.490  15.086  1.00  0.00    -0.220 N 
ATOM     15  N   UNL     1      44.343 134.666  15.610  1.00  0.00    -0.062 NA
BRANCH  14  16
ATOM     16  C   UNL     1      42.161 135.527  14.901  1.00  0.00     0.076 A 
ATOM     17  C   UNL     1      42.546 136.891  15.062  1.00  0.00     0.053 A 
ATOM     18  C   UNL     1      40.815 135.229  14.552  1.00  0.00     0.007 A 
ATOM     19  C   UNL     1      41.626 137.947  14.854  1.00  0.00     0.019 A 
ATOM     20  C   UNL     1      40.241 133.940  14.430  1.00  0.00     0.011 A 
ATOM     21  C   UNL     1      39.964 136.306  14.351  1.00  0.00    -0.020 A 
ATOM     22  C   UNL     1      40.320 137.614  14.488  1.00  0.00    -0.102 A 
ATOM     23  C   UNL     1      38.869 133.803  14.090  1.00  0.00     0.001 A 
ATOM     24  C   UNL     1      38.650 136.190  14.028  1.00  0.00     0.006 A 
ATOM     25  N   UNL     1      39.215 138.493  14.242  1.00  0.00    -0.620 NA
ATOM     26  C   UNL     1      38.056 134.939  13.884  1.00  0.00     0.011 A 
ATOM     27  C   UNL     1      38.160 137.562  13.951  1.00  0.00     0.086 C 
ATOM     28  O   UNL     1      36.980 137.904  13.674  1.00  0.00    -0.315 OA
BRANCH  19  29
ATOM     29  N   UNL     1      42.027 139.310  15.007  1.00  0.00    -0.400 N 
ATOM     30  H   UNL     1      42.085 139.745  15.956  1.00  0.00     0.156 HD
ATOM     31  H   UNL     1      42.264 139.896  14.177  1.00  0.00     0.156 HD
ENDBRANCH  19  29
ENDBRANCH  14  16
ENDBRANCH  10  11
ENDBRANCH   9  10
ENDBRANCH   1   9
TORSDOF 9
ENDMDL


