REMARK SMILES C#Cc1ccc(-n2cc(CCCCN(C)[C@@H](C)C#N)[nH+]n2)cc(N)ccc2ccccc12
REMARK SMILES IDX 11 1 10 2 9 3 7 4 8 5 21 6 20 7 6 9 3 10 4 11 32 12 5 13
REMARK SMILES IDX 31 14 27 15 30 16 26 17 28 18 22 19 29 20 25 21 23 22 2 23
REMARK SMILES IDX 1 24 24 25 12 28 13 29 14 30 15 31 16 32 17 33 18 34 19 35
REMARK H PARENT 20 8 24 26 24 27
ROOT
ATOM      1  C   UNL     1      -0.530   1.546   1.677  1.00  0.00     0.010 C 
ENDROOT
BRANCH   1   2
ATOM      2  C   UNL     1       0.912   1.733   1.185  1.00  0.00     0.086 C 
BRANCH   2   3
ATOM      3  C   UNL     1       1.402   0.510   0.467  1.00  0.00     0.165 A 
ATOM      4  N   UNL     1       1.911  -1.548  -0.070  1.00  0.00    -0.102 N 
ATOM      5  C   UNL     1       1.353  -0.798   0.903  1.00  0.00     0.281 A 
ATOM      6  N   UNL     1       2.296  -0.739  -1.049  1.00  0.00     0.093 NA
ATOM      7  N   UNL     1       1.999   0.512  -0.739  1.00  0.00    -0.147 N 
ATOM      8  H   UNL     1       2.201   1.339  -1.344  1.00  0.00     0.342 HD
BRANCH   4   9
ATOM      9  C   UNL     1       2.025  -2.984  -0.107  1.00  0.00     0.157 A 
ATOM     10  C   UNL     1       0.400  -2.713  -2.689  1.00  0.00     0.032 A 
ATOM     11  C   UNL     1       1.663  -3.332  -2.542  1.00  0.00     0.022 A 
ATOM     12  C   UNL     1      -0.580  -2.635  -1.658  1.00  0.00    -0.003 A 
ATOM     13  C   UNL     1       2.292  -3.636  -1.324  1.00  0.00     0.056 A 
ATOM     14  C   UNL     1      -1.372  -1.470  -1.556  1.00  0.00     0.010 A 
ATOM     15  C   UNL     1      -0.714  -3.633  -0.645  1.00  0.00    -0.017 A 
ATOM     16  C   UNL     1      -2.158  -1.236  -0.427  1.00  0.00     0.001 A 
ATOM     17  C   UNL     1      -0.204  -4.933  -0.818  1.00  0.00     0.011 A 
ATOM     18  C   UNL     1      -1.452  -3.342   0.519  1.00  0.00     0.009 A 
ATOM     19  C   UNL     1       1.863  -3.728   1.078  1.00  0.00     0.079 A 
ATOM     20  C   UNL     1      -2.167  -2.149   0.624  1.00  0.00     0.001 A 
ATOM     21  C   UNL     1       0.532  -5.630   0.153  1.00  0.00     0.026 A 
ATOM     22  C   UNL     1       1.336  -5.039   1.154  1.00  0.00     0.036 A 
BRANCH  10  23
ATOM     23  C   UNL     1       0.113  -2.138  -3.983  1.00  0.00    -0.070 C 
ATOM     24  C   UNL     1      -0.125  -1.657  -5.061  1.00  0.00     0.010 C 
ENDBRANCH  10  23
BRANCH  22  25
ATOM     25  N   UNL     1       1.637  -5.816   2.317  1.00  0.00    -0.399 N 
ATOM     26  H   UNL     1       2.223  -5.426   3.089  1.00  0.00     0.156 HD
ATOM     27  H   UNL     1       1.265  -6.787   2.424  1.00  0.00     0.156 HD
ENDBRANCH  22  25
ENDBRANCH   4   9
ENDBRANCH   2   3
ENDBRANCH   1   2
BRANCH   1  28
ATOM     28  C   UNL     1      -1.120   2.823   2.299  1.00  0.00     0.016 C 
BRANCH  28  29
ATOM     29  C   UNL     1      -1.441   3.919   1.268  1.00  0.00     0.085 C 
BRANCH  29  30
ATOM     30  N   UNL     1      -2.305   3.389   0.189  1.00  0.00    -0.291 NA
ATOM     31  C   UNL     1      -1.941   3.948  -1.127  1.00  0.00     0.106 C 
BRANCH  30  32
ATOM     32  C   UNL     1      -3.753   3.476   0.506  1.00  0.00     0.157 C 
ATOM     33  C   UNL     1      -4.375   4.856   0.225  1.00  0.00     0.041 C 
BRANCH  32  34
ATOM     34  C   UNL     1      -4.483   2.434  -0.231  1.00  0.00     0.081 C 
ATOM     35  N   UNL     1      -5.056   1.612  -0.810  1.00  0.00    -0.197 NA
ENDBRANCH  32  34
ENDBRANCH  30  32
ENDBRANCH  29  30
ENDBRANCH  28  29
ENDBRANCH   1  28
TORSDOF 10


