MODEL 1
REMARK VINA RESULT:      -6.3      0.000      0.000
REMARK SMILES Cc1[nH+]nn([C@@H]2O[C@@]2(O)Nc2cccc(C#N)c2C)c1-c1cc2ccccc2c2c1C[N+](C)(C)C2
REMARK SMILES IDX 6 1 7 2 8 3 5 4 2 5 3 6 20 7 4 8 1 9 21 11 22 12 30 13 23 14
REMARK SMILES IDX 29 15 31 16 24 17 28 18 35 19 32 20 25 21 27 22 26 23 33 24
REMARK SMILES IDX 34 25 9 26 10 28 11 30 12 31 18 32 13 33 15 34 14 35 19 36
REMARK SMILES IDX 16 37 17 38
REMARK H PARENT 3 10 9 27 10 29
ROOT
ATOM      1  C   UNL     1      41.202 132.945  15.397  1.00  0.00     0.428 C 
ATOM      2  O   UNL     1      40.371 133.072  14.261  1.00  0.00    -0.275 OA
ATOM      3  C   UNL     1      40.875 134.262  14.823  1.00  0.00     0.323 C 
ENDROOT
BRANCH   1   4
ATOM      4  N   UNL     1      42.529 132.446  15.054  1.00  0.00    -0.092 N 
ATOM      5  C   UNL     1      44.672 131.984  15.067  1.00  0.00     0.170 A 
ATOM      6  N   UNL     1      44.068 131.244  14.116  1.00  0.00    -0.147 N 
ATOM      7  C   UNL     1      43.692 132.760  15.665  1.00  0.00     0.204 A 
ATOM      8  N   UNL     1      42.773 131.529  14.132  1.00  0.00     0.091 NA
ATOM      9  C   UNL     1      46.114 131.860  15.438  1.00  0.00     0.100 C 
ATOM     10  H   UNL     1      44.514 130.535  13.493  1.00  0.00     0.342 HD
BRANCH   7  11
ATOM     11  C   UNL     1      43.825 133.683  16.810  1.00  0.00     0.038 A 
ATOM     12  C   UNL     1      43.929 135.067  16.580  1.00  0.00     0.022 A 
ATOM     13  C   UNL     1      43.927 133.218  18.131  1.00  0.00     0.027 A 
ATOM     14  C   UNL     1      44.123 135.960  17.652  1.00  0.00    -0.017 A 
ATOM     15  C   UNL     1      44.105 134.078  19.179  1.00  0.00     0.024 A 
ATOM     16  C   UNL     1      43.944 131.813  18.609  1.00  0.00     0.301 C 
ATOM     17  C   UNL     1      44.260 137.336  17.416  1.00  0.00     0.009 A 
ATOM     18  C   UNL     1      44.201 135.465  18.980  1.00  0.00    -0.009 A 
ATOM     19  C   UNL     1      44.228 133.323  20.451  1.00  0.00     0.301 C 
ATOM     20  N   UNL     1      44.249 131.875  20.073  1.00  0.00    -0.321 N 
ATOM     21  C   UNL     1      44.474 138.213  18.483  1.00  0.00     0.001 A 
ATOM     22  C   UNL     1      44.400 136.359  20.044  1.00  0.00     0.009 A 
ATOM     23  C   UNL     1      44.538 137.728  19.791  1.00  0.00     0.001 A 
ATOM     24  C   UNL     1      45.589 131.297  20.342  1.00  0.00     0.334 C 
ATOM     25  C   UNL     1      43.239 131.119  20.851  1.00  0.00     0.334 C 
ENDBRANCH   7  11
ENDBRANCH   1   4
BRANCH   3  26
ATOM     26  O   UNL     1      41.775 134.908  13.966  1.00  0.00    -0.343 OA
ATOM     27  H   UNL     1      42.503 135.246  14.548  1.00  0.00     0.216 HD
ENDBRANCH   3  26
BRANCH   3  28
ATOM     28  N   UNL     1      39.851 135.062  15.489  1.00  0.00    -0.328 N 
ATOM     29  H   UNL     1      38.860 134.738  15.418  1.00  0.00     0.166 HD
BRANCH  28  30
ATOM     30  C   UNL     1      40.190 136.122  16.401  1.00  0.00     0.043 A 
ATOM     31  C   UNL     1      40.278 137.444  15.931  1.00  0.00     0.026 A 
ATOM     32  C   UNL     1      40.396 135.857  17.779  1.00  0.00    -0.010 A 
ATOM     33  C   UNL     1      40.528 138.494  16.810  1.00  0.00     0.004 A 
ATOM     34  C   UNL     1      40.646 136.939  18.661  1.00  0.00     0.057 A 
ATOM     35  C   UNL     1      40.715 138.246  18.165  1.00  0.00     0.020 A 
ATOM     36  C   UNL     1      40.321 134.434  18.290  1.00  0.00     0.048 C 
BRANCH  34  37
ATOM     37  C   UNL     1      40.810 136.743  20.083  1.00  0.00     0.099 C 
ATOM     38  N   UNL     1      40.938 136.587  21.222  1.00  0.00    -0.192 NA
ENDBRANCH  34  37
ENDBRANCH  28  30
ENDBRANCH   3  28
TORSDOF 6
ENDMDL
MODEL 2
REMARK VINA RESULT:      -6.0      2.652      7.168
REMARK SMILES Cc1[nH+]nn([C@@H]2O[C@@]2(O)Nc2cccc(C#N)c2C)c1-c1cc2ccccc2c2c1C[N+](C)(C)C2
REMARK SMILES IDX 6 1 7 2 8 3 5 4 2 5 3 6 20 7 4 8 1 9 21 11 22 12 30 13 23 14
REMARK SMILES IDX 29 15 31 16 24 17 28 18 35 19 32 20 25 21 27 22 26 23 33 24
REMARK SMILES IDX 34 25 9 26 10 28 11 30 12 31 18 32 13 33 15 34 14 35 19 36
REMARK SMILES IDX 16 37 17 38
REMARK H PARENT 3 10 9 27 10 29
ROOT
ATOM      1  C   UNL     1      43.422 133.300  18.979  1.00  0.00     0.428 C 
ATOM      2  O   UNL     1      44.722 132.758  19.089  1.00  0.00    -0.275 OA
ATOM      3  C   UNL     1      44.166 132.832  17.796  1.00  0.00     0.323 C 
ENDROOT
BRANCH   1   4
ATOM      4  N   UNL     1      43.413 134.748  19.157  1.00  0.00    -0.092 N 
ATOM      5  C   UNL     1      42.831 136.861  19.185  1.00  0.00     0.170 A 
ATOM      6  N   UNL     1      43.966 136.707  19.896  1.00  0.00    -0.147 N 
ATOM      7  C   UNL     1      42.479 135.611  18.703  1.00  0.00     0.204 A 
ATOM      8  N   UNL     1      44.295 135.423  19.877  1.00  0.00     0.091 NA
ATOM      9  C   UNL     1      42.080 138.148  19.070  1.00  0.00     0.100 C 
ATOM     10  H   UNL     1      44.489 137.447  20.414  1.00  0.00     0.342 HD
BRANCH   7  11
ATOM     11  C   UNL     1      41.278 135.230  17.933  1.00  0.00     0.038 A 
ATOM     12  C   UNL     1      41.373 135.043  16.542  1.00  0.00     0.022 A 
ATOM     13  C   UNL     1      40.013 135.121  18.534  1.00  0.00     0.027 A 
ATOM     14  C   UNL     1      40.228 134.745  15.778  1.00  0.00    -0.017 A 
ATOM     15  C   UNL     1      38.898 134.822  17.802  1.00  0.00     0.024 A 
ATOM     16  C   UNL     1      39.647 135.368  19.952  1.00  0.00     0.301 C 
ATOM     17  C   UNL     1      40.322 134.591  14.386  1.00  0.00     0.009 A 
ATOM     18  C   UNL     1      38.966 134.618  16.414  1.00  0.00    -0.009 A 
ATOM     19  C   UNL     1      37.695 134.815  18.672  1.00  0.00     0.301 C 
ATOM     20  N   UNL     1      38.154 135.284  20.017  1.00  0.00    -0.321 N 
ATOM     21  C   UNL     1      39.178 134.317  13.632  1.00  0.00     0.001 A 
ATOM     22  C   UNL     1      37.827 134.327  15.645  1.00  0.00     0.009 A 
ATOM     23  C   UNL     1      37.938 134.180  14.259  1.00  0.00     0.001 A 
ATOM     24  C   UNL     1      37.580 136.618  20.316  1.00  0.00     0.334 C 
ATOM     25  C   UNL     1      37.729 134.333  21.072  1.00  0.00     0.334 C 
ENDBRANCH   7  11
ENDBRANCH   1   4
BRANCH   3  26
ATOM     26  O   UNL     1      44.850 133.741  16.981  1.00  0.00    -0.343 OA
ATOM     27  H   UNL     1      44.161 134.368  16.642  1.00  0.00     0.216 HD
ENDBRANCH   3  26
BRANCH   3  28
ATOM     28  N   UNL     1      43.819 131.525  17.245  1.00  0.00    -0.328 N 
ATOM     29  H   UNL     1      43.145 130.934  17.783  1.00  0.00     0.166 HD
BRANCH  28  30
ATOM     30  C   UNL     1      44.191 131.142  15.908  1.00  0.00     0.043 A 
ATOM     31  C   UNL     1      43.354 131.475  14.830  1.00  0.00     0.026 A 
ATOM     32  C   UNL     1      45.415 130.471  15.659  1.00  0.00    -0.010 A 
ATOM     33  C   UNL     1      43.731 131.185  13.522  1.00  0.00     0.004 A 
ATOM     34  C   UNL     1      45.787 130.185  14.321  1.00  0.00     0.057 A 
ATOM     35  C   UNL     1      44.938 130.541  13.267  1.00  0.00     0.020 A 
ATOM     36  C   UNL     1      46.314 130.092  16.817  1.00  0.00     0.048 C 
BRANCH  34  37
ATOM     37  C   UNL     1      47.044 129.551  13.995  1.00  0.00     0.099 C 
ATOM     38  N   UNL     1      48.048 129.041  13.733  1.00  0.00    -0.192 NA
ENDBRANCH  34  37
ENDBRANCH  28  30
ENDBRANCH   3  28
TORSDOF 6
ENDMDL
MODEL 3
REMARK VINA RESULT:      -5.9      1.961      6.068
REMARK SMILES Cc1[nH+]nn([C@@H]2O[C@@]2(O)Nc2cccc(C#N)c2C)c1-c1cc2ccccc2c2c1C[N+](C)(C)C2
REMARK SMILES IDX 6 1 7 2 8 3 5 4 2 5 3 6 20 7 4 8 1 9 21 11 22 12 30 13 23 14
REMARK SMILES IDX 29 15 31 16 24 17 28 18 35 19 32 20 25 21 27 22 26 23 33 24
REMARK SMILES IDX 34 25 9 26 10 28 11 30 12 31 18 32 13 33 15 34 14 35 19 36
REMARK SMILES IDX 16 37 17 38
REMARK H PARENT 3 10 9 27 10 29
ROOT
ATOM      1  C   UNL     1      42.074 135.608  15.827  1.00  0.00     0.428 C 
ATOM      2  O   UNL     1      41.626 135.356  14.510  1.00  0.00    -0.275 OA
ATOM      3  C   UNL     1      42.032 134.243  15.273  1.00  0.00     0.323 C 
ENDROOT
BRANCH   1   4
ATOM      4  N   UNL     1      40.975 135.931  16.729  1.00  0.00    -0.092 N 
ATOM      5  C   UNL     1      39.745 136.266  18.513  1.00  0.00     0.170 A 
ATOM      6  N   UNL     1      39.107 136.769  17.437  1.00  0.00    -0.147 N 
ATOM      7  C   UNL     1      40.937 135.722  18.063  1.00  0.00     0.204 A 
ATOM      8  N   UNL     1      39.870 136.567  16.372  1.00  0.00     0.091 NA
ATOM      9  C   UNL     1      39.259 136.403  19.919  1.00  0.00     0.100 C 
ATOM     10  H   UNL     1      38.191 137.269  17.427  1.00  0.00     0.342 HD
BRANCH   7  11
ATOM     11  C   UNL     1      42.027 135.118  18.856  1.00  0.00     0.038 A 
ATOM     12  C   UNL     1      41.925 133.777  19.270  1.00  0.00     0.022 A 
ATOM     13  C   UNL     1      43.139 135.863  19.281  1.00  0.00     0.027 A 
ATOM     14  C   UNL     1      42.920 133.199  20.082  1.00  0.00    -0.017 A 
ATOM     15  C   UNL     1      44.114 135.308  20.061  1.00  0.00     0.024 A 
ATOM     16  C   UNL     1      43.415 137.304  19.057  1.00  0.00     0.301 C 
ATOM     17  C   UNL     1      42.799 131.872  20.521  1.00  0.00     0.009 A 
ATOM     18  C   UNL     1      44.044 133.969  20.479  1.00  0.00    -0.009 A 
ATOM     19  C   UNL     1      45.142 136.323  20.402  1.00  0.00     0.301 C 
ATOM     20  N   UNL     1      44.634 137.625  19.866  1.00  0.00    -0.321 N 
ATOM     21  C   UNL     1      43.780 131.313  21.344  1.00  0.00     0.001 A 
ATOM     22  C   UNL     1      45.030 133.389  21.294  1.00  0.00     0.009 A 
ATOM     23  C   UNL     1      44.892 132.066  21.725  1.00  0.00     0.001 A 
ATOM     24  C   UNL     1      44.281 138.534  20.983  1.00  0.00     0.334 C 
ATOM     25  C   UNL     1      45.664 138.279  19.025  1.00  0.00     0.334 C 
ENDBRANCH   7  11
ENDBRANCH   1   4
BRANCH   3  26
ATOM     26  O   UNL     1      40.961 133.389  15.566  1.00  0.00    -0.343 OA
ATOM     27  H   UNL     1      40.329 133.929  16.107  1.00  0.00     0.216 HD
ENDBRANCH   3  26
BRANCH   3  28
ATOM     28  N   UNL     1      43.286 133.655  14.809  1.00  0.00    -0.328 N 
ATOM     29  H   UNL     1      43.726 134.064  13.954  1.00  0.00     0.166 HD
BRANCH  28  30
ATOM     30  C   UNL     1      44.021 132.710  15.607  1.00  0.00     0.043 A 
ATOM     31  C   UNL     1      44.518 133.097  16.863  1.00  0.00     0.026 A 
ATOM     32  C   UNL     1      44.214 131.378  15.161  1.00  0.00    -0.010 A 
ATOM     33  C   UNL     1      45.164 132.178  17.685  1.00  0.00     0.004 A 
ATOM     34  C   UNL     1      44.871 130.452  16.011  1.00  0.00     0.057 A 
ATOM     35  C   UNL     1      45.343 130.865  17.262  1.00  0.00     0.020 A 
ATOM     36  C   UNL     1      43.698 130.958  13.801  1.00  0.00     0.048 C 
BRANCH  34  37
ATOM     37  C   UNL     1      45.052 129.068  15.640  1.00  0.00     0.099 C 
ATOM     38  N   UNL     1      45.195 127.959  15.345  1.00  0.00    -0.192 NA
ENDBRANCH  34  37
ENDBRANCH  28  30
ENDBRANCH   3  28
TORSDOF 6
ENDMDL
MODEL 4
REMARK VINA RESULT:      -5.7      2.007      6.347
REMARK SMILES Cc1[nH+]nn([C@@H]2O[C@@]2(O)Nc2cccc(C#N)c2C)c1-c1cc2ccccc2c2c1C[N+](C)(C)C2
REMARK SMILES IDX 6 1 7 2 8 3 5 4 2 5 3 6 20 7 4 8 1 9 21 11 22 12 30 13 23 14
REMARK SMILES IDX 29 15 31 16 24 17 28 18 35 19 32 20 25 21 27 22 26 23 33 24
REMARK SMILES IDX 34 25 9 26 10 28 11 30 12 31 18 32 13 33 15 34 14 35 19 36
REMARK SMILES IDX 16 37 17 38
REMARK H PARENT 3 10 9 27 10 29
ROOT
ATOM      1  C   UNL     1      42.589 133.465  15.473  1.00  0.00     0.428 C 
ATOM      2  O   UNL     1      42.454 133.964  14.158  1.00  0.00    -0.275 OA
ATOM      3  C   UNL     1      42.329 132.571  14.330  1.00  0.00     0.323 C 
ENDROOT
BRANCH   1   4
ATOM      4  N   UNL     1      41.421 133.756  16.295  1.00  0.00    -0.092 N 
ATOM      5  C   UNL     1      40.098 134.277  17.964  1.00  0.00     0.170 A 
ATOM      6  N   UNL     1      39.387 134.287  16.819  1.00  0.00    -0.147 N 
ATOM      7  C   UNL     1      41.399 133.930  17.634  1.00  0.00     0.204 A 
ATOM      8  N   UNL     1      40.205 133.982  15.822  1.00  0.00     0.091 NA
ATOM      9  C   UNL     1      39.555 134.685  19.295  1.00  0.00     0.100 C 
ATOM     10  H   UNL     1      38.378 134.530  16.708  1.00  0.00     0.342 HD
BRANCH   7  11
ATOM     11  C   UNL     1      42.580 133.853  18.517  1.00  0.00     0.038 A 
ATOM     12  C   UNL     1      42.978 132.609  19.040  1.00  0.00     0.022 A 
ATOM     13  C   UNL     1      43.284 135.001  18.918  1.00  0.00     0.027 A 
ATOM     14  C   UNL     1      44.061 132.522  19.937  1.00  0.00    -0.017 A 
ATOM     15  C   UNL     1      44.342 134.924  19.779  1.00  0.00     0.024 A 
ATOM     16  C   UNL     1      42.995 136.417  18.582  1.00  0.00     0.301 C 
ATOM     17  C   UNL     1      44.434 131.285  20.483  1.00  0.00     0.009 A 
ATOM     18  C   UNL     1      44.768 133.694  20.308  1.00  0.00    -0.009 A 
ATOM     19  C   UNL     1      44.870 136.280  20.071  1.00  0.00     0.301 C 
ATOM     20  N   UNL     1      43.935 137.241  19.406  1.00  0.00    -0.321 N 
ATOM     21  C   UNL     1      45.496 131.209  21.388  1.00  0.00     0.001 A 
ATOM     22  C   UNL     1      45.843 133.602  21.208  1.00  0.00     0.009 A 
ATOM     23  C   UNL     1      46.200 132.361  21.745  1.00  0.00     0.001 A 
ATOM     24  C   UNL     1      43.181 138.009  20.426  1.00  0.00     0.334 C 
ATOM     25  C   UNL     1      44.686 138.191  18.551  1.00  0.00     0.334 C 
ENDBRANCH   7  11
ENDBRANCH   1   4
BRANCH   3  26
ATOM     26  O   UNL     1      41.029 132.123  14.061  1.00  0.00    -0.343 OA
ATOM     27  H   UNL     1      40.967 131.222  14.472  1.00  0.00     0.216 HD
ENDBRANCH   3  26
BRANCH   3  28
ATOM     28  N   UNL     1      43.453 131.820  13.780  1.00  0.00    -0.328 N 
ATOM     29  H   UNL     1      43.561 131.800  12.741  1.00  0.00     0.166 HD
BRANCH  28  30
ATOM     30  C   UNL     1      44.512 131.317  14.615  1.00  0.00     0.043 A 
ATOM     31  C   UNL     1      44.354 131.315  16.012  1.00  0.00     0.026 A 
ATOM     32  C   UNL     1      45.696 130.783  14.047  1.00  0.00    -0.010 A 
ATOM     33  C   UNL     1      45.330 130.762  16.836  1.00  0.00     0.004 A 
ATOM     34  C   UNL     1      46.680 130.221  14.899  1.00  0.00     0.057 A 
ATOM     35  C   UNL     1      46.488 130.221  16.285  1.00  0.00     0.020 A 
ATOM     36  C   UNL     1      45.881 130.799  12.545  1.00  0.00     0.048 C 
BRANCH  34  37
ATOM     37  C   UNL     1      47.883 129.612  14.381  1.00  0.00     0.099 C 
ATOM     38  N   UNL     1      48.845 129.126  13.962  1.00  0.00    -0.192 NA
ENDBRANCH  34  37
ENDBRANCH  28  30
ENDBRANCH   3  28
TORSDOF 6
ENDMDL
MODEL 5
REMARK VINA RESULT:      -5.7      3.611      6.691
REMARK SMILES Cc1[nH+]nn([C@@H]2O[C@@]2(O)Nc2cccc(C#N)c2C)c1-c1cc2ccccc2c2c1C[N+](C)(C)C2
REMARK SMILES IDX 6 1 7 2 8 3 5 4 2 5 3 6 20 7 4 8 1 9 21 11 22 12 30 13 23 14
REMARK SMILES IDX 29 15 31 16 24 17 28 18 35 19 32 20 25 21 27 22 26 23 33 24
REMARK SMILES IDX 34 25 9 26 10 28 11 30 12 31 18 32 13 33 15 34 14 35 19 36
REMARK SMILES IDX 16 37 17 38
REMARK H PARENT 3 10 9 27 10 29
ROOT
ATOM      1  C   UNL     1      44.813 136.824  18.519  1.00  0.00     0.428 C 
ATOM      2  O   UNL     1      45.151 136.241  19.761  1.00  0.00    -0.275 OA
ATOM      3  C   UNL     1      44.905 137.628  19.750  1.00  0.00     0.323 C 
ENDROOT
BRANCH   1   4
ATOM      4  N   UNL     1      43.453 136.496  18.108  1.00  0.00    -0.092 N 
ATOM      5  C   UNL     1      41.633 135.425  17.516  1.00  0.00     0.170 A 
ATOM      6  N   UNL     1      41.323 136.711  17.775  1.00  0.00    -0.147 N 
ATOM      7  C   UNL     1      42.997 135.285  17.720  1.00  0.00     0.204 A 
ATOM      8  N   UNL     1      42.432 137.338  18.142  1.00  0.00     0.091 NA
ATOM      9  C   UNL     1      40.630 134.369  17.185  1.00  0.00     0.100 C 
ATOM     10  H   UNL     1      40.376 137.149  17.740  1.00  0.00     0.342 HD
BRANCH   7  11
ATOM     11  C   UNL     1      43.814 134.058  17.643  1.00  0.00     0.038 A 
ATOM     12  C   UNL     1      44.370 133.668  16.410  1.00  0.00     0.022 A 
ATOM     13  C   UNL     1      43.997 133.215  18.752  1.00  0.00     0.027 A 
ATOM     14  C   UNL     1      45.097 132.467  16.298  1.00  0.00    -0.017 A 
ATOM     15  C   UNL     1      44.710 132.053  18.655  1.00  0.00     0.024 A 
ATOM     16  C   UNL     1      43.433 133.362  20.116  1.00  0.00     0.301 C 
ATOM     17  C   UNL     1      45.620 132.065  15.061  1.00  0.00     0.009 A 
ATOM     18  C   UNL     1      45.285 131.646  17.440  1.00  0.00    -0.009 A 
ATOM     19  C   UNL     1      44.707 131.337  19.955  1.00  0.00     0.301 C 
ATOM     20  N   UNL     1      43.791 132.108  20.852  1.00  0.00    -0.321 N 
ATOM     21  C   UNL     1      46.323 130.862  14.954  1.00  0.00     0.001 A 
ATOM     22  C   UNL     1      46.006 130.446  17.321  1.00  0.00     0.009 A 
ATOM     23  C   UNL     1      46.519 130.058  16.079  1.00  0.00     0.001 A 
ATOM     24  C   UNL     1      42.570 131.316  21.137  1.00  0.00     0.334 C 
ATOM     25  C   UNL     1      44.464 132.427  22.133  1.00  0.00     0.334 C 
ENDBRANCH   7  11
ENDBRANCH   1   4
BRANCH   3  26
ATOM     26  O   UNL     1      43.751 137.963  20.469  1.00  0.00    -0.343 OA
ATOM     27  H   UNL     1      43.197 138.504  19.848  1.00  0.00     0.216 HD
ENDBRANCH   3  26
BRANCH   3  28
ATOM     28  N   UNL     1      46.110 138.427  19.956  1.00  0.00    -0.328 N 
ATOM     29  H   UNL     1      46.242 139.270  19.353  1.00  0.00     0.166 HD
BRANCH  28  30
ATOM     30  C   UNL     1      46.976 138.216  21.086  1.00  0.00     0.043 A 
ATOM     31  C   UNL     1      46.461 138.330  22.388  1.00  0.00     0.026 A 
ATOM     32  C   UNL     1      48.335 137.851  20.902  1.00  0.00    -0.010 A 
ATOM     33  C   UNL     1      47.260 138.054  23.494  1.00  0.00     0.004 A 
ATOM     34  C   UNL     1      49.134 137.570  22.039  1.00  0.00     0.057 A 
ATOM     35  C   UNL     1      48.589 137.680  23.324  1.00  0.00     0.020 A 
ATOM     36  C   UNL     1      48.902 137.744  19.503  1.00  0.00     0.048 C 
BRANCH  34  37
ATOM     37  C   UNL     1      50.509 137.142  21.920  1.00  0.00     0.099 C 
ATOM     38  N   UNL     1      51.609 136.796  21.825  1.00  0.00    -0.192 NA
ENDBRANCH  34  37
ENDBRANCH  28  30
ENDBRANCH   3  28
TORSDOF 6
ENDMDL
MODEL 6
REMARK VINA RESULT:      -5.6      2.124      6.576
REMARK SMILES Cc1[nH+]nn([C@@H]2O[C@@]2(O)Nc2cccc(C#N)c2C)c1-c1cc2ccccc2c2c1C[N+](C)(C)C2
REMARK SMILES IDX 6 1 7 2 8 3 5 4 2 5 3 6 20 7 4 8 1 9 21 11 22 12 30 13 23 14
REMARK SMILES IDX 29 15 31 16 24 17 28 18 35 19 32 20 25 21 27 22 26 23 33 24
REMARK SMILES IDX 34 25 9 26 10 28 11 30 12 31 18 32 13 33 15 34 14 35 19 36
REMARK SMILES IDX 16 37 17 38
REMARK H PARENT 3 10 9 27 10 29
ROOT
ATOM      1  C   UNL     1      42.822 132.874  16.503  1.00  0.00     0.428 C 
ATOM      2  O   UNL     1      43.081 133.784  15.453  1.00  0.00    -0.275 OA
ATOM      3  C   UNL     1      42.508 132.545  15.101  1.00  0.00     0.323 C 
ENDROOT
BRANCH   1   4
ATOM      4  N   UNL     1      41.671 133.272  17.306  1.00  0.00    -0.092 N 
ATOM      5  C   UNL     1      40.284 134.381  18.591  1.00  0.00     0.170 A 
ATOM      6  N   UNL     1      39.647 133.311  18.075  1.00  0.00    -0.147 N 
ATOM      7  C   UNL     1      41.583 134.355  18.107  1.00  0.00     0.204 A 
ATOM      8  N   UNL     1      40.497 132.661  17.293  1.00  0.00     0.091 NA
ATOM      9  C   UNL     1      39.626 135.427  19.432  1.00  0.00     0.100 C 
ATOM     10  H   UNL     1      38.648 133.045  18.219  1.00  0.00     0.342 HD
BRANCH   7  11
ATOM     11  C   UNL     1      42.658 135.345  18.315  1.00  0.00     0.038 A 
ATOM     12  C   UNL     1      43.603 135.143  19.338  1.00  0.00     0.022 A 
ATOM     13  C   UNL     1      42.730 136.533  17.568  1.00  0.00     0.027 A 
ATOM     14  C   UNL     1      44.597 136.105  19.598  1.00  0.00    -0.017 A 
ATOM     15  C   UNL     1      43.698 137.468  17.806  1.00  0.00     0.024 A 
ATOM     16  C   UNL     1      41.799 137.011  16.516  1.00  0.00     0.301 C 
ATOM     17  C   UNL     1      45.517 135.916  20.640  1.00  0.00     0.009 A 
ATOM     18  C   UNL     1      44.660 137.286  18.814  1.00  0.00    -0.009 A 
ATOM     19  C   UNL     1      43.515 138.639  16.913  1.00  0.00     0.301 C 
ATOM     20  N   UNL     1      42.234 138.402  16.177  1.00  0.00    -0.321 N 
ATOM     21  C   UNL     1      46.487 136.886  20.905  1.00  0.00     0.001 A 
ATOM     22  C   UNL     1      45.651 138.246  19.081  1.00  0.00     0.009 A 
ATOM     23  C   UNL     1      46.557 138.043  20.126  1.00  0.00     0.001 A 
ATOM     24  C   UNL     1      41.206 139.379  16.614  1.00  0.00     0.334 C 
ATOM     25  C   UNL     1      42.439 138.546  14.716  1.00  0.00     0.334 C 
ENDBRANCH   7  11
ENDBRANCH   1   4
BRANCH   3  26
ATOM     26  O   UNL     1      41.204 132.689  14.612  1.00  0.00    -0.343 OA
ATOM     27  H   UNL     1      40.651 132.942  15.396  1.00  0.00     0.216 HD
ENDBRANCH   3  26
BRANCH   3  28
ATOM     28  N   UNL     1      43.430 131.670  14.382  1.00  0.00    -0.328 N 
ATOM     29  H   UNL     1      43.301 131.574  13.350  1.00  0.00     0.166 HD
BRANCH  28  30
ATOM     30  C   UNL     1      44.612 131.137  15.005  1.00  0.00     0.043 A 
ATOM     31  C   UNL     1      44.692 131.074  16.407  1.00  0.00     0.026 A 
ATOM     32  C   UNL     1      45.683 130.634  14.223  1.00  0.00    -0.010 A 
ATOM     33  C   UNL     1      45.792 130.491  17.030  1.00  0.00     0.004 A 
ATOM     34  C   UNL     1      46.795 130.041  14.873  1.00  0.00     0.057 A 
ATOM     35  C   UNL     1      46.839 129.981  16.270  1.00  0.00     0.020 A 
ATOM     36  C   UNL     1      45.613 130.716  12.713  1.00  0.00     0.048 C 
BRANCH  34  37
ATOM     37  C   UNL     1      47.893 129.462  14.134  1.00  0.00     0.099 C 
ATOM     38  N   UNL     1      48.770 128.995  13.541  1.00  0.00    -0.192 NA
ENDBRANCH  34  37
ENDBRANCH  28  30
ENDBRANCH   3  28
TORSDOF 6
ENDMDL
MODEL 7
REMARK VINA RESULT:      -5.5      2.014      4.783
REMARK SMILES Cc1[nH+]nn([C@@H]2O[C@@]2(O)Nc2cccc(C#N)c2C)c1-c1cc2ccccc2c2c1C[N+](C)(C)C2
REMARK SMILES IDX 6 1 7 2 8 3 5 4 2 5 3 6 20 7 4 8 1 9 21 11 22 12 30 13 23 14
REMARK SMILES IDX 29 15 31 16 24 17 28 18 35 19 32 20 25 21 27 22 26 23 33 24
REMARK SMILES IDX 34 25 9 26 10 28 11 30 12 31 18 32 13 33 15 34 14 35 19 36
REMARK SMILES IDX 16 37 17 38
REMARK H PARENT 3 10 9 27 10 29
ROOT
ATOM      1  C   UNL     1      42.632 132.488  15.823  1.00  0.00     0.428 C 
ATOM      2  O   UNL     1      43.511 132.321  14.729  1.00  0.00    -0.275 OA
ATOM      3  C   UNL     1      43.111 133.637  15.034  1.00  0.00     0.323 C 
ENDROOT
BRANCH   1   4
ATOM      4  N   UNL     1      43.307 132.306  17.103  1.00  0.00    -0.092 N 
ATOM      5  C   UNL     1      43.813 132.317  19.236  1.00  0.00     0.170 A 
ATOM      6  N   UNL     1      44.679 131.517  18.582  1.00  0.00    -0.147 N 
ATOM      7  C   UNL     1      42.939 132.830  18.291  1.00  0.00     0.204 A 
ATOM      8  N   UNL     1      44.350 131.515  17.298  1.00  0.00     0.091 NA
ATOM      9  C   UNL     1      43.783 132.488  20.720  1.00  0.00     0.100 C 
ATOM     10  H   UNL     1      45.454 130.956  18.999  1.00  0.00     0.342 HD
BRANCH   7  11
ATOM     11  C   UNL     1      41.762 133.697  18.506  1.00  0.00     0.038 A 
ATOM     12  C   UNL     1      40.469 133.174  18.320  1.00  0.00     0.022 A 
ATOM     13  C   UNL     1      41.890 135.060  18.821  1.00  0.00     0.027 A 
ATOM     14  C   UNL     1      39.335 133.998  18.454  1.00  0.00    -0.017 A 
ATOM     15  C   UNL     1      40.795 135.865  18.963  1.00  0.00     0.024 A 
ATOM     16  C   UNL     1      43.136 135.853  18.968  1.00  0.00     0.301 C 
ATOM     17  C   UNL     1      38.050 133.482  18.234  1.00  0.00     0.009 A 
ATOM     18  C   UNL     1      39.492 135.367  18.794  1.00  0.00    -0.009 A 
ATOM     19  C   UNL     1      41.214 137.260  19.247  1.00  0.00     0.301 C 
ATOM     20  N   UNL     1      42.705 137.278  19.127  1.00  0.00    -0.321 N 
ATOM     21  C   UNL     1      36.931 134.311  18.349  1.00  0.00     0.001 A 
ATOM     22  C   UNL     1      38.358 136.186  18.921  1.00  0.00     0.009 A 
ATOM     23  C   UNL     1      37.084 135.655  18.695  1.00  0.00     0.001 A 
ATOM     24  C   UNL     1      43.113 138.071  17.942  1.00  0.00     0.334 C 
ATOM     25  C   UNL     1      43.317 137.878  20.337  1.00  0.00     0.334 C 
ENDBRANCH   7  11
ENDBRANCH   1   4
BRANCH   3  26
ATOM     26  O   UNL     1      44.179 134.418  15.492  1.00  0.00    -0.343 OA
ATOM     27  H   UNL     1      44.936 134.218  14.884  1.00  0.00     0.216 HD
ENDBRANCH   3  26
BRANCH   3  28
ATOM     28  N   UNL     1      42.205 134.208  14.041  1.00  0.00    -0.328 N 
ATOM     29  H   UNL     1      42.460 134.099  13.033  1.00  0.00     0.166 HD
BRANCH  28  30
ATOM     30  C   UNL     1      40.901 134.700  14.397  1.00  0.00     0.043 A 
ATOM     31  C   UNL     1      39.788 133.845  14.312  1.00  0.00     0.026 A 
ATOM     32  C   UNL     1      40.728 136.024  14.875  1.00  0.00    -0.010 A 
ATOM     33  C   UNL     1      38.530 134.275  14.725  1.00  0.00     0.004 A 
ATOM     34  C   UNL     1      39.441 136.445  15.295  1.00  0.00     0.057 A 
ATOM     35  C   UNL     1      38.354 135.567  15.210  1.00  0.00     0.020 A 
ATOM     36  C   UNL     1      41.918 136.956  14.952  1.00  0.00     0.048 C 
BRANCH  34  37
ATOM     37  C   UNL     1      39.208 137.762  15.841  1.00  0.00     0.099 C 
ATOM     38  N   UNL     1      39.017 138.816  16.279  1.00  0.00    -0.192 NA
ENDBRANCH  34  37
ENDBRANCH  28  30
ENDBRANCH   3  28
TORSDOF 6
ENDMDL
MODEL 8
REMARK VINA RESULT:      -5.5      1.924      4.434
REMARK SMILES Cc1[nH+]nn([C@@H]2O[C@@]2(O)Nc2cccc(C#N)c2C)c1-c1cc2ccccc2c2c1C[N+](C)(C)C2
REMARK SMILES IDX 6 1 7 2 8 3 5 4 2 5 3 6 20 7 4 8 1 9 21 11 22 12 30 13 23 14
REMARK SMILES IDX 29 15 31 16 24 17 28 18 35 19 32 20 25 21 27 22 26 23 33 24
REMARK SMILES IDX 34 25 9 26 10 28 11 30 12 31 18 32 13 33 15 34 14 35 19 36
REMARK SMILES IDX 16 37 17 38
REMARK H PARENT 3 10 9 27 10 29
ROOT
ATOM      1  C   UNL     1      43.207 132.614  15.827  1.00  0.00     0.428 C 
ATOM      2  O   UNL     1      44.151 132.790  14.790  1.00  0.00    -0.275 OA
ATOM      3  C   UNL     1      43.615 133.955  15.374  1.00  0.00     0.323 C 
ENDROOT
BRANCH   1   4
ATOM      4  N   UNL     1      43.831 132.177  17.071  1.00  0.00    -0.092 N 
ATOM      5  C   UNL     1      44.285 131.819  19.185  1.00  0.00     0.170 A 
ATOM      6  N   UNL     1      45.083 131.042  18.426  1.00  0.00    -0.147 N 
ATOM      7  C   UNL     1      43.488 132.552  18.321  1.00  0.00     0.204 A 
ATOM      8  N   UNL     1      44.786 131.264  17.153  1.00  0.00     0.091 NA
ATOM      9  C   UNL     1      44.237 131.769  20.678  1.00  0.00     0.100 C 
ATOM     10  H   UNL     1      45.789 130.350  18.760  1.00  0.00     0.342 HD
BRANCH   7  11
ATOM     11  C   UNL     1      42.398 133.491  18.654  1.00  0.00     0.038 A 
ATOM     12  C   UNL     1      41.062 133.121  18.412  1.00  0.00     0.022 A 
ATOM     13  C   UNL     1      42.652 134.784  19.140  1.00  0.00     0.027 A 
ATOM     14  C   UNL     1      40.010 134.024  18.659  1.00  0.00    -0.017 A 
ATOM     15  C   UNL     1      41.638 135.664  19.393  1.00  0.00     0.024 A 
ATOM     16  C   UNL     1      43.967 135.431  19.378  1.00  0.00     0.301 C 
ATOM     17  C   UNL     1      38.683 133.664  18.385  1.00  0.00     0.009 A 
ATOM     18  C   UNL     1      40.295 135.317  19.171  1.00  0.00    -0.009 A 
ATOM     19  C   UNL     1      42.185 136.966  19.850  1.00  0.00     0.301 C 
ATOM     20  N   UNL     1      43.672 136.858  19.722  1.00  0.00    -0.321 N 
ATOM     21  C   UNL     1      37.647 134.574  18.614  1.00  0.00     0.001 A 
ATOM     22  C   UNL     1      39.242 136.216  19.410  1.00  0.00     0.009 A 
ATOM     23  C   UNL     1      37.925 135.842  19.128  1.00  0.00     0.001 A 
ATOM     24  C   UNL     1      44.159 137.754  18.645  1.00  0.00     0.334 C 
ATOM     25  C   UNL     1      44.332 137.237  20.994  1.00  0.00     0.334 C 
ENDBRANCH   7  11
ENDBRANCH   1   4
BRANCH   3  26
ATOM     26  O   UNL     1      44.582 134.681  16.082  1.00  0.00    -0.343 OA
ATOM     27  H   UNL     1      45.457 134.367  15.737  1.00  0.00     0.216 HD
ENDBRANCH   3  26
BRANCH   3  28
ATOM     28  N   UNL     1      42.712 134.681  14.485  1.00  0.00    -0.328 N 
ATOM     29  H   UNL     1      42.782 134.489  13.460  1.00  0.00     0.166 HD
BRANCH  28  30
ATOM     30  C   UNL     1      41.609 135.455  14.991  1.00  0.00     0.043 A 
ATOM     31  C   UNL     1      41.852 136.707  15.582  1.00  0.00     0.026 A 
ATOM     32  C   UNL     1      40.276 134.991  14.863  1.00  0.00    -0.010 A 
ATOM     33  C   UNL     1      40.795 137.508  16.007  1.00  0.00     0.004 A 
ATOM     34  C   UNL     1      39.210 135.820  15.298  1.00  0.00     0.057 A 
ATOM     35  C   UNL     1      39.483 137.068  15.871  1.00  0.00     0.020 A 
ATOM     36  C   UNL     1      40.007 133.636  14.244  1.00  0.00     0.048 C 
BRANCH  34  37
ATOM     37  C   UNL     1      37.828 135.430  15.147  1.00  0.00     0.099 C 
ATOM     38  N   UNL     1      36.719 135.122  15.027  1.00  0.00    -0.192 NA
ENDBRANCH  34  37
ENDBRANCH  28  30
ENDBRANCH   3  28
TORSDOF 6
ENDMDL
MODEL 9
REMARK VINA RESULT:      -5.5      1.304      1.430
REMARK SMILES Cc1[nH+]nn([C@@H]2O[C@@]2(O)Nc2cccc(C#N)c2C)c1-c1cc2ccccc2c2c1C[N+](C)(C)C2
REMARK SMILES IDX 6 1 7 2 8 3 5 4 2 5 3 6 20 7 4 8 1 9 21 11 22 12 30 13 23 14
REMARK SMILES IDX 29 15 31 16 24 17 28 18 35 19 32 20 25 21 27 22 26 23 33 24
REMARK SMILES IDX 34 25 9 26 10 28 11 30 12 31 18 32 13 33 15 34 14 35 19 36
REMARK SMILES IDX 16 37 17 38
REMARK H PARENT 3 10 9 27 10 29
ROOT
ATOM      1  C   UNL     1      41.654 133.276  15.927  1.00  0.00     0.428 C 
ATOM      2  O   UNL     1      41.050 133.343  14.651  1.00  0.00    -0.275 OA
ATOM      3  C   UNL     1      41.770 134.476  15.080  1.00  0.00     0.323 C 
ENDROOT
BRANCH   1   4
ATOM      4  N   UNL     1      42.834 132.419  15.932  1.00  0.00    -0.092 N 
ATOM      5  C   UNL     1      44.710 131.424  16.476  1.00  0.00     0.170 A 
ATOM      6  N   UNL     1      44.151 130.771  15.437  1.00  0.00    -0.147 N 
ATOM      7  C   UNL     1      43.875 132.483  16.790  1.00  0.00     0.204 A 
ATOM      8  N   UNL     1      43.014 131.380  15.131  1.00  0.00     0.091 NA
ATOM      9  C   UNL     1      45.945 130.971  17.186  1.00  0.00     0.100 C 
ATOM     10  H   UNL     1      44.511 129.912  14.967  1.00  0.00     0.342 HD
BRANCH   7  11
ATOM     11  C   UNL     1      44.000 133.453  17.897  1.00  0.00     0.038 A 
ATOM     12  C   UNL     1      44.327 134.792  17.616  1.00  0.00     0.022 A 
ATOM     13  C   UNL     1      43.877 133.066  19.242  1.00  0.00     0.027 A 
ATOM     14  C   UNL     1      44.517 135.718  18.659  1.00  0.00    -0.017 A 
ATOM     15  C   UNL     1      44.049 133.960  20.261  1.00  0.00     0.024 A 
ATOM     16  C   UNL     1      43.637 131.706  19.785  1.00  0.00     0.301 C 
ATOM     17  C   UNL     1      44.876 137.045  18.377  1.00  0.00     0.009 A 
ATOM     18  C   UNL     1      44.365 135.306  20.008  1.00  0.00    -0.009 A 
ATOM     19  C   UNL     1      43.911 133.281  21.573  1.00  0.00     0.301 C 
ATOM     20  N   UNL     1      43.770 131.822  21.272  1.00  0.00    -0.321 N 
ATOM     21  C   UNL     1      45.084 137.953  19.418  1.00  0.00     0.001 A 
ATOM     22  C   UNL     1      44.562 136.233  21.045  1.00  0.00     0.009 A 
ATOM     23  C   UNL     1      44.922 137.551  20.746  1.00  0.00     0.001 A 
ATOM     24  C   UNL     1      44.973 131.087  21.736  1.00  0.00     0.334 C 
ATOM     25  C   UNL     1      42.577 131.263  21.950  1.00  0.00     0.334 C 
ENDBRANCH   7  11
ENDBRANCH   1   4
BRANCH   3  26
ATOM     26  O   UNL     1      42.918 134.692  14.307  1.00  0.00    -0.343 OA
ATOM     27  H   UNL     1      43.458 133.865  14.394  1.00  0.00     0.216 HD
ENDBRANCH   3  26
BRANCH   3  28
ATOM     28  N   UNL     1      40.914 135.617  15.391  1.00  0.00    -0.328 N 
ATOM     29  H   UNL     1      39.881 135.486  15.307  1.00  0.00     0.166 HD
BRANCH  28  30
ATOM     30  C   UNL     1      41.433 136.807  16.012  1.00  0.00     0.043 A 
ATOM     31  C   UNL     1      42.085 137.774  15.227  1.00  0.00     0.026 A 
ATOM     32  C   UNL     1      41.258 137.039  17.400  1.00  0.00    -0.010 A 
ATOM     33  C   UNL     1      42.525 138.967  15.792  1.00  0.00     0.004 A 
ATOM     34  C   UNL     1      41.710 138.261  17.959  1.00  0.00     0.057 A 
ATOM     35  C   UNL     1      42.343 139.210  17.149  1.00  0.00     0.020 A 
ATOM     36  C   UNL     1      40.574 135.995  18.256  1.00  0.00     0.048 C 
BRANCH  34  37
ATOM     37  C   UNL     1      41.514 138.582  19.354  1.00  0.00     0.099 C 
ATOM     38  N   UNL     1      41.361 138.838  20.472  1.00  0.00    -0.192 NA
ENDBRANCH  34  37
ENDBRANCH  28  30
ENDBRANCH   3  28
TORSDOF 6
ENDMDL


