MODEL 1
REMARK VINA RESULT:      -7.3      0.000      0.000
REMARK SMILES [N-]=[N+]=Nc1ccc2c3c(cc(/C(O)=N/[NH+]=[N-])c(OC(=O)[C@]4(N)C[C@H](CO)C4)c13)C=C2
REMARK SMILES IDX 18 1 17 2 11 3 10 4 9 5 28 6 8 7 29 8 4 9 7 10 30 11 5 12
REMARK SMILES IDX 6 13 12 14 13 15 14 17 15 18 16 20 3 21 2 22 1 23 19 24
REMARK SMILES IDX 20 25 21 26 27 27 23 28 24 29 22 30 25 33 26 34
REMARK H PARENT 13 16 15 19 22 31 22 32 26 35
ROOT
ATOM      1  O   UNL     1      43.714 132.584  16.157  1.00  0.00    -0.424 OA
ENDROOT
BRANCH   1   2
ATOM      2  C   UNL     1      43.816 133.578  17.141  1.00  0.00     0.150 A 
ATOM      3  C   UNL     1      44.229 133.257  18.482  1.00  0.00     0.062 A 
ATOM      4  C   UNL     1      44.248 134.269  19.478  1.00  0.00     0.024 A 
ATOM      5  C   UNL     1      43.903 135.564  19.114  1.00  0.00    -0.016 A 
ATOM      6  C   UNL     1      43.498 134.922  16.808  1.00  0.00     0.036 A 
ATOM      7  C   UNL     1      43.561 135.852  17.835  1.00  0.00     0.000 A 
ATOM      8  C   UNL     1      43.840 136.821  19.869  1.00  0.00     0.009 C 
ATOM      9  C   UNL     1      43.098 135.408  15.532  1.00  0.00     0.049 A 
ATOM     10  C   UNL     1      43.277 137.172  17.701  1.00  0.00    -0.017 A 
ATOM     11  C   UNL     1      43.461 137.788  19.019  1.00  0.00     0.009 C 
ATOM     12  C   UNL     1      42.799 136.797  15.378  1.00  0.00     0.011 A 
ATOM     13  C   UNL     1      42.888 137.689  16.469  1.00  0.00     0.009 A 
BRANCH   3  14
ATOM     14  C   UNL     1      44.685 131.900  18.863  1.00  0.00     0.172 C 
BRANCH  14  15
ATOM     15  O   UNL     1      45.593 131.244  18.024  1.00  0.00    -0.506 OA
ATOM     16  H   UNL     1      46.327 130.632  18.350  1.00  0.00     0.293 HD
ENDBRANCH  14  15
BRANCH  14  17
ATOM     17  N   UNL     1      44.205 131.337  19.935  1.00  0.00    -0.151 NA
BRANCH  17  18
ATOM     18  N   UNL     1      44.962 130.963  21.056  1.00  0.00    -0.169 N 
ATOM     19  H   UNL     1      44.586 130.319  21.784  1.00  0.00     0.475 HD
ATOM     20  N   UNL     1      46.186 131.292  21.118  1.00  0.00    -0.151 NA
ENDBRANCH  17  18
ENDBRANCH  14  17
ENDBRANCH   3  14
BRANCH   9  21
ATOM     21  N   UNL     1      42.997 134.508  14.419  1.00  0.00    -0.060 NA
BRANCH  21  22
ATOM     22  N   UNL     1      41.964 133.889  14.159  1.00  0.00     0.005 N 
ATOM     23  N   UNL     1      40.931 133.274  13.899  1.00  0.00    -0.003 NA
ENDBRANCH  21  22
ENDBRANCH   9  21
ENDBRANCH   1   2
BRANCH   1  24
ATOM     24  C   UNL     1      44.786 132.204  15.339  1.00  0.00     0.331 C 
ATOM     25  O   UNL     1      45.879 132.831  15.398  1.00  0.00    -0.250 OA
BRANCH  24  26
ATOM     26  C   UNL     1      44.654 130.996  14.432  1.00  0.00     0.116 C 
ATOM     27  C   UNL     1      45.033 129.662  15.087  1.00  0.00     0.040 C 
ATOM     28  C   UNL     1      45.817 130.842  13.447  1.00  0.00     0.040 C 
ATOM     29  C   UNL     1      46.178 129.500  14.086  1.00  0.00     0.019 C 
BRANCH  26  30
ATOM     30  N   UNL     1      43.353 130.911  13.761  1.00  0.00    -0.316 NA
ATOM     31  H   UNL     1      43.086 131.866  13.429  1.00  0.00     0.119 HD
ATOM     32  H   UNL     1      43.446 130.299  12.918  1.00  0.00     0.119 HD
ENDBRANCH  26  30
BRANCH  29  33
ATOM     33  C   UNL     1      47.572 129.475  14.733  1.00  0.00     0.159 C 
BRANCH  33  34
ATOM     34  O   UNL     1      47.471 129.701  16.112  1.00  0.00    -0.396 OA
ATOM     35  H   UNL     1      47.817 130.617  16.276  1.00  0.00     0.210 HD
ENDBRANCH  33  34
ENDBRANCH  29  33
ENDBRANCH  24  26
ENDBRANCH   1  24
TORSDOF 12
ENDMDL
MODEL 2
REMARK VINA RESULT:      -7.2      2.366      7.141
REMARK SMILES [N-]=[N+]=Nc1ccc2c3c(cc(/C(O)=N/[NH+]=[N-])c(OC(=O)[C@]4(N)C[C@H](CO)C4)c13)C=C2
REMARK SMILES IDX 18 1 17 2 11 3 10 4 9 5 28 6 8 7 29 8 4 9 7 10 30 11 5 12
REMARK SMILES IDX 6 13 12 14 13 15 14 17 15 18 16 20 3 21 2 22 1 23 19 24
REMARK SMILES IDX 20 25 21 26 27 27 23 28 24 29 22 30 25 33 26 34
REMARK H PARENT 13 16 15 19 22 31 22 32 26 35
ROOT
ATOM      1  O   UNL     1      41.757 133.311  17.471  1.00  0.00    -0.424 OA
ENDROOT
BRANCH   1   2
ATOM      2  C   UNL     1      42.509 132.688  16.465  1.00  0.00     0.150 A 
ATOM      3  C   UNL     1      42.131 132.795  15.080  1.00  0.00     0.062 A 
ATOM      4  C   UNL     1      42.864 132.089  14.090  1.00  0.00     0.024 A 
ATOM      5  C   UNL     1      43.965 131.340  14.488  1.00  0.00    -0.016 A 
ATOM      6  C   UNL     1      43.658 131.932  16.822  1.00  0.00     0.036 A 
ATOM      7  C   UNL     1      44.328 131.290  15.792  1.00  0.00     0.000 A 
ATOM      8  C   UNL     1      44.930 130.527  13.740  1.00  0.00     0.009 C 
ATOM      9  C   UNL     1      44.176 131.745  18.133  1.00  0.00     0.049 A 
ATOM     10  C   UNL     1      45.431 130.516  15.952  1.00  0.00    -0.017 A 
ATOM     11  C   UNL     1      45.812 130.030  14.621  1.00  0.00     0.009 C 
ATOM     12  C   UNL     1      45.340 130.935  18.314  1.00  0.00     0.011 A 
ATOM     13  C   UNL     1      45.974 130.314  17.216  1.00  0.00     0.009 A 
BRANCH   3  14
ATOM     14  C   UNL     1      41.016 133.662  14.632  1.00  0.00     0.172 C 
BRANCH  14  15
ATOM     15  O   UNL     1      39.716 133.329  15.028  1.00  0.00    -0.506 OA
ATOM     16  H   UNL     1      39.325 132.400  14.967  1.00  0.00     0.293 HD
ENDBRANCH  14  15
BRANCH  14  17
ATOM     17  N   UNL     1      41.263 134.678  13.855  1.00  0.00    -0.151 NA
BRANCH  17  18
ATOM     18  N   UNL     1      40.322 135.301  13.021  1.00  0.00    -0.169 N 
ATOM     19  H   UNL     1      40.297 135.127  11.993  1.00  0.00     0.475 HD
ATOM     20  N   UNL     1      39.380 135.975  13.540  1.00  0.00    -0.151 NA
ENDBRANCH  17  18
ENDBRANCH  14  17
ENDBRANCH   3  14
BRANCH   9  21
ATOM     21  N   UNL     1      43.534 132.366  19.256  1.00  0.00    -0.060 NA
BRANCH  21  22
ATOM     22  N   UNL     1      43.920 132.203  20.415  1.00  0.00     0.005 N 
ATOM     23  N   UNL     1      44.307 132.043  21.571  1.00  0.00    -0.003 NA
ENDBRANCH  21  22
ENDBRANCH   9  21
ENDBRANCH   1   2
BRANCH   1  24
ATOM     24  C   UNL     1      41.530 134.694  17.512  1.00  0.00     0.331 C 
ATOM     25  O   UNL     1      40.352 135.142  17.462  1.00  0.00    -0.250 OA
BRANCH  24  26
ATOM     26  C   UNL     1      42.696 135.647  17.685  1.00  0.00     0.116 C 
ATOM     27  C   UNL     1      42.309 137.130  17.711  1.00  0.00     0.040 C 
ATOM     28  C   UNL     1      43.493 135.877  16.398  1.00  0.00     0.040 C 
ATOM     29  C   UNL     1      43.126 137.362  16.439  1.00  0.00     0.019 C 
BRANCH  26  30
ATOM     30  N   UNL     1      43.567 135.302  18.814  1.00  0.00    -0.316 NA
ATOM     31  H   UNL     1      43.620 136.125  19.458  1.00  0.00     0.119 HD
ATOM     32  H   UNL     1      43.136 134.512  19.346  1.00  0.00     0.119 HD
ENDBRANCH  26  30
BRANCH  29  33
ATOM     33  C   UNL     1      42.289 137.828  15.237  1.00  0.00     0.159 C 
BRANCH  33  34
ATOM     34  O   UNL     1      40.964 137.396  15.373  1.00  0.00    -0.396 OA
ATOM     35  H   UNL     1      40.390 138.198  15.258  1.00  0.00     0.210 HD
ENDBRANCH  33  34
ENDBRANCH  29  33
ENDBRANCH  24  26
ENDBRANCH   1  24
TORSDOF 12
ENDMDL
MODEL 3
REMARK VINA RESULT:      -7.1      1.609      4.658
REMARK SMILES [N-]=[N+]=Nc1ccc2c3c(cc(/C(O)=N/[NH+]=[N-])c(OC(=O)[C@]4(N)C[C@H](CO)C4)c13)C=C2
REMARK SMILES IDX 18 1 17 2 11 3 10 4 9 5 28 6 8 7 29 8 4 9 7 10 30 11 5 12
REMARK SMILES IDX 6 13 12 14 13 15 14 17 15 18 16 20 3 21 2 22 1 23 19 24
REMARK SMILES IDX 20 25 21 26 27 27 23 28 24 29 22 30 25 33 26 34
REMARK H PARENT 13 16 15 19 22 31 22 32 26 35
ROOT
ATOM      1  O   UNL     1      43.731 132.314  16.785  1.00  0.00    -0.424 OA
ENDROOT
BRANCH   1   2
ATOM      2  C   UNL     1      43.210 133.568  17.132  1.00  0.00     0.150 A 
ATOM      3  C   UNL     1      42.352 134.292  16.230  1.00  0.00     0.062 A 
ATOM      4  C   UNL     1      41.902 135.595  16.573  1.00  0.00     0.024 A 
ATOM      5  C   UNL     1      42.272 136.121  17.805  1.00  0.00    -0.016 A 
ATOM      6  C   UNL     1      43.540 134.136  18.392  1.00  0.00     0.036 A 
ATOM      7  C   UNL     1      43.043 135.403  18.657  1.00  0.00     0.000 A 
ATOM      8  C   UNL     1      41.971 137.395  18.466  1.00  0.00     0.009 C 
ATOM      9  C   UNL     1      44.350 133.545  19.401  1.00  0.00     0.049 A 
ATOM     10  C   UNL     1      43.270 136.099  19.799  1.00  0.00    -0.017 A 
ATOM     11  C   UNL     1      42.573 137.383  19.666  1.00  0.00     0.009 C 
ATOM     12  C   UNL     1      44.594 134.268  20.610  1.00  0.00     0.011 A 
ATOM     13  C   UNL     1      44.051 135.556  20.813  1.00  0.00     0.009 A 
BRANCH   3  14
ATOM     14  C   UNL     1      41.877 133.707  14.955  1.00  0.00     0.172 C 
BRANCH  14  15
ATOM     15  O   UNL     1      42.000 132.326  14.770  1.00  0.00    -0.506 OA
ATOM     16  H   UNL     1      42.851 131.806  14.929  1.00  0.00     0.293 HD
ENDBRANCH  14  15
BRANCH  14  17
ATOM     17  N   UNL     1      41.399 134.488  14.027  1.00  0.00    -0.151 NA
BRANCH  17  18
ATOM     18  N   UNL     1      40.080 134.455  13.548  1.00  0.00    -0.169 N 
ATOM     19  H   UNL     1      39.751 135.100  12.798  1.00  0.00     0.475 HD
ATOM     20  N   UNL     1      39.305 133.523  13.922  1.00  0.00    -0.151 NA
ENDBRANCH  17  18
ENDBRANCH  14  17
ENDBRANCH   3  14
BRANCH   9  21
ATOM     21  N   UNL     1      44.912 132.241  19.201  1.00  0.00    -0.060 NA
BRANCH  21  22
ATOM     22  N   UNL     1      45.564 131.659  20.070  1.00  0.00     0.005 N 
ATOM     23  N   UNL     1      46.211 131.077  20.938  1.00  0.00    -0.003 NA
ENDBRANCH  21  22
ENDBRANCH   9  21
ENDBRANCH   1   2
BRANCH   1  24
ATOM     24  C   UNL     1      44.912 132.153  16.048  1.00  0.00     0.331 C 
ATOM     25  O   UNL     1      45.499 133.161  15.568  1.00  0.00    -0.250 OA
BRANCH  24  26
ATOM     26  C   UNL     1      45.522 130.774  15.887  1.00  0.00     0.116 C 
ATOM     27  C   UNL     1      46.858 130.752  15.135  1.00  0.00     0.040 C 
ATOM     28  C   UNL     1      44.878 129.949  14.769  1.00  0.00     0.040 C 
ATOM     29  C   UNL     1      46.219 129.907  14.032  1.00  0.00     0.019 C 
BRANCH  26  30
ATOM     30  N   UNL     1      45.603 130.023  17.144  1.00  0.00    -0.316 NA
ATOM     31  H   UNL     1      45.982 130.655  17.887  1.00  0.00     0.119 HD
ATOM     32  H   UNL     1      44.639 129.739  17.432  1.00  0.00     0.119 HD
ENDBRANCH  26  30
BRANCH  29  33
ATOM     33  C   UNL     1      46.193 130.593  12.657  1.00  0.00     0.159 C 
BRANCH  33  34
ATOM     34  O   UNL     1      47.375 130.319  11.957  1.00  0.00    -0.396 OA
ATOM     35  H   UNL     1      47.261 129.421  11.549  1.00  0.00     0.210 HD
ENDBRANCH  33  34
ENDBRANCH  29  33
ENDBRANCH  24  26
ENDBRANCH   1  24
TORSDOF 12
ENDMDL
MODEL 4
REMARK VINA RESULT:      -7.1      3.010      7.420
REMARK SMILES [N-]=[N+]=Nc1ccc2c3c(cc(/C(O)=N/[NH+]=[N-])c(OC(=O)[C@]4(N)C[C@H](CO)C4)c13)C=C2
REMARK SMILES IDX 18 1 17 2 11 3 10 4 9 5 28 6 8 7 29 8 4 9 7 10 30 11 5 12
REMARK SMILES IDX 6 13 12 14 13 15 14 17 15 18 16 20 3 21 2 22 1 23 19 24
REMARK SMILES IDX 20 25 21 26 27 27 23 28 24 29 22 30 25 33 26 34
REMARK H PARENT 13 16 15 19 22 31 22 32 26 35
ROOT
ATOM      1  O   UNL     1      41.625 133.610  17.228  1.00  0.00    -0.424 OA
ENDROOT
BRANCH   1   2
ATOM      2  C   UNL     1      42.412 132.880  16.326  1.00  0.00     0.150 A 
ATOM      3  C   UNL     1      42.120 132.879  14.916  1.00  0.00     0.062 A 
ATOM      4  C   UNL     1      42.884 132.069  14.035  1.00  0.00     0.024 A 
ATOM      5  C   UNL     1      43.934 131.326  14.561  1.00  0.00    -0.016 A 
ATOM      6  C   UNL     1      43.512 132.125  16.815  1.00  0.00     0.036 A 
ATOM      7  C   UNL     1      44.219 131.378  15.885  1.00  0.00     0.000 A 
ATOM      8  C   UNL     1      44.913 130.424  13.945  1.00  0.00     0.009 C 
ATOM      9  C   UNL     1      43.947 132.037  18.166  1.00  0.00     0.049 A 
ATOM     10  C   UNL     1      45.284 130.588  16.176  1.00  0.00    -0.017 A 
ATOM     11  C   UNL     1      45.725 129.979  14.917  1.00  0.00     0.009 C 
ATOM     12  C   UNL     1      45.070 131.212  18.485  1.00  0.00     0.011 A 
ATOM     13  C   UNL     1      45.745 130.480  17.484  1.00  0.00     0.009 A 
BRANCH   3  14
ATOM     14  C   UNL     1      41.063 133.736  14.330  1.00  0.00     0.172 C 
BRANCH  14  15
ATOM     15  O   UNL     1      39.798 133.178  14.115  1.00  0.00    -0.506 OA
ATOM     16  H   UNL     1      38.932 133.604  14.412  1.00  0.00     0.293 HD
ENDBRANCH  14  15
BRANCH  14  17
ATOM     17  N   UNL     1      41.343 134.963  13.993  1.00  0.00    -0.151 NA
BRANCH  17  18
ATOM     18  N   UNL     1      40.393 135.960  13.722  1.00  0.00    -0.169 N 
ATOM     19  H   UNL     1      40.503 136.935  14.072  1.00  0.00     0.475 HD
ATOM     20  N   UNL     1      39.452 135.717  12.905  1.00  0.00    -0.151 NA
ENDBRANCH  17  18
ENDBRANCH  14  17
ENDBRANCH   3  14
BRANCH   9  21
ATOM     21  N   UNL     1      43.262 132.771  19.191  1.00  0.00    -0.060 NA
BRANCH  21  22
ATOM     22  N   UNL     1      42.920 132.258  20.258  1.00  0.00     0.005 N 
ATOM     23  N   UNL     1      42.582 131.744  21.323  1.00  0.00    -0.003 NA
ENDBRANCH  21  22
ENDBRANCH   9  21
ENDBRANCH   1   2
BRANCH   1  24
ATOM     24  C   UNL     1      40.358 133.187  17.654  1.00  0.00     0.331 C 
ATOM     25  O   UNL     1      40.116 131.957  17.793  1.00  0.00    -0.250 OA
BRANCH  24  26
ATOM     26  C   UNL     1      39.300 134.212  18.014  1.00  0.00     0.116 C 
ATOM     27  C   UNL     1      38.979 135.215  16.900  1.00  0.00     0.040 C 
ATOM     28  C   UNL     1      39.828 135.352  18.890  1.00  0.00     0.040 C 
ATOM     29  C   UNL     1      39.484 136.355  17.786  1.00  0.00     0.019 C 
BRANCH  26  30
ATOM     30  N   UNL     1      38.079 133.618  18.567  1.00  0.00    -0.316 NA
ATOM     31  H   UNL     1      38.296 132.646  18.888  1.00  0.00     0.119 HD
ATOM     32  H   UNL     1      37.782 134.169  19.404  1.00  0.00     0.119 HD
ENDBRANCH  26  30
BRANCH  29  33
ATOM     33  C   UNL     1      40.705 137.094  17.216  1.00  0.00     0.159 C 
BRANCH  33  34
ATOM     34  O   UNL     1      40.370 138.419  16.909  1.00  0.00    -0.396 OA
ATOM     35  H   UNL     1      39.886 138.395  16.042  1.00  0.00     0.210 HD
ENDBRANCH  33  34
ENDBRANCH  29  33
ENDBRANCH  24  26
ENDBRANCH   1  24
TORSDOF 12
ENDMDL
MODEL 5
REMARK VINA RESULT:      -7.0      2.899      5.714
REMARK SMILES [N-]=[N+]=Nc1ccc2c3c(cc(/C(O)=N/[NH+]=[N-])c(OC(=O)[C@]4(N)C[C@H](CO)C4)c13)C=C2
REMARK SMILES IDX 18 1 17 2 11 3 10 4 9 5 28 6 8 7 29 8 4 9 7 10 30 11 5 12
REMARK SMILES IDX 6 13 12 14 13 15 14 17 15 18 16 20 3 21 2 22 1 23 19 24
REMARK SMILES IDX 20 25 21 26 27 27 23 28 24 29 22 30 25 33 26 34
REMARK H PARENT 13 16 15 19 22 31 22 32 26 35
ROOT
ATOM      1  O   UNL     1      42.341 131.958  16.334  1.00  0.00    -0.424 OA
ENDROOT
BRANCH   1   2
ATOM      2  C   UNL     1      43.378 131.727  17.248  1.00  0.00     0.150 A 
ATOM      3  C   UNL     1      44.644 131.192  16.816  1.00  0.00     0.062 A 
ATOM      4  C   UNL     1      45.649 130.892  17.774  1.00  0.00     0.024 A 
ATOM      5  C   UNL     1      45.394 131.168  19.112  1.00  0.00    -0.016 A 
ATOM      6  C   UNL     1      43.172 132.017  18.624  1.00  0.00     0.036 A 
ATOM      7  C   UNL     1      44.212 131.713  19.489  1.00  0.00     0.000 A 
ATOM      8  C   UNL     1      46.200 131.006  20.326  1.00  0.00     0.009 C 
ATOM      9  C   UNL     1      41.997 132.566  19.207  1.00  0.00     0.049 A 
ATOM     10  C   UNL     1      44.183 131.909  20.831  1.00  0.00    -0.017 A 
ATOM     11  C   UNL     1      45.471 131.451  21.362  1.00  0.00     0.009 C 
ATOM     12  C   UNL     1      41.955 132.781  20.620  1.00  0.00     0.011 A 
ATOM     13  C   UNL     1      43.055 132.450  21.441  1.00  0.00     0.009 A 
BRANCH   3  14
ATOM     14  C   UNL     1      44.962 130.978  15.386  1.00  0.00     0.172 C 
BRANCH  14  15
ATOM     15  O   UNL     1      44.425 129.855  14.746  1.00  0.00    -0.506 OA
ATOM     16  H   UNL     1      44.877 128.953  14.708  1.00  0.00     0.293 HD
ENDBRANCH  14  15
BRANCH  14  17
ATOM     17  N   UNL     1      45.760 131.806  14.773  1.00  0.00    -0.151 NA
BRANCH  17  18
ATOM     18  N   UNL     1      46.968 131.451  14.155  1.00  0.00    -0.169 N 
ATOM     19  H   UNL     1      47.885 131.545  14.642  1.00  0.00     0.475 HD
ATOM     20  N   UNL     1      46.942 130.858  13.033  1.00  0.00    -0.151 NA
ENDBRANCH  17  18
ENDBRANCH  14  17
ENDBRANCH   3  14
BRANCH   9  21
ATOM     21  N   UNL     1      40.871 132.898  18.382  1.00  0.00    -0.060 NA
BRANCH  21  22
ATOM     22  N   UNL     1      40.056 133.769  18.690  1.00  0.00     0.005 N 
ATOM     23  N   UNL     1      39.241 134.638  18.995  1.00  0.00    -0.003 NA
ENDBRANCH  21  22
ENDBRANCH   9  21
ENDBRANCH   1   2
BRANCH   1  24
ATOM     24  C   UNL     1      42.468 132.817  15.233  1.00  0.00     0.331 C 
ATOM     25  O   UNL     1      42.125 132.426  14.084  1.00  0.00    -0.250 OA
BRANCH  24  26
ATOM     26  C   UNL     1      42.953 134.239  15.436  1.00  0.00     0.116 C 
ATOM     27  C   UNL     1      42.345 134.954  16.648  1.00  0.00     0.040 C 
ATOM     28  C   UNL     1      42.282 135.252  14.502  1.00  0.00     0.040 C 
ATOM     29  C   UNL     1      41.696 135.978  15.715  1.00  0.00     0.019 C 
BRANCH  26  30
ATOM     30  N   UNL     1      44.414 134.364  15.419  1.00  0.00    -0.316 NA
ATOM     31  H   UNL     1      44.756 134.149  14.454  1.00  0.00     0.119 HD
ATOM     32  H   UNL     1      44.672 135.355  15.632  1.00  0.00     0.119 HD
ENDBRANCH  26  30
BRANCH  29  33
ATOM     33  C   UNL     1      40.160 135.975  15.758  1.00  0.00     0.159 C 
BRANCH  33  34
ATOM     34  O   UNL     1      39.702 136.846  16.754  1.00  0.00    -0.396 OA
ATOM     35  H   UNL     1      39.785 137.765  16.389  1.00  0.00     0.210 HD
ENDBRANCH  33  34
ENDBRANCH  29  33
ENDBRANCH  24  26
ENDBRANCH   1  24
TORSDOF 12
ENDMDL
MODEL 6
REMARK VINA RESULT:      -7.0      2.637      7.084
REMARK SMILES [N-]=[N+]=Nc1ccc2c3c(cc(/C(O)=N/[NH+]=[N-])c(OC(=O)[C@]4(N)C[C@H](CO)C4)c13)C=C2
REMARK SMILES IDX 18 1 17 2 11 3 10 4 9 5 28 6 8 7 29 8 4 9 7 10 30 11 5 12
REMARK SMILES IDX 6 13 12 14 13 15 14 17 15 18 16 20 3 21 2 22 1 23 19 24
REMARK SMILES IDX 20 25 21 26 27 27 23 28 24 29 22 30 25 33 26 34
REMARK H PARENT 13 16 15 19 22 31 22 32 26 35
ROOT
ATOM      1  O   UNL     1      41.370 133.384  17.481  1.00  0.00    -0.424 OA
ENDROOT
BRANCH   1   2
ATOM      2  C   UNL     1      42.444 132.794  16.799  1.00  0.00     0.150 A 
ATOM      3  C   UNL     1      42.528 132.841  15.362  1.00  0.00     0.062 A 
ATOM      4  C   UNL     1      43.584 132.169  14.693  1.00  0.00     0.024 A 
ATOM      5  C   UNL     1      44.542 131.513  15.456  1.00  0.00    -0.016 A 
ATOM      6  C   UNL     1      43.461 132.134  17.540  1.00  0.00     0.036 A 
ATOM      7  C   UNL     1      44.467 131.520  16.809  1.00  0.00     0.000 A 
ATOM      8  C   UNL     1      45.746 130.757  15.096  1.00  0.00     0.009 C 
ATOM      9  C   UNL     1      43.540 132.018  18.955  1.00  0.00     0.049 A 
ATOM     10  C   UNL     1      45.506 130.834  17.349  1.00  0.00    -0.017 A 
ATOM     11  C   UNL     1      46.326 130.347  16.235  1.00  0.00     0.009 C 
ATOM     12  C   UNL     1      44.631 131.300  19.536  1.00  0.00     0.011 A 
ATOM     13  C   UNL     1      45.624 130.703  18.729  1.00  0.00     0.009 A 
BRANCH   3  14
ATOM     14  C   UNL     1      41.565 133.612  14.542  1.00  0.00     0.172 C 
BRANCH  14  15
ATOM     15  O   UNL     1      41.871 134.941  14.230  1.00  0.00    -0.506 OA
ATOM     16  H   UNL     1      41.196 135.617  13.903  1.00  0.00     0.293 HD
ENDBRANCH  14  15
BRANCH  14  17
ATOM     17  N   UNL     1      40.448 133.054  14.168  1.00  0.00    -0.151 NA
BRANCH  17  18
ATOM     18  N   UNL     1      39.204 133.703  14.111  1.00  0.00    -0.169 N 
ATOM     19  H   UNL     1      38.475 133.558  14.841  1.00  0.00     0.475 HD
ATOM     20  N   UNL     1      39.012 134.604  13.238  1.00  0.00    -0.151 NA
ENDBRANCH  17  18
ENDBRANCH  14  17
ENDBRANCH   3  14
BRANCH   9  21
ATOM     21  N   UNL     1      42.531 132.615  19.783  1.00  0.00    -0.060 NA
BRANCH  21  22
ATOM     22  N   UNL     1      42.484 132.439  21.001  1.00  0.00     0.005 N 
ATOM     23  N   UNL     1      42.433 132.264  22.217  1.00  0.00    -0.003 NA
ENDBRANCH  21  22
ENDBRANCH   9  21
ENDBRANCH   1   2
BRANCH   1  24
ATOM     24  C   UNL     1      41.053 134.745  17.380  1.00  0.00     0.331 C 
ATOM     25  O   UNL     1      39.992 135.105  16.800  1.00  0.00    -0.250 OA
BRANCH  24  26
ATOM     26  C   UNL     1      41.951 135.781  18.028  1.00  0.00     0.116 C 
ATOM     27  C   UNL     1      41.461 137.227  17.887  1.00  0.00     0.040 C 
ATOM     28  C   UNL     1      43.191 136.121  17.195  1.00  0.00     0.040 C 
ATOM     29  C   UNL     1      42.712 137.569  17.077  1.00  0.00     0.019 C 
BRANCH  26  30
ATOM     30  N   UNL     1      42.296 135.466  19.418  1.00  0.00    -0.316 NA
ATOM     31  H   UNL     1      43.053 134.744  19.419  1.00  0.00     0.119 HD
ATOM     32  H   UNL     1      42.677 136.325  19.876  1.00  0.00     0.119 HD
ENDBRANCH  26  30
BRANCH  29  33
ATOM     33  C   UNL     1      42.418 138.011  15.635  1.00  0.00     0.159 C 
BRANCH  33  34
ATOM     34  O   UNL     1      42.975 139.273  15.392  1.00  0.00    -0.396 OA
ATOM     35  H   UNL     1      43.504 139.194  14.556  1.00  0.00     0.210 HD
ENDBRANCH  33  34
ENDBRANCH  29  33
ENDBRANCH  24  26
ENDBRANCH   1  24
TORSDOF 12
ENDMDL
MODEL 7
REMARK VINA RESULT:      -7.0      2.835      7.420
REMARK SMILES [N-]=[N+]=Nc1ccc2c3c(cc(/C(O)=N/[NH+]=[N-])c(OC(=O)[C@]4(N)C[C@H](CO)C4)c13)C=C2
REMARK SMILES IDX 18 1 17 2 11 3 10 4 9 5 28 6 8 7 29 8 4 9 7 10 30 11 5 12
REMARK SMILES IDX 6 13 12 14 13 15 14 17 15 18 16 20 3 21 2 22 1 23 19 24
REMARK SMILES IDX 20 25 21 26 27 27 23 28 24 29 22 30 25 33 26 34
REMARK H PARENT 13 16 15 19 22 31 22 32 26 35
ROOT
ATOM      1  O   UNL     1      42.547 133.810  17.356  1.00  0.00    -0.424 OA
ENDROOT
BRANCH   1   2
ATOM      2  C   UNL     1      43.180 132.967  16.433  1.00  0.00     0.150 A 
ATOM      3  C   UNL     1      42.882 133.047  15.026  1.00  0.00     0.062 A 
ATOM      4  C   UNL     1      43.478 132.128  14.123  1.00  0.00     0.024 A 
ATOM      5  C   UNL     1      44.375 131.193  14.624  1.00  0.00    -0.016 A 
ATOM      6  C   UNL     1      44.124 132.011  16.896  1.00  0.00     0.036 A 
ATOM      7  C   UNL     1      44.674 131.165  15.945  1.00  0.00     0.000 A 
ATOM      8  C   UNL     1      45.167 130.138  13.981  1.00  0.00     0.009 C 
ATOM      9  C   UNL     1      44.545 131.818  18.241  1.00  0.00     0.049 A 
ATOM     10  C   UNL     1      45.577 130.187  16.211  1.00  0.00    -0.017 A 
ATOM     11  C   UNL     1      45.889 129.532  14.936  1.00  0.00     0.009 C 
ATOM     12  C   UNL     1      45.498 130.793  18.532  1.00  0.00     0.011 A 
ATOM     13  C   UNL     1      46.019 129.970  17.511  1.00  0.00     0.009 A 
BRANCH   3  14
ATOM     14  C   UNL     1      41.998 134.096  14.467  1.00  0.00     0.172 C 
BRANCH  14  15
ATOM     15  O   UNL     1      42.341 135.436  14.676  1.00  0.00    -0.506 OA
ATOM     16  H   UNL     1      41.774 136.093  15.193  1.00  0.00     0.293 HD
ENDBRANCH  14  15
BRANCH  14  17
ATOM     17  N   UNL     1      40.911 133.751  13.837  1.00  0.00    -0.151 NA
BRANCH  17  18
ATOM     18  N   UNL     1      39.605 134.033  14.270  1.00  0.00    -0.169 N 
ATOM     19  H   UNL     1      39.390 134.862  14.864  1.00  0.00     0.475 HD
ATOM     20  N   UNL     1      38.637 133.354  13.809  1.00  0.00    -0.151 NA
ENDBRANCH  17  18
ENDBRANCH  14  17
ENDBRANCH   3  14
BRANCH   9  21
ATOM     21  N   UNL     1      44.014 132.645  19.286  1.00  0.00    -0.060 NA
BRANCH  21  22
ATOM     22  N   UNL     1      44.601 132.822  20.355  1.00  0.00     0.005 N 
ATOM     23  N   UNL     1      45.186 133.001  21.421  1.00  0.00    -0.003 NA
ENDBRANCH  21  22
ENDBRANCH   9  21
ENDBRANCH   1   2
BRANCH   1  24
ATOM     24  C   UNL     1      41.193 133.693  17.698  1.00  0.00     0.331 C 
ATOM     25  O   UNL     1      40.644 132.557  17.724  1.00  0.00    -0.250 OA
BRANCH  24  26
ATOM     26  C   UNL     1      40.405 134.923  18.105  1.00  0.00     0.116 C 
ATOM     27  C   UNL     1      40.980 135.679  19.308  1.00  0.00     0.040 C 
ATOM     28  C   UNL     1      39.143 134.601  18.910  1.00  0.00     0.040 C 
ATOM     29  C   UNL     1      39.708 135.378  20.101  1.00  0.00     0.019 C 
BRANCH  26  30
ATOM     30  N   UNL     1      40.125 135.830  16.987  1.00  0.00    -0.316 NA
ATOM     31  H   UNL     1      40.985 136.393  16.790  1.00  0.00     0.119 HD
ATOM     32  H   UNL     1      39.916 135.263  16.134  1.00  0.00     0.119 HD
ENDBRANCH  26  30
BRANCH  29  33
ATOM     33  C   UNL     1      39.943 134.514  21.350  1.00  0.00     0.159 C 
BRANCH  33  34
ATOM     34  O   UNL     1      38.725 134.242  21.987  1.00  0.00    -0.396 OA
ATOM     35  H   UNL     1      38.354 135.116  22.275  1.00  0.00     0.210 HD
ENDBRANCH  33  34
ENDBRANCH  29  33
ENDBRANCH  24  26
ENDBRANCH   1  24
TORSDOF 12
ENDMDL
MODEL 8
REMARK VINA RESULT:      -7.0      2.949      5.818
REMARK SMILES [N-]=[N+]=Nc1ccc2c3c(cc(/C(O)=N/[NH+]=[N-])c(OC(=O)[C@]4(N)C[C@H](CO)C4)c13)C=C2
REMARK SMILES IDX 18 1 17 2 11 3 10 4 9 5 28 6 8 7 29 8 4 9 7 10 30 11 5 12
REMARK SMILES IDX 6 13 12 14 13 15 14 17 15 18 16 20 3 21 2 22 1 23 19 24
REMARK SMILES IDX 20 25 21 26 27 27 23 28 24 29 22 30 25 33 26 34
REMARK H PARENT 13 16 15 19 22 31 22 32 26 35
ROOT
ATOM      1  O   UNL     1      42.402 132.303  16.670  1.00  0.00    -0.424 OA
ENDROOT
BRANCH   1   2
ATOM      2  C   UNL     1      43.408 131.948  17.579  1.00  0.00     0.150 A 
ATOM      3  C   UNL     1      44.601 131.269  17.141  1.00  0.00     0.062 A 
ATOM      4  C   UNL     1      45.567 130.851  18.094  1.00  0.00     0.024 A 
ATOM      5  C   UNL     1      45.351 131.151  19.433  1.00  0.00    -0.016 A 
ATOM      6  C   UNL     1      43.243 132.257  18.956  1.00  0.00     0.036 A 
ATOM      7  C   UNL     1      44.243 131.830  19.816  1.00  0.00     0.000 A 
ATOM      8  C   UNL     1      46.138 130.891  20.644  1.00  0.00     0.009 C 
ATOM      9  C   UNL     1      42.143 132.939  19.546  1.00  0.00     0.049 A 
ATOM     10  C   UNL     1      44.242 132.024  21.159  1.00  0.00    -0.017 A 
ATOM     11  C   UNL     1      45.469 131.416  21.684  1.00  0.00     0.009 C 
ATOM     12  C   UNL     1      42.132 133.152  20.959  1.00  0.00     0.011 A 
ATOM     13  C   UNL     1      43.188 132.692  21.775  1.00  0.00     0.009 A 
BRANCH   3  14
ATOM     14  C   UNL     1      44.886 131.024  15.709  1.00  0.00     0.172 C 
BRANCH  14  15
ATOM     15  O   UNL     1      45.118 132.126  14.878  1.00  0.00    -0.506 OA
ATOM     16  H   UNL     1      44.431 132.518  14.251  1.00  0.00     0.293 HD
ENDBRANCH  14  15
BRANCH  14  17
ATOM     17  N   UNL     1      44.873 129.804  15.250  1.00  0.00    -0.151 NA
BRANCH  17  18
ATOM     18  N   UNL     1      46.012 129.072  14.879  1.00  0.00    -0.169 N 
ATOM     19  H   UNL     1      46.197 128.116  15.252  1.00  0.00     0.475 HD
ATOM     20  N   UNL     1      46.761 129.512  13.955  1.00  0.00    -0.151 NA
ENDBRANCH  17  18
ENDBRANCH  14  17
ENDBRANCH   3  14
BRANCH   9  21
ATOM     21  N   UNL     1      41.061 133.403  18.725  1.00  0.00    -0.060 NA
BRANCH  21  22
ATOM     22  N   UNL     1      40.302 134.307  19.078  1.00  0.00     0.005 N 
ATOM     23  N   UNL     1      39.546 135.212  19.429  1.00  0.00    -0.003 NA
ENDBRANCH  21  22
ENDBRANCH   9  21
ENDBRANCH   1   2
BRANCH   1  24
ATOM     24  C   UNL     1      42.426 133.492  15.927  1.00  0.00     0.331 C 
ATOM     25  O   UNL     1      43.371 134.313  16.080  1.00  0.00    -0.250 OA
BRANCH  24  26
ATOM     26  C   UNL     1      41.353 133.757  14.890  1.00  0.00     0.116 C 
ATOM     27  C   UNL     1      41.387 135.165  14.282  1.00  0.00     0.040 C 
ATOM     28  C   UNL     1      39.977 134.053  15.496  1.00  0.00     0.040 C 
ATOM     29  C   UNL     1      40.003 135.448  14.868  1.00  0.00     0.019 C 
BRANCH  26  30
ATOM     30  N   UNL     1      41.281 132.727  13.848  1.00  0.00    -0.316 NA
ATOM     31  H   UNL     1      40.353 132.799  13.371  1.00  0.00     0.119 HD
ATOM     32  H   UNL     1      42.020 132.916  13.133  1.00  0.00     0.119 HD
ENDBRANCH  26  30
BRANCH  29  33
ATOM     33  C   UNL     1      39.984 136.591  15.895  1.00  0.00     0.159 C 
BRANCH  33  34
ATOM     34  O   UNL     1      38.674 137.049  16.085  1.00  0.00    -0.396 OA
ATOM     35  H   UNL     1      38.399 137.487  15.237  1.00  0.00     0.210 HD
ENDBRANCH  33  34
ENDBRANCH  29  33
ENDBRANCH  24  26
ENDBRANCH   1  24
TORSDOF 12
ENDMDL
MODEL 9
REMARK VINA RESULT:      -7.0      2.811      5.763
REMARK SMILES [N-]=[N+]=Nc1ccc2c3c(cc(/C(O)=N/[NH+]=[N-])c(OC(=O)[C@]4(N)C[C@H](CO)C4)c13)C=C2
REMARK SMILES IDX 18 1 17 2 11 3 10 4 9 5 28 6 8 7 29 8 4 9 7 10 30 11 5 12
REMARK SMILES IDX 6 13 12 14 13 15 14 17 15 18 16 20 3 21 2 22 1 23 19 24
REMARK SMILES IDX 20 25 21 26 27 27 23 28 24 29 22 30 25 33 26 34
REMARK H PARENT 13 16 15 19 22 31 22 32 26 35
ROOT
ATOM      1  O   UNL     1      43.856 133.794  16.050  1.00  0.00    -0.424 OA
ENDROOT
BRANCH   1   2
ATOM      2  C   UNL     1      44.388 132.955  17.039  1.00  0.00     0.150 A 
ATOM      3  C   UNL     1      45.048 131.723  16.692  1.00  0.00     0.062 A 
ATOM      4  C   UNL     1      45.507 130.853  17.717  1.00  0.00     0.024 A 
ATOM      5  C   UNL     1      45.343 131.243  19.040  1.00  0.00    -0.016 A 
ATOM      6  C   UNL     1      44.267 133.324  18.406  1.00  0.00     0.036 A 
ATOM      7  C   UNL     1      44.759 132.428  19.341  1.00  0.00     0.000 A 
ATOM      8  C   UNL     1      45.713 130.609  20.311  1.00  0.00     0.009 C 
ATOM      9  C   UNL     1      43.668 134.511  18.913  1.00  0.00     0.049 A 
ATOM     10  C   UNL     1      44.714 132.611  20.685  1.00  0.00    -0.017 A 
ATOM     11  C   UNL     1      45.333 131.432  21.301  1.00  0.00     0.009 C 
ATOM     12  C   UNL     1      43.616 134.716  20.327  1.00  0.00     0.011 A 
ATOM     13  C   UNL     1      44.143 133.760  21.223  1.00  0.00     0.009 A 
BRANCH   3  14
ATOM     14  C   UNL     1      45.310 131.338  15.286  1.00  0.00     0.172 C 
BRANCH  14  15
ATOM     15  O   UNL     1      44.221 131.213  14.417  1.00  0.00    -0.506 OA
ATOM     16  H   UNL     1      44.046 130.402  13.840  1.00  0.00     0.293 HD
ENDBRANCH  14  15
BRANCH  14  17
ATOM     17  N   UNL     1      46.530 131.087  14.905  1.00  0.00    -0.151 NA
BRANCH  17  18
ATOM     18  N   UNL     1      47.027 131.294  13.608  1.00  0.00    -0.169 N 
ATOM     19  H   UNL     1      47.801 131.965  13.417  1.00  0.00     0.475 HD
ATOM     20  N   UNL     1      46.635 130.542  12.664  1.00  0.00    -0.151 NA
ENDBRANCH  17  18
ENDBRANCH  14  17
ENDBRANCH   3  14
BRANCH   9  21
ATOM     21  N   UNL     1      43.123 135.484  18.010  1.00  0.00    -0.060 NA
BRANCH  21  22
ATOM     22  N   UNL     1      43.471 136.666  18.021  1.00  0.00     0.005 N 
ATOM     23  N   UNL     1      43.822 137.844  18.031  1.00  0.00    -0.003 NA
ENDBRANCH  21  22
ENDBRANCH   9  21
ENDBRANCH   1   2
BRANCH   1  24
ATOM     24  C   UNL     1      42.542 133.680  15.575  1.00  0.00     0.331 C 
ATOM     25  O   UNL     1      41.895 132.613  15.758  1.00  0.00    -0.250 OA
BRANCH  24  26
ATOM     26  C   UNL     1      41.876 134.865  14.902  1.00  0.00     0.116 C 
ATOM     27  C   UNL     1      40.513 135.248  15.490  1.00  0.00     0.040 C 
ATOM     28  C   UNL     1      41.203 134.512  13.572  1.00  0.00     0.040 C 
ATOM     29  C   UNL     1      39.847 134.919  14.153  1.00  0.00     0.019 C 
BRANCH  26  30
ATOM     30  N   UNL     1      42.753 136.033  14.778  1.00  0.00    -0.316 NA
ATOM     31  H   UNL     1      43.155 136.250  15.720  1.00  0.00     0.119 HD
ATOM     32  H   UNL     1      43.548 135.795  14.143  1.00  0.00     0.119 HD
ENDBRANCH  26  30
BRANCH  29  33
ATOM     33  C   UNL     1      38.834 133.766  14.229  1.00  0.00     0.159 C 
BRANCH  33  34
ATOM     34  O   UNL     1      37.570 134.204  13.811  1.00  0.00    -0.396 OA
ATOM     35  H   UNL     1      37.319 133.644  13.031  1.00  0.00     0.210 HD
ENDBRANCH  33  34
ENDBRANCH  29  33
ENDBRANCH  24  26
ENDBRANCH   1  24
TORSDOF 12
ENDMDL


