MODEL 1
REMARK VINA RESULT:      -7.0      0.000      0.000
REMARK SMILES C#CCO/C([O-])=C\[C@H]1CC[C@H]2C(O/C([O-])=C\CC)=NC(=O)c3c(N=[N+]=[N-])cc(Cl)c1c32
REMARK SMILES IDX 8 1 30 2 28 3 29 4 27 5 23 6 22 7 31 8 11 9 12 10 19 11
REMARK SMILES IDX 20 12 21 13 10 14 9 15 7 16 5 17 6 18 4 19 3 20 2 21 1 22
REMARK SMILES IDX 24 23 25 24 26 25 13 26 14 27 15 28 16 29 17 30 18 31
REMARK H PARENT
ROOT
ATOM      1  C   UNL     1      41.817 133.495  15.969  1.00  0.00     0.045 C 
ATOM      2  C   UNL     1      42.120 133.146  17.422  1.00  0.00    -0.018 A 
ATOM      3  C   UNL     1      41.391 133.772  18.456  1.00  0.00     0.045 A 
ATOM      4  Cl  UNL     1      40.033 134.846  18.122  1.00  0.00    -0.084 Cl
ATOM      5  C   UNL     1      41.739 133.565  19.790  1.00  0.00     0.032 A 
ATOM      6  C   UNL     1      42.841 132.768  20.135  1.00  0.00     0.052 A 
ATOM      7  C   UNL     1      43.584 132.136  19.114  1.00  0.00     0.056 A 
ATOM      8  C   UNL     1      43.211 132.302  17.761  1.00  0.00    -0.020 A 
ATOM      9  C   UNL     1      43.878 131.437  16.698  1.00  0.00     0.077 C 
ATOM     10  C   UNL     1      45.293 131.034  17.065  1.00  0.00     0.091 C 
ATOM     11  N   UNL     1      45.659 130.959  18.310  1.00  0.00    -0.205 NA
ATOM     12  C   UNL     1      44.813 131.353  19.394  1.00  0.00     0.278 C 
ATOM     13  O   UNL     1      45.154 131.062  20.570  1.00  0.00    -0.267 OA
ATOM     14  C   UNL     1      43.829 132.104  15.318  1.00  0.00     0.016 C 
ATOM     15  C   UNL     1      42.384 132.464  14.976  1.00  0.00     0.014 C 
ENDROOT
BRANCH   1  16
ATOM     16  C   UNL     1      42.357 134.875  15.659  1.00  0.00     0.005 C 
BRANCH  16  17
ATOM     17  C   UNL     1      41.638 135.801  15.020  1.00  0.00     0.049 C 
ATOM     18  O   UNL     1      41.585 137.090  15.531  1.00  0.00    -0.547 OA
BRANCH  17  19
ATOM     19  O   UNL     1      40.945 135.479  13.853  1.00  0.00    -0.601 OA
BRANCH  19  20
ATOM     20  C   UNL     1      39.571 135.788  13.675  1.00  0.00     0.160 C 
BRANCH  20  21
ATOM     21  C   UNL     1      38.766 134.883  14.493  1.00  0.00    -0.095 C 
ATOM     22  C   UNL     1      38.101 134.133  15.162  1.00  0.00     0.005 C 
ENDBRANCH  20  21
ENDBRANCH  19  20
ENDBRANCH  17  19
ENDBRANCH  16  17
ENDBRANCH   1  16
BRANCH   6  23
ATOM     23  N   UNL     1      43.220 132.607  21.512  1.00  0.00    -0.060 NA
BRANCH  23  24
ATOM     24  N   UNL     1      42.443 132.814  22.445  1.00  0.00     0.005 N 
ATOM     25  N   UNL     1      41.668 133.018  23.378  1.00  0.00    -0.003 NA
ENDBRANCH  23  24
ENDBRANCH   6  23
BRANCH  10  26
ATOM     26  O   UNL     1      46.171 130.652  16.039  1.00  0.00    -0.567 OA
BRANCH  26  27
ATOM     27  C   UNL     1      45.986 129.582  15.156  1.00  0.00     0.053 C 
ATOM     28  O   UNL     1      45.121 128.537  15.465  1.00  0.00    -0.547 OA
BRANCH  27  29
ATOM     29  C   UNL     1      46.650 129.551  13.998  1.00  0.00    -0.003 C 
BRANCH  29  30
ATOM     30  C   UNL     1      47.202 130.787  13.340  1.00  0.00     0.026 C 
ATOM     31  C   UNL     1      47.214 130.658  11.819  1.00  0.00     0.008 C 
ENDBRANCH  29  30
ENDBRANCH  27  29
ENDBRANCH  26  27
ENDBRANCH  10  26
TORSDOF 11
ENDMDL
MODEL 2
REMARK VINA RESULT:      -6.7      1.299      1.943
REMARK SMILES C#CCO/C([O-])=C\[C@H]1CC[C@H]2C(O/C([O-])=C\CC)=NC(=O)c3c(N=[N+]=[N-])cc(Cl)c1c32
REMARK SMILES IDX 8 1 30 2 28 3 29 4 27 5 23 6 22 7 31 8 11 9 12 10 19 11
REMARK SMILES IDX 20 12 21 13 10 14 9 15 7 16 5 17 6 18 4 19 3 20 2 21 1 22
REMARK SMILES IDX 24 23 25 24 26 25 13 26 14 27 15 28 16 29 17 30 18 31
REMARK H PARENT
ROOT
ATOM      1  C   UNL     1      42.221 133.122  15.669  1.00  0.00     0.045 C 
ATOM      2  C   UNL     1      42.417 132.724  17.128  1.00  0.00    -0.018 A 
ATOM      3  C   UNL     1      41.530 133.215  18.110  1.00  0.00     0.045 A 
ATOM      4  Cl  UNL     1      40.105 134.165  17.688  1.00  0.00    -0.084 Cl
ATOM      5  C   UNL     1      41.768 132.971  19.461  1.00  0.00     0.032 A 
ATOM      6  C   UNL     1      42.909 132.270  19.881  1.00  0.00     0.052 A 
ATOM      7  C   UNL     1      43.809 131.774  18.912  1.00  0.00     0.056 A 
ATOM      8  C   UNL     1      43.553 131.976  17.538  1.00  0.00    -0.020 A 
ATOM      9  C   UNL     1      44.407 131.243  16.510  1.00  0.00     0.077 C 
ATOM     10  C   UNL     1      45.815 130.964  17.000  1.00  0.00     0.091 C 
ATOM     11  N   UNL     1      46.065 130.857  18.271  1.00  0.00    -0.205 NA
ATOM     12  C   UNL     1      45.081 131.103  19.280  1.00  0.00     0.278 C 
ATOM     13  O   UNL     1      45.336 130.783  20.470  1.00  0.00    -0.267 OA
ATOM     14  C   UNL     1      44.422 131.977  15.164  1.00  0.00     0.016 C 
ATOM     15  C   UNL     1      42.987 132.209  14.693  1.00  0.00     0.014 C 
ENDROOT
BRANCH   1  16
ATOM     16  C   UNL     1      42.640 134.563  15.478  1.00  0.00     0.005 C 
BRANCH  16  17
ATOM     17  C   UNL     1      41.795 135.508  15.060  1.00  0.00     0.049 C 
ATOM     18  O   UNL     1      40.963 135.245  13.980  1.00  0.00    -0.547 OA
BRANCH  17  19
ATOM     19  O   UNL     1      41.746 136.748  15.697  1.00  0.00    -0.601 OA
BRANCH  19  20
ATOM     20  C   UNL     1      42.575 137.834  15.313  1.00  0.00     0.160 C 
BRANCH  20  21
ATOM     21  C   UNL     1      41.772 138.815  14.585  1.00  0.00    -0.095 C 
ATOM     22  C   UNL     1      41.116 139.625  13.980  1.00  0.00     0.005 C 
ENDBRANCH  20  21
ENDBRANCH  19  20
ENDBRANCH  17  19
ENDBRANCH  16  17
ENDBRANCH   1  16
BRANCH   6  23
ATOM     23  N   UNL     1      43.168 132.072  21.280  1.00  0.00    -0.060 NA
BRANCH  23  24
ATOM     24  N   UNL     1      42.706 131.122  21.915  1.00  0.00     0.005 N 
ATOM     25  N   UNL     1      42.247 130.174  22.550  1.00  0.00    -0.003 NA
ENDBRANCH  23  24
ENDBRANCH   6  23
BRANCH  10  26
ATOM     26  O   UNL     1      46.823 130.729  16.052  1.00  0.00    -0.567 OA
BRANCH  26  27
ATOM     27  C   UNL     1      46.855 129.677  15.131  1.00  0.00     0.053 C 
ATOM     28  O   UNL     1      45.829 128.738  15.076  1.00  0.00    -0.547 OA
BRANCH  27  29
ATOM     29  C   UNL     1      47.885 129.559  14.290  1.00  0.00    -0.003 C 
BRANCH  29  30
ATOM     30  C   UNL     1      47.716 129.478  12.797  1.00  0.00     0.026 C 
ATOM     31  C   UNL     1      47.013 130.714  12.241  1.00  0.00     0.008 C 
ENDBRANCH  29  30
ENDBRANCH  27  29
ENDBRANCH  26  27
ENDBRANCH  10  26
TORSDOF 11
ENDMDL
MODEL 3
REMARK VINA RESULT:      -6.6      4.068      6.858
REMARK SMILES C#CCO/C([O-])=C\[C@H]1CC[C@H]2C(O/C([O-])=C\CC)=NC(=O)c3c(N=[N+]=[N-])cc(Cl)c1c32
REMARK SMILES IDX 8 1 30 2 28 3 29 4 27 5 23 6 22 7 31 8 11 9 12 10 19 11
REMARK SMILES IDX 20 12 21 13 10 14 9 15 7 16 5 17 6 18 4 19 3 20 2 21 1 22
REMARK SMILES IDX 24 23 25 24 26 25 13 26 14 27 15 28 16 29 17 30 18 31
REMARK H PARENT
ROOT
ATOM      1  C   UNL     1      43.982 132.135  17.374  1.00  0.00     0.045 C 
ATOM      2  C   UNL     1      43.615 133.614  17.323  1.00  0.00    -0.018 A 
ATOM      3  C   UNL     1      43.060 134.156  16.143  1.00  0.00     0.045 A 
ATOM      4  Cl  UNL     1      42.637 133.144  14.763  1.00  0.00    -0.084 Cl
ATOM      5  C   UNL     1      42.840 135.527  16.032  1.00  0.00     0.032 A 
ATOM      6  C   UNL     1      43.200 136.405  17.066  1.00  0.00     0.052 A 
ATOM      7  C   UNL     1      43.760 135.882  18.252  1.00  0.00     0.056 A 
ATOM      8  C   UNL     1      43.944 134.488  18.394  1.00  0.00    -0.020 A 
ATOM      9  C   UNL     1      44.333 133.928  19.756  1.00  0.00     0.077 C 
ATOM     10  C   UNL     1      45.145 134.901  20.588  1.00  0.00     0.091 C 
ATOM     11  N   UNL     1      45.034 136.183  20.403  1.00  0.00    -0.205 NA
ATOM     12  C   UNL     1      44.249 136.751  19.351  1.00  0.00     0.278 C 
ATOM     13  O   UNL     1      44.025 137.990  19.358  1.00  0.00    -0.267 OA
ATOM     14  C   UNL     1      45.047 132.577  19.626  1.00  0.00     0.016 C 
ATOM     15  C   UNL     1      44.182 131.618  18.810  1.00  0.00     0.014 C 
ENDROOT
BRANCH   1  16
ATOM     16  C   UNL     1      45.228 131.895  16.550  1.00  0.00     0.005 C 
BRANCH  16  17
ATOM     17  C   UNL     1      45.626 130.674  16.188  1.00  0.00     0.049 C 
ATOM     18  O   UNL     1      46.717 130.099  16.824  1.00  0.00    -0.547 OA
BRANCH  17  19
ATOM     19  O   UNL     1      44.956 129.980  15.179  1.00  0.00    -0.601 OA
BRANCH  19  20
ATOM     20  C   UNL     1      44.764 130.523  13.882  1.00  0.00     0.160 C 
BRANCH  20  21
ATOM     21  C   UNL     1      46.040 130.522  13.168  1.00  0.00    -0.095 C 
ATOM     22  C   UNL     1      47.095 130.517  12.584  1.00  0.00     0.005 C 
ENDBRANCH  20  21
ENDBRANCH  19  20
ENDBRANCH  17  19
ENDBRANCH  16  17
ENDBRANCH   1  16
BRANCH   6  23
ATOM     23  N   UNL     1      43.017 137.822  16.915  1.00  0.00    -0.060 NA
BRANCH  23  24
ATOM     24  N   UNL     1      42.737 138.346  15.836  1.00  0.00     0.005 N 
ATOM     25  N   UNL     1      42.458 138.868  14.758  1.00  0.00    -0.003 NA
ENDBRANCH  23  24
ENDBRANCH   6  23
BRANCH  10  26
ATOM     26  O   UNL     1      45.945 134.397  21.625  1.00  0.00    -0.567 OA
BRANCH  26  27
ATOM     27  C   UNL     1      47.326 134.580  21.760  1.00  0.00     0.053 C 
ATOM     28  O   UNL     1      48.220 133.566  21.432  1.00  0.00    -0.547 OA
BRANCH  27  29
ATOM     29  C   UNL     1      47.803 135.740  22.215  1.00  0.00    -0.003 C 
BRANCH  29  30
ATOM     30  C   UNL     1      48.933 136.477  21.549  1.00  0.00     0.026 C 
ATOM     31  C   UNL     1      48.456 137.251  20.322  1.00  0.00     0.008 C 
ENDBRANCH  29  30
ENDBRANCH  27  29
ENDBRANCH  26  27
ENDBRANCH  10  26
TORSDOF 11
ENDMDL
MODEL 4
REMARK VINA RESULT:      -6.6      1.270      2.111
REMARK SMILES C#CCO/C([O-])=C\[C@H]1CC[C@H]2C(O/C([O-])=C\CC)=NC(=O)c3c(N=[N+]=[N-])cc(Cl)c1c32
REMARK SMILES IDX 8 1 30 2 28 3 29 4 27 5 23 6 22 7 31 8 11 9 12 10 19 11
REMARK SMILES IDX 20 12 21 13 10 14 9 15 7 16 5 17 6 18 4 19 3 20 2 21 1 22
REMARK SMILES IDX 24 23 25 24 26 25 13 26 14 27 15 28 16 29 17 30 18 31
REMARK H PARENT
ROOT
ATOM      1  C   UNL     1      42.218 133.242  15.272  1.00  0.00     0.045 C 
ATOM      2  C   UNL     1      42.341 133.035  16.778  1.00  0.00    -0.018 A 
ATOM      3  C   UNL     1      41.494 133.749  17.652  1.00  0.00     0.045 A 
ATOM      4  Cl  UNL     1      40.191 134.776  17.055  1.00  0.00    -0.084 Cl
ATOM      5  C   UNL     1      41.677 133.673  19.032  1.00  0.00     0.032 A 
ATOM      6  C   UNL     1      42.726 132.920  19.582  1.00  0.00     0.052 A 
ATOM      7  C   UNL     1      43.585 132.201  18.723  1.00  0.00     0.056 A 
ATOM      8  C   UNL     1      43.379 132.234  17.325  1.00  0.00    -0.020 A 
ATOM      9  C   UNL     1      44.167 131.278  16.438  1.00  0.00     0.077 C 
ATOM     10  C   UNL     1      45.526 130.923  17.009  1.00  0.00     0.091 C 
ATOM     11  N   UNL     1      45.738 130.969  18.291  1.00  0.00    -0.205 NA
ATOM     12  C   UNL     1      44.768 131.457  19.222  1.00  0.00     0.278 C 
ATOM     13  O   UNL     1      44.963 131.281  20.454  1.00  0.00    -0.267 OA
ATOM     14  C   UNL     1      44.289 131.811  15.005  1.00  0.00     0.016 C 
ATOM     15  C   UNL     1      42.897 132.126  14.458  1.00  0.00     0.014 C 
ENDROOT
BRANCH   1  16
ATOM     16  C   UNL     1      42.796 134.590  14.900  1.00  0.00     0.005 C 
BRANCH  16  17
ATOM     17  C   UNL     1      42.033 135.661  14.673  1.00  0.00     0.049 C 
ATOM     18  O   UNL     1      40.864 135.519  13.939  1.00  0.00    -0.547 OA
BRANCH  17  19
ATOM     19  O   UNL     1      42.405 136.913  15.165  1.00  0.00    -0.601 OA
BRANCH  19  20
ATOM     20  C   UNL     1      43.127 137.070  16.377  1.00  0.00     0.160 C 
BRANCH  20  21
ATOM     21  C   UNL     1      43.063 138.469  16.796  1.00  0.00    -0.095 C 
ATOM     22  C   UNL     1      43.014 139.624  17.136  1.00  0.00     0.005 C 
ENDBRANCH  20  21
ENDBRANCH  19  20
ENDBRANCH  17  19
ENDBRANCH  16  17
ENDBRANCH   1  16
BRANCH   6  23
ATOM     23  N   UNL     1      42.935 132.893  21.003  1.00  0.00    -0.060 NA
BRANCH  23  24
ATOM     24  N   UNL     1      42.058 133.202  21.811  1.00  0.00     0.005 N 
ATOM     25  N   UNL     1      41.180 133.510  22.617  1.00  0.00    -0.003 NA
ENDBRANCH  23  24
ENDBRANCH   6  23
BRANCH  10  26
ATOM     26  O   UNL     1      46.520 130.452  16.139  1.00  0.00    -0.567 OA
BRANCH  26  27
ATOM     27  C   UNL     1      46.340 129.511  15.119  1.00  0.00     0.053 C 
ATOM     28  O   UNL     1      45.230 128.673  15.102  1.00  0.00    -0.547 OA
BRANCH  27  29
ATOM     29  C   UNL     1      47.246 129.403  14.144  1.00  0.00    -0.003 C 
BRANCH  29  30
ATOM     30  C   UNL     1      47.736 130.584  13.350  1.00  0.00     0.026 C 
ATOM     31  C   UNL     1      47.010 130.704  12.012  1.00  0.00     0.008 C 
ENDBRANCH  29  30
ENDBRANCH  27  29
ENDBRANCH  26  27
ENDBRANCH  10  26
TORSDOF 11
ENDMDL
MODEL 5
REMARK VINA RESULT:      -6.5      2.260      6.283
REMARK SMILES C#CCO/C([O-])=C\[C@H]1CC[C@H]2C(O/C([O-])=C\CC)=NC(=O)c3c(N=[N+]=[N-])cc(Cl)c1c32
REMARK SMILES IDX 8 1 30 2 28 3 29 4 27 5 23 6 22 7 31 8 11 9 12 10 19 11
REMARK SMILES IDX 20 12 21 13 10 14 9 15 7 16 5 17 6 18 4 19 3 20 2 21 1 22
REMARK SMILES IDX 24 23 25 24 26 25 13 26 14 27 15 28 16 29 17 30 18 31
REMARK H PARENT
ROOT
ATOM      1  C   UNL     1      45.056 132.100  16.945  1.00  0.00     0.045 C 
ATOM      2  C   UNL     1      44.247 132.497  18.175  1.00  0.00    -0.018 A 
ATOM      3  C   UNL     1      44.569 131.941  19.432  1.00  0.00     0.045 A 
ATOM      4  Cl  UNL     1      45.978 130.905  19.660  1.00  0.00    -0.084 Cl
ATOM      5  C   UNL     1      43.762 132.189  20.541  1.00  0.00     0.032 A 
ATOM      6  C   UNL     1      42.594 132.959  20.430  1.00  0.00     0.052 A 
ATOM      7  C   UNL     1      42.254 133.520  19.179  1.00  0.00     0.056 A 
ATOM      8  C   UNL     1      43.090 133.314  18.059  1.00  0.00    -0.020 A 
ATOM      9  C   UNL     1      42.831 134.110  16.786  1.00  0.00     0.077 C 
ATOM     10  C   UNL     1      41.371 134.475  16.602  1.00  0.00     0.091 C 
ATOM     11  N   UNL     1      40.582 134.587  17.629  1.00  0.00    -0.205 NA
ATOM     12  C   UNL     1      40.991 134.269  18.962  1.00  0.00     0.278 C 
ATOM     13  O   UNL     1      40.246 134.595  19.922  1.00  0.00    -0.267 OA
ATOM     14  C   UNL     1      43.384 133.389  15.550  1.00  0.00     0.016 C 
ATOM     15  C   UNL     1      44.862 133.069  15.765  1.00  0.00     0.014 C 
ENDROOT
BRANCH   1  16
ATOM     16  C   UNL     1      44.691 130.691  16.535  1.00  0.00     0.005 C 
BRANCH  16  17
ATOM     17  C   UNL     1      45.244 130.082  15.483  1.00  0.00     0.049 C 
ATOM     18  O   UNL     1      44.468 129.828  14.361  1.00  0.00    -0.547 OA
BRANCH  17  19
ATOM     19  O   UNL     1      46.587 129.703  15.509  1.00  0.00    -0.601 OA
BRANCH  19  20
ATOM     20  C   UNL     1      47.257 129.202  14.363  1.00  0.00     0.160 C 
BRANCH  20  21
ATOM     21  C   UNL     1      47.607 130.319  13.487  1.00  0.00    -0.095 C 
ATOM     22  C   UNL     1      47.896 131.235  12.759  1.00  0.00     0.005 C 
ENDBRANCH  20  21
ENDBRANCH  19  20
ENDBRANCH  17  19
ENDBRANCH  16  17
ENDBRANCH   1  16
BRANCH   6  23
ATOM     23  N   UNL     1      41.744 133.162  21.570  1.00  0.00    -0.060 NA
BRANCH  23  24
ATOM     24  N   UNL     1      42.142 133.684  22.613  1.00  0.00     0.005 N 
ATOM     25  N   UNL     1      42.538 134.208  23.653  1.00  0.00    -0.003 NA
ENDBRANCH  23  24
ENDBRANCH   6  23
BRANCH  10  26
ATOM     26  O   UNL     1      40.911 134.783  15.312  1.00  0.00    -0.567 OA
BRANCH  26  27
ATOM     27  C   UNL     1      40.180 133.932  14.476  1.00  0.00     0.053 C 
ATOM     28  O   UNL     1      40.771 132.814  13.895  1.00  0.00    -0.547 OA
BRANCH  27  29
ATOM     29  C   UNL     1      38.896 134.191  14.221  1.00  0.00    -0.003 C 
BRANCH  29  30
ATOM     30  C   UNL     1      37.851 134.285  15.299  1.00  0.00     0.026 C 
ATOM     31  C   UNL     1      37.010 135.552  15.160  1.00  0.00     0.008 C 
ENDBRANCH  29  30
ENDBRANCH  27  29
ENDBRANCH  26  27
ENDBRANCH  10  26
TORSDOF 11
ENDMDL
MODEL 6
REMARK VINA RESULT:      -6.4      2.247      6.316
REMARK SMILES C#CCO/C([O-])=C\[C@H]1CC[C@H]2C(O/C([O-])=C\CC)=NC(=O)c3c(N=[N+]=[N-])cc(Cl)c1c32
REMARK SMILES IDX 8 1 30 2 28 3 29 4 27 5 23 6 22 7 31 8 11 9 12 10 19 11
REMARK SMILES IDX 20 12 21 13 10 14 9 15 7 16 5 17 6 18 4 19 3 20 2 21 1 22
REMARK SMILES IDX 24 23 25 24 26 25 13 26 14 27 15 28 16 29 17 30 18 31
REMARK H PARENT
ROOT
ATOM      1  C   UNL     1      45.009 132.217  16.898  1.00  0.00     0.045 C 
ATOM      2  C   UNL     1      44.310 132.435  18.235  1.00  0.00    -0.018 A 
ATOM      3  C   UNL     1      44.735 131.712  19.371  1.00  0.00     0.045 A 
ATOM      4  Cl  UNL     1      46.152 130.662  19.331  1.00  0.00    -0.084 Cl
ATOM      5  C   UNL     1      44.027 131.799  20.568  1.00  0.00     0.032 A 
ATOM      6  C   UNL     1      42.859 132.570  20.665  1.00  0.00     0.052 A 
ATOM      7  C   UNL     1      42.417 133.297  19.538  1.00  0.00     0.056 A 
ATOM      8  C   UNL     1      43.153 133.253  18.333  1.00  0.00    -0.020 A 
ATOM      9  C   UNL     1      42.791 134.216  17.209  1.00  0.00     0.077 C 
ATOM     10  C   UNL     1      41.323 134.595  17.202  1.00  0.00     0.091 C 
ATOM     11  N   UNL     1      40.625 134.559  18.298  1.00  0.00    -0.205 NA
ATOM     12  C   UNL     1      41.145 134.062  19.535  1.00  0.00     0.278 C 
ATOM     13  O   UNL     1      40.485 134.247  20.591  1.00  0.00    -0.267 OA
ATOM     14  C   UNL     1      43.232 133.678  15.842  1.00  0.00     0.016 C 
ATOM     15  C   UNL     1      44.722 133.339  15.884  1.00  0.00     0.014 C 
ENDROOT
BRANCH   1  16
ATOM     16  C   UNL     1      44.602 130.876  16.328  1.00  0.00     0.005 C 
BRANCH  16  17
ATOM     17  C   UNL     1      45.489 129.988  15.875  1.00  0.00     0.049 C 
ATOM     18  O   UNL     1      45.067 128.703  15.566  1.00  0.00    -0.547 OA
BRANCH  17  19
ATOM     19  O   UNL     1      46.830 130.344  15.715  1.00  0.00    -0.601 OA
BRANCH  19  20
ATOM     20  C   UNL     1      47.662 129.748  14.732  1.00  0.00     0.160 C 
BRANCH  20  21
ATOM     21  C   UNL     1      47.271 130.239  13.412  1.00  0.00    -0.095 C 
ATOM     22  C   UNL     1      46.946 130.637  12.322  1.00  0.00     0.005 C 
ENDBRANCH  20  21
ENDBRANCH  19  20
ENDBRANCH  17  19
ENDBRANCH  16  17
ENDBRANCH   1  16
BRANCH   6  23
ATOM     23  N   UNL     1      42.110 132.607  21.890  1.00  0.00    -0.060 NA
BRANCH  23  24
ATOM     24  N   UNL     1      42.586 133.020  22.949  1.00  0.00     0.005 N 
ATOM     25  N   UNL     1      43.060 133.431  24.007  1.00  0.00    -0.003 NA
ENDBRANCH  23  24
ENDBRANCH   6  23
BRANCH  10  26
ATOM     26  O   UNL     1      40.757 135.076  16.012  1.00  0.00    -0.567 OA
BRANCH  26  27
ATOM     27  C   UNL     1      39.555 134.643  15.440  1.00  0.00     0.053 C 
ATOM     28  O   UNL     1      39.027 133.392  15.740  1.00  0.00    -0.547 OA
BRANCH  27  29
ATOM     29  C   UNL     1      38.900 135.435  14.588  1.00  0.00    -0.003 C 
BRANCH  29  30
ATOM     30  C   UNL     1      39.596 136.265  13.544  1.00  0.00     0.026 C 
ATOM     31  C   UNL     1      39.445 137.760  13.819  1.00  0.00     0.008 C 
ENDBRANCH  29  30
ENDBRANCH  27  29
ENDBRANCH  26  27
ENDBRANCH  10  26
TORSDOF 11
ENDMDL
MODEL 7
REMARK VINA RESULT:      -6.4      1.524      2.202
REMARK SMILES C#CCO/C([O-])=C\[C@H]1CC[C@H]2C(O/C([O-])=C\CC)=NC(=O)c3c(N=[N+]=[N-])cc(Cl)c1c32
REMARK SMILES IDX 8 1 30 2 28 3 29 4 27 5 23 6 22 7 31 8 11 9 12 10 19 11
REMARK SMILES IDX 20 12 21 13 10 14 9 15 7 16 5 17 6 18 4 19 3 20 2 21 1 22
REMARK SMILES IDX 24 23 25 24 26 25 13 26 14 27 15 28 16 29 17 30 18 31
REMARK H PARENT
ROOT
ATOM      1  C   UNL     1      41.753 133.912  16.980  1.00  0.00     0.045 C 
ATOM      2  C   UNL     1      42.226 133.268  18.279  1.00  0.00    -0.018 A 
ATOM      3  C   UNL     1      41.633 133.647  19.502  1.00  0.00     0.045 A 
ATOM      4  Cl  UNL     1      40.252 134.742  19.569  1.00  0.00    -0.084 Cl
ATOM      5  C   UNL     1      42.139 133.169  20.709  1.00  0.00     0.032 A 
ATOM      6  C   UNL     1      43.268 132.337  20.743  1.00  0.00     0.052 A 
ATOM      7  C   UNL     1      43.877 131.951  19.529  1.00  0.00     0.056 A 
ATOM      8  C   UNL     1      43.344 132.392  18.297  1.00  0.00    -0.020 A 
ATOM      9  C   UNL     1      43.872 131.784  17.003  1.00  0.00     0.077 C 
ATOM     10  C   UNL     1      45.318 131.339  17.102  1.00  0.00     0.091 C 
ATOM     11  N   UNL     1      45.831 131.009  18.250  1.00  0.00    -0.205 NA
ATOM     12  C   UNL     1      45.125 131.149  19.486  1.00  0.00     0.278 C 
ATOM     13  O   UNL     1      45.605 130.622  20.524  1.00  0.00    -0.267 OA
ATOM     14  C   UNL     1      43.661 132.727  15.812  1.00  0.00     0.016 C 
ATOM     15  C   UNL     1      42.188 133.125  15.730  1.00  0.00     0.014 C 
ENDROOT
BRANCH   1  16
ATOM     16  C   UNL     1      42.261 135.335  16.908  1.00  0.00     0.005 C 
BRANCH  16  17
ATOM     17  C   UNL     1      41.703 136.258  16.121  1.00  0.00     0.049 C 
ATOM     18  O   UNL     1      40.359 136.564  16.282  1.00  0.00    -0.547 OA
BRANCH  17  19
ATOM     19  O   UNL     1      42.460 136.910  15.146  1.00  0.00    -0.601 OA
BRANCH  19  20
ATOM     20  C   UNL     1      42.449 138.320  14.992  1.00  0.00     0.160 C 
BRANCH  20  21
ATOM     21  C   UNL     1      42.998 138.938  16.199  1.00  0.00    -0.095 C 
ATOM     22  C   UNL     1      43.450 139.454  17.189  1.00  0.00     0.005 C 
ENDBRANCH  20  21
ENDBRANCH  19  20
ENDBRANCH  17  19
ENDBRANCH  16  17
ENDBRANCH   1  16
BRANCH   6  23
ATOM     23  N   UNL     1      43.810 131.896  21.998  1.00  0.00    -0.060 NA
BRANCH  23  24
ATOM     24  N   UNL     1      43.138 131.300  22.841  1.00  0.00     0.005 N 
ATOM     25  N   UNL     1      42.465 130.707  23.683  1.00  0.00    -0.003 NA
ENDBRANCH  23  24
ENDBRANCH   6  23
BRANCH  10  26
ATOM     26  O   UNL     1      46.062 131.200  15.921  1.00  0.00    -0.567 OA
BRANCH  26  27
ATOM     27  C   UNL     1      46.214 130.022  15.181  1.00  0.00     0.053 C 
ATOM     28  O   UNL     1      45.143 129.159  14.974  1.00  0.00    -0.547 OA
BRANCH  27  29
ATOM     29  C   UNL     1      47.405 129.709  14.666  1.00  0.00    -0.003 C 
BRANCH  29  30
ATOM     30  C   UNL     1      47.917 130.293  13.377  1.00  0.00     0.026 C 
ATOM     31  C   UNL     1      46.784 130.562  12.390  1.00  0.00     0.008 C 
ENDBRANCH  29  30
ENDBRANCH  27  29
ENDBRANCH  26  27
ENDBRANCH  10  26
TORSDOF 11
ENDMDL
MODEL 8
REMARK VINA RESULT:      -6.4      3.080      5.775
REMARK SMILES C#CCO/C([O-])=C\[C@H]1CC[C@H]2C(O/C([O-])=C\CC)=NC(=O)c3c(N=[N+]=[N-])cc(Cl)c1c32
REMARK SMILES IDX 8 1 30 2 28 3 29 4 27 5 23 6 22 7 31 8 11 9 12 10 19 11
REMARK SMILES IDX 20 12 21 13 10 14 9 15 7 16 5 17 6 18 4 19 3 20 2 21 1 22
REMARK SMILES IDX 24 23 25 24 26 25 13 26 14 27 15 28 16 29 17 30 18 31
REMARK H PARENT
ROOT
ATOM      1  C   UNL     1      43.813 132.637  19.482  1.00  0.00     0.045 C 
ATOM      2  C   UNL     1      43.022 133.375  18.408  1.00  0.00    -0.018 A 
ATOM      3  C   UNL     1      42.104 134.380  18.783  1.00  0.00     0.045 A 
ATOM      4  Cl  UNL     1      41.942 134.916  20.455  1.00  0.00    -0.084 Cl
ATOM      5  C   UNL     1      41.280 134.974  17.829  1.00  0.00     0.032 A 
ATOM      6  C   UNL     1      41.311 134.563  16.488  1.00  0.00     0.052 A 
ATOM      7  C   UNL     1      42.221 133.557  16.094  1.00  0.00     0.056 A 
ATOM      8  C   UNL     1      43.094 132.982  17.044  1.00  0.00    -0.020 A 
ATOM      9  C   UNL     1      44.216 132.070  16.561  1.00  0.00     0.077 C 
ATOM     10  C   UNL     1      43.870 131.331  15.283  1.00  0.00     0.091 C 
ATOM     11  N   UNL     1      43.006 131.823  14.446  1.00  0.00    -0.205 NA
ATOM     12  C   UNL     1      42.251 133.008  14.716  1.00  0.00     0.278 C 
ATOM     13  O   UNL     1      41.590 133.535  13.783  1.00  0.00    -0.267 OA
ATOM     14  C   UNL     1      44.665 131.100  17.661  1.00  0.00     0.016 C 
ATOM     15  C   UNL     1      45.033 131.887  18.917  1.00  0.00     0.014 C 
ENDROOT
BRANCH   1  16
ATOM     16  C   UNL     1      42.898 131.677  20.211  1.00  0.00     0.005 C 
BRANCH  16  17
ATOM     17  C   UNL     1      43.038 131.396  21.508  1.00  0.00     0.049 C 
ATOM     18  O   UNL     1      43.939 130.416  21.897  1.00  0.00    -0.547 OA
BRANCH  17  19
ATOM     19  O   UNL     1      42.285 132.078  22.466  1.00  0.00    -0.601 OA
BRANCH  19  20
ATOM     20  C   UNL     1      42.838 132.510  23.700  1.00  0.00     0.160 C 
BRANCH  20  21
ATOM     21  C   UNL     1      43.757 133.619  23.451  1.00  0.00    -0.095 C 
ATOM     22  C   UNL     1      44.519 134.529  23.243  1.00  0.00     0.005 C 
ENDBRANCH  20  21
ENDBRANCH  19  20
ENDBRANCH  17  19
ENDBRANCH  16  17
ENDBRANCH   1  16
BRANCH   6  23
ATOM     23  N   UNL     1      40.417 135.148  15.526  1.00  0.00    -0.060 NA
BRANCH  23  24
ATOM     24  N   UNL     1      39.791 136.186  15.744  1.00  0.00     0.005 N 
ATOM     25  N   UNL     1      39.165 137.222  15.964  1.00  0.00    -0.003 NA
ENDBRANCH  23  24
ENDBRANCH   6  23
BRANCH  10  26
ATOM     26  O   UNL     1      44.570 130.155  14.976  1.00  0.00    -0.567 OA
BRANCH  26  27
ATOM     27  C   UNL     1      45.886 130.081  14.504  1.00  0.00     0.053 C 
ATOM     28  O   UNL     1      46.577 128.874  14.487  1.00  0.00    -0.547 OA
BRANCH  27  29
ATOM     29  C   UNL     1      46.499 131.183  14.066  1.00  0.00    -0.003 C 
BRANCH  29  30
ATOM     30  C   UNL     1      47.706 131.146  13.169  1.00  0.00     0.026 C 
ATOM     31  C   UNL     1      47.378 130.539  11.807  1.00  0.00     0.008 C 
ENDBRANCH  29  30
ENDBRANCH  27  29
ENDBRANCH  26  27
ENDBRANCH  10  26
TORSDOF 11
ENDMDL
MODEL 9
REMARK VINA RESULT:      -6.3      2.156      2.728
REMARK SMILES C#CCO/C([O-])=C\[C@H]1CC[C@H]2C(O/C([O-])=C\CC)=NC(=O)c3c(N=[N+]=[N-])cc(Cl)c1c32
REMARK SMILES IDX 8 1 30 2 28 3 29 4 27 5 23 6 22 7 31 8 11 9 12 10 19 11
REMARK SMILES IDX 20 12 21 13 10 14 9 15 7 16 5 17 6 18 4 19 3 20 2 21 1 22
REMARK SMILES IDX 24 23 25 24 26 25 13 26 14 27 15 28 16 29 17 30 18 31
REMARK H PARENT
ROOT
ATOM      1  C   UNL     1      40.402 134.116  14.868  1.00  0.00     0.045 C 
ATOM      2  C   UNL     1      40.481 133.995  16.386  1.00  0.00    -0.018 A 
ATOM      3  C   UNL     1      39.397 134.428  17.178  1.00  0.00     0.045 A 
ATOM      4  Cl  UNL     1      37.881 134.977  16.463  1.00  0.00    -0.084 Cl
ATOM      5  C   UNL     1      39.501 134.447  18.568  1.00  0.00     0.032 A 
ATOM      6  C   UNL     1      40.693 134.077  19.210  1.00  0.00     0.052 A 
ATOM      7  C   UNL     1      41.789 133.644  18.433  1.00  0.00     0.056 A 
ATOM      8  C   UNL     1      41.679 133.576  17.026  1.00  0.00    -0.020 A 
ATOM      9  C   UNL     1      42.784 132.895  16.228  1.00  0.00     0.077 C 
ATOM     10  C   UNL     1      44.144 133.000  16.891  1.00  0.00     0.091 C 
ATOM     11  N   UNL     1      44.244 133.142  18.179  1.00  0.00    -0.205 NA
ATOM     12  C   UNL     1      43.109 133.322  19.031  1.00  0.00     0.278 C 
ATOM     13  O   UNL     1      43.266 133.248  20.278  1.00  0.00    -0.267 OA
ATOM     14  C   UNL     1      42.829 133.403  14.782  1.00  0.00     0.016 C 
ATOM     15  C   UNL     1      41.450 133.251  14.144  1.00  0.00     0.014 C 
ENDROOT
BRANCH   1  16
ATOM     16  C   UNL     1      40.554 135.568  14.469  1.00  0.00     0.005 C 
BRANCH  16  17
ATOM     17  C   UNL     1      39.718 136.171  13.621  1.00  0.00     0.049 C 
ATOM     18  O   UNL     1      39.055 137.321  14.024  1.00  0.00    -0.547 OA
BRANCH  17  19
ATOM     19  O   UNL     1      39.510 135.653  12.342  1.00  0.00    -0.601 OA
BRANCH  19  20
ATOM     20  C   UNL     1      38.379 135.997  11.557  1.00  0.00     0.160 C 
BRANCH  20  21
ATOM     21  C   UNL     1      38.815 136.293  10.193  1.00  0.00    -0.095 C 
ATOM     22  C   UNL     1      39.177 136.543   9.071  1.00  0.00     0.005 C 
ENDBRANCH  20  21
ENDBRANCH  19  20
ENDBRANCH  17  19
ENDBRANCH  16  17
ENDBRANCH   1  16
BRANCH   6  23
ATOM     23  N   UNL     1      40.803 134.153  20.640  1.00  0.00    -0.060 NA
BRANCH  23  24
ATOM     24  N   UNL     1      39.846 134.419  21.369  1.00  0.00     0.005 N 
ATOM     25  N   UNL     1      38.891 134.684  22.098  1.00  0.00    -0.003 NA
ENDBRANCH  23  24
ENDBRANCH   6  23
BRANCH  10  26
ATOM     26  O   UNL     1      45.292 132.845  16.099  1.00  0.00    -0.567 OA
BRANCH  26  27
ATOM     27  C   UNL     1      45.911 131.631  15.779  1.00  0.00     0.053 C 
ATOM     28  O   UNL     1      45.878 130.554  16.659  1.00  0.00    -0.547 OA
BRANCH  27  29
ATOM     29  C   UNL     1      46.551 131.496  14.616  1.00  0.00    -0.003 C 
BRANCH  29  30
ATOM     30  C   UNL     1      46.039 130.630  13.497  1.00  0.00     0.026 C 
ATOM     31  C   UNL     1      47.024 130.575  12.331  1.00  0.00     0.008 C 
ENDBRANCH  29  30
ENDBRANCH  27  29
ENDBRANCH  26  27
ENDBRANCH  10  26
TORSDOF 11
ENDMDL


