REMARK SMILES CC[C@H]1C[C@@]1([NH3+])C(=O)Oc1c(C(=O)N=[N+]=[N-])cccc([O-])c(NC2(CF)COC2)c(N=[N+]=[N-])c(Cl)c1Cl
REMARK SMILES IDX 18 1 19 2 20 3 21 4 22 5 30 6 34 7 35 8 36 9 37 10 10 11
REMARK SMILES IDX 11 12 17 13 12 14 13 15 14 16 15 17 16 18 23 19 24 21 27 22
REMARK SMILES IDX 29 23 28 24 25 25 26 26 9 27 7 28 8 29 5 30 4 31 3 32 6 33
REMARK SMILES IDX 2 37 1 38 31 39 32 40 33 41
REMARK H PARENT 23 20 6 34 6 35 6 36
ROOT
ATOM      1  C   UNL     1       3.089  -2.722  -0.162  1.00  0.00     0.000 A 
ATOM      2  C   UNL     1       3.190  -2.003  -1.367  1.00  0.00    -0.006 A 
ATOM      3  C   UNL     1       2.214  -1.123  -1.881  1.00  0.00    -0.084 A 
ATOM      4  O   UNL     1       2.643  -0.124  -2.749  1.00  0.00    -0.871 OA
ATOM      5  C   UNL     1       0.837  -1.188  -1.564  1.00  0.00     0.038 A 
ATOM      6  C   UNL     1       0.222  -2.393  -1.152  1.00  0.00     0.080 A 
ATOM      7  C   UNL     1      -0.615  -2.466  -0.013  1.00  0.00     0.075 A 
ATOM      8  Cl  UNL     1      -1.741  -3.827   0.062  1.00  0.00    -0.082 Cl
ATOM      9  C   UNL     1      -0.600  -1.554   1.078  1.00  0.00     0.103 A 
ATOM     10  Cl  UNL     1      -2.019  -1.502   2.130  1.00  0.00    -0.079 Cl
ATOM     11  C   UNL     1       0.499  -0.729   1.444  1.00  0.00     0.162 A 
ATOM     12  C   UNL     1       1.842  -1.048   1.151  1.00  0.00     0.069 A 
ATOM     13  C   UNL     1       2.248  -2.371   0.904  1.00  0.00     0.016 A 
ENDROOT
BRANCH  12  14
ATOM     14  C   UNL     1       2.845   0.049   1.087  1.00  0.00     0.252 C 
ATOM     15  O   UNL     1       2.534   1.139   0.540  1.00  0.00    -0.287 OA
BRANCH  14  16
ATOM     16  N   UNL     1       4.168  -0.098   1.623  1.00  0.00    -0.017 NA
BRANCH  16  17
ATOM     17  N   UNL     1       4.482  -1.046   2.345  1.00  0.00     0.009 N 
ATOM     18  N   UNL     1       4.795  -1.990   3.068  1.00  0.00    -0.003 NA
ENDBRANCH  16  17
ENDBRANCH  14  16
ENDBRANCH  12  14
BRANCH   5  19
ATOM     19  N   UNL     1       0.054   0.012  -1.673  1.00  0.00    -0.373 N 
ATOM     20  H   UNL     1       0.467   0.882  -1.267  1.00  0.00     0.161 HD
BRANCH  19  21
ATOM     21  C   UNL     1      -1.103   0.132  -2.576  1.00  0.00     0.113 C 
ATOM     22  C   UNL     1      -0.762  -0.128  -4.031  1.00  0.00     0.193 C 
ATOM     23  C   UNL     1      -1.319   1.555  -3.068  1.00  0.00     0.193 C 
ATOM     24  O   UNL     1      -0.993   1.213  -4.395  1.00  0.00    -0.376 OA
BRANCH  21  25
ATOM     25  C   UNL     1      -2.372  -0.578  -2.073  1.00  0.00     0.247 C 
ATOM     26  F   UNL     1      -3.472  -0.277  -2.859  1.00  0.00    -0.248 F 
ENDBRANCH  21  25
ENDBRANCH  19  21
ENDBRANCH   5  19
BRANCH  11  27
ATOM     27  O   UNL     1       0.275   0.448   2.178  1.00  0.00    -0.419 OA
BRANCH  27  28
ATOM     28  C   UNL     1      -0.736   1.377   1.903  1.00  0.00     0.373 C 
ATOM     29  O   UNL     1      -1.383   1.332   0.821  1.00  0.00    -0.244 OA
BRANCH  28  30
ATOM     30  C   UNL     1      -1.064   2.424   2.927  1.00  0.00     0.196 C 
ATOM     31  C   UNL     1      -1.304   3.847   2.424  1.00  0.00     0.092 C 
ATOM     32  C   UNL     1      -0.048   3.525   3.239  1.00  0.00     0.069 C 
BRANCH  30  33
ATOM     33  N   UNL     1      -1.918   2.008   4.044  1.00  0.00    -0.343 N 
ATOM     34  H   UNL     1      -2.093   2.787   4.720  1.00  0.00     0.345 HD
ATOM     35  H   UNL     1      -2.835   1.677   3.666  1.00  0.00     0.345 HD
ATOM     36  H   UNL     1      -1.454   1.220   4.552  1.00  0.00     0.345 HD
ENDBRANCH  30  33
BRANCH  32  37
ATOM     37  C   UNL     1       1.263   3.532   2.437  1.00  0.00     0.007 C 
ATOM     38  C   UNL     1       1.942   4.893   2.533  1.00  0.00     0.004 C 
ENDBRANCH  32  37
ENDBRANCH  28  30
ENDBRANCH  27  28
ENDBRANCH  11  27
BRANCH   6  39
ATOM     39  N   UNL     1       0.429  -3.600  -1.907  1.00  0.00    -0.057 NA
BRANCH  39  40
ATOM     40  N   UNL     1       0.969  -3.605  -3.014  1.00  0.00     0.005 N 
ATOM     41  N   UNL     1       1.507  -3.612  -4.120  1.00  0.00    -0.003 NA
ENDBRANCH  39  40
ENDBRANCH   6  39
TORSDOF 13


