MODEL 1
REMARK VINA RESULT:      -6.7      0.000      0.000
REMARK SMILES CC[C@H]1C[C@]1(N)C(=O)Oc1ccccc(O)c(NC2(CF)COC2)c(N=[N+]=[N-])c(Cl)c1Cl
REMARK SMILES IDX 15 1 14 2 13 3 12 4 11 5 10 6 31 7 32 8 29 9 30 10 25 11
REMARK SMILES IDX 17 12 16 13 18 15 19 17 22 18 24 19 23 20 20 21 21 22 26 23
REMARK SMILES IDX 27 24 28 25 9 26 7 27 8 28 5 29 4 30 3 31 6 32 2 35 1 36
REMARK H PARENT 16 14 18 16 6 33 6 34
ROOT
ATOM      1  C   UNL     1      41.809 135.029  18.315  1.00  0.00     0.139 A 
ATOM      2  C   UNL     1      40.715 134.250  17.867  1.00  0.00     0.048 A 
ATOM      3  C   UNL     1      40.611 132.848  17.933  1.00  0.00     0.004 A 
ATOM      4  C   UNL     1      41.695 131.979  18.085  1.00  0.00     0.004 A 
ATOM      5  C   UNL     1      42.972 132.297  17.616  1.00  0.00     0.049 A 
ATOM      6  C   UNL     1      44.150 132.024  18.330  1.00  0.00     0.151 A 
ATOM      7  C   UNL     1      44.205 131.975  19.744  1.00  0.00     0.102 A 
ATOM      8  Cl  UNL     1      45.576 131.103  20.436  1.00  0.00    -0.079 Cl
ATOM      9  C   UNL     1      43.284 132.598  20.633  1.00  0.00     0.075 A 
ATOM     10  Cl  UNL     1      43.271 132.062  22.318  1.00  0.00    -0.082 Cl
ATOM     11  C   UNL     1      42.413 133.660  20.275  1.00  0.00     0.085 A 
ATOM     12  C   UNL     1      42.750 134.601  19.280  1.00  0.00     0.088 A 
ENDROOT
BRANCH   1  13
ATOM     13  O   UNL     1      41.981 136.301  17.767  1.00  0.00    -0.506 OA
ATOM     14  H   UNL     1      41.323 136.690  17.101  1.00  0.00     0.293 HD
ENDBRANCH   1  13
BRANCH  12  15
ATOM     15  N   UNL     1      44.068 135.180  19.242  1.00  0.00    -0.369 N 
ATOM     16  H   UNL     1      44.762 134.751  18.585  1.00  0.00     0.161 HD
BRANCH  15  17
ATOM     17  C   UNL     1      44.446 136.450  19.883  1.00  0.00     0.113 C 
ATOM     18  C   UNL     1      45.150 137.453  18.983  1.00  0.00     0.193 C 
ATOM     19  C   UNL     1      45.814 136.361  20.540  1.00  0.00     0.193 C 
ATOM     20  O   UNL     1      46.372 137.317  19.669  1.00  0.00    -0.376 OA
BRANCH  17  21
ATOM     21  C   UNL     1      43.345 137.025  20.790  1.00  0.00     0.247 C 
ATOM     22  F   UNL     1      43.119 138.367  20.529  1.00  0.00    -0.248 F 
ENDBRANCH  17  21
ENDBRANCH  15  17
ENDBRANCH  12  15
BRANCH  11  23
ATOM     23  N   UNL     1      41.122 133.798  20.895  1.00  0.00    -0.057 NA
BRANCH  23  24
ATOM     24  N   UNL     1      40.845 134.720  21.663  1.00  0.00     0.005 N 
ATOM     25  N   UNL     1      40.573 135.639  22.433  1.00  0.00    -0.003 NA
ENDBRANCH  23  24
ENDBRANCH  11  23
BRANCH   6  26
ATOM     26  O   UNL     1      45.368 131.883  17.646  1.00  0.00    -0.424 OA
BRANCH  26  27
ATOM     27  C   UNL     1      45.546 131.964  16.257  1.00  0.00     0.331 C 
ATOM     28  O   UNL     1      45.294 133.024  15.623  1.00  0.00    -0.250 OA
BRANCH  27  29
ATOM     29  C   UNL     1      46.029 130.757  15.516  1.00  0.00     0.118 C 
ATOM     30  C   UNL     1      44.988 130.010  14.692  1.00  0.00     0.040 C 
ATOM     31  C   UNL     1      46.076 130.826  13.990  1.00  0.00     0.022 C 
BRANCH  29  32
ATOM     32  N   UNL     1      47.001 129.890  16.178  1.00  0.00    -0.316 NA
ATOM     33  H   UNL     1      47.664 130.503  16.706  1.00  0.00     0.119 HD
ATOM     34  H   UNL     1      46.486 129.315  16.883  1.00  0.00     0.119 HD
ENDBRANCH  29  32
BRANCH  31  35
ATOM     35  C   UNL     1      47.132 129.980  13.260  1.00  0.00     0.003 C 
ATOM     36  C   UNL     1      47.268 130.436  11.812  1.00  0.00     0.004 C 
ENDBRANCH  31  35
ENDBRANCH  27  29
ENDBRANCH  26  27
ENDBRANCH   6  26
TORSDOF 11
ENDMDL
MODEL 2
REMARK VINA RESULT:      -6.5      1.260      1.528
REMARK SMILES CC[C@H]1C[C@]1(N)C(=O)Oc1ccccc(O)c(NC2(CF)COC2)c(N=[N+]=[N-])c(Cl)c1Cl
REMARK SMILES IDX 15 1 14 2 13 3 12 4 11 5 10 6 31 7 32 8 29 9 30 10 25 11
REMARK SMILES IDX 17 12 16 13 18 15 19 17 22 18 24 19 23 20 20 21 21 22 26 23
REMARK SMILES IDX 27 24 28 25 9 26 7 27 8 28 5 29 4 30 3 31 6 32 2 35 1 36
REMARK H PARENT 16 14 18 16 6 33 6 34
ROOT
ATOM      1  C   UNL     1      41.848 135.057  18.323  1.00  0.00     0.139 A 
ATOM      2  C   UNL     1      40.715 134.320  17.901  1.00  0.00     0.048 A 
ATOM      3  C   UNL     1      40.576 132.919  17.934  1.00  0.00     0.004 A 
ATOM      4  C   UNL     1      41.641 132.018  18.016  1.00  0.00     0.004 A 
ATOM      5  C   UNL     1      42.905 132.316  17.502  1.00  0.00     0.049 A 
ATOM      6  C   UNL     1      44.104 131.993  18.159  1.00  0.00     0.151 A 
ATOM      7  C   UNL     1      44.217 131.902  19.566  1.00  0.00     0.102 A 
ATOM      8  Cl  UNL     1      45.591 130.975  20.176  1.00  0.00    -0.079 Cl
ATOM      9  C   UNL     1      43.351 132.524  20.511  1.00  0.00     0.075 A 
ATOM     10  Cl  UNL     1      43.393 131.941  22.179  1.00  0.00    -0.082 Cl
ATOM     11  C   UNL     1      42.495 133.618  20.219  1.00  0.00     0.085 A 
ATOM     12  C   UNL     1      42.817 134.578  19.235  1.00  0.00     0.088 A 
ENDROOT
BRANCH   1  13
ATOM     13  O   UNL     1      42.031 136.339  17.803  1.00  0.00    -0.506 OA
ATOM     14  H   UNL     1      42.585 137.039  18.287  1.00  0.00     0.293 HD
ENDBRANCH   1  13
BRANCH  12  15
ATOM     15  N   UNL     1      44.147 135.123  19.158  1.00  0.00    -0.369 N 
ATOM     16  H   UNL     1      44.699 134.919  18.291  1.00  0.00     0.161 HD
BRANCH  15  17
ATOM     17  C   UNL     1      44.704 136.115  20.091  1.00  0.00     0.113 C 
ATOM     18  C   UNL     1      43.743 137.209  20.532  1.00  0.00     0.193 C 
ATOM     19  C   UNL     1      45.377 137.262  19.355  1.00  0.00     0.193 C 
ATOM     20  O   UNL     1      44.448 138.206  19.833  1.00  0.00    -0.376 OA
BRANCH  17  21
ATOM     21  C   UNL     1      45.560 135.489  21.206  1.00  0.00     0.247 C 
ATOM     22  F   UNL     1      46.086 134.267  20.819  1.00  0.00    -0.248 F 
ENDBRANCH  17  21
ENDBRANCH  15  17
ENDBRANCH  12  15
BRANCH  11  23
ATOM     23  N   UNL     1      41.235 133.772  20.895  1.00  0.00    -0.057 NA
BRANCH  23  24
ATOM     24  N   UNL     1      40.943 134.780  21.541  1.00  0.00     0.005 N 
ATOM     25  N   UNL     1      40.651 135.783  22.191  1.00  0.00    -0.003 NA
ENDBRANCH  23  24
ENDBRANCH  11  23
BRANCH   6  26
ATOM     26  O   UNL     1      45.289 131.839  17.419  1.00  0.00    -0.424 OA
BRANCH  26  27
ATOM     27  C   UNL     1      45.736 130.654  16.818  1.00  0.00     0.331 C 
ATOM     28  O   UNL     1      46.387 129.792  17.468  1.00  0.00    -0.250 OA
BRANCH  27  29
ATOM     29  C   UNL     1      45.448 130.422  15.368  1.00  0.00     0.118 C 
ATOM     30  C   UNL     1      44.794 131.574  14.617  1.00  0.00     0.040 C 
ATOM     31  C   UNL     1      46.255 131.214  14.342  1.00  0.00     0.022 C 
BRANCH  29  32
ATOM     32  N   UNL     1      44.969 129.101  14.969  1.00  0.00    -0.316 NA
ATOM     33  H   UNL     1      45.539 128.388  15.481  1.00  0.00     0.119 HD
ATOM     34  H   UNL     1      43.984 129.004  15.305  1.00  0.00     0.119 HD
ENDBRANCH  29  32
BRANCH  31  35
ATOM     35  C   UNL     1      46.503 130.575  12.966  1.00  0.00     0.003 C 
ATOM     36  C   UNL     1      47.817 129.801  12.969  1.00  0.00     0.004 C 
ENDBRANCH  31  35
ENDBRANCH  27  29
ENDBRANCH  26  27
ENDBRANCH   6  26
TORSDOF 11
ENDMDL
MODEL 3
REMARK VINA RESULT:      -6.4      2.557      2.910
REMARK SMILES CC[C@H]1C[C@]1(N)C(=O)Oc1ccccc(O)c(NC2(CF)COC2)c(N=[N+]=[N-])c(Cl)c1Cl
REMARK SMILES IDX 15 1 14 2 13 3 12 4 11 5 10 6 31 7 32 8 29 9 30 10 25 11
REMARK SMILES IDX 17 12 16 13 18 15 19 17 22 18 24 19 23 20 20 21 21 22 26 23
REMARK SMILES IDX 27 24 28 25 9 26 7 27 8 28 5 29 4 30 3 31 6 32 2 35 1 36
REMARK H PARENT 16 14 18 16 6 33 6 34
ROOT
ATOM      1  C   UNL     1      42.461 136.154  15.374  1.00  0.00     0.139 A 
ATOM      2  C   UNL     1      41.665 135.457  14.432  1.00  0.00     0.048 A 
ATOM      3  C   UNL     1      41.214 134.128  14.547  1.00  0.00     0.004 A 
ATOM      4  C   UNL     1      41.781 133.169  15.391  1.00  0.00     0.004 A 
ATOM      5  C   UNL     1      43.130 133.202  15.751  1.00  0.00     0.049 A 
ATOM      6  C   UNL     1      43.593 132.925  17.048  1.00  0.00     0.151 A 
ATOM      7  C   UNL     1      42.826 133.167  18.212  1.00  0.00     0.102 A 
ATOM      8  Cl  UNL     1      43.313 132.279  19.659  1.00  0.00    -0.079 Cl
ATOM      9  C   UNL     1      41.743 134.085  18.318  1.00  0.00     0.075 A 
ATOM     10  Cl  UNL     1      40.654 133.923  19.701  1.00  0.00    -0.082 Cl
ATOM     11  C   UNL     1      41.507 135.158  17.419  1.00  0.00     0.085 A 
ATOM     12  C   UNL     1      42.559 135.813  16.743  1.00  0.00     0.088 A 
ENDROOT
BRANCH   1  13
ATOM     13  O   UNL     1      43.206 137.246  14.927  1.00  0.00    -0.506 OA
ATOM     14  H   UNL     1      43.366 137.417  13.940  1.00  0.00     0.293 HD
ENDBRANCH   1  13
BRANCH  12  15
ATOM     15  N   UNL     1      43.759 136.182  17.448  1.00  0.00    -0.369 N 
ATOM     16  H   UNL     1      44.672 135.915  17.012  1.00  0.00     0.161 HD
BRANCH  15  17
ATOM     17  C   UNL     1      43.806 137.089  18.606  1.00  0.00     0.113 C 
ATOM     18  C   UNL     1      42.789 138.221  18.593  1.00  0.00     0.193 C 
ATOM     19  C   UNL     1      44.794 138.223  18.391  1.00  0.00     0.193 C 
ATOM     20  O   UNL     1      43.782 139.203  18.413  1.00  0.00    -0.376 OA
BRANCH  17  21
ATOM     21  C   UNL     1      43.968 136.355  19.948  1.00  0.00     0.247 C 
ATOM     22  F   UNL     1      44.811 135.261  19.832  1.00  0.00    -0.248 F 
ENDBRANCH  17  21
ENDBRANCH  15  17
ENDBRANCH  12  15
BRANCH  11  23
ATOM     23  N   UNL     1      40.169 135.601  17.130  1.00  0.00    -0.057 NA
BRANCH  23  24
ATOM     24  N   UNL     1      39.675 136.608  17.638  1.00  0.00     0.005 N 
ATOM     25  N   UNL     1      39.185 137.613  18.151  1.00  0.00    -0.003 NA
ENDBRANCH  23  24
ENDBRANCH  11  23
BRANCH   6  26
ATOM     26  O   UNL     1      44.910 132.476  17.241  1.00  0.00    -0.424 OA
BRANCH  26  27
ATOM     27  C   UNL     1      45.388 131.187  16.966  1.00  0.00     0.331 C 
ATOM     28  O   UNL     1      45.665 130.378  17.892  1.00  0.00    -0.250 OA
BRANCH  27  29
ATOM     29  C   UNL     1      45.591 130.775  15.542  1.00  0.00     0.118 C 
ATOM     30  C   UNL     1      46.382 131.739  14.667  1.00  0.00     0.040 C 
ATOM     31  C   UNL     1      47.005 130.408  15.096  1.00  0.00     0.022 C 
BRANCH  29  32
ATOM     32  N   UNL     1      44.481 130.120  14.855  1.00  0.00    -0.316 NA
ATOM     33  H   UNL     1      44.135 130.772  14.115  1.00  0.00     0.119 HD
ATOM     34  H   UNL     1      44.861 129.277  14.368  1.00  0.00     0.119 HD
ENDBRANCH  29  32
BRANCH  31  35
ATOM     35  C   UNL     1      47.164 129.386  13.960  1.00  0.00     0.003 C 
ATOM     36  C   UNL     1      48.554 129.487  13.345  1.00  0.00     0.004 C 
ENDBRANCH  31  35
ENDBRANCH  27  29
ENDBRANCH  26  27
ENDBRANCH   6  26
TORSDOF 11
ENDMDL
MODEL 4
REMARK VINA RESULT:      -6.4      3.848      5.298
REMARK SMILES CC[C@H]1C[C@]1(N)C(=O)Oc1ccccc(O)c(NC2(CF)COC2)c(N=[N+]=[N-])c(Cl)c1Cl
REMARK SMILES IDX 15 1 14 2 13 3 12 4 11 5 10 6 31 7 32 8 29 9 30 10 25 11
REMARK SMILES IDX 17 12 16 13 18 15 19 17 22 18 24 19 23 20 20 21 21 22 26 23
REMARK SMILES IDX 27 24 28 25 9 26 7 27 8 28 5 29 4 30 3 31 6 32 2 35 1 36
REMARK H PARENT 16 14 18 16 6 33 6 34
ROOT
ATOM      1  C   UNL     1      40.048 133.950  18.237  1.00  0.00     0.139 A 
ATOM      2  C   UNL     1      40.801 133.866  19.434  1.00  0.00     0.048 A 
ATOM      3  C   UNL     1      42.092 134.388  19.641  1.00  0.00     0.004 A 
ATOM      4  C   UNL     1      42.986 134.721  18.620  1.00  0.00     0.004 A 
ATOM      5  C   UNL     1      42.975 134.072  17.383  1.00  0.00     0.049 A 
ATOM      6  C   UNL     1      43.141 134.737  16.157  1.00  0.00     0.151 A 
ATOM      7  C   UNL     1      42.754 136.082  15.947  1.00  0.00     0.102 A 
ATOM      8  Cl  UNL     1      43.515 136.903  14.581  1.00  0.00    -0.079 Cl
ATOM      9  C   UNL     1      41.787 136.797  16.709  1.00  0.00     0.075 A 
ATOM     10  Cl  UNL     1      41.767 138.560  16.575  1.00  0.00    -0.082 Cl
ATOM     11  C   UNL     1      40.798 136.190  17.527  1.00  0.00     0.085 A 
ATOM     12  C   UNL     1      40.257 134.921  17.230  1.00  0.00     0.088 A 
ENDROOT
BRANCH   1  13
ATOM     13  O   UNL     1      39.038 133.011  18.027  1.00  0.00    -0.506 OA
ATOM     14  H   UNL     1      38.344 132.803  18.738  1.00  0.00     0.293 HD
ENDBRANCH   1  13
BRANCH  12  15
ATOM     15  N   UNL     1      39.870 134.592  15.883  1.00  0.00    -0.369 N 
ATOM     16  H   UNL     1      40.248 133.703  15.479  1.00  0.00     0.161 HD
BRANCH  15  17
ATOM     17  C   UNL     1      38.822 135.286  15.117  1.00  0.00     0.113 C 
ATOM     18  C   UNL     1      37.651 135.808  15.937  1.00  0.00     0.193 C 
ATOM     19  C   UNL     1      37.778 134.316  14.589  1.00  0.00     0.193 C 
ATOM     20  O   UNL     1      36.754 134.881  15.373  1.00  0.00    -0.376 OA
BRANCH  17  21
ATOM     21  C   UNL     1      39.380 136.254  14.059  1.00  0.00     0.247 C 
ATOM     22  F   UNL     1      39.195 137.576  14.431  1.00  0.00    -0.248 F 
ENDBRANCH  17  21
ENDBRANCH  15  17
ENDBRANCH  12  15
BRANCH  11  23
ATOM     23  N   UNL     1      40.331 136.836  18.725  1.00  0.00    -0.057 NA
BRANCH  23  24
ATOM     24  N   UNL     1      39.232 137.387  18.801  1.00  0.00     0.005 N 
ATOM     25  N   UNL     1      38.132 137.932  18.877  1.00  0.00    -0.003 NA
ENDBRANCH  23  24
ENDBRANCH  11  23
BRANCH   6  26
ATOM     26  O   UNL     1      43.623 134.037  15.039  1.00  0.00    -0.424 OA
BRANCH  26  27
ATOM     27  C   UNL     1      43.525 132.655  14.829  1.00  0.00     0.331 C 
ATOM     28  O   UNL     1      42.432 132.115  14.508  1.00  0.00    -0.250 OA
BRANCH  27  29
ATOM     29  C   UNL     1      44.743 131.804  15.008  1.00  0.00     0.118 C 
ATOM     30  C   UNL     1      44.532 130.461  15.695  1.00  0.00     0.040 C 
ATOM     31  C   UNL     1      44.841 130.514  14.197  1.00  0.00     0.022 C 
BRANCH  29  32
ATOM     32  N   UNL     1      45.994 132.467  15.366  1.00  0.00    -0.316 NA
ATOM     33  H   UNL     1      45.871 132.888  16.316  1.00  0.00     0.119 HD
ATOM     34  H   UNL     1      46.732 131.732  15.450  1.00  0.00     0.119 HD
ENDBRANCH  29  32
BRANCH  31  35
ATOM     35  C   UNL     1      46.240 130.001  13.818  1.00  0.00     0.003 C 
ATOM     36  C   UNL     1      46.674 130.582  12.477  1.00  0.00     0.004 C 
ENDBRANCH  31  35
ENDBRANCH  27  29
ENDBRANCH  26  27
ENDBRANCH   6  26
TORSDOF 11
ENDMDL
MODEL 5
REMARK VINA RESULT:      -6.4      2.972      4.137
REMARK SMILES CC[C@H]1C[C@]1(N)C(=O)Oc1ccccc(O)c(NC2(CF)COC2)c(N=[N+]=[N-])c(Cl)c1Cl
REMARK SMILES IDX 15 1 14 2 13 3 12 4 11 5 10 6 31 7 32 8 29 9 30 10 25 11
REMARK SMILES IDX 17 12 16 13 18 15 19 17 22 18 24 19 23 20 20 21 21 22 26 23
REMARK SMILES IDX 27 24 28 25 9 26 7 27 8 28 5 29 4 30 3 31 6 32 2 35 1 36
REMARK H PARENT 16 14 18 16 6 33 6 34
ROOT
ATOM      1  C   UNL     1      42.151 133.743  21.000  1.00  0.00     0.139 A 
ATOM      2  C   UNL     1      43.266 133.827  21.870  1.00  0.00     0.048 A 
ATOM      3  C   UNL     1      44.615 133.935  21.484  1.00  0.00     0.004 A 
ATOM      4  C   UNL     1      45.108 133.592  20.221  1.00  0.00     0.004 A 
ATOM      5  C   UNL     1      44.509 132.606  19.434  1.00  0.00     0.049 A 
ATOM      6  C   UNL     1      44.330 132.725  18.046  1.00  0.00     0.151 A 
ATOM      7  C   UNL     1      44.160 133.968  17.391  1.00  0.00     0.102 A 
ATOM      8  Cl  UNL     1      44.497 133.984  15.658  1.00  0.00    -0.079 Cl
ATOM      9  C   UNL     1      43.706 135.173  18.000  1.00  0.00     0.075 A 
ATOM     10  Cl  UNL     1      43.978 136.690  17.134  1.00  0.00    -0.082 Cl
ATOM     11  C   UNL     1      42.998 135.236  19.229  1.00  0.00     0.085 A 
ATOM     12  C   UNL     1      42.151 134.192  19.660  1.00  0.00     0.088 A 
ENDROOT
BRANCH   1  13
ATOM     13  O   UNL     1      40.975 133.175  21.490  1.00  0.00    -0.506 OA
ATOM     14  H   UNL     1      40.966 132.265  21.938  1.00  0.00     0.293 HD
ENDBRANCH   1  13
BRANCH  12  15
ATOM     15  N   UNL     1      41.232 133.575  18.739  1.00  0.00    -0.369 N 
ATOM     16  H   UNL     1      41.386 132.564  18.514  1.00  0.00     0.161 HD
BRANCH  15  17
ATOM     17  C   UNL     1      39.978 134.185  18.268  1.00  0.00     0.113 C 
ATOM     18  C   UNL     1      40.141 135.379  17.339  1.00  0.00     0.193 C 
ATOM     19  C   UNL     1      39.472 135.243  19.235  1.00  0.00     0.193 C 
ATOM     20  O   UNL     1      39.639 136.280  18.297  1.00  0.00    -0.376 OA
BRANCH  17  21
ATOM     21  C   UNL     1      38.918 133.152  17.848  1.00  0.00     0.247 C 
ATOM     22  F   UNL     1      37.777 133.248  18.628  1.00  0.00    -0.248 F 
ENDBRANCH  17  21
ENDBRANCH  15  17
ENDBRANCH  12  15
BRANCH  11  23
ATOM     23  N   UNL     1      43.148 136.363  20.111  1.00  0.00    -0.057 NA
BRANCH  23  24
ATOM     24  N   UNL     1      42.454 137.377  20.022  1.00  0.00     0.005 N 
ATOM     25  N   UNL     1      41.762 138.389  19.928  1.00  0.00    -0.003 NA
ENDBRANCH  23  24
ENDBRANCH  11  23
BRANCH   6  26
ATOM     26  O   UNL     1      44.213 131.572  17.252  1.00  0.00    -0.424 OA
BRANCH  26  27
ATOM     27  C   UNL     1      45.233 130.646  16.992  1.00  0.00     0.331 C 
ATOM     28  O   UNL     1      46.097 130.357  17.864  1.00  0.00    -0.250 OA
BRANCH  27  29
ATOM     29  C   UNL     1      45.303 130.003  15.643  1.00  0.00     0.118 C 
ATOM     30  C   UNL     1      44.569 130.718  14.516  1.00  0.00     0.040 C 
ATOM     31  C   UNL     1      46.099 130.716  14.551  1.00  0.00     0.022 C 
BRANCH  29  32
ATOM     32  N   UNL     1      45.228 128.546  15.574  1.00  0.00    -0.316 NA
ATOM     33  H   UNL     1      45.396 128.266  14.580  1.00  0.00     0.119 HD
ATOM     34  H   UNL     1      46.018 128.159  16.139  1.00  0.00     0.119 HD
ENDBRANCH  29  32
BRANCH  31  35
ATOM     35  C   UNL     1      46.758 129.858  13.458  1.00  0.00     0.003 C 
ATOM     36  C   UNL     1      47.154 130.726  12.269  1.00  0.00     0.004 C 
ENDBRANCH  31  35
ENDBRANCH  27  29
ENDBRANCH  26  27
ENDBRANCH   6  26
TORSDOF 11
ENDMDL
MODEL 6
REMARK VINA RESULT:      -6.3      3.581      4.745
REMARK SMILES CC[C@H]1C[C@]1(N)C(=O)Oc1ccccc(O)c(NC2(CF)COC2)c(N=[N+]=[N-])c(Cl)c1Cl
REMARK SMILES IDX 15 1 14 2 13 3 12 4 11 5 10 6 31 7 32 8 29 9 30 10 25 11
REMARK SMILES IDX 17 12 16 13 18 15 19 17 22 18 24 19 23 20 20 21 21 22 26 23
REMARK SMILES IDX 27 24 28 25 9 26 7 27 8 28 5 29 4 30 3 31 6 32 2 35 1 36
REMARK H PARENT 16 14 18 16 6 33 6 34
ROOT
ATOM      1  C   UNL     1      38.867 134.348  16.714  1.00  0.00     0.139 A 
ATOM      2  C   UNL     1      38.848 133.417  17.781  1.00  0.00     0.048 A 
ATOM      3  C   UNL     1      39.963 132.976  18.519  1.00  0.00     0.004 A 
ATOM      4  C   UNL     1      41.289 133.074  18.086  1.00  0.00     0.004 A 
ATOM      5  C   UNL     1      41.631 133.057  16.733  1.00  0.00     0.049 A 
ATOM      6  C   UNL     1      42.609 133.892  16.170  1.00  0.00     0.151 A 
ATOM      7  C   UNL     1      42.920 135.175  16.681  1.00  0.00     0.102 A 
ATOM      8  Cl  UNL     1      44.494 135.832  16.222  1.00  0.00    -0.079 Cl
ATOM      9  C   UNL     1      42.062 135.980  17.484  1.00  0.00     0.075 A 
ATOM     10  Cl  UNL     1      42.785 137.327  18.370  1.00  0.00    -0.082 Cl
ATOM     11  C   UNL     1      40.656 135.810  17.578  1.00  0.00     0.085 A 
ATOM     12  C   UNL     1      39.889 135.303  16.507  1.00  0.00     0.088 A 
ENDROOT
BRANCH   1  13
ATOM     13  O   UNL     1      37.814 134.323  15.799  1.00  0.00    -0.506 OA
ATOM     14  H   UNL     1      36.851 134.205  16.094  1.00  0.00     0.293 HD
ENDBRANCH   1  13
BRANCH  12  15
ATOM     15  N   UNL     1      40.111 135.777  15.166  1.00  0.00    -0.369 N 
ATOM     16  H   UNL     1      40.337 135.061  14.436  1.00  0.00     0.161 HD
BRANCH  15  17
ATOM     17  C   UNL     1      39.831 137.145  14.701  1.00  0.00     0.113 C 
ATOM     18  C   UNL     1      38.585 137.791  15.287  1.00  0.00     0.193 C 
ATOM     19  C   UNL     1      39.006 137.146  13.425  1.00  0.00     0.193 C 
ATOM     20  O   UNL     1      37.908 137.767  14.052  1.00  0.00    -0.376 OA
BRANCH  17  21
ATOM     21  C   UNL     1      41.083 138.038  14.647  1.00  0.00     0.247 C 
ATOM     22  F   UNL     1      41.315 138.664  15.861  1.00  0.00    -0.248 F 
ENDBRANCH  17  21
ENDBRANCH  15  17
ENDBRANCH  12  15
BRANCH  11  23
ATOM     23  N   UNL     1      39.955 136.116  18.797  1.00  0.00    -0.057 NA
BRANCH  23  24
ATOM     24  N   UNL     1      39.312 137.155  18.955  1.00  0.00     0.005 N 
ATOM     25  N   UNL     1      38.668 138.191  19.107  1.00  0.00    -0.003 NA
ENDBRANCH  23  24
ENDBRANCH  11  23
BRANCH   6  26
ATOM     26  O   UNL     1      43.263 133.509  14.987  1.00  0.00    -0.424 OA
BRANCH  26  27
ATOM     27  C   UNL     1      43.461 132.193  14.546  1.00  0.00     0.331 C 
ATOM     28  O   UNL     1      42.558 131.563  13.931  1.00  0.00    -0.250 OA
BRANCH  27  29
ATOM     29  C   UNL     1      44.767 131.521  14.830  1.00  0.00     0.118 C 
ATOM     30  C   UNL     1      44.690 130.123  15.429  1.00  0.00     0.040 C 
ATOM     31  C   UNL     1      45.149 130.309  13.981  1.00  0.00     0.022 C 
BRANCH  29  32
ATOM     32  N   UNL     1      45.857 132.338  15.358  1.00  0.00    -0.316 NA
ATOM     33  H   UNL     1      45.479 132.887  16.165  1.00  0.00     0.119 HD
ATOM     34  H   UNL     1      46.584 131.691  15.741  1.00  0.00     0.119 HD
ENDBRANCH  29  32
BRANCH  31  35
ATOM     35  C   UNL     1      46.642 130.030  13.746  1.00  0.00     0.003 C 
ATOM     36  C   UNL     1      47.101 130.663  12.438  1.00  0.00     0.004 C 
ENDBRANCH  31  35
ENDBRANCH  27  29
ENDBRANCH  26  27
ENDBRANCH   6  26
TORSDOF 11
ENDMDL
MODEL 7
REMARK VINA RESULT:      -6.3      2.997      4.164
REMARK SMILES CC[C@H]1C[C@]1(N)C(=O)Oc1ccccc(O)c(NC2(CF)COC2)c(N=[N+]=[N-])c(Cl)c1Cl
REMARK SMILES IDX 15 1 14 2 13 3 12 4 11 5 10 6 31 7 32 8 29 9 30 10 25 11
REMARK SMILES IDX 17 12 16 13 18 15 19 17 22 18 24 19 23 20 20 21 21 22 26 23
REMARK SMILES IDX 27 24 28 25 9 26 7 27 8 28 5 29 4 30 3 31 6 32 2 35 1 36
REMARK H PARENT 16 14 18 16 6 33 6 34
ROOT
ATOM      1  C   UNL     1      43.187 136.319  19.104  1.00  0.00     0.139 A 
ATOM      2  C   UNL     1      43.380 137.591  18.512  1.00  0.00     0.048 A 
ATOM      3  C   UNL     1      43.304 137.889  17.138  1.00  0.00     0.004 A 
ATOM      4  C   UNL     1      43.412 136.942  16.115  1.00  0.00     0.004 A 
ATOM      5  C   UNL     1      44.157 135.771  16.264  1.00  0.00     0.049 A 
ATOM      6  C   UNL     1      43.733 134.517  15.793  1.00  0.00     0.151 A 
ATOM      7  C   UNL     1      42.370 134.155  15.675  1.00  0.00     0.102 A 
ATOM      8  Cl  UNL     1      42.017 132.811  14.584  1.00  0.00    -0.079 Cl
ATOM      9  C   UNL     1      41.288 134.747  16.386  1.00  0.00     0.075 A 
ATOM     10  Cl  UNL     1      39.650 134.463  15.786  1.00  0.00    -0.082 Cl
ATOM     11  C   UNL     1      41.428 135.505  17.579  1.00  0.00     0.085 A 
ATOM     12  C   UNL     1      42.466 135.261  18.503  1.00  0.00     0.088 A 
ENDROOT
BRANCH   1  13
ATOM     13  O   UNL     1      43.747 136.085  20.360  1.00  0.00    -0.506 OA
ATOM     14  H   UNL     1      44.150 136.833  20.915  1.00  0.00     0.293 HD
ENDBRANCH   1  13
BRANCH  12  15
ATOM     15  N   UNL     1      42.799 133.914  18.885  1.00  0.00    -0.369 N 
ATOM     16  H   UNL     1      43.665 133.497  18.470  1.00  0.00     0.161 HD
BRANCH  15  17
ATOM     17  C   UNL     1      42.146 133.164  19.971  1.00  0.00     0.113 C 
ATOM     18  C   UNL     1      43.063 132.716  21.099  1.00  0.00     0.193 C 
ATOM     19  C   UNL     1      42.094 131.675  19.671  1.00  0.00     0.193 C 
ATOM     20  O   UNL     1      42.936 131.356  20.755  1.00  0.00    -0.376 OA
BRANCH  17  21
ATOM     21  C   UNL     1      40.800 133.769  20.405  1.00  0.00     0.247 C 
ATOM     22  F   UNL     1      39.791 133.466  19.505  1.00  0.00    -0.248 F 
ENDBRANCH  17  21
ENDBRANCH  15  17
ENDBRANCH  12  15
BRANCH  11  23
ATOM     23  N   UNL     1      40.529 136.589  17.875  1.00  0.00    -0.057 NA
BRANCH  23  24
ATOM     24  N   UNL     1      39.484 136.434  18.509  1.00  0.00     0.005 N 
ATOM     25  N   UNL     1      38.438 136.277  19.137  1.00  0.00    -0.003 NA
ENDBRANCH  23  24
ENDBRANCH  11  23
BRANCH   6  26
ATOM     26  O   UNL     1      44.679 133.519  15.506  1.00  0.00    -0.424 OA
BRANCH  26  27
ATOM     27  C   UNL     1      45.053 132.470  16.358  1.00  0.00     0.331 C 
ATOM     28  O   UNL     1      44.821 132.515  17.597  1.00  0.00    -0.250 OA
BRANCH  27  29
ATOM     29  C   UNL     1      45.759 131.284  15.782  1.00  0.00     0.118 C 
ATOM     30  C   UNL     1      45.060 130.577  14.628  1.00  0.00     0.040 C 
ATOM     31  C   UNL     1      46.322 131.402  14.367  1.00  0.00     0.022 C 
BRANCH  29  32
ATOM     32  N   UNL     1      46.448 130.384  16.704  1.00  0.00    -0.316 NA
ATOM     33  H   UNL     1      45.909 130.374  17.600  1.00  0.00     0.119 HD
ATOM     34  H   UNL     1      46.397 129.418  16.305  1.00  0.00     0.119 HD
ENDBRANCH  29  32
BRANCH  31  35
ATOM     35  C   UNL     1      47.563 130.569  14.009  1.00  0.00     0.003 C 
ATOM     36  C   UNL     1      47.432 129.999  12.601  1.00  0.00     0.004 C 
ENDBRANCH  31  35
ENDBRANCH  27  29
ENDBRANCH  26  27
ENDBRANCH   6  26
TORSDOF 11
ENDMDL
MODEL 8
REMARK VINA RESULT:      -6.1      2.708      4.045
REMARK SMILES CC[C@H]1C[C@]1(N)C(=O)Oc1ccccc(O)c(NC2(CF)COC2)c(N=[N+]=[N-])c(Cl)c1Cl
REMARK SMILES IDX 15 1 14 2 13 3 12 4 11 5 10 6 31 7 32 8 29 9 30 10 25 11
REMARK SMILES IDX 17 12 16 13 18 15 19 17 22 18 24 19 23 20 20 21 21 22 26 23
REMARK SMILES IDX 27 24 28 25 9 26 7 27 8 28 5 29 4 30 3 31 6 32 2 35 1 36
REMARK H PARENT 16 14 18 16 6 33 6 34
ROOT
ATOM      1  C   UNL     1      43.158 131.862  21.719  1.00  0.00     0.139 A 
ATOM      2  C   UNL     1      44.393 131.246  22.035  1.00  0.00     0.048 A 
ATOM      3  C   UNL     1      45.567 131.292  21.260  1.00  0.00     0.004 A 
ATOM      4  C   UNL     1      45.607 131.610  19.899  1.00  0.00     0.004 A 
ATOM      5  C   UNL     1      44.534 131.348  19.045  1.00  0.00     0.049 A 
ATOM      6  C   UNL     1      44.102 132.238  18.048  1.00  0.00     0.151 A 
ATOM      7  C   UNL     1      44.247 133.642  18.147  1.00  0.00     0.102 A 
ATOM      8  Cl  UNL     1      44.169 134.539  16.628  1.00  0.00    -0.079 Cl
ATOM      9  C   UNL     1      44.404 134.378  19.356  1.00  0.00     0.075 A 
ATOM     10  Cl  UNL     1      45.001 136.038  19.242  1.00  0.00    -0.082 Cl
ATOM     11  C   UNL     1      44.062 133.890  20.645  1.00  0.00     0.085 A 
ATOM     12  C   UNL     1      43.017 132.962  20.841  1.00  0.00     0.088 A 
ENDROOT
BRANCH   1  13
ATOM     13  O   UNL     1      41.998 131.351  22.302  1.00  0.00    -0.506 OA
ATOM     14  H   UNL     1      41.387 130.711  21.807  1.00  0.00     0.293 HD
ENDBRANCH   1  13
BRANCH  12  15
ATOM     15  N   UNL     1      41.756 133.133  20.167  1.00  0.00    -0.369 N 
ATOM     16  H   UNL     1      41.334 132.286  19.718  1.00  0.00     0.161 HD
BRANCH  15  17
ATOM     17  C   UNL     1      40.918 134.340  20.249  1.00  0.00     0.113 C 
ATOM     18  C   UNL     1      41.516 135.499  21.031  1.00  0.00     0.193 C 
ATOM     19  C   UNL     1      39.963 134.280  21.430  1.00  0.00     0.193 C 
ATOM     20  O   UNL     1      40.572 135.377  22.069  1.00  0.00    -0.376 OA
BRANCH  17  21
ATOM     21  C   UNL     1      40.250 134.710  18.913  1.00  0.00     0.247 C 
ATOM     22  F   UNL     1      41.190 134.974  17.930  1.00  0.00    -0.248 F 
ENDBRANCH  17  21
ENDBRANCH  15  17
ENDBRANCH  12  15
BRANCH  11  23
ATOM     23  N   UNL     1      44.800 134.299  21.810  1.00  0.00    -0.057 NA
BRANCH  23  24
ATOM     24  N   UNL     1      46.019 134.478  21.799  1.00  0.00     0.005 N 
ATOM     25  N   UNL     1      47.237 134.651  21.788  1.00  0.00    -0.003 NA
ENDBRANCH  23  24
ENDBRANCH  11  23
BRANCH   6  26
ATOM     26  O   UNL     1      43.405 131.753  16.929  1.00  0.00    -0.424 OA
BRANCH  26  27
ATOM     27  C   UNL     1      43.923 131.611  15.634  1.00  0.00     0.331 C 
ATOM     28  O   UNL     1      43.365 132.151  14.640  1.00  0.00    -0.250 OA
BRANCH  27  29
ATOM     29  C   UNL     1      45.154 130.785  15.430  1.00  0.00     0.118 C 
ATOM     30  C   UNL     1      44.937 129.291  15.228  1.00  0.00     0.040 C 
ATOM     31  C   UNL     1      45.380 130.165  14.053  1.00  0.00     0.022 C 
BRANCH  29  32
ATOM     32  N   UNL     1      46.338 131.115  16.219  1.00  0.00    -0.316 NA
ATOM     33  H   UNL     1      46.375 132.156  16.315  1.00  0.00     0.119 HD
ATOM     34  H   UNL     1      46.201 130.724  17.179  1.00  0.00     0.119 HD
ENDBRANCH  29  32
BRANCH  31  35
ATOM     35  C   UNL     1      46.828 129.928  13.595  1.00  0.00     0.003 C 
ATOM     36  C   UNL     1      47.063 130.558  12.227  1.00  0.00     0.004 C 
ENDBRANCH  31  35
ENDBRANCH  27  29
ENDBRANCH  26  27
ENDBRANCH   6  26
TORSDOF 11
ENDMDL
MODEL 9
REMARK VINA RESULT:      -5.9      2.706      3.250
REMARK SMILES CC[C@H]1C[C@]1(N)C(=O)Oc1ccccc(O)c(NC2(CF)COC2)c(N=[N+]=[N-])c(Cl)c1Cl
REMARK SMILES IDX 15 1 14 2 13 3 12 4 11 5 10 6 31 7 32 8 29 9 30 10 25 11
REMARK SMILES IDX 17 12 16 13 18 15 19 17 22 18 24 19 23 20 20 21 21 22 26 23
REMARK SMILES IDX 27 24 28 25 9 26 7 27 8 28 5 29 4 30 3 31 6 32 2 35 1 36
REMARK H PARENT 16 14 18 16 6 33 6 34
ROOT
ATOM      1  C   UNL     1      43.585 136.221  17.228  1.00  0.00     0.139 A 
ATOM      2  C   UNL     1      43.125 136.672  15.967  1.00  0.00     0.048 A 
ATOM      3  C   UNL     1      42.169 136.034  15.155  1.00  0.00     0.004 A 
ATOM      4  C   UNL     1      41.809 134.687  15.262  1.00  0.00     0.004 A 
ATOM      5  C   UNL     1      42.699 133.717  15.728  1.00  0.00     0.049 A 
ATOM      6  C   UNL     1      42.328 132.681  16.601  1.00  0.00     0.151 A 
ATOM      7  C   UNL     1      41.280 132.801  17.545  1.00  0.00     0.102 A 
ATOM      8  Cl  UNL     1      40.602 131.285  18.147  1.00  0.00    -0.079 Cl
ATOM      9  C   UNL     1      40.770 134.022  18.070  1.00  0.00     0.075 A 
ATOM     10  Cl  UNL     1      39.202 133.982  18.883  1.00  0.00    -0.082 Cl
ATOM     11  C   UNL     1      41.461 135.263  18.035  1.00  0.00     0.085 A 
ATOM     12  C   UNL     1      42.869 135.337  18.068  1.00  0.00     0.088 A 
ENDROOT
BRANCH   1  13
ATOM     13  O   UNL     1      44.829 136.669  17.675  1.00  0.00    -0.506 OA
ATOM     14  H   UNL     1      44.976 137.626  17.979  1.00  0.00     0.293 HD
ENDBRANCH   1  13
BRANCH  12  15
ATOM     15  N   UNL     1      43.619 134.527  18.993  1.00  0.00    -0.369 N 
ATOM     16  H   UNL     1      44.315 133.857  18.589  1.00  0.00     0.161 HD
BRANCH  15  17
ATOM     17  C   UNL     1      43.642 134.722  20.452  1.00  0.00     0.113 C 
ATOM     18  C   UNL     1      43.495 136.161  20.922  1.00  0.00     0.193 C 
ATOM     19  C   UNL     1      45.060 134.892  20.972  1.00  0.00     0.193 C 
ATOM     20  O   UNL     1      44.821 136.215  21.393  1.00  0.00    -0.376 OA
BRANCH  17  21
ATOM     21  C   UNL     1      42.808 133.681  21.219  1.00  0.00     0.247 C 
ATOM     22  F   UNL     1      43.142 133.650  22.563  1.00  0.00    -0.248 F 
ENDBRANCH  17  21
ENDBRANCH  15  17
ENDBRANCH  12  15
BRANCH  11  23
ATOM     23  N   UNL     1      40.743 136.505  17.925  1.00  0.00    -0.057 NA
BRANCH  23  24
ATOM     24  N   UNL     1      39.670 136.605  17.328  1.00  0.00     0.005 N 
ATOM     25  N   UNL     1      38.598 136.710  16.735  1.00  0.00    -0.003 NA
ENDBRANCH  23  24
ENDBRANCH  11  23
BRANCH   6  26
ATOM     26  O   UNL     1      43.071 131.489  16.631  1.00  0.00    -0.424 OA
BRANCH  26  27
ATOM     27  C   UNL     1      44.465 131.391  16.743  1.00  0.00     0.331 C 
ATOM     28  O   UNL     1      45.093 131.976  17.667  1.00  0.00    -0.250 OA
BRANCH  27  29
ATOM     29  C   UNL     1      45.221 130.590  15.730  1.00  0.00     0.118 C 
ATOM     30  C   UNL     1      44.790 130.758  14.279  1.00  0.00     0.040 C 
ATOM     31  C   UNL     1      46.124 131.340  14.753  1.00  0.00     0.022 C 
BRANCH  29  32
ATOM     32  N   UNL     1      45.605 129.226  16.085  1.00  0.00    -0.316 NA
ATOM     33  H   UNL     1      46.650 129.187  16.110  1.00  0.00     0.119 HD
ATOM     34  H   UNL     1      45.268 129.043  17.058  1.00  0.00     0.119 HD
ENDBRANCH  29  32
BRANCH  31  35
ATOM     35  C   UNL     1      47.363 130.612  14.208  1.00  0.00     0.003 C 
ATOM     36  C   UNL     1      47.682 131.089  12.796  1.00  0.00     0.004 C 
ENDBRANCH  31  35
ENDBRANCH  27  29
ENDBRANCH  26  27
ENDBRANCH   6  26
TORSDOF 11
ENDMDL


