REMARK SMILES C[C@H]1CN(C(=O)[C@]2(N)C[C@H](CO)C2)CCC[NH2+]1
REMARK SMILES IDX 4 1 3 2 2 3 1 4 17 5 16 8 5 10 6 11 7 12 13 13 9 14 10 15
REMARK SMILES IDX 8 16 11 19 12 20 14 22 15 23
REMARK H PARENT 17 6 17 7 8 17 8 18 12 21
REMARK Flexibility Score:   15.900
ROOT
ATOM      1  N   UNL     1      -1.366  -0.023  -0.678  1.00  0.00    -0.335 N 
ENDROOT
BRANCH   1   2
ATOM      2  C   UNL     1      -1.537   0.292   0.747  1.00  0.00     0.184 C 
BRANCH   2   3
ATOM      3  C   UNL     1      -1.412   1.812   1.011  1.00  0.00     0.199 C 
ATOM      4  C   UNL     1      -2.049   2.178   2.362  1.00  0.00     0.077 C 
BRANCH   3   5
ATOM      5  N   UNL     1      -1.939   2.660  -0.088  1.00  0.00    -0.343 N 
ATOM      6  H   UNL     1      -2.039   3.642   0.263  1.00  0.00     0.346 HD
ATOM      7  H   UNL     1      -1.220   2.712  -0.847  1.00  0.00     0.346 HD
BRANCH   5   8
ATOM      8  C   UNL     1      -3.241   2.229  -0.644  1.00  0.00     0.262 CG0
ATOM      9  G   UNL     1      -3.075   1.313  -1.873  1.00  0.00     0.000 G0
ENDBRANCH   5   8
ENDBRANCH   3   5
ENDBRANCH   2   3
ENDBRANCH   1   2
BRANCH   1  10
ATOM     10  C   UNL     1      -0.062  -0.034  -1.296  1.00  0.00     0.242 C 
ATOM     11  O   UNL     1       0.074   0.442  -2.456  1.00  0.00    -0.273 OA
BRANCH  10  12
ATOM     12  C   UNL     1       1.157  -0.569  -0.569  1.00  0.00     0.096 C 
ATOM     13  C   UNL     1       2.226  -1.196  -1.484  1.00  0.00     0.038 C 
ATOM     14  C   UNL     1       0.933  -1.939   0.090  1.00  0.00     0.038 C 
ATOM     15  C   UNL     1       2.007  -2.551  -0.810  1.00  0.00     0.019 C 
BRANCH  12  16
ATOM     16  N   UNL     1       1.715   0.422   0.357  1.00  0.00    -0.317 NA
ATOM     17  H   UNL     1       2.551   0.026   0.847  1.00  0.00     0.119 HD
ATOM     18  H   UNL     1       2.051   1.240  -0.201  1.00  0.00     0.119 HD
ENDBRANCH  12  16
BRANCH  15  19
ATOM     19  C   UNL     1       1.476  -3.630  -1.762  1.00  0.00     0.159 C 
BRANCH  19  20
ATOM     20  O   UNL     1       1.156  -4.781  -1.032  1.00  0.00    -0.396 OA
ATOM     21  H   UNL     1       0.823  -5.442  -1.693  1.00  0.00     0.210 HD
ENDBRANCH  19  20
ENDBRANCH  15  19
ENDBRANCH  10  12
ENDBRANCH   1  10
BRANCH   1  22
ATOM     22  C   UNL     1      -2.569  -0.088  -1.515  1.00  0.00     0.125 C 
BRANCH  22  23
ATOM     23  C   UNL     1      -3.075   1.313  -1.873  1.00  0.00     0.083 CG0
ATOM     24  G   UNL     1      -3.241   2.229  -0.644  1.00  0.00     0.000 G0
ENDBRANCH  22  23
ENDBRANCH   1  22
TORSDOF 5


