REMARK SMILES Cc1cc(-n2cc(C[C@@H](C)NC(=O)[C@H](C)C#N)[nH+]n2)[nH+]c2ccc3ccccc3c12
REMARK SMILES IDX 9 1 10 2 8 3 7 4 5 5 6 6 19 7 18 8 4 10 2 11 3 12 30 13
REMARK SMILES IDX 29 14 21 15 20 16 28 17 24 18 22 19 27 20 23 21 25 22 26 23
REMARK SMILES IDX 1 24 11 26 12 27 13 29 14 30 15 31 16 32 17 33
REMARK H PARENT 18 9 20 25 11 28
ROOT
ATOM      1  C   UNL     1      -2.436   1.634   1.838  1.00  0.00     0.087 C 
ATOM      2  C   UNL     1      -2.096   3.088   1.485  1.00  0.00     0.031 C 
ENDROOT
BRANCH   1   3
ATOM      3  C   UNL     1      -2.937   0.857   0.604  1.00  0.00     0.110 C 
BRANCH   3   4
ATOM      4  C   UNL     1      -1.855   0.673  -0.419  1.00  0.00     0.167 A 
ATOM      5  N   UNL     1      -0.045   0.019  -1.456  1.00  0.00    -0.065 N 
ATOM      6  C   UNL     1      -0.808  -0.222  -0.368  1.00  0.00     0.285 A 
ATOM      7  N   UNL     1      -0.593   1.022  -2.130  1.00  0.00     0.097 NA
ATOM      8  N   UNL     1      -1.691   1.432  -1.517  1.00  0.00    -0.147 N 
ATOM      9  H   UNL     1      -2.296   2.220  -1.838  1.00  0.00     0.342 HD
BRANCH   5  10
ATOM     10  C   UNL     1       1.177  -0.643  -1.837  1.00  0.00     0.308 A 
ATOM     11  C   UNL     1       3.176  -0.728  -3.220  1.00  0.00    -0.031 A 
ATOM     12  C   UNL     1       1.989  -0.092  -2.831  1.00  0.00     0.105 A 
ATOM     13  C   UNL     1       3.624  -1.875  -2.495  1.00  0.00     0.032 A 
ATOM     14  C   UNL     1       4.913  -2.491  -2.635  1.00  0.00    -0.007 A 
ATOM     15  C   UNL     1       2.692  -2.470  -1.596  1.00  0.00     0.133 A 
ATOM     16  N   UNL     1       1.524  -1.838  -1.284  1.00  0.00    -0.238 N 
ATOM     17  C   UNL     1       6.036  -1.831  -3.188  1.00  0.00     0.009 A 
ATOM     18  C   UNL     1       5.122  -3.793  -2.097  1.00  0.00    -0.017 A 
ATOM     19  C   UNL     1       2.953  -3.728  -1.039  1.00  0.00     0.053 A 
ATOM     20  C   UNL     1       7.255  -2.493  -3.354  1.00  0.00     0.001 A 
ATOM     21  C   UNL     1       4.128  -4.405  -1.331  1.00  0.00     0.013 A 
ATOM     22  C   UNL     1       6.348  -4.453  -2.284  1.00  0.00     0.009 A 
ATOM     23  C   UNL     1       7.402  -3.810  -2.929  1.00  0.00     0.001 A 
ATOM     24  C   UNL     1       3.814  -0.223  -4.492  1.00  0.00     0.045 C 
ATOM     25  H   UNL     1       0.871  -2.294  -0.609  1.00  0.00     0.312 HD
ENDBRANCH   5  10
ENDBRANCH   3   4
ENDBRANCH   1   3
BRANCH   1  26
ATOM     26  N   UNL     1      -3.458   1.611   2.890  1.00  0.00    -0.352 N 
ATOM     27  C   UNL     1      -3.145   1.859   4.270  1.00  0.00     0.237 C 
ATOM     28  H   UNL     1      -4.451   1.409   2.631  1.00  0.00     0.163 HD
ATOM     29  O   UNL     1      -1.952   2.075   4.620  1.00  0.00    -0.274 OA
BRANCH  27  30
ATOM     30  C   UNL     1      -4.240   1.882   5.302  1.00  0.00     0.178 C 
ATOM     31  C   UNL     1      -4.403   3.288   5.882  1.00  0.00     0.034 C 
BRANCH  30  32
ATOM     32  C   UNL     1      -3.942   0.919   6.372  1.00  0.00     0.075 C 
ATOM     33  N   UNL     1      -3.707   0.162   7.215  1.00  0.00    -0.197 NA
ENDBRANCH  30  32
ENDBRANCH  27  30
ENDBRANCH   1  26
TORSDOF 6


