MODEL 1
REMARK VINA RESULT:      -6.7      0.000      0.000
REMARK SMILES Cc1nnn(C/C(C#N)=N\c2cccc(C#N)c2C)c1-c1cc2ccccc2c2ccccc12
REMARK SMILES IDX 10 1 11 2 13 3 14 4 12 5 15 6 18 7 19 8 16 9 17 10 7 11 8 12
REMARK SMILES IDX 9 13 6 14 5 15 4 16 20 17 3 18 2 19 1 20 21 21 22 22 34 23
REMARK SMILES IDX 23 24 33 25 29 26 24 27 28 28 32 29 30 30 25 31 27 32 31 33
REMARK SMILES IDX 26 34
REMARK H PARENT
ROOT
ATOM      1  N   UNL     1      44.207 133.545  15.177  1.00  0.00    -0.240 NA
ENDROOT
BRANCH   1   2
ATOM      2  C   UNL     1      42.864 134.012  14.962  1.00  0.00     0.068 A 
ATOM      3  C   UNL     1      40.558 133.574  14.332  1.00  0.00     0.004 A 
ATOM      4  C   UNL     1      40.275 134.936  14.387  1.00  0.00     0.020 A 
ATOM      5  C   UNL     1      41.848 133.115  14.588  1.00  0.00     0.029 A 
ATOM      6  C   UNL     1      41.288 135.857  14.685  1.00  0.00     0.057 A 
ATOM      7  C   UNL     1      42.595 135.400  14.982  1.00  0.00    -0.008 A 
ATOM      8  C   UNL     1      43.718 136.380  15.232  1.00  0.00     0.048 C 
BRANCH   6   9
ATOM      9  C   UNL     1      40.959 137.262  14.673  1.00  0.00     0.099 C 
ATOM     10  N   UNL     1      40.693 138.388  14.664  1.00  0.00    -0.192 NA
ENDBRANCH   6   9
ENDBRANCH   1   2
BRANCH   1  11
ATOM     11  C   UNL     1      44.617 132.330  15.415  1.00  0.00     0.139 C 
BRANCH  11  12
ATOM     12  C   UNL     1      45.900 131.942  14.893  1.00  0.00     0.117 C 
ATOM     13  N   UNL     1      46.932 131.629  14.472  1.00  0.00    -0.191 NA
ENDBRANCH  11  12
BRANCH  11  14
ATOM     14  C   UNL     1      43.884 131.345  16.296  1.00  0.00     0.214 C 
BRANCH  14  15
ATOM     15  N   UNL     1      44.307 131.489  17.687  1.00  0.00    -0.238 N 
ATOM     16  N   UNL     1      45.279 130.778  18.239  1.00  0.00    -0.066 NA
ATOM     17  C   UNL     1      43.855 132.363  18.610  1.00  0.00     0.093 A 
ATOM     18  N   UNL     1      45.465 131.140  19.500  1.00  0.00    -0.135 NA
ATOM     19  C   UNL     1      44.576 132.118  19.763  1.00  0.00     0.088 A 
ATOM     20  C   UNL     1      44.454 132.810  21.083  1.00  0.00     0.071 C 
BRANCH  17  21
ATOM     21  C   UNL     1      42.751 133.335  18.428  1.00  0.00     0.010 A 
ATOM     22  C   UNL     1      41.470 132.828  18.207  1.00  0.00     0.019 A 
ATOM     23  C   UNL     1      42.947 134.733  18.522  1.00  0.00    -0.008 A 
ATOM     24  C   UNL     1      40.372 133.676  18.059  1.00  0.00    -0.017 A 
ATOM     25  C   UNL     1      44.242 135.269  18.692  1.00  0.00     0.009 A 
ATOM     26  C   UNL     1      41.830 135.619  18.421  1.00  0.00    -0.010 A 
ATOM     27  C   UNL     1      39.110 133.119  17.794  1.00  0.00     0.009 A 
ATOM     28  C   UNL     1      40.529 135.083  18.172  1.00  0.00    -0.010 A 
ATOM     29  C   UNL     1      44.437 136.641  18.816  1.00  0.00     0.001 A 
ATOM     30  C   UNL     1      42.066 137.010  18.562  1.00  0.00     0.009 A 
ATOM     31  C   UNL     1      37.997 133.940  17.633  1.00  0.00     0.001 A 
ATOM     32  C   UNL     1      39.376 135.892  18.009  1.00  0.00     0.009 A 
ATOM     33  C   UNL     1      43.353 137.506  18.762  1.00  0.00     0.001 A 
ATOM     34  C   UNL     1      38.130 135.321  17.740  1.00  0.00     0.001 A 
ENDBRANCH  17  21
ENDBRANCH  14  15
ENDBRANCH  11  14
ENDBRANCH   1  11
TORSDOF 7
ENDMDL
MODEL 2
REMARK VINA RESULT:      -6.2      1.139      1.723
REMARK SMILES Cc1nnn(C/C(C#N)=N\c2cccc(C#N)c2C)c1-c1cc2ccccc2c2ccccc12
REMARK SMILES IDX 10 1 11 2 13 3 14 4 12 5 15 6 18 7 19 8 16 9 17 10 7 11 8 12
REMARK SMILES IDX 9 13 6 14 5 15 4 16 20 17 3 18 2 19 1 20 21 21 22 22 34 23
REMARK SMILES IDX 23 24 33 25 29 26 24 27 28 28 32 29 30 30 25 31 27 32 31 33
REMARK SMILES IDX 26 34
REMARK H PARENT
ROOT
ATOM      1  N   UNL     1      42.567 133.203  14.770  1.00  0.00    -0.240 NA
ENDROOT
BRANCH   1   2
ATOM      2  C   UNL     1      42.242 134.604  14.791  1.00  0.00     0.068 A 
ATOM      3  C   UNL     1      42.891 136.911  15.199  1.00  0.00     0.004 A 
ATOM      4  C   UNL     1      41.578 137.326  14.988  1.00  0.00     0.020 A 
ATOM      5  C   UNL     1      43.217 135.558  15.130  1.00  0.00     0.029 A 
ATOM      6  C   UNL     1      40.574 136.387  14.722  1.00  0.00     0.057 A 
ATOM      7  C   UNL     1      40.899 135.012  14.615  1.00  0.00    -0.008 A 
ATOM      8  C   UNL     1      39.820 133.976  14.403  1.00  0.00     0.048 C 
BRANCH   6   9
ATOM      9  C   UNL     1      39.219 136.860  14.569  1.00  0.00     0.099 C 
ATOM     10  N   UNL     1      38.133 137.242  14.448  1.00  0.00    -0.192 NA
ENDBRANCH   6   9
ENDBRANCH   1   2
BRANCH   1  11
ATOM     11  C   UNL     1      43.679 132.621  15.125  1.00  0.00     0.139 C 
BRANCH  11  12
ATOM     12  C   UNL     1      44.070 131.433  14.415  1.00  0.00     0.117 C 
ATOM     13  N   UNL     1      44.385 130.478  13.843  1.00  0.00    -0.191 NA
ENDBRANCH  11  12
BRANCH  11  14
ATOM     14  C   UNL     1      44.635 133.177  16.156  1.00  0.00     0.214 C 
BRANCH  14  15
ATOM     15  N   UNL     1      44.468 132.487  17.433  1.00  0.00    -0.238 N 
ATOM     16  N   UNL     1      45.278 131.530  17.864  1.00  0.00    -0.066 NA
ATOM     17  C   UNL     1      43.547 132.715  18.391  1.00  0.00     0.093 A 
ATOM     18  N   UNL     1      44.904 131.107  19.063  1.00  0.00    -0.135 NA
ATOM     19  C   UNL     1      43.814 131.820  19.409  1.00  0.00     0.088 A 
ATOM     20  C   UNL     1      43.077 131.655  20.699  1.00  0.00     0.071 C 
BRANCH  17  21
ATOM     21  C   UNL     1      42.430 133.687  18.317  1.00  0.00     0.010 A 
ATOM     22  C   UNL     1      41.149 133.186  18.082  1.00  0.00     0.019 A 
ATOM     23  C   UNL     1      42.615 135.074  18.524  1.00  0.00    -0.008 A 
ATOM     24  C   UNL     1      40.040 134.031  18.032  1.00  0.00    -0.017 A 
ATOM     25  C   UNL     1      43.909 135.609  18.710  1.00  0.00     0.009 A 
ATOM     26  C   UNL     1      41.489 135.953  18.523  1.00  0.00    -0.010 A 
ATOM     27  C   UNL     1      38.778 133.485  17.749  1.00  0.00     0.009 A 
ATOM     28  C   UNL     1      40.187 135.426  18.260  1.00  0.00    -0.010 A 
ATOM     29  C   UNL     1      44.094 136.968  18.944  1.00  0.00     0.001 A 
ATOM     30  C   UNL     1      41.714 137.330  18.775  1.00  0.00     0.009 A 
ATOM     31  C   UNL     1      37.654 134.304  17.683  1.00  0.00     0.001 A 
ATOM     32  C   UNL     1      39.023 136.233  18.191  1.00  0.00     0.009 A 
ATOM     33  C   UNL     1      43.002 137.822  18.987  1.00  0.00     0.001 A 
ATOM     34  C   UNL     1      37.777 135.672  17.903  1.00  0.00     0.001 A 
ENDBRANCH  17  21
ENDBRANCH  14  15
ENDBRANCH  11  14
ENDBRANCH   1  11
TORSDOF 7
ENDMDL
MODEL 3
REMARK VINA RESULT:      -6.2      2.221      5.660
REMARK SMILES Cc1nnn(C/C(C#N)=N\c2cccc(C#N)c2C)c1-c1cc2ccccc2c2ccccc12
REMARK SMILES IDX 10 1 11 2 13 3 14 4 12 5 15 6 18 7 19 8 16 9 17 10 7 11 8 12
REMARK SMILES IDX 9 13 6 14 5 15 4 16 20 17 3 18 2 19 1 20 21 21 22 22 34 23
REMARK SMILES IDX 23 24 33 25 29 26 24 27 28 28 32 29 30 30 25 31 27 32 31 33
REMARK SMILES IDX 26 34
REMARK H PARENT
ROOT
ATOM      1  N   UNL     1      42.790 131.977  15.972  1.00  0.00    -0.240 NA
ENDROOT
BRANCH   1   2
ATOM      2  C   UNL     1      44.036 131.314  16.250  1.00  0.00     0.068 A 
ATOM      3  C   UNL     1      45.814 130.736  17.804  1.00  0.00     0.004 A 
ATOM      4  C   UNL     1      46.543 130.159  16.768  1.00  0.00     0.020 A 
ATOM      5  C   UNL     1      44.582 131.335  17.544  1.00  0.00     0.029 A 
ATOM      6  C   UNL     1      46.054 130.190  15.456  1.00  0.00     0.057 A 
ATOM      7  C   UNL     1      44.789 130.766  15.185  1.00  0.00    -0.008 A 
ATOM      8  C   UNL     1      44.277 130.877  13.767  1.00  0.00     0.048 C 
BRANCH   6   9
ATOM      9  C   UNL     1      46.873 129.631  14.407  1.00  0.00     0.099 C 
ATOM     10  N   UNL     1      47.532 129.181  13.568  1.00  0.00    -0.192 NA
ENDBRANCH   6   9
ENDBRANCH   1   2
BRANCH   1  11
ATOM     11  C   UNL     1      42.596 133.145  15.425  1.00  0.00     0.139 C 
BRANCH  11  12
ATOM     12  C   UNL     1      41.455 133.300  14.564  1.00  0.00     0.117 C 
ATOM     13  N   UNL     1      40.536 133.424  13.872  1.00  0.00    -0.191 NA
ENDBRANCH  11  12
BRANCH  11  14
ATOM     14  C   UNL     1      43.426 134.372  15.727  1.00  0.00     0.214 C 
BRANCH  14  15
ATOM     15  N   UNL     1      42.595 135.420  16.316  1.00  0.00    -0.238 N 
ATOM     16  N   UNL     1      41.862 136.265  15.605  1.00  0.00    -0.066 NA
ATOM     17  C   UNL     1      42.380 135.678  17.622  1.00  0.00     0.093 A 
ATOM     18  N   UNL     1      41.192 137.086  16.401  1.00  0.00    -0.135 NA
ATOM     19  C   UNL     1      41.510 136.751  17.667  1.00  0.00     0.088 A 
ATOM     20  C   UNL     1      40.962 137.434  18.879  1.00  0.00     0.071 C 
BRANCH  17  21
ATOM     21  C   UNL     1      43.018 134.988  18.768  1.00  0.00     0.010 A 
ATOM     22  C   UNL     1      42.502 133.748  19.147  1.00  0.00     0.019 A 
ATOM     23  C   UNL     1      44.144 135.517  19.441  1.00  0.00    -0.008 A 
ATOM     24  C   UNL     1      43.067 133.020  20.194  1.00  0.00    -0.017 A 
ATOM     25  C   UNL     1      44.649 136.794  19.109  1.00  0.00     0.009 A 
ATOM     26  C   UNL     1      44.768 134.768  20.486  1.00  0.00    -0.010 A 
ATOM     27  C   UNL     1      42.486 131.798  20.568  1.00  0.00     0.009 A 
ATOM     28  C   UNL     1      44.214 133.511  20.876  1.00  0.00    -0.010 A 
ATOM     29  C   UNL     1      45.774 137.305  19.747  1.00  0.00     0.001 A 
ATOM     30  C   UNL     1      45.919 135.317  21.107  1.00  0.00     0.009 A 
ATOM     31  C   UNL     1      43.021 131.053  21.615  1.00  0.00     0.001 A 
ATOM     32  C   UNL     1      44.739 132.726  21.934  1.00  0.00     0.009 A 
ATOM     33  C   UNL     1      46.412 136.566  20.733  1.00  0.00     0.001 A 
ATOM     34  C   UNL     1      44.144 131.515  22.295  1.00  0.00     0.001 A 
ENDBRANCH  17  21
ENDBRANCH  14  15
ENDBRANCH  11  14
ENDBRANCH   1  11
TORSDOF 7
ENDMDL
MODEL 4
REMARK VINA RESULT:      -6.0      2.647      5.134
REMARK SMILES Cc1nnn(C/C(C#N)=N\c2cccc(C#N)c2C)c1-c1cc2ccccc2c2ccccc12
REMARK SMILES IDX 10 1 11 2 13 3 14 4 12 5 15 6 18 7 19 8 16 9 17 10 7 11 8 12
REMARK SMILES IDX 9 13 6 14 5 15 4 16 20 17 3 18 2 19 1 20 21 21 22 22 34 23
REMARK SMILES IDX 23 24 33 25 29 26 24 27 28 28 32 29 30 30 25 31 27 32 31 33
REMARK SMILES IDX 26 34
REMARK H PARENT
ROOT
ATOM      1  N   UNL     1      40.320 133.930  20.055  1.00  0.00    -0.240 NA
ENDROOT
BRANCH   1   2
ATOM      2  C   UNL     1      40.231 134.555  18.762  1.00  0.00     0.068 A 
ATOM      3  C   UNL     1      39.559 136.431  17.371  1.00  0.00     0.004 A 
ATOM      4  C   UNL     1      39.906 135.718  16.226  1.00  0.00     0.020 A 
ATOM      5  C   UNL     1      39.692 135.845  18.629  1.00  0.00     0.029 A 
ATOM      6  C   UNL     1      40.376 134.403  16.329  1.00  0.00     0.057 A 
ATOM      7  C   UNL     1      40.548 133.809  17.603  1.00  0.00    -0.008 A 
ATOM      8  C   UNL     1      40.982 132.367  17.731  1.00  0.00     0.048 C 
BRANCH   6   9
ATOM      9  C   UNL     1      40.667 133.685  15.111  1.00  0.00     0.099 C 
ATOM     10  N   UNL     1      40.900 133.106  14.136  1.00  0.00    -0.192 NA
ENDBRANCH   6   9
ENDBRANCH   1   2
BRANCH   1  11
ATOM     11  C   UNL     1      41.202 134.130  20.995  1.00  0.00     0.139 C 
BRANCH  11  12
ATOM     12  C   UNL     1      41.048 135.296  21.821  1.00  0.00     0.117 C 
ATOM     13  N   UNL     1      40.924 136.235  22.486  1.00  0.00    -0.191 NA
ENDBRANCH  11  12
BRANCH  11  14
ATOM     14  C   UNL     1      42.305 133.157  21.341  1.00  0.00     0.214 C 
BRANCH  14  15
ATOM     15  N   UNL     1      43.534 133.874  21.675  1.00  0.00    -0.238 N 
ATOM     16  N   UNL     1      44.089 133.864  22.877  1.00  0.00    -0.066 NA
ATOM     17  C   UNL     1      44.326 134.596  20.856  1.00  0.00     0.093 A 
ATOM     18  N   UNL     1      45.207 134.576  22.882  1.00  0.00    -0.135 NA
ATOM     19  C   UNL     1      45.370 135.058  21.634  1.00  0.00     0.088 A 
ATOM     20  C   UNL     1      46.520 135.915  21.209  1.00  0.00     0.071 C 
BRANCH  17  21
ATOM     21  C   UNL     1      44.072 134.890  19.426  1.00  0.00     0.010 A 
ATOM     22  C   UNL     1      43.672 136.183  19.089  1.00  0.00     0.019 A 
ATOM     23  C   UNL     1      44.268 133.928  18.407  1.00  0.00    -0.008 A 
ATOM     24  C   UNL     1      43.445 136.548  17.762  1.00  0.00    -0.017 A 
ATOM     25  C   UNL     1      44.622 132.598  18.729  1.00  0.00     0.009 A 
ATOM     26  C   UNL     1      44.088 134.291  17.037  1.00  0.00    -0.010 A 
ATOM     27  C   UNL     1      43.001 137.850  17.478  1.00  0.00     0.009 A 
ATOM     28  C   UNL     1      43.657 135.614  16.713  1.00  0.00    -0.010 A 
ATOM     29  C   UNL     1      44.846 131.656  17.730  1.00  0.00     0.001 A 
ATOM     30  C   UNL     1      44.335 133.307  16.045  1.00  0.00     0.009 A 
ATOM     31  C   UNL     1      42.757 138.240  16.164  1.00  0.00     0.001 A 
ATOM     32  C   UNL     1      43.405 136.044  15.385  1.00  0.00     0.009 A 
ATOM     33  C   UNL     1      44.714 132.012  16.395  1.00  0.00     0.001 A 
ATOM     34  C   UNL     1      42.958 137.341  15.123  1.00  0.00     0.001 A 
ENDBRANCH  17  21
ENDBRANCH  14  15
ENDBRANCH  11  14
ENDBRANCH   1  11
TORSDOF 7
ENDMDL
MODEL 5
REMARK VINA RESULT:      -5.6      2.020      5.552
REMARK SMILES Cc1nnn(C/C(C#N)=N\c2cccc(C#N)c2C)c1-c1cc2ccccc2c2ccccc12
REMARK SMILES IDX 10 1 11 2 13 3 14 4 12 5 15 6 18 7 19 8 16 9 17 10 7 11 8 12
REMARK SMILES IDX 9 13 6 14 5 15 4 16 20 17 3 18 2 19 1 20 21 21 22 22 34 23
REMARK SMILES IDX 23 24 33 25 29 26 24 27 28 28 32 29 30 30 25 31 27 32 31 33
REMARK SMILES IDX 26 34
REMARK H PARENT
ROOT
ATOM      1  N   UNL     1      44.091 131.320  17.141  1.00  0.00    -0.240 NA
ENDROOT
BRANCH   1   2
ATOM      2  C   UNL     1      44.516 131.088  15.787  1.00  0.00     0.068 A 
ATOM      3  C   UNL     1      44.040 131.070  13.403  1.00  0.00     0.004 A 
ATOM      4  C   UNL     1      45.281 130.489  13.151  1.00  0.00     0.020 A 
ATOM      5  C   UNL     1      43.647 131.341  14.712  1.00  0.00     0.029 A 
ATOM      6  C   UNL     1      46.135 130.159  14.211  1.00  0.00     0.057 A 
ATOM      7  C   UNL     1      45.760 130.461  15.543  1.00  0.00    -0.008 A 
ATOM      8  C   UNL     1      46.633 130.046  16.705  1.00  0.00     0.048 C 
BRANCH   6   9
ATOM      9  C   UNL     1      47.384 129.505  13.904  1.00  0.00     0.099 C 
ATOM     10  N   UNL     1      48.386 128.980  13.654  1.00  0.00    -0.192 NA
ENDBRANCH   6   9
ENDBRANCH   1   2
BRANCH   1  11
ATOM     11  C   UNL     1      43.327 132.273  17.601  1.00  0.00     0.139 C 
BRANCH  11  12
ATOM     12  C   UNL     1      41.940 131.970  17.824  1.00  0.00     0.117 C 
ATOM     13  N   UNL     1      40.823 131.725  18.004  1.00  0.00    -0.191 NA
ENDBRANCH  11  12
BRANCH  11  14
ATOM     14  C   UNL     1      43.830 133.635  18.019  1.00  0.00     0.214 C 
BRANCH  14  15
ATOM     15  N   UNL     1      43.691 134.591  16.922  1.00  0.00    -0.238 N 
ATOM     16  N   UNL     1      44.557 134.699  15.925  1.00  0.00    -0.066 NA
ATOM     17  C   UNL     1      42.683 135.457  16.694  1.00  0.00     0.093 A 
ATOM     18  N   UNL     1      44.164 135.625  15.063  1.00  0.00    -0.135 NA
ATOM     19  C   UNL     1      43.003 136.126  15.528  1.00  0.00     0.088 A 
ATOM     20  C   UNL     1      42.217 137.200  14.844  1.00  0.00     0.071 C 
BRANCH  17  21
ATOM     21  C   UNL     1      41.511 135.687  17.571  1.00  0.00     0.010 A 
ATOM     22  C   UNL     1      41.716 136.391  18.758  1.00  0.00     0.019 A 
ATOM     23  C   UNL     1      40.207 135.266  17.221  1.00  0.00    -0.008 A 
ATOM     24  C   UNL     1      40.659 136.677  19.622  1.00  0.00    -0.017 A 
ATOM     25  C   UNL     1      39.984 134.506  16.051  1.00  0.00     0.009 A 
ATOM     26  C   UNL     1      39.101 135.588  18.066  1.00  0.00    -0.010 A 
ATOM     27  C   UNL     1      40.923 137.350  20.826  1.00  0.00     0.009 A 
ATOM     28  C   UNL     1      39.333 136.290  19.289  1.00  0.00    -0.010 A 
ATOM     29  C   UNL     1      38.700 134.115  15.686  1.00  0.00     0.001 A 
ATOM     30  C   UNL     1      37.805 135.182  17.657  1.00  0.00     0.009 A 
ATOM     31  C   UNL     1      39.890 137.642  21.712  1.00  0.00     0.001 A 
ATOM     32  C   UNL     1      38.301 136.607  20.209  1.00  0.00     0.009 A 
ATOM     33  C   UNL     1      37.615 134.460  16.480  1.00  0.00     0.001 A 
ATOM     34  C   UNL     1      38.584 137.272  21.404  1.00  0.00     0.001 A 
ENDBRANCH  17  21
ENDBRANCH  14  15
ENDBRANCH  11  14
ENDBRANCH   1  11
TORSDOF 7
ENDMDL
MODEL 6
REMARK VINA RESULT:      -5.6      2.644      5.901
REMARK SMILES Cc1nnn(C/C(C#N)=N\c2cccc(C#N)c2C)c1-c1cc2ccccc2c2ccccc12
REMARK SMILES IDX 10 1 11 2 13 3 14 4 12 5 15 6 18 7 19 8 16 9 17 10 7 11 8 12
REMARK SMILES IDX 9 13 6 14 5 15 4 16 20 17 3 18 2 19 1 20 21 21 22 22 34 23
REMARK SMILES IDX 23 24 33 25 29 26 24 27 28 28 32 29 30 30 25 31 27 32 31 33
REMARK SMILES IDX 26 34
REMARK H PARENT
ROOT
ATOM      1  N   UNL     1      38.710 135.388  15.495  1.00  0.00    -0.240 NA
ENDROOT
BRANCH   1   2
ATOM      2  C   UNL     1      38.680 136.500  14.582  1.00  0.00     0.068 A 
ATOM      3  C   UNL     1      38.656 138.897  14.183  1.00  0.00     0.004 A 
ATOM      4  C   UNL     1      38.464 138.677  12.822  1.00  0.00     0.020 A 
ATOM      5  C   UNL     1      38.735 137.819  15.063  1.00  0.00     0.029 A 
ATOM      6  C   UNL     1      38.332 137.373  12.328  1.00  0.00     0.057 A 
ATOM      7  C   UNL     1      38.445 136.268  13.207  1.00  0.00    -0.008 A 
ATOM      8  C   UNL     1      38.232 134.858  12.708  1.00  0.00     0.048 C 
BRANCH   6   9
ATOM      9  C   UNL     1      38.076 137.198  10.919  1.00  0.00     0.099 C 
ATOM     10  N   UNL     1      37.872 137.059   9.788  1.00  0.00    -0.192 NA
ENDBRANCH   6   9
ENDBRANCH   1   2
BRANCH   1  11
ATOM     11  C   UNL     1      39.712 134.943  16.202  1.00  0.00     0.139 C 
BRANCH  11  12
ATOM     12  C   UNL     1      39.434 134.458  17.526  1.00  0.00     0.117 C 
ATOM     13  N   UNL     1      39.211 134.068  18.593  1.00  0.00    -0.191 NA
ENDBRANCH  11  12
BRANCH  11  14
ATOM     14  C   UNL     1      41.122 134.801  15.677  1.00  0.00     0.214 C 
BRANCH  14  15
ATOM     15  N   UNL     1      42.021 135.725  16.367  1.00  0.00    -0.238 N 
ATOM     16  N   UNL     1      41.802 137.027  16.467  1.00  0.00    -0.066 NA
ATOM     17  C   UNL     1      43.150 135.438  17.045  1.00  0.00     0.093 A 
ATOM     18  N   UNL     1      42.764 137.610  17.168  1.00  0.00    -0.135 NA
ATOM     19  C   UNL     1      43.628 136.641  17.529  1.00  0.00     0.088 A 
ATOM     20  C   UNL     1      44.862 136.876  18.340  1.00  0.00     0.071 C 
BRANCH  17  21
ATOM     21  C   UNL     1      43.781 134.103  17.173  1.00  0.00     0.010 A 
ATOM     22  C   UNL     1      44.587 133.662  16.123  1.00  0.00     0.019 A 
ATOM     23  C   UNL     1      43.632 133.301  18.329  1.00  0.00    -0.008 A 
ATOM     24  C   UNL     1      45.241 132.432  16.181  1.00  0.00    -0.017 A 
ATOM     25  C   UNL     1      42.779 133.703  19.381  1.00  0.00     0.009 A 
ATOM     26  C   UNL     1      44.330 132.058  18.431  1.00  0.00    -0.010 A 
ATOM     27  C   UNL     1      46.006 132.013  15.080  1.00  0.00     0.009 A 
ATOM     28  C   UNL     1      45.134 131.613  17.337  1.00  0.00    -0.010 A 
ATOM     29  C   UNL     1      42.653 132.933  20.533  1.00  0.00     0.001 A 
ATOM     30  C   UNL     1      44.185 131.305  19.624  1.00  0.00     0.009 A 
ATOM     31  C   UNL     1      46.664 130.786  15.104  1.00  0.00     0.001 A 
ATOM     32  C   UNL     1      45.820 130.372  17.333  1.00  0.00     0.009 A 
ATOM     33  C   UNL     1      43.360 131.746  20.658  1.00  0.00     0.001 A 
ATOM     34  C   UNL     1      46.571 129.970  16.227  1.00  0.00     0.001 A 
ENDBRANCH  17  21
ENDBRANCH  14  15
ENDBRANCH  11  14
ENDBRANCH   1  11
TORSDOF 7
ENDMDL
MODEL 7
REMARK VINA RESULT:      -5.2      1.754      4.337
REMARK SMILES Cc1nnn(C/C(C#N)=N\c2cccc(C#N)c2C)c1-c1cc2ccccc2c2ccccc12
REMARK SMILES IDX 10 1 11 2 13 3 14 4 12 5 15 6 18 7 19 8 16 9 17 10 7 11 8 12
REMARK SMILES IDX 9 13 6 14 5 15 4 16 20 17 3 18 2 19 1 20 21 21 22 22 34 23
REMARK SMILES IDX 23 24 33 25 29 26 24 27 28 28 32 29 30 30 25 31 27 32 31 33
REMARK SMILES IDX 26 34
REMARK H PARENT
ROOT
ATOM      1  N   UNL     1      44.345 132.754  15.395  1.00  0.00    -0.240 NA
ENDROOT
BRANCH   1   2
ATOM      2  C   UNL     1      43.195 133.546  15.048  1.00  0.00     0.068 A 
ATOM      3  C   UNL     1      41.017 133.746  13.988  1.00  0.00     0.004 A 
ATOM      4  C   UNL     1      41.017 135.118  14.228  1.00  0.00     0.020 A 
ATOM      5  C   UNL     1      42.109 132.968  14.369  1.00  0.00     0.029 A 
ATOM      6  C   UNL     1      42.120 135.729  14.837  1.00  0.00     0.057 A 
ATOM      7  C   UNL     1      43.222 134.944  15.258  1.00  0.00    -0.008 A 
ATOM      8  C   UNL     1      44.452 135.593  15.849  1.00  0.00     0.048 C 
BRANCH   6   9
ATOM      9  C   UNL     1      42.099 137.161  15.010  1.00  0.00     0.099 C 
ATOM     10  N   UNL     1      42.080 138.310  15.151  1.00  0.00    -0.192 NA
ENDBRANCH   6   9
ENDBRANCH   1   2
BRANCH   1  11
ATOM     11  C   UNL     1      44.394 131.659  16.103  1.00  0.00     0.139 C 
BRANCH  11  12
ATOM     12  C   UNL     1      44.753 130.441  15.428  1.00  0.00     0.117 C 
ATOM     13  N   UNL     1      45.042 129.461  14.885  1.00  0.00    -0.191 NA
ENDBRANCH  11  12
BRANCH  11  14
ATOM     14  C   UNL     1      44.210 131.611  17.602  1.00  0.00     0.214 C 
BRANCH  14  15
ATOM     15  N   UNL     1      42.906 132.157  17.975  1.00  0.00    -0.238 N 
ATOM     16  N   UNL     1      41.754 131.686  17.523  1.00  0.00    -0.066 NA
ATOM     17  C   UNL     1      42.637 133.152  18.845  1.00  0.00     0.093 A 
ATOM     18  N   UNL     1      40.737 132.354  18.049  1.00  0.00    -0.135 NA
ATOM     19  C   UNL     1      41.263 133.287  18.868  1.00  0.00     0.088 A 
ATOM     20  C   UNL     1      40.451 134.257  19.666  1.00  0.00     0.071 C 
BRANCH  17  21
ATOM     21  C   UNL     1      43.635 133.976  19.568  1.00  0.00     0.010 A 
ATOM     22  C   UNL     1      43.969 135.217  19.024  1.00  0.00     0.019 A 
ATOM     23  C   UNL     1      44.208 133.571  20.796  1.00  0.00    -0.008 A 
ATOM     24  C   UNL     1      44.873 136.066  19.660  1.00  0.00    -0.017 A 
ATOM     25  C   UNL     1      43.925 132.298  21.339  1.00  0.00     0.009 A 
ATOM     26  C   UNL     1      45.101 134.444  21.491  1.00  0.00    -0.010 A 
ATOM     27  C   UNL     1      45.211 137.285  19.050  1.00  0.00     0.009 A 
ATOM     28  C   UNL     1      45.448 135.701  20.907  1.00  0.00    -0.010 A 
ATOM     29  C   UNL     1      44.461 131.906  22.561  1.00  0.00     0.001 A 
ATOM     30  C   UNL     1      45.620 134.016  22.739  1.00  0.00     0.009 A 
ATOM     31  C   UNL     1      46.118 138.150  19.657  1.00  0.00     0.001 A 
ATOM     32  C   UNL     1      46.364 136.606  21.503  1.00  0.00     0.009 A 
ATOM     33  C   UNL     1      45.296 132.765  23.262  1.00  0.00     0.001 A 
ATOM     34  C   UNL     1      46.691 137.811  20.878  1.00  0.00     0.001 A 
ENDBRANCH  17  21
ENDBRANCH  14  15
ENDBRANCH  11  14
ENDBRANCH   1  11
TORSDOF 7
ENDMDL
MODEL 8
REMARK VINA RESULT:      -5.2      2.090      4.499
REMARK SMILES Cc1nnn(C/C(C#N)=N\c2cccc(C#N)c2C)c1-c1cc2ccccc2c2ccccc12
REMARK SMILES IDX 10 1 11 2 13 3 14 4 12 5 15 6 18 7 19 8 16 9 17 10 7 11 8 12
REMARK SMILES IDX 9 13 6 14 5 15 4 16 20 17 3 18 2 19 1 20 21 21 22 22 34 23
REMARK SMILES IDX 23 24 33 25 29 26 24 27 28 28 32 29 30 30 25 31 27 32 31 33
REMARK SMILES IDX 26 34
REMARK H PARENT
ROOT
ATOM      1  N   UNL     1      44.265 131.655  18.425  1.00  0.00    -0.240 NA
ENDROOT
BRANCH   1   2
ATOM      2  C   UNL     1      44.029 131.766  17.010  1.00  0.00     0.068 A 
ATOM      3  C   UNL     1      42.573 132.360  15.157  1.00  0.00     0.004 A 
ATOM      4  C   UNL     1      43.496 131.839  14.254  1.00  0.00     0.020 A 
ATOM      5  C   UNL     1      42.822 132.299  16.527  1.00  0.00     0.029 A 
ATOM      6  C   UNL     1      44.673 131.236  14.714  1.00  0.00     0.057 A 
ATOM      7  C   UNL     1      44.953 131.198  16.102  1.00  0.00    -0.008 A 
ATOM      8  C   UNL     1      46.180 130.487  16.624  1.00  0.00     0.048 C 
BRANCH   6   9
ATOM      9  C   UNL     1      45.570 130.659  13.743  1.00  0.00     0.099 C 
ATOM     10  N   UNL     1      46.290 130.198  12.962  1.00  0.00    -0.192 NA
ENDBRANCH   6   9
ENDBRANCH   1   2
BRANCH   1  11
ATOM     11  C   UNL     1      44.469 132.608  19.292  1.00  0.00     0.139 C 
BRANCH  11  12
ATOM     12  C   UNL     1      45.172 132.274  20.501  1.00  0.00     0.117 C 
ATOM     13  N   UNL     1      45.738 132.005  21.474  1.00  0.00    -0.191 NA
ENDBRANCH  11  12
BRANCH  11  14
ATOM     14  C   UNL     1      44.116 134.059  19.056  1.00  0.00     0.214 C 
BRANCH  14  15
ATOM     15  N   UNL     1      43.002 134.460  19.914  1.00  0.00    -0.238 N 
ATOM     16  N   UNL     1      43.011 134.347  21.233  1.00  0.00    -0.066 NA
ATOM     17  C   UNL     1      41.840 135.041  19.554  1.00  0.00     0.093 A 
ATOM     18  N   UNL     1      41.884 134.813  21.751  1.00  0.00    -0.135 NA
ATOM     19  C   UNL     1      41.127 135.239  20.720  1.00  0.00     0.088 A 
ATOM     20  C   UNL     1      39.767 135.844  20.871  1.00  0.00     0.071 C 
BRANCH  17  21
ATOM     21  C   UNL     1      41.399 135.334  18.169  1.00  0.00     0.010 A 
ATOM     22  C   UNL     1      40.445 134.490  17.599  1.00  0.00     0.019 A 
ATOM     23  C   UNL     1      41.871 136.452  17.442  1.00  0.00    -0.008 A 
ATOM     24  C   UNL     1      39.955 134.716  16.313  1.00  0.00    -0.017 A 
ATOM     25  C   UNL     1      42.875 137.289  17.978  1.00  0.00     0.009 A 
ATOM     26  C   UNL     1      41.349 136.731  16.142  1.00  0.00    -0.010 A 
ATOM     27  C   UNL     1      39.028 133.813  15.767  1.00  0.00     0.009 A 
ATOM     28  C   UNL     1      40.389 135.844  15.566  1.00  0.00    -0.010 A 
ATOM     29  C   UNL     1      43.321 138.407  17.281  1.00  0.00     0.001 A 
ATOM     30  C   UNL     1      41.820 137.885  15.465  1.00  0.00     0.009 A 
ATOM     31  C   UNL     1      38.527 134.008  14.482  1.00  0.00     0.001 A 
ATOM     32  C   UNL     1      39.856 136.017  14.263  1.00  0.00     0.009 A 
ATOM     33  C   UNL     1      42.789 138.709  16.036  1.00  0.00     0.001 A 
ATOM     34  C   UNL     1      38.940 135.106  13.734  1.00  0.00     0.001 A 
ENDBRANCH  17  21
ENDBRANCH  14  15
ENDBRANCH  11  14
ENDBRANCH   1  11
TORSDOF 7
ENDMDL
MODEL 9
REMARK VINA RESULT:      -5.2      1.758      2.193
REMARK SMILES Cc1nnn(C/C(C#N)=N\c2cccc(C#N)c2C)c1-c1cc2ccccc2c2ccccc12
REMARK SMILES IDX 10 1 11 2 13 3 14 4 12 5 15 6 18 7 19 8 16 9 17 10 7 11 8 12
REMARK SMILES IDX 9 13 6 14 5 15 4 16 20 17 3 18 2 19 1 20 21 21 22 22 34 23
REMARK SMILES IDX 23 24 33 25 29 26 24 27 28 28 32 29 30 30 25 31 27 32 31 33
REMARK SMILES IDX 26 34
REMARK H PARENT
ROOT
ATOM      1  N   UNL     1      42.173 133.795  15.650  1.00  0.00    -0.240 NA
ENDROOT
BRANCH   1   2
ATOM      2  C   UNL     1      41.058 134.507  16.214  1.00  0.00     0.068 A 
ATOM      3  C   UNL     1      38.836 134.500  17.201  1.00  0.00     0.004 A 
ATOM      4  C   UNL     1      38.810 135.892  17.171  1.00  0.00     0.020 A 
ATOM      5  C   UNL     1      39.939 133.810  16.700  1.00  0.00     0.029 A 
ATOM      6  C   UNL     1      39.882 136.608  16.624  1.00  0.00     0.057 A 
ATOM      7  C   UNL     1      41.022 135.919  16.143  1.00  0.00    -0.008 A 
ATOM      8  C   UNL     1      42.155 136.668  15.481  1.00  0.00     0.048 C 
BRANCH   6   9
ATOM      9  C   UNL     1      39.782 138.046  16.562  1.00  0.00     0.099 C 
ATOM     10  N   UNL     1      39.699 139.200  16.511  1.00  0.00    -0.192 NA
ENDBRANCH   6   9
ENDBRANCH   1   2
BRANCH   1  11
ATOM     11  C   UNL     1      42.987 132.962  16.237  1.00  0.00     0.139 C 
BRANCH  11  12
ATOM     12  C   UNL     1      44.372 132.996  15.854  1.00  0.00     0.117 C 
ATOM     13  N   UNL     1      45.487 133.024  15.544  1.00  0.00    -0.191 NA
ENDBRANCH  11  12
BRANCH  11  14
ATOM     14  C   UNL     1      42.589 132.046  17.371  1.00  0.00     0.214 C 
BRANCH  14  15
ATOM     15  N   UNL     1      43.543 132.152  18.474  1.00  0.00    -0.238 N 
ATOM     16  N   UNL     1      44.546 131.307  18.663  1.00  0.00    -0.066 NA
ATOM     17  C   UNL     1      43.617 133.106  19.423  1.00  0.00     0.093 A 
ATOM     18  N   UNL     1      45.263 131.662  19.720  1.00  0.00    -0.135 NA
ATOM     19  C   UNL     1      44.694 132.775  20.223  1.00  0.00     0.088 A 
ATOM     20  C   UNL     1      45.200 133.506  21.425  1.00  0.00     0.071 C 
BRANCH  17  21
ATOM     21  C   UNL     1      42.677 134.238  19.603  1.00  0.00     0.010 A 
ATOM     22  C   UNL     1      41.444 133.969  20.199  1.00  0.00     0.019 A 
ATOM     23  C   UNL     1      43.008 135.565  19.241  1.00  0.00    -0.008 A 
ATOM     24  C   UNL     1      40.518 134.984  20.434  1.00  0.00    -0.017 A 
ATOM     25  C   UNL     1      44.227 135.851  18.588  1.00  0.00     0.009 A 
ATOM     26  C   UNL     1      42.094 136.629  19.515  1.00  0.00    -0.010 A 
ATOM     27  C   UNL     1      39.273 134.657  20.996  1.00  0.00     0.009 A 
ATOM     28  C   UNL     1      40.827 136.332  20.105  1.00  0.00    -0.010 A 
ATOM     29  C   UNL     1      44.571 137.158  18.258  1.00  0.00     0.001 A 
ATOM     30  C   UNL     1      42.482 137.949  19.173  1.00  0.00     0.009 A 
ATOM     31  C   UNL     1      38.324 135.647  21.234  1.00  0.00     0.001 A 
ATOM     32  C   UNL     1      39.842 137.318  20.365  1.00  0.00     0.009 A 
ATOM     33  C   UNL     1      43.708 138.202  18.558  1.00  0.00     0.001 A 
ATOM     34  C   UNL     1      38.608 136.972  20.920  1.00  0.00     0.001 A 
ENDBRANCH  17  21
ENDBRANCH  14  15
ENDBRANCH  11  14
ENDBRANCH   1  11
TORSDOF 7
ENDMDL


