MODEL 1
REMARK VINA RESULT:      -6.8      0.000      0.000
REMARK SMILES C#C[C@@](O)(c1cc(N=[N+]=[N-])cc(OC(=O)[C@]2(N)C[C@@H](CO)C2)c(C(=O)N=[N+]=[N-])cc2cc1CC2)C(C)(C)C
REMARK SMILES IDX 13 1 12 2 5 3 6 4 32 5 7 6 31 7 33 8 11 9 30 10 34 11 29 12
REMARK SMILES IDX 23 13 3 14 2 15 1 16 4 17 35 19 36 20 37 21 38 22 8 23 9 24
REMARK SMILES IDX 10 25 24 26 25 27 26 28 27 29 28 30 14 31 15 32 16 33 22 34
REMARK SMILES IDX 18 35 19 36 17 37 20 40 21 41
REMARK H PARENT 4 18 17 38 17 39 21 42
ROOT
ATOM      1  O   UNL     1      43.945 133.244  15.270  1.00  0.00    -0.424 OA
ENDROOT
BRANCH   1   2
ATOM      2  C   UNL     1      43.143 133.729  16.318  1.00  0.00     0.142 A 
ATOM      3  C   UNL     1      43.247 134.284  20.540  1.00  0.00    -0.000 A 
ATOM      4  C   UNL     1      43.574 135.345  19.649  1.00  0.00     0.018 A 
ATOM      5  C   UNL     1      42.235 133.361  20.173  1.00  0.00    -0.040 A 
ATOM      6  C   UNL     1      43.373 135.269  18.253  1.00  0.00     0.042 A 
ATOM      7  C   UNL     1      41.148 133.792  19.430  1.00  0.00     0.008 A 
ATOM      8  C   UNL     1      42.580 131.958  19.776  1.00  0.00     0.041 C 
ATOM      9  C   UNL     1      43.713 134.097  17.556  1.00  0.00     0.058 A 
ATOM     10  C   UNL     1      41.016 133.013  18.308  1.00  0.00    -0.047 A 
ATOM     11  C   UNL     1      41.806 131.746  18.471  1.00  0.00     0.040 C 
ATOM     12  C   UNL     1      40.777 133.655  17.085  1.00  0.00     0.019 A 
ATOM     13  C   UNL     1      41.751 133.842  16.073  1.00  0.00     0.067 A 
BRANCH   3  14
ATOM     14  C   UNL     1      43.863 134.258  21.951  1.00  0.00     0.155 C 
BRANCH  14  15
ATOM     15  C   UNL     1      43.612 135.554  22.632  1.00  0.00    -0.066 C 
ATOM     16  C   UNL     1      43.408 136.600  23.195  1.00  0.00     0.007 C 
ENDBRANCH  14  15
BRANCH  14  17
ATOM     17  O   UNL     1      43.230 133.255  22.717  1.00  0.00    -0.373 OA
ATOM     18  H   UNL     1      43.080 133.609  23.633  1.00  0.00     0.213 HD
ENDBRANCH  14  17
BRANCH  14  19
ATOM     19  C   UNL     1      45.420 133.954  21.924  1.00  0.00     0.006 C 
ATOM     20  C   UNL     1      46.240 135.141  21.362  1.00  0.00     0.015 C 
ATOM     21  C   UNL     1      45.930 133.659  23.359  1.00  0.00     0.015 C 
ATOM     22  C   UNL     1      45.725 132.709  21.059  1.00  0.00     0.015 C 
ENDBRANCH  14  19
ENDBRANCH   3  14
BRANCH   6  23
ATOM     23  N   UNL     1      42.953 136.419  17.505  1.00  0.00    -0.061 NA
BRANCH  23  24
ATOM     24  N   UNL     1      41.914 137.027  17.763  1.00  0.00     0.005 N 
ATOM     25  N   UNL     1      40.879 137.641  18.026  1.00  0.00    -0.003 NA
ENDBRANCH  23  24
ENDBRANCH   6  23
BRANCH  13  26
ATOM     26  C   UNL     1      41.279 134.136  14.698  1.00  0.00     0.252 C 
ATOM     27  O   UNL     1      41.751 135.119  14.061  1.00  0.00    -0.287 OA
BRANCH  26  28
ATOM     28  N   UNL     1      40.282 133.308  14.087  1.00  0.00    -0.017 NA
BRANCH  28  29
ATOM     29  N   UNL     1      39.136 133.716  13.903  1.00  0.00     0.009 N 
ATOM     30  N   UNL     1      37.991 134.124  13.719  1.00  0.00    -0.003 NA
ENDBRANCH  28  29
ENDBRANCH  26  28
ENDBRANCH  13  26
ENDBRANCH   1   2
BRANCH   1  31
ATOM     31  C   UNL     1      44.063 131.912  14.850  1.00  0.00     0.331 C 
ATOM     32  O   UNL     1      43.186 131.387  14.111  1.00  0.00    -0.250 OA
BRANCH  31  33
ATOM     33  C   UNL     1      45.292 131.125  15.241  1.00  0.00     0.116 C 
ATOM     34  C   UNL     1      46.568 131.630  14.555  1.00  0.00     0.040 C 
ATOM     35  C   UNL     1      45.428 129.782  14.510  1.00  0.00     0.040 C 
ATOM     36  C   UNL     1      46.688 130.298  13.810  1.00  0.00     0.019 C 
BRANCH  33  37
ATOM     37  N   UNL     1      45.445 131.003  16.698  1.00  0.00    -0.316 NA
ATOM     38  H   UNL     1      45.900 130.082  16.904  1.00  0.00     0.119 HD
ATOM     39  H   UNL     1      46.096 131.742  17.052  1.00  0.00     0.119 HD
ENDBRANCH  33  37
BRANCH  36  40
ATOM     40  C   UNL     1      47.953 129.500  14.157  1.00  0.00     0.159 C 
BRANCH  40  41
ATOM     41  O   UNL     1      48.547 129.003  12.988  1.00  0.00    -0.396 OA
ATOM     42  H   UNL     1      48.176 129.536  12.235  1.00  0.00     0.210 HD
ENDBRANCH  40  41
ENDBRANCH  36  40
ENDBRANCH  31  33
ENDBRANCH   1  31
TORSDOF 15
ENDMDL
MODEL 2
REMARK VINA RESULT:      -6.3      1.467      1.853
REMARK SMILES C#C[C@@](O)(c1cc(N=[N+]=[N-])cc(OC(=O)[C@]2(N)C[C@@H](CO)C2)c(C(=O)N=[N+]=[N-])cc2cc1CC2)C(C)(C)C
REMARK SMILES IDX 13 1 12 2 5 3 6 4 32 5 7 6 31 7 33 8 11 9 30 10 34 11 29 12
REMARK SMILES IDX 23 13 3 14 2 15 1 16 4 17 35 19 36 20 37 21 38 22 8 23 9 24
REMARK SMILES IDX 10 25 24 26 25 27 26 28 27 29 28 30 14 31 15 32 16 33 22 34
REMARK SMILES IDX 18 35 19 36 17 37 20 40 21 41
REMARK H PARENT 4 18 17 38 17 39 21 42
ROOT
ATOM      1  O   UNL     1      44.409 133.143  15.510  1.00  0.00    -0.424 OA
ENDROOT
BRANCH   1   2
ATOM      2  C   UNL     1      43.442 133.786  16.301  1.00  0.00     0.142 A 
ATOM      3  C   UNL     1      43.006 135.574  20.143  1.00  0.00    -0.000 A 
ATOM      4  C   UNL     1      43.293 136.362  18.993  1.00  0.00     0.018 A 
ATOM      5  C   UNL     1      42.166 134.439  20.012  1.00  0.00    -0.040 A 
ATOM      6  C   UNL     1      43.259 135.846  17.678  1.00  0.00     0.042 A 
ATOM      7  C   UNL     1      41.122 134.458  19.100  1.00  0.00     0.008 A 
ATOM      8  C   UNL     1      42.726 133.052  20.090  1.00  0.00     0.041 C 
ATOM      9  C   UNL     1      43.820 134.587  17.401  1.00  0.00     0.058 A 
ATOM     10  C   UNL     1      41.214 133.372  18.267  1.00  0.00    -0.047 A 
ATOM     11  C   UNL     1      42.135 132.347  18.866  1.00  0.00     0.040 C 
ATOM     12  C   UNL     1      41.033 133.578  16.893  1.00  0.00     0.019 A 
ATOM     13  C   UNL     1      42.082 133.606  15.941  1.00  0.00     0.067 A 
BRANCH   3  14
ATOM     14  C   UNL     1      43.460 136.061  21.531  1.00  0.00     0.155 C 
BRANCH  14  15
ATOM     15  C   UNL     1      43.001 137.457  21.748  1.00  0.00    -0.066 C 
ATOM     16  C   UNL     1      42.619 138.586  21.927  1.00  0.00     0.007 C 
ENDBRANCH  14  15
BRANCH  14  17
ATOM     17  O   UNL     1      42.853 135.265  22.526  1.00  0.00    -0.373 OA
ATOM     18  H   UNL     1      43.113 134.318  22.372  1.00  0.00     0.213 HD
ENDBRANCH  14  17
BRANCH  14  19
ATOM     19  C   UNL     1      45.033 135.973  21.717  1.00  0.00     0.006 C 
ATOM     20  C   UNL     1      45.475 136.323  23.159  1.00  0.00     0.015 C 
ATOM     21  C   UNL     1      45.527 134.537  21.401  1.00  0.00     0.015 C 
ATOM     22  C   UNL     1      45.758 136.936  20.748  1.00  0.00     0.015 C 
ENDBRANCH  14  19
ENDBRANCH   3  14
BRANCH   6  23
ATOM     23  N   UNL     1      42.783 136.644  16.585  1.00  0.00    -0.061 NA
BRANCH  23  24
ATOM     24  N   UNL     1      42.922 137.868  16.555  1.00  0.00     0.005 N 
ATOM     25  N   UNL     1      43.057 139.092  16.533  1.00  0.00    -0.003 NA
ENDBRANCH  23  24
ENDBRANCH   6  23
BRANCH  13  26
ATOM     26  C   UNL     1      41.732 133.404  14.513  1.00  0.00     0.252 C 
ATOM     27  O   UNL     1      41.655 132.237  14.037  1.00  0.00    -0.287 OA
BRANCH  26  28
ATOM     28  N   UNL     1      41.482 134.532  13.667  1.00  0.00    -0.017 NA
BRANCH  28  29
ATOM     29  N   UNL     1      40.447 135.191  13.767  1.00  0.00     0.009 N 
ATOM     30  N   UNL     1      39.413 135.848  13.866  1.00  0.00    -0.003 NA
ENDBRANCH  28  29
ENDBRANCH  26  28
ENDBRANCH  13  26
ENDBRANCH   1   2
BRANCH   1  31
ATOM     31  C   UNL     1      45.031 131.915  15.776  1.00  0.00     0.331 C 
ATOM     32  O   UNL     1      45.194 131.517  16.961  1.00  0.00    -0.250 OA
BRANCH  31  33
ATOM     33  C   UNL     1      45.450 131.038  14.618  1.00  0.00     0.116 C 
ATOM     34  C   UNL     1      46.142 129.745  15.069  1.00  0.00     0.040 C 
ATOM     35  C   UNL     1      46.744 131.495  13.931  1.00  0.00     0.040 C 
ATOM     36  C   UNL     1      47.438 130.214  14.402  1.00  0.00     0.019 C 
BRANCH  33  37
ATOM     37  N   UNL     1      44.354 130.791  13.671  1.00  0.00    -0.316 NA
ATOM     38  H   UNL     1      43.511 131.320  13.997  1.00  0.00     0.119 HD
ATOM     39  H   UNL     1      44.601 131.176  12.730  1.00  0.00     0.119 HD
ENDBRANCH  33  37
BRANCH  36  40
ATOM     40  C   UNL     1      47.909 129.313  13.252  1.00  0.00     0.159 C 
BRANCH  40  41
ATOM     41  O   UNL     1      49.278 129.036  13.384  1.00  0.00    -0.396 OA
ATOM     42  H   UNL     1      49.729 129.910  13.528  1.00  0.00     0.210 HD
ENDBRANCH  40  41
ENDBRANCH  36  40
ENDBRANCH  31  33
ENDBRANCH   1  31
TORSDOF 15
ENDMDL
MODEL 3
REMARK VINA RESULT:      -6.3      1.460      2.126
REMARK SMILES C#C[C@@](O)(c1cc(N=[N+]=[N-])cc(OC(=O)[C@]2(N)C[C@@H](CO)C2)c(C(=O)N=[N+]=[N-])cc2cc1CC2)C(C)(C)C
REMARK SMILES IDX 13 1 12 2 5 3 6 4 32 5 7 6 31 7 33 8 11 9 30 10 34 11 29 12
REMARK SMILES IDX 23 13 3 14 2 15 1 16 4 17 35 19 36 20 37 21 38 22 8 23 9 24
REMARK SMILES IDX 10 25 24 26 25 27 26 28 27 29 28 30 14 31 15 32 16 33 22 34
REMARK SMILES IDX 18 35 19 36 17 37 20 40 21 41
REMARK H PARENT 4 18 17 38 17 39 21 42
ROOT
ATOM      1  O   UNL     1      44.075 133.305  15.266  1.00  0.00    -0.424 OA
ENDROOT
BRANCH   1   2
ATOM      2  C   UNL     1      43.450 133.813  16.418  1.00  0.00     0.142 A 
ATOM      3  C   UNL     1      43.645 133.503  20.662  1.00  0.00    -0.000 A 
ATOM      4  C   UNL     1      44.310 134.554  19.969  1.00  0.00     0.018 A 
ATOM      5  C   UNL     1      42.399 133.034  20.175  1.00  0.00    -0.040 A 
ATOM      6  C   UNL     1      44.122 134.809  18.592  1.00  0.00     0.042 A 
ATOM      7  C   UNL     1      41.520 133.919  19.570  1.00  0.00     0.008 A 
ATOM      8  C   UNL     1      42.285 131.696  19.512  1.00  0.00     0.041 C 
ATOM      9  C   UNL     1      44.083 133.742  17.678  1.00  0.00     0.058 A 
ATOM     10  C   UNL     1      41.168 133.448  18.330  1.00  0.00    -0.047 A 
ATOM     11  C   UNL     1      41.509 131.989  18.225  1.00  0.00     0.040 C 
ATOM     12  C   UNL     1      41.169 134.349  17.257  1.00  0.00     0.019 A 
ATOM     13  C   UNL     1      42.171 134.405  16.258  1.00  0.00     0.067 A 
BRANCH   3  14
ATOM     14  C   UNL     1      44.193 133.019  22.017  1.00  0.00     0.155 C 
BRANCH  14  15
ATOM     15  C   UNL     1      44.008 131.550  22.137  1.00  0.00    -0.066 C 
ATOM     16  C   UNL     1      43.847 130.360  22.240  1.00  0.00     0.007 C 
ENDBRANCH  14  15
BRANCH  14  17
ATOM     17  O   UNL     1      45.581 133.270  22.075  1.00  0.00    -0.373 OA
ATOM     18  H   UNL     1      45.860 133.687  21.217  1.00  0.00     0.213 HD
ENDBRANCH  14  17
BRANCH  14  19
ATOM     19  C   UNL     1      43.504 133.753  23.243  1.00  0.00     0.006 C 
ATOM     20  C   UNL     1      43.523 135.294  23.091  1.00  0.00     0.015 C 
ATOM     21  C   UNL     1      42.025 133.305  23.370  1.00  0.00     0.015 C 
ATOM     22  C   UNL     1      44.212 133.396  24.570  1.00  0.00     0.015 C 
ENDBRANCH  14  19
ENDBRANCH   3  14
BRANCH   6  23
ATOM     23  N   UNL     1      44.105 136.151  18.086  1.00  0.00    -0.061 NA
BRANCH  23  24
ATOM     24  N   UNL     1      44.897 137.011  18.477  1.00  0.00     0.005 N 
ATOM     25  N   UNL     1      45.687 137.873  18.860  1.00  0.00    -0.003 NA
ENDBRANCH  23  24
ENDBRANCH   6  23
BRANCH  13  26
ATOM     26  C   UNL     1      41.844 135.086  14.981  1.00  0.00     0.252 C 
ATOM     27  O   UNL     1      42.246 136.265  14.768  1.00  0.00    -0.287 OA
BRANCH  26  28
ATOM     28  N   UNL     1      41.068 134.411  13.984  1.00  0.00    -0.017 NA
BRANCH  28  29
ATOM     29  N   UNL     1      40.183 134.995  13.358  1.00  0.00     0.009 N 
ATOM     30  N   UNL     1      39.299 135.577  12.733  1.00  0.00    -0.003 NA
ENDBRANCH  28  29
ENDBRANCH  26  28
ENDBRANCH  13  26
ENDBRANCH   1   2
BRANCH   1  31
ATOM     31  C   UNL     1      43.949 132.010  14.744  1.00  0.00     0.331 C 
ATOM     32  O   UNL     1      42.903 131.658  14.134  1.00  0.00    -0.250 OA
BRANCH  31  33
ATOM     33  C   UNL     1      45.113 131.054  14.865  1.00  0.00     0.116 C 
ATOM     34  C   UNL     1      46.474 131.759  14.798  1.00  0.00     0.040 C 
ATOM     35  C   UNL     1      45.436 130.303  13.565  1.00  0.00     0.040 C 
ATOM     36  C   UNL     1      46.784 131.025  13.490  1.00  0.00     0.019 C 
BRANCH  33  37
ATOM     37  N   UNL     1      44.996 130.163  16.028  1.00  0.00    -0.316 NA
ATOM     38  H   UNL     1      45.012 130.751  16.894  1.00  0.00     0.119 HD
ATOM     39  H   UNL     1      44.068 129.679  16.015  1.00  0.00     0.119 HD
ENDBRANCH  33  37
BRANCH  36  40
ATOM     40  C   UNL     1      47.992 130.082  13.575  1.00  0.00     0.159 C 
BRANCH  40  41
ATOM     41  O   UNL     1      47.929 129.319  14.750  1.00  0.00    -0.396 OA
ATOM     42  H   UNL     1      48.059 129.953  15.504  1.00  0.00     0.210 HD
ENDBRANCH  40  41
ENDBRANCH  36  40
ENDBRANCH  31  33
ENDBRANCH   1  31
TORSDOF 15
ENDMDL
MODEL 4
REMARK VINA RESULT:      -6.1      2.892      6.348
REMARK SMILES C#C[C@@](O)(c1cc(N=[N+]=[N-])cc(OC(=O)[C@]2(N)C[C@@H](CO)C2)c(C(=O)N=[N+]=[N-])cc2cc1CC2)C(C)(C)C
REMARK SMILES IDX 13 1 12 2 5 3 6 4 32 5 7 6 31 7 33 8 11 9 30 10 34 11 29 12
REMARK SMILES IDX 23 13 3 14 2 15 1 16 4 17 35 19 36 20 37 21 38 22 8 23 9 24
REMARK SMILES IDX 10 25 24 26 25 27 26 28 27 29 28 30 14 31 15 32 16 33 22 34
REMARK SMILES IDX 18 35 19 36 17 37 20 40 21 41
REMARK H PARENT 4 18 17 38 17 39 21 42
ROOT
ATOM      1  O   UNL     1      43.377 131.580  17.864  1.00  0.00    -0.424 OA
ENDROOT
BRANCH   1   2
ATOM      2  C   UNL     1      42.986 132.915  18.056  1.00  0.00     0.142 A 
ATOM      3  C   UNL     1      40.906 136.045  16.049  1.00  0.00    -0.000 A 
ATOM      4  C   UNL     1      40.244 135.206  16.989  1.00  0.00     0.018 A 
ATOM      5  C   UNL     1      42.262 136.395  16.269  1.00  0.00    -0.040 A 
ATOM      6  C   UNL     1      40.928 134.286  17.815  1.00  0.00     0.042 A 
ATOM      7  C   UNL     1      42.725 136.571  17.563  1.00  0.00     0.008 A 
ATOM      8  C   UNL     1      43.355 135.809  15.429  1.00  0.00     0.041 C 
ATOM      9  C   UNL     1      41.953 133.487  17.280  1.00  0.00     0.058 A 
ATOM     10  C   UNL     1      43.828 135.781  17.772  1.00  0.00    -0.047 A 
ATOM     11  C   UNL     1      44.388 135.329  16.453  1.00  0.00     0.040 C 
ATOM     12  C   UNL     1      43.897 135.046  18.964  1.00  0.00     0.019 A 
ATOM     13  C   UNL     1      43.660 133.653  19.062  1.00  0.00     0.067 A 
BRANCH   3  14
ATOM     14  C   UNL     1      40.099 136.699  14.913  1.00  0.00     0.155 C 
BRANCH  14  15
ATOM     15  C   UNL     1      38.981 137.494  15.485  1.00  0.00    -0.066 C 
ATOM     16  C   UNL     1      38.070 138.129  15.953  1.00  0.00     0.007 C 
ENDBRANCH  14  15
BRANCH  14  17
ATOM     17  O   UNL     1      40.929 137.597  14.208  1.00  0.00    -0.373 OA
ATOM     18  H   UNL     1      40.490 138.488  14.198  1.00  0.00     0.213 HD
ENDBRANCH  14  17
BRANCH  14  19
ATOM     19  C   UNL     1      39.533 135.633  13.883  1.00  0.00     0.006 C 
ATOM     20  C   UNL     1      40.614 134.620  13.433  1.00  0.00     0.015 C 
ATOM     21  C   UNL     1      38.371 134.834  14.529  1.00  0.00     0.015 C 
ATOM     22  C   UNL     1      38.972 136.327  12.621  1.00  0.00     0.015 C 
ENDBRANCH  14  19
ENDBRANCH   3  14
BRANCH   6  23
ATOM     23  N   UNL     1      40.502 134.049  19.165  1.00  0.00    -0.061 NA
BRANCH  23  24
ATOM     24  N   UNL     1      39.352 134.281  19.542  1.00  0.00     0.005 N 
ATOM     25  N   UNL     1      38.202 134.517  19.911  1.00  0.00    -0.003 NA
ENDBRANCH  23  24
ENDBRANCH   6  23
BRANCH  13  26
ATOM     26  C   UNL     1      44.173 132.943  20.260  1.00  0.00     0.252 C 
ATOM     27  O   UNL     1      43.372 132.360  21.044  1.00  0.00    -0.287 OA
BRANCH  26  28
ATOM     28  N   UNL     1      45.578 132.916  20.533  1.00  0.00    -0.017 NA
BRANCH  28  29
ATOM     29  N   UNL     1      46.064 133.571  21.455  1.00  0.00     0.009 N 
ATOM     30  N   UNL     1      46.548 134.226  22.376  1.00  0.00    -0.003 NA
ENDBRANCH  28  29
ENDBRANCH  26  28
ENDBRANCH  13  26
ENDBRANCH   1   2
BRANCH   1  31
ATOM     31  C   UNL     1      44.573 131.129  17.287  1.00  0.00     0.331 C 
ATOM     32  O   UNL     1      45.485 130.629  17.999  1.00  0.00    -0.250 OA
BRANCH  31  33
ATOM     33  C   UNL     1      44.733 131.192  15.785  1.00  0.00     0.116 C 
ATOM     34  C   UNL     1      45.421 129.949  15.206  1.00  0.00     0.040 C 
ATOM     35  C   UNL     1      45.911 132.062  15.323  1.00  0.00     0.040 C 
ATOM     36  C   UNL     1      46.604 130.816  14.767  1.00  0.00     0.019 C 
BRANCH  33  37
ATOM     37  N   UNL     1      43.477 131.515  15.095  1.00  0.00    -0.316 NA
ATOM     38  H   UNL     1      42.972 130.619  14.896  1.00  0.00     0.119 HD
ATOM     39  H   UNL     1      42.855 132.072  15.727  1.00  0.00     0.119 HD
ENDBRANCH  33  37
BRANCH  36  40
ATOM     40  C   UNL     1      46.816 130.859  13.247  1.00  0.00     0.159 C 
BRANCH  40  41
ATOM     41  O   UNL     1      48.097 131.348  12.951  1.00  0.00    -0.396 OA
ATOM     42  H   UNL     1      48.295 132.047  13.629  1.00  0.00     0.210 HD
ENDBRANCH  40  41
ENDBRANCH  36  40
ENDBRANCH  31  33
ENDBRANCH   1  31
TORSDOF 15
ENDMDL
MODEL 5
REMARK VINA RESULT:      -6.0      2.728      6.050
REMARK SMILES C#C[C@@](O)(c1cc(N=[N+]=[N-])cc(OC(=O)[C@]2(N)C[C@@H](CO)C2)c(C(=O)N=[N+]=[N-])cc2cc1CC2)C(C)(C)C
REMARK SMILES IDX 13 1 12 2 5 3 6 4 32 5 7 6 31 7 33 8 11 9 30 10 34 11 29 12
REMARK SMILES IDX 23 13 3 14 2 15 1 16 4 17 35 19 36 20 37 21 38 22 8 23 9 24
REMARK SMILES IDX 10 25 24 26 25 27 26 28 27 29 28 30 14 31 15 32 16 33 22 34
REMARK SMILES IDX 18 35 19 36 17 37 20 40 21 41
REMARK H PARENT 4 18 17 38 17 39 21 42
ROOT
ATOM      1  O   UNL     1      44.028 131.634  17.726  1.00  0.00    -0.424 OA
ENDROOT
BRANCH   1   2
ATOM      2  C   UNL     1      43.436 132.882  17.984  1.00  0.00     0.142 A 
ATOM      3  C   UNL     1      40.912 135.762  16.118  1.00  0.00    -0.000 A 
ATOM      4  C   UNL     1      40.382 134.782  17.004  1.00  0.00     0.018 A 
ATOM      5  C   UNL     1      42.198 136.303  16.374  1.00  0.00    -0.040 A 
ATOM      6  C   UNL     1      41.194 133.933  17.789  1.00  0.00     0.042 A 
ATOM      7  C   UNL     1      42.622 136.476  17.682  1.00  0.00     0.008 A 
ATOM      8  C   UNL     1      43.372 135.937  15.519  1.00  0.00     0.041 C 
ATOM      9  C   UNL     1      42.332 133.331  17.226  1.00  0.00     0.058 A 
ATOM     10  C   UNL     1      43.832 135.853  17.863  1.00  0.00    -0.047 A 
ATOM     11  C   UNL     1      44.460 135.564  16.529  1.00  0.00     0.040 C 
ATOM     12  C   UNL     1      44.006 135.074  19.015  1.00  0.00     0.019 A 
ATOM     13  C   UNL     1      43.984 133.658  19.036  1.00  0.00     0.067 A 
BRANCH   3  14
ATOM     14  C   UNL     1      40.019 136.346  15.008  1.00  0.00     0.155 C 
BRANCH  14  15
ATOM     15  C   UNL     1      38.784 136.916  15.605  1.00  0.00    -0.066 C 
ATOM     16  C   UNL     1      37.779 137.383  16.079  1.00  0.00     0.007 C 
ENDBRANCH  14  15
BRANCH  14  17
ATOM     17  O   UNL     1      40.701 137.406  14.371  1.00  0.00    -0.373 OA
ATOM     18  H   UNL     1      41.597 137.500  14.791  1.00  0.00     0.213 HD
ENDBRANCH  14  17
BRANCH  14  19
ATOM     19  C   UNL     1      39.641 135.268  13.908  1.00  0.00     0.006 C 
ATOM     20  C   UNL     1      38.521 134.311  14.385  1.00  0.00     0.015 C 
ATOM     21  C   UNL     1      39.148 135.972  12.617  1.00  0.00     0.015 C 
ATOM     22  C   UNL     1      40.871 134.411  13.527  1.00  0.00     0.015 C 
ENDBRANCH  14  19
ENDBRANCH   3  14
BRANCH   6  23
ATOM     23  N   UNL     1      40.803 133.561  19.118  1.00  0.00    -0.061 NA
BRANCH  23  24
ATOM     24  N   UNL     1      40.377 134.383  19.932  1.00  0.00     0.005 N 
ATOM     25  N   UNL     1      39.958 135.208  20.743  1.00  0.00    -0.003 NA
ENDBRANCH  23  24
ENDBRANCH   6  23
BRANCH  13  26
ATOM     26  C   UNL     1      44.594 132.970  20.201  1.00  0.00     0.252 C 
ATOM     27  O   UNL     1      45.780 132.538  20.134  1.00  0.00    -0.287 OA
BRANCH  26  28
ATOM     28  N   UNL     1      43.841 132.790  21.406  1.00  0.00    -0.017 NA
BRANCH  28  29
ATOM     29  N   UNL     1      43.224 131.748  21.625  1.00  0.00     0.009 N 
ATOM     30  N   UNL     1      42.607 130.708  21.845  1.00  0.00    -0.003 NA
ENDBRANCH  28  29
ENDBRANCH  26  28
ENDBRANCH  13  26
ENDBRANCH   1   2
BRANCH   1  31
ATOM     31  C   UNL     1      44.239 131.047  16.471  1.00  0.00     0.331 C 
ATOM     32  O   UNL     1      43.269 130.786  15.708  1.00  0.00    -0.250 OA
BRANCH  31  33
ATOM     33  C   UNL     1      45.655 130.786  16.010  1.00  0.00     0.116 C 
ATOM     34  C   UNL     1      46.240 131.945  15.193  1.00  0.00     0.040 C 
ATOM     35  C   UNL     1      45.749 129.870  14.782  1.00  0.00     0.040 C 
ATOM     36  C   UNL     1      46.311 131.035  13.964  1.00  0.00     0.019 C 
BRANCH  33  37
ATOM     37  N   UNL     1      46.538 130.366  17.107  1.00  0.00    -0.316 NA
ATOM     38  H   UNL     1      47.186 131.158  17.329  1.00  0.00     0.119 HD
ATOM     39  H   UNL     1      45.975 130.193  17.973  1.00  0.00     0.119 HD
ENDBRANCH  33  37
BRANCH  36  40
ATOM     40  C   UNL     1      47.737 130.792  13.449  1.00  0.00     0.159 C 
BRANCH  40  41
ATOM     41  O   UNL     1      47.702 130.039  12.266  1.00  0.00    -0.396 OA
ATOM     42  H   UNL     1      46.750 129.801  12.112  1.00  0.00     0.210 HD
ENDBRANCH  40  41
ENDBRANCH  36  40
ENDBRANCH  31  33
ENDBRANCH   1  31
TORSDOF 15
ENDMDL
MODEL 6
REMARK VINA RESULT:      -6.0      1.512      1.883
REMARK SMILES C#C[C@@](O)(c1cc(N=[N+]=[N-])cc(OC(=O)[C@]2(N)C[C@@H](CO)C2)c(C(=O)N=[N+]=[N-])cc2cc1CC2)C(C)(C)C
REMARK SMILES IDX 13 1 12 2 5 3 6 4 32 5 7 6 31 7 33 8 11 9 30 10 34 11 29 12
REMARK SMILES IDX 23 13 3 14 2 15 1 16 4 17 35 19 36 20 37 21 38 22 8 23 9 24
REMARK SMILES IDX 10 25 24 26 25 27 26 28 27 29 28 30 14 31 15 32 16 33 22 34
REMARK SMILES IDX 18 35 19 36 17 37 20 40 21 41
REMARK H PARENT 4 18 17 38 17 39 21 42
ROOT
ATOM      1  O   UNL     1      44.911 132.709  16.640  1.00  0.00    -0.424 OA
ENDROOT
BRANCH   1   2
ATOM      2  C   UNL     1      43.866 133.393  17.284  1.00  0.00     0.142 A 
ATOM      3  C   UNL     1      42.919 135.132  21.056  1.00  0.00    -0.000 A 
ATOM      4  C   UNL     1      43.429 135.923  19.988  1.00  0.00     0.018 A 
ATOM      5  C   UNL     1      42.050 134.051  20.762  1.00  0.00    -0.040 A 
ATOM      6  C   UNL     1      43.578 135.434  18.671  1.00  0.00     0.042 A 
ATOM      7  C   UNL     1      41.168 134.148  19.697  1.00  0.00     0.008 A 
ATOM      8  C   UNL     1      42.514 132.633  20.891  1.00  0.00     0.041 C 
ATOM      9  C   UNL     1      44.106 134.150  18.452  1.00  0.00     0.058 A 
ATOM     10  C   UNL     1      41.333 133.073  18.860  1.00  0.00    -0.047 A 
ATOM     11  C   UNL     1      42.089 131.986  19.569  1.00  0.00     0.040 C 
ATOM     12  C   UNL     1      41.386 133.315  17.480  1.00  0.00     0.019 A 
ATOM     13  C   UNL     1      42.574 133.299  16.708  1.00  0.00     0.067 A 
BRANCH   3  14
ATOM     14  C   UNL     1      43.170 135.567  22.512  1.00  0.00     0.155 C 
BRANCH  14  15
ATOM     15  C   UNL     1      43.290 137.046  22.580  1.00  0.00    -0.066 C 
ATOM     16  C   UNL     1      43.379 138.246  22.643  1.00  0.00     0.007 C 
ENDBRANCH  14  15
BRANCH  14  17
ATOM     17  O   UNL     1      42.061 135.202  23.305  1.00  0.00    -0.373 OA
ATOM     18  H   UNL     1      41.764 136.002  23.815  1.00  0.00     0.213 HD
ENDBRANCH  14  17
BRANCH  14  19
ATOM     19  C   UNL     1      44.465 134.889  23.128  1.00  0.00     0.006 C 
ATOM     20  C   UNL     1      45.503 134.511  22.043  1.00  0.00     0.015 C 
ATOM     21  C   UNL     1      45.151 135.860  24.125  1.00  0.00     0.015 C 
ATOM     22  C   UNL     1      44.100 133.606  23.908  1.00  0.00     0.015 C 
ENDBRANCH  14  19
ENDBRANCH   3  14
BRANCH   6  23
ATOM     23  N   UNL     1      43.327 136.279  17.538  1.00  0.00    -0.061 NA
BRANCH  23  24
ATOM     24  N   UNL     1      43.489 137.499  17.580  1.00  0.00     0.005 N 
ATOM     25  N   UNL     1      43.659 138.718  17.618  1.00  0.00    -0.003 NA
ENDBRANCH  23  24
ENDBRANCH   6  23
BRANCH  13  26
ATOM     26  C   UNL     1      42.446 133.144  15.238  1.00  0.00     0.252 C 
ATOM     27  O   UNL     1      42.417 131.991  14.721  1.00  0.00    -0.287 OA
BRANCH  26  28
ATOM     28  N   UNL     1      42.359 134.300  14.397  1.00  0.00    -0.017 NA
BRANCH  28  29
ATOM     29  N   UNL     1      41.297 134.629  13.870  1.00  0.00     0.009 N 
ATOM     30  N   UNL     1      40.235 134.958  13.344  1.00  0.00    -0.003 NA
ENDBRANCH  28  29
ENDBRANCH  26  28
ENDBRANCH  13  26
ENDBRANCH   1   2
BRANCH   1  31
ATOM     31  C   UNL     1      45.357 131.408  16.911  1.00  0.00     0.331 C 
ATOM     32  O   UNL     1      45.063 130.837  17.996  1.00  0.00    -0.250 OA
BRANCH  31  33
ATOM     33  C   UNL     1      46.145 130.667  15.855  1.00  0.00     0.116 C 
ATOM     34  C   UNL     1      46.688 131.592  14.758  1.00  0.00     0.040 C 
ATOM     35  C   UNL     1      45.270 129.947  14.820  1.00  0.00     0.040 C 
ATOM     36  C   UNL     1      45.798 130.886  13.731  1.00  0.00     0.019 C 
BRANCH  33  37
ATOM     37  N   UNL     1      47.184 129.801  16.429  1.00  0.00    -0.316 NA
ATOM     38  H   UNL     1      47.559 130.264  17.290  1.00  0.00     0.119 HD
ATOM     39  H   UNL     1      46.763 128.895  16.739  1.00  0.00     0.119 HD
ENDBRANCH  33  37
BRANCH  36  40
ATOM     40  C   UNL     1      46.575 130.164  12.622  1.00  0.00     0.159 C 
BRANCH  40  41
ATOM     41  O   UNL     1      47.504 131.036  12.036  1.00  0.00    -0.396 OA
ATOM     42  H   UNL     1      46.987 131.818  11.706  1.00  0.00     0.210 HD
ENDBRANCH  40  41
ENDBRANCH  36  40
ENDBRANCH  31  33
ENDBRANCH   1  31
TORSDOF 15
ENDMDL
MODEL 7
REMARK VINA RESULT:      -6.0      1.731      2.115
REMARK SMILES C#C[C@@](O)(c1cc(N=[N+]=[N-])cc(OC(=O)[C@]2(N)C[C@@H](CO)C2)c(C(=O)N=[N+]=[N-])cc2cc1CC2)C(C)(C)C
REMARK SMILES IDX 13 1 12 2 5 3 6 4 32 5 7 6 31 7 33 8 11 9 30 10 34 11 29 12
REMARK SMILES IDX 23 13 3 14 2 15 1 16 4 17 35 19 36 20 37 21 38 22 8 23 9 24
REMARK SMILES IDX 10 25 24 26 25 27 26 28 27 29 28 30 14 31 15 32 16 33 22 34
REMARK SMILES IDX 18 35 19 36 17 37 20 40 21 41
REMARK H PARENT 4 18 17 38 17 39 21 42
ROOT
ATOM      1  O   UNL     1      44.473 133.419  16.159  1.00  0.00    -0.424 OA
ENDROOT
BRANCH   1   2
ATOM      2  C   UNL     1      43.826 134.258  17.082  1.00  0.00     0.142 A 
ATOM      3  C   UNL     1      43.487 134.866  21.285  1.00  0.00    -0.000 A 
ATOM      4  C   UNL     1      44.405 135.623  20.503  1.00  0.00     0.018 A 
ATOM      5  C   UNL     1      42.239 134.499  20.722  1.00  0.00    -0.040 A 
ATOM      6  C   UNL     1      44.421 135.593  19.091  1.00  0.00     0.042 A 
ATOM      7  C   UNL     1      41.609 135.353  19.831  1.00  0.00     0.008 A 
ATOM      8  C   UNL     1      41.959 133.081  20.329  1.00  0.00     0.041 C 
ATOM      9  C   UNL     1      44.292 134.370  18.411  1.00  0.00     0.058 A 
ATOM     10  C   UNL     1      41.317 134.679  18.672  1.00  0.00    -0.047 A 
ATOM     11  C   UNL     1      41.397 133.198  18.909  1.00  0.00     0.040 C 
ATOM     12  C   UNL     1      41.601 135.311  17.453  1.00  0.00     0.019 A 
ATOM     13  C   UNL     1      42.702 134.990  16.621  1.00  0.00     0.067 A 
BRANCH   3  14
ATOM     14  C   UNL     1      43.784 134.614  22.775  1.00  0.00     0.155 C 
BRANCH  14  15
ATOM     15  C   UNL     1      44.574 135.745  23.328  1.00  0.00    -0.066 C 
ATOM     16  C   UNL     1      45.223 136.655  23.778  1.00  0.00     0.007 C 
ENDBRANCH  14  15
BRANCH  14  17
ATOM     17  O   UNL     1      42.569 134.566  23.490  1.00  0.00    -0.373 OA
ATOM     18  H   UNL     1      42.697 135.032  24.359  1.00  0.00     0.213 HD
ENDBRANCH  14  17
BRANCH  14  19
ATOM     19  C   UNL     1      44.555 133.249  23.014  1.00  0.00     0.006 C 
ATOM     20  C   UNL     1      45.409 132.835  21.790  1.00  0.00     0.015 C 
ATOM     21  C   UNL     1      45.502 133.378  24.235  1.00  0.00     0.015 C 
ATOM     22  C   UNL     1      43.565 132.100  23.315  1.00  0.00     0.015 C 
ENDBRANCH  14  19
ENDBRANCH   3  14
BRANCH   6  23
ATOM     23  N   UNL     1      44.705 136.778  18.332  1.00  0.00    -0.061 NA
BRANCH  23  24
ATOM     24  N   UNL     1      45.238 137.768  18.835  1.00  0.00     0.005 N 
ATOM     25  N   UNL     1      45.768 138.763  19.330  1.00  0.00    -0.003 NA
ENDBRANCH  23  24
ENDBRANCH   6  23
BRANCH  13  26
ATOM     26  C   UNL     1      42.648 135.415  15.200  1.00  0.00     0.252 C 
ATOM     27  O   UNL     1      43.450 136.290  14.769  1.00  0.00    -0.287 OA
BRANCH  26  28
ATOM     28  N   UNL     1      41.685 134.836  14.313  1.00  0.00    -0.017 NA
BRANCH  28  29
ATOM     29  N   UNL     1      41.622 133.618  14.142  1.00  0.00     0.009 N 
ATOM     30  N   UNL     1      41.559 132.402  13.971  1.00  0.00    -0.003 NA
ENDBRANCH  28  29
ENDBRANCH  26  28
ENDBRANCH  13  26
ENDBRANCH   1   2
BRANCH   1  31
ATOM     31  C   UNL     1      44.835 132.079  16.353  1.00  0.00     0.331 C 
ATOM     32  O   UNL     1      44.804 131.560  17.501  1.00  0.00    -0.250 OA
BRANCH  31  33
ATOM     33  C   UNL     1      45.207 131.238  15.153  1.00  0.00     0.116 C 
ATOM     34  C   UNL     1      45.703 129.837  15.536  1.00  0.00     0.040 C 
ATOM     35  C   UNL     1      46.587 131.569  14.568  1.00  0.00     0.040 C 
ATOM     36  C   UNL     1      47.085 130.179  14.972  1.00  0.00     0.019 C 
BRANCH  33  37
ATOM     37  N   UNL     1      44.147 131.203  14.136  1.00  0.00    -0.316 NA
ATOM     38  H   UNL     1      44.594 131.067  13.199  1.00  0.00     0.119 HD
ATOM     39  H   UNL     1      43.529 130.373  14.293  1.00  0.00     0.119 HD
ENDBRANCH  33  37
BRANCH  36  40
ATOM     40  C   UNL     1      47.505 129.307  13.780  1.00  0.00     0.159 C 
BRANCH  40  41
ATOM     41  O   UNL     1      48.902 129.301  13.654  1.00  0.00    -0.396 OA
ATOM     42  H   UNL     1      49.135 130.078  13.080  1.00  0.00     0.210 HD
ENDBRANCH  40  41
ENDBRANCH  36  40
ENDBRANCH  31  33
ENDBRANCH   1  31
TORSDOF 15
ENDMDL
MODEL 8
REMARK VINA RESULT:      -6.0      2.935      6.377
REMARK SMILES C#C[C@@](O)(c1cc(N=[N+]=[N-])cc(OC(=O)[C@]2(N)C[C@@H](CO)C2)c(C(=O)N=[N+]=[N-])cc2cc1CC2)C(C)(C)C
REMARK SMILES IDX 13 1 12 2 5 3 6 4 32 5 7 6 31 7 33 8 11 9 30 10 34 11 29 12
REMARK SMILES IDX 23 13 3 14 2 15 1 16 4 17 35 19 36 20 37 21 38 22 8 23 9 24
REMARK SMILES IDX 10 25 24 26 25 27 26 28 27 29 28 30 14 31 15 32 16 33 22 34
REMARK SMILES IDX 18 35 19 36 17 37 20 40 21 41
REMARK H PARENT 4 18 17 38 17 39 21 42
ROOT
ATOM      1  O   UNL     1      43.607 131.392  17.248  1.00  0.00    -0.424 OA
ENDROOT
BRANCH   1   2
ATOM      2  C   UNL     1      42.969 132.623  17.478  1.00  0.00     0.142 A 
ATOM      3  C   UNL     1      40.628 135.535  15.433  1.00  0.00    -0.000 A 
ATOM      4  C   UNL     1      40.016 134.518  16.219  1.00  0.00     0.018 A 
ATOM      5  C   UNL     1      41.866 136.083  15.853  1.00  0.00    -0.040 A 
ATOM      6  C   UNL     1      40.747 133.652  17.062  1.00  0.00     0.042 A 
ATOM      7  C   UNL     1      42.136 136.215  17.206  1.00  0.00     0.008 A 
ATOM      8  C   UNL     1      43.136 135.762  15.126  1.00  0.00     0.041 C 
ATOM      9  C   UNL     1      41.952 133.085  16.614  1.00  0.00     0.058 A 
ATOM     10  C   UNL     1      43.327 135.601  17.503  1.00  0.00    -0.047 A 
ATOM     11  C   UNL     1      44.108 135.367  16.241  1.00  0.00     0.040 C 
ATOM     12  C   UNL     1      43.381 134.785  18.641  1.00  0.00     0.019 A 
ATOM     13  C   UNL     1      43.381 133.368  18.612  1.00  0.00     0.067 A 
BRANCH   3  14
ATOM     14  C   UNL     1      39.858 136.147  14.248  1.00  0.00     0.155 C 
BRANCH  14  15
ATOM     15  C   UNL     1      40.158 137.599  14.150  1.00  0.00    -0.066 C 
ATOM     16  C   UNL     1      40.398 138.777  14.061  1.00  0.00     0.007 C 
ENDBRANCH  14  15
BRANCH  14  17
ATOM     17  O   UNL     1      40.299 135.550  13.047  1.00  0.00    -0.373 OA
ATOM     18  H   UNL     1      40.368 136.257  12.352  1.00  0.00     0.213 HD
ENDBRANCH  14  17
BRANCH  14  19
ATOM     19  C   UNL     1      38.292 135.925  14.367  1.00  0.00     0.006 C 
ATOM     20  C   UNL     1      37.906 134.426  14.321  1.00  0.00     0.015 C 
ATOM     21  C   UNL     1      37.771 136.511  15.705  1.00  0.00     0.015 C 
ATOM     22  C   UNL     1      37.543 136.646  13.223  1.00  0.00     0.015 C 
ENDBRANCH  14  19
ENDBRANCH   3  14
BRANCH   6  23
ATOM     23  N   UNL     1      40.213 133.229  18.326  1.00  0.00    -0.061 NA
BRANCH  23  24
ATOM     24  N   UNL     1      39.332 133.861  18.911  1.00  0.00     0.005 N 
ATOM     25  N   UNL     1      38.447 134.493  19.489  1.00  0.00    -0.003 NA
ENDBRANCH  23  24
ENDBRANCH   6  23
BRANCH  13  26
ATOM     26  C   UNL     1      43.865 132.647  19.815  1.00  0.00     0.252 C 
ATOM     27  O   UNL     1      45.039 132.839  20.241  1.00  0.00    -0.287 OA
BRANCH  26  28
ATOM     28  N   UNL     1      43.005 131.729  20.499  1.00  0.00    -0.017 NA
BRANCH  28  29
ATOM     29  N   UNL     1      43.421 131.023  21.417  1.00  0.00     0.009 N 
ATOM     30  N   UNL     1      43.838 130.319  22.334  1.00  0.00    -0.003 NA
ENDBRANCH  28  29
ENDBRANCH  26  28
ENDBRANCH  13  26
ENDBRANCH   1   2
BRANCH   1  31
ATOM     31  C   UNL     1      44.962 131.191  16.950  1.00  0.00     0.331 C 
ATOM     32  O   UNL     1      45.734 130.648  17.786  1.00  0.00    -0.250 OA
BRANCH  31  33
ATOM     33  C   UNL     1      45.478 131.578  15.583  1.00  0.00     0.116 C 
ATOM     34  C   UNL     1      44.624 131.013  14.441  1.00  0.00     0.040 C 
ATOM     35  C   UNL     1      46.672 130.736  15.110  1.00  0.00     0.040 C 
ATOM     36  C   UNL     1      45.809 130.158  13.985  1.00  0.00     0.019 C 
BRANCH  33  37
ATOM     37  N   UNL     1      45.709 133.023  15.453  1.00  0.00    -0.316 NA
ATOM     38  H   UNL     1      46.520 133.170  14.807  1.00  0.00     0.119 HD
ATOM     39  H   UNL     1      44.882 133.478  15.000  1.00  0.00     0.119 HD
ENDBRANCH  33  37
BRANCH  36  40
ATOM     40  C   UNL     1      46.323 130.501  12.579  1.00  0.00     0.159 C 
BRANCH  40  41
ATOM     41  O   UNL     1      47.725 130.539  12.573  1.00  0.00    -0.396 OA
ATOM     42  H   UNL     1      48.025 129.971  13.331  1.00  0.00     0.210 HD
ENDBRANCH  40  41
ENDBRANCH  36  40
ENDBRANCH  31  33
ENDBRANCH   1  31
TORSDOF 15
ENDMDL
MODEL 9
REMARK VINA RESULT:      -5.9      1.965      2.940
REMARK SMILES C#C[C@@](O)(c1cc(N=[N+]=[N-])cc(OC(=O)[C@]2(N)C[C@@H](CO)C2)c(C(=O)N=[N+]=[N-])cc2cc1CC2)C(C)(C)C
REMARK SMILES IDX 13 1 12 2 5 3 6 4 32 5 7 6 31 7 33 8 11 9 30 10 34 11 29 12
REMARK SMILES IDX 23 13 3 14 2 15 1 16 4 17 35 19 36 20 37 21 38 22 8 23 9 24
REMARK SMILES IDX 10 25 24 26 25 27 26 28 27 29 28 30 14 31 15 32 16 33 22 34
REMARK SMILES IDX 18 35 19 36 17 37 20 40 21 41
REMARK H PARENT 4 18 17 38 17 39 21 42
ROOT
ATOM      1  O   UNL     1      44.418 133.218  16.973  1.00  0.00    -0.424 OA
ENDROOT
BRANCH   1   2
ATOM      2  C   UNL     1      43.811 133.854  18.069  1.00  0.00     0.142 A 
ATOM      3  C   UNL     1      44.825 136.215  21.466  1.00  0.00    -0.000 A 
ATOM      4  C   UNL     1      44.389 136.819  20.253  1.00  0.00     0.018 A 
ATOM      5  C   UNL     1      44.267 134.972  21.859  1.00  0.00    -0.040 A 
ATOM      6  C   UNL     1      43.864 136.080  19.170  1.00  0.00     0.042 A 
ATOM      7  C   UNL     1      42.943 134.689  21.564  1.00  0.00     0.008 A 
ATOM      8  C   UNL     1      45.070 133.710  21.784  1.00  0.00     0.041 C 
ATOM      9  C   UNL     1      44.478 134.880  18.773  1.00  0.00     0.058 A 
ATOM     10  C   UNL     1      42.863 133.495  20.892  1.00  0.00    -0.047 A 
ATOM     11  C   UNL     1      44.142 132.727  21.065  1.00  0.00     0.040 C 
ATOM     12  C   UNL     1      42.037 133.430  19.762  1.00  0.00     0.019 A 
ATOM     13  C   UNL     1      42.505 133.431  18.425  1.00  0.00     0.067 A 
BRANCH   3  14
ATOM     14  C   UNL     1      45.753 136.996  22.414  1.00  0.00     0.155 C 
BRANCH  14  15
ATOM     15  C   UNL     1      45.387 138.436  22.401  1.00  0.00    -0.066 C 
ATOM     16  C   UNL     1      45.085 139.603  22.401  1.00  0.00     0.007 C 
ENDBRANCH  14  15
BRANCH  14  17
ATOM     17  O   UNL     1      45.569 136.532  23.734  1.00  0.00    -0.373 OA
ATOM     18  H   UNL     1      45.245 137.289  24.291  1.00  0.00     0.213 HD
ENDBRANCH  14  17
BRANCH  14  19
ATOM     19  C   UNL     1      47.284 136.824  22.037  1.00  0.00     0.006 C 
ATOM     20  C   UNL     1      47.796 135.386  22.298  1.00  0.00     0.015 C 
ATOM     21  C   UNL     1      47.501 137.141  20.534  1.00  0.00     0.015 C 
ATOM     22  C   UNL     1      48.167 137.800  22.848  1.00  0.00     0.015 C 
ENDBRANCH  14  19
ENDBRANCH   3  14
BRANCH   6  23
ATOM     23  N   UNL     1      42.790 136.601  18.373  1.00  0.00    -0.061 NA
BRANCH  23  24
ATOM     24  N   UNL     1      42.947 136.935  17.197  1.00  0.00     0.005 N 
ATOM     25  N   UNL     1      43.095 137.272  16.023  1.00  0.00    -0.003 NA
ENDBRANCH  23  24
ENDBRANCH   6  23
BRANCH  13  26
ATOM     26  C   UNL     1      41.591 132.935  17.367  1.00  0.00     0.252 C 
ATOM     27  O   UNL     1      41.104 131.771  17.442  1.00  0.00    -0.287 OA
BRANCH  26  28
ATOM     28  N   UNL     1      41.258 133.772  16.253  1.00  0.00    -0.017 NA
BRANCH  28  29
ATOM     29  N   UNL     1      41.298 133.347  15.099  1.00  0.00     0.009 N 
ATOM     30  N   UNL     1      41.337 132.922  13.946  1.00  0.00    -0.003 NA
ENDBRANCH  28  29
ENDBRANCH  26  28
ENDBRANCH  13  26
ENDBRANCH   1   2
BRANCH   1  31
ATOM     31  C   UNL     1      44.997 131.941  16.957  1.00  0.00     0.331 C 
ATOM     32  O   UNL     1      45.340 131.373  18.029  1.00  0.00    -0.250 OA
BRANCH  31  33
ATOM     33  C   UNL     1      45.148 131.221  15.636  1.00  0.00     0.116 C 
ATOM     34  C   UNL     1      45.796 129.837  15.783  1.00  0.00     0.040 C 
ATOM     35  C   UNL     1      46.347 131.696  14.804  1.00  0.00     0.040 C 
ATOM     36  C   UNL     1      47.000 130.322  14.972  1.00  0.00     0.019 C 
BRANCH  33  37
ATOM     37  N   UNL     1      43.897 131.179  14.867  1.00  0.00    -0.316 NA
ATOM     38  H   UNL     1      43.260 130.478  15.313  1.00  0.00     0.119 HD
ATOM     39  H   UNL     1      43.409 132.104  14.929  1.00  0.00     0.119 HD
ENDBRANCH  33  37
BRANCH  36  40
ATOM     40  C   UNL     1      47.203 129.573  13.647  1.00  0.00     0.159 C 
BRANCH  40  41
ATOM     41  O   UNL     1      48.380 128.812  13.697  1.00  0.00    -0.396 OA
ATOM     42  H   UNL     1      48.890 129.027  12.871  1.00  0.00     0.210 HD
ENDBRANCH  40  41
ENDBRANCH  36  40
ENDBRANCH  31  33
ENDBRANCH   1  31
TORSDOF 15
ENDMDL


