REMARK SMILES CCN(CC/N=C(/OC(=O)[C@H]1C[C@@H]1CO)C1(C#N)CC1)c1cc(N=[N+]=[N-])c2c3c(cccc13)C(O)=N2
REMARK SMILES IDX 6 1 5 2 4 3 3 4 21 5 34 6 36 7 29 8 27 9 30 10 28 11 23 12
REMARK SMILES IDX 31 13 33 14 22 15 32 16 35 17 24 19 25 20 26 21 2 22 1 23
REMARK SMILES IDX 7 24 8 25 9 26 10 27 11 28 12 29 13 30 14 31 15 32 16 34
REMARK SMILES IDX 19 35 20 36 17 37 18 38
REMARK H PARENT 35 18 15 33
ROOT
ATOM      1  N   UNL     1      -1.669   0.932   0.730  1.00  0.00    -0.252 NA
ENDROOT
BRANCH   1   2
ATOM      2  C   UNL     1      -1.352   2.316   1.076  1.00  0.00     0.167 C 
BRANCH   2   3
ATOM      3  C   UNL     1      -1.306   3.163  -0.199  1.00  0.00     0.140 C 
BRANCH   3   4
ATOM      4  N   UNL     1      -0.075   2.918  -0.971  1.00  0.00    -0.369 N 
BRANCH   4   5
ATOM      5  C   UNL     1       0.262   1.585  -1.392  1.00  0.00     0.045 A 
ATOM      6  C   UNL     1       0.056  -2.380  -3.623  1.00  0.00     0.219 C 
ATOM      7  N   UNL     1       0.901  -2.394  -2.627  1.00  0.00    -0.213 NA
ATOM      8  C   UNL     1      -0.587  -1.067  -3.770  1.00  0.00     0.047 A 
ATOM      9  C   UNL     1       0.835  -1.072  -2.080  1.00  0.00     0.085 A 
ATOM     10  C   UNL     1      -1.552  -0.520  -4.617  1.00  0.00     0.014 A 
ATOM     11  C   UNL     1      -0.047  -0.325  -2.781  1.00  0.00     0.023 A 
ATOM     12  C   UNL     1       1.490  -0.532  -0.973  1.00  0.00     0.066 A 
ATOM     13  C   UNL     1      -1.926   0.829  -4.397  1.00  0.00     0.002 A 
ATOM     14  C   UNL     1      -0.380   0.986  -2.502  1.00  0.00     0.008 A 
ATOM     15  C   UNL     1       1.200   0.821  -0.635  1.00  0.00     0.039 A 
ATOM     16  C   UNL     1      -1.343   1.586  -3.343  1.00  0.00     0.011 A 
BRANCH   6  17
ATOM     17  O   UNL     1      -0.186  -3.492  -4.422  1.00  0.00    -0.493 OA
ATOM     18  H   UNL     1      -0.849  -3.447  -5.185  1.00  0.00     0.295 HD
ENDBRANCH   6  17
BRANCH  12  19
ATOM     19  N   UNL     1       2.397  -1.342  -0.213  1.00  0.00    -0.058 NA
BRANCH  19  20
ATOM     20  N   UNL     1       2.984  -0.910   0.779  1.00  0.00     0.005 N 
ATOM     21  N   UNL     1       3.571  -0.479   1.771  1.00  0.00    -0.003 NA
ENDBRANCH  19  20
ENDBRANCH  12  19
ENDBRANCH   4   5
BRANCH   4  22
ATOM     22  C   UNL     1       0.742   4.042  -1.444  1.00  0.00     0.113 C 
ATOM     23  C   UNL     1       1.995   4.197  -0.589  1.00  0.00     0.027 C 
ENDBRANCH   4  22
ENDBRANCH   3   4
ENDBRANCH   2   3
ENDBRANCH   1   2
BRANCH   1  24
ATOM     24  C   UNL     1      -1.662  -0.087   1.540  1.00  0.00     0.214 C 
BRANCH  24  25
ATOM     25  O   UNL     1      -1.986  -1.368   1.067  1.00  0.00    -0.410 OA
BRANCH  25  26
ATOM     26  C   UNL     1      -2.447  -1.667  -0.226  1.00  0.00     0.315 C 
ATOM     27  O   UNL     1      -2.788  -0.751  -1.022  1.00  0.00    -0.251 OA
BRANCH  26  28
ATOM     28  C   UNL     1      -2.552  -3.091  -0.685  1.00  0.00     0.105 C 
ATOM     29  C   UNL     1      -1.242  -3.867  -0.586  1.00  0.00     0.022 C 
ATOM     30  C   UNL     1      -2.379  -4.168   0.382  1.00  0.00     0.030 C 
BRANCH  30  31
ATOM     31  C   UNL     1      -3.116  -5.483   0.108  1.00  0.00     0.160 C 
BRANCH  31  32
ATOM     32  O   UNL     1      -4.366  -5.470   0.743  1.00  0.00    -0.396 OA
ATOM     33  H   UNL     1      -4.948  -4.864   0.210  1.00  0.00     0.210 HD
ENDBRANCH  31  32
ENDBRANCH  30  31
ENDBRANCH  26  28
ENDBRANCH  25  26
ENDBRANCH  24  25
BRANCH  24  34
ATOM     34  C   UNL     1      -1.315   0.063   2.996  1.00  0.00     0.133 C 
ATOM     35  C   UNL     1      -0.476  -1.065   3.588  1.00  0.00     0.034 C 
ATOM     36  C   UNL     1       0.142   0.306   3.355  1.00  0.00     0.034 C 
BRANCH  34  37
ATOM     37  C   UNL     1      -2.326   0.610   3.908  1.00  0.00     0.079 C 
ATOM     38  N   UNL     1      -3.127   1.038   4.626  1.00  0.00    -0.197 NA
ENDBRANCH  34  37
ENDBRANCH  24  34
ENDBRANCH   1  24
TORSDOF 16


