MODEL 1
REMARK VINA RESULT:      -5.1      0.000      0.000
REMARK SMILES CCN(CC/N=C(/OC(=O)[C@H]1C[C@@H]1CO)C1(C#N)CC1)c1cc(N=[N+]=[N-])c2c3c(cccc13)C(=O)N2
REMARK SMILES IDX 6 1 7 2 8 3 9 4 10 5 11 6 13 7 12 8 14 9 15 10 16 12 19 13
REMARK SMILES IDX 20 14 17 15 18 16 5 17 4 18 3 19 21 20 22 21 33 22 23 23
REMARK SMILES IDX 32 24 28 25 27 26 31 27 29 28 36 29 30 30 34 31 35 33 24 34
REMARK SMILES IDX 25 35 26 36 2 37 1 38
REMARK H PARENT 15 11 36 32
ROOT
ATOM      1  N   UNL     1      40.174 136.032  18.408  1.00  0.00    -0.252 NA
ENDROOT
BRANCH   1   2
ATOM      2  C   UNL     1      38.894 135.949  18.186  1.00  0.00     0.214 C 
BRANCH   2   3
ATOM      3  O   UNL     1      38.248 136.914  17.396  1.00  0.00    -0.410 OA
BRANCH   3   4
ATOM      4  C   UNL     1      38.812 137.564  16.283  1.00  0.00     0.315 C 
ATOM      5  O   UNL     1      39.271 138.735  16.380  1.00  0.00    -0.251 OA
BRANCH   4   6
ATOM      6  C   UNL     1      38.848 136.888  14.942  1.00  0.00     0.105 C 
ATOM      7  C   UNL     1      39.011 135.370  14.980  1.00  0.00     0.030 C 
ATOM      8  C   UNL     1      40.187 136.254  14.571  1.00  0.00     0.022 C 
BRANCH   7   9
ATOM      9  C   UNL     1      38.333 134.621  13.826  1.00  0.00     0.160 C 
BRANCH   9  10
ATOM     10  O   UNL     1      38.753 133.286  13.824  1.00  0.00    -0.396 OA
ATOM     11  H   UNL     1      38.230 132.824  14.530  1.00  0.00     0.210 HD
ENDBRANCH   9  10
ENDBRANCH   7   9
ENDBRANCH   4   6
ENDBRANCH   3   4
ENDBRANCH   2   3
BRANCH   2  12
ATOM     12  C   UNL     1      38.075 134.798  18.701  1.00  0.00     0.133 C 
ATOM     13  C   UNL     1      38.194 133.507  17.903  1.00  0.00     0.034 C 
ATOM     14  C   UNL     1      36.910 134.321  17.849  1.00  0.00     0.034 C 
BRANCH  12  15
ATOM     15  C   UNL     1      37.953 134.610  20.154  1.00  0.00     0.079 C 
ATOM     16  N   UNL     1      37.856 134.464  21.299  1.00  0.00    -0.197 NA
ENDBRANCH  12  15
ENDBRANCH   2  12
ENDBRANCH   1   2
BRANCH   1  17
ATOM     17  C   UNL     1      40.814 136.379  19.676  1.00  0.00     0.167 C 
BRANCH  17  18
ATOM     18  C   UNL     1      41.637 135.186  20.178  1.00  0.00     0.140 C 
BRANCH  18  19
ATOM     19  N   UNL     1      43.018 135.206  19.661  1.00  0.00    -0.369 N 
BRANCH  19  20
ATOM     20  C   UNL     1      43.454 134.237  18.690  1.00  0.00     0.045 A 
ATOM     21  C   UNL     1      43.194 134.466  17.307  1.00  0.00     0.039 A 
ATOM     22  C   UNL     1      44.200 133.097  19.077  1.00  0.00     0.008 A 
ATOM     23  C   UNL     1      43.679 133.573  16.309  1.00  0.00     0.064 A 
ATOM     24  C   UNL     1      44.522 132.723  20.402  1.00  0.00     0.011 A 
ATOM     25  C   UNL     1      44.666 132.273  18.063  1.00  0.00     0.021 A 
ATOM     26  C   UNL     1      44.433 132.478  16.733  1.00  0.00     0.059 A 
ATOM     27  C   UNL     1      45.297 131.555  20.639  1.00  0.00     0.002 A 
ATOM     28  C   UNL     1      45.405 131.148  18.271  1.00  0.00     0.050 A 
ATOM     29  N   UNL     1      45.035 131.443  15.951  1.00  0.00    -0.321 N 
ATOM     30  C   UNL     1      45.750 130.754  19.563  1.00  0.00     0.014 A 
ATOM     31  C   UNL     1      45.650 130.602  16.938  1.00  0.00     0.256 C 
ATOM     32  H   UNL     1      45.029 131.326  14.914  1.00  0.00     0.170 HD
ATOM     33  O   UNL     1      46.291 129.552  16.672  1.00  0.00    -0.269 OA
BRANCH  23  34
ATOM     34  N   UNL     1      43.419 133.764  14.912  1.00  0.00    -0.058 NA
BRANCH  34  35
ATOM     35  N   UNL     1      42.457 133.241  14.346  1.00  0.00     0.005 N 
ATOM     36  N   UNL     1      41.498 132.718  13.779  1.00  0.00    -0.003 NA
ENDBRANCH  34  35
ENDBRANCH  23  34
ENDBRANCH  19  20
BRANCH  19  37
ATOM     37  C   UNL     1      43.904 136.335  19.987  1.00  0.00     0.113 C 
ATOM     38  C   UNL     1      44.425 136.220  21.416  1.00  0.00     0.027 C 
ENDBRANCH  19  37
ENDBRANCH  18  19
ENDBRANCH  17  18
ENDBRANCH   1  17
TORSDOF 15
ENDMDL
MODEL 2
REMARK VINA RESULT:      -5.0      3.041      7.082
REMARK SMILES CCN(CC/N=C(/OC(=O)[C@H]1C[C@@H]1CO)C1(C#N)CC1)c1cc(N=[N+]=[N-])c2c3c(cccc13)C(=O)N2
REMARK SMILES IDX 6 1 7 2 8 3 9 4 10 5 11 6 13 7 12 8 14 9 15 10 16 12 19 13
REMARK SMILES IDX 20 14 17 15 18 16 5 17 4 18 3 19 21 20 22 21 33 22 23 23
REMARK SMILES IDX 32 24 28 25 27 26 31 27 29 28 36 29 30 30 34 31 35 33 24 34
REMARK SMILES IDX 25 35 26 36 2 37 1 38
REMARK H PARENT 15 11 36 32
ROOT
ATOM      1  N   UNL     1      43.647 132.903  15.662  1.00  0.00    -0.252 NA
ENDROOT
BRANCH   1   2
ATOM      2  C   UNL     1      44.289 132.263  16.596  1.00  0.00     0.214 C 
BRANCH   2   3
ATOM      3  O   UNL     1      45.582 131.770  16.356  1.00  0.00    -0.410 OA
BRANCH   3   4
ATOM      4  C   UNL     1      45.905 130.427  16.094  1.00  0.00     0.315 C 
ATOM      5  O   UNL     1      46.026 129.594  17.036  1.00  0.00    -0.251 OA
BRANCH   4   6
ATOM      6  C   UNL     1      46.147 129.959  14.688  1.00  0.00     0.105 C 
ATOM      7  C   UNL     1      46.767 130.995  13.753  1.00  0.00     0.030 C 
ATOM      8  C   UNL     1      45.289 130.636  13.622  1.00  0.00     0.022 C 
BRANCH   7   9
ATOM      9  C   UNL     1      47.673 130.415  12.660  1.00  0.00     0.160 C 
BRANCH   9  10
ATOM     10  O   UNL     1      48.231 129.211  13.104  1.00  0.00    -0.396 OA
ATOM     11  H   UNL     1      48.067 128.542  12.388  1.00  0.00     0.210 HD
ENDBRANCH   9  10
ENDBRANCH   7   9
ENDBRANCH   4   6
ENDBRANCH   3   4
ENDBRANCH   2   3
BRANCH   2  12
ATOM     12  C   UNL     1      43.712 132.085  17.973  1.00  0.00     0.133 C 
ATOM     13  C   UNL     1      44.306 132.985  19.048  1.00  0.00     0.034 C 
ATOM     14  C   UNL     1      44.613 131.495  19.047  1.00  0.00     0.034 C 
BRANCH  12  15
ATOM     15  C   UNL     1      42.270 131.838  18.109  1.00  0.00     0.079 C 
ATOM     16  N   UNL     1      41.134 131.641  18.216  1.00  0.00    -0.197 NA
ENDBRANCH  12  15
ENDBRANCH   2  12
ENDBRANCH   1   2
BRANCH   1  17
ATOM     17  C   UNL     1      43.938 134.252  15.178  1.00  0.00     0.167 C 
BRANCH  17  18
ATOM     18  C   UNL     1      44.046 135.211  16.369  1.00  0.00     0.140 C 
BRANCH  18  19
ATOM     19  N   UNL     1      42.775 135.911  16.637  1.00  0.00    -0.369 N 
BRANCH  19  20
ATOM     20  C   UNL     1      42.108 135.764  17.904  1.00  0.00     0.045 A 
ATOM     21  C   UNL     1      40.791 135.221  17.943  1.00  0.00     0.039 A 
ATOM     22  C   UNL     1      42.765 136.080  19.118  1.00  0.00     0.008 A 
ATOM     23  C   UNL     1      40.128 134.984  19.181  1.00  0.00     0.064 A 
ATOM     24  C   UNL     1      44.057 136.642  19.244  1.00  0.00     0.011 A 
ATOM     25  C   UNL     1      42.082 135.810  20.294  1.00  0.00     0.021 A 
ATOM     26  C   UNL     1      40.823 135.285  20.354  1.00  0.00     0.059 A 
ATOM     27  C   UNL     1      44.597 136.891  20.535  1.00  0.00     0.002 A 
ATOM     28  C   UNL     1      42.582 136.047  21.540  1.00  0.00     0.050 A 
ATOM     29  N   UNL     1      40.400 135.142  21.712  1.00  0.00    -0.321 N 
ATOM     30  C   UNL     1      43.855 136.589  21.703  1.00  0.00     0.014 A 
ATOM     31  C   UNL     1      41.524 135.630  22.459  1.00  0.00     0.256 C 
ATOM     32  H   UNL     1      39.494 134.773  22.075  1.00  0.00     0.170 HD
ATOM     33  O   UNL     1      41.568 135.688  23.716  1.00  0.00    -0.269 OA
BRANCH  23  34
ATOM     34  N   UNL     1      38.797 134.457  19.255  1.00  0.00    -0.058 NA
BRANCH  34  35
ATOM     35  N   UNL     1      37.802 135.183  19.227  1.00  0.00     0.005 N 
ATOM     36  N   UNL     1      36.806 135.906  19.201  1.00  0.00    -0.003 NA
ENDBRANCH  34  35
ENDBRANCH  23  34
ENDBRANCH  19  20
BRANCH  19  37
ATOM     37  C   UNL     1      42.281 136.918  15.685  1.00  0.00     0.113 C 
ATOM     38  C   UNL     1      42.829 138.300  16.025  1.00  0.00     0.027 C 
ENDBRANCH  19  37
ENDBRANCH  18  19
ENDBRANCH  17  18
ENDBRANCH   1  17
TORSDOF 15
ENDMDL
MODEL 3
REMARK VINA RESULT:      -4.8      2.638      7.648
REMARK SMILES CCN(CC/N=C(/OC(=O)[C@H]1C[C@@H]1CO)C1(C#N)CC1)c1cc(N=[N+]=[N-])c2c3c(cccc13)C(=O)N2
REMARK SMILES IDX 6 1 7 2 8 3 9 4 10 5 11 6 13 7 12 8 14 9 15 10 16 12 19 13
REMARK SMILES IDX 20 14 17 15 18 16 5 17 4 18 3 19 21 20 22 21 33 22 23 23
REMARK SMILES IDX 32 24 28 25 27 26 31 27 29 28 36 29 30 30 34 31 35 33 24 34
REMARK SMILES IDX 25 35 26 36 2 37 1 38
REMARK H PARENT 15 11 36 32
ROOT
ATOM      1  N   UNL     1      44.488 133.343  15.421  1.00  0.00    -0.252 NA
ENDROOT
BRANCH   1   2
ATOM      2  C   UNL     1      45.050 132.453  16.186  1.00  0.00     0.214 C 
BRANCH   2   3
ATOM      3  O   UNL     1      44.966 132.566  17.584  1.00  0.00    -0.410 OA
BRANCH   3   4
ATOM      4  C   UNL     1      43.983 131.965  18.390  1.00  0.00     0.315 C 
ATOM      5  O   UNL     1      42.841 131.691  17.926  1.00  0.00    -0.251 OA
BRANCH   4   6
ATOM      6  C   UNL     1      44.260 131.667  19.836  1.00  0.00     0.105 C 
ATOM      7  C   UNL     1      45.225 132.626  20.528  1.00  0.00     0.030 C 
ATOM      8  C   UNL     1      45.688 131.223  20.145  1.00  0.00     0.022 C 
BRANCH   7   9
ATOM      9  C   UNL     1      44.963 132.835  22.024  1.00  0.00     0.160 C 
BRANCH   9  10
ATOM     10  O   UNL     1      43.612 133.143  22.224  1.00  0.00    -0.396 OA
ATOM     11  H   UNL     1      43.494 133.278  23.201  1.00  0.00     0.210 HD
ENDBRANCH   9  10
ENDBRANCH   7   9
ENDBRANCH   4   6
ENDBRANCH   3   4
ENDBRANCH   2   3
BRANCH   2  12
ATOM     12  C   UNL     1      45.745 131.247  15.618  1.00  0.00     0.133 C 
ATOM     13  C   UNL     1      44.906 129.977  15.566  1.00  0.00     0.034 C 
ATOM     14  C   UNL     1      46.050 130.095  16.563  1.00  0.00     0.034 C 
BRANCH  12  15
ATOM     15  C   UNL     1      46.654 131.426  14.477  1.00  0.00     0.079 C 
ATOM     16  N   UNL     1      47.369 131.569  13.578  1.00  0.00    -0.197 NA
ENDBRANCH  12  15
ENDBRANCH   2  12
ENDBRANCH   1   2
BRANCH   1  17
ATOM     17  C   UNL     1      43.220 133.197  14.706  1.00  0.00     0.167 C 
BRANCH  17  18
ATOM     18  C   UNL     1      42.071 133.105  15.717  1.00  0.00     0.140 C 
BRANCH  18  19
ATOM     19  N   UNL     1      41.383 134.398  15.896  1.00  0.00    -0.369 N 
BRANCH  19  20
ATOM     20  C   UNL     1      40.991 134.846  17.207  1.00  0.00     0.045 A 
ATOM     21  C   UNL     1      39.617 134.796  17.583  1.00  0.00     0.039 A 
ATOM     22  C   UNL     1      41.956 135.267  18.155  1.00  0.00     0.008 A 
ATOM     23  C   UNL     1      39.199 135.154  18.897  1.00  0.00     0.064 A 
ATOM     24  C   UNL     1      43.346 135.389  17.930  1.00  0.00     0.011 A 
ATOM     25  C   UNL     1      41.496 135.583  19.425  1.00  0.00     0.021 A 
ATOM     26  C   UNL     1      40.186 135.536  19.807  1.00  0.00     0.059 A 
ATOM     27  C   UNL     1      44.200 135.808  18.987  1.00  0.00     0.002 A 
ATOM     28  C   UNL     1      42.299 135.992  20.448  1.00  0.00     0.050 A 
ATOM     29  N   UNL     1      40.045 135.935  21.173  1.00  0.00    -0.321 N 
ATOM     30  C   UNL     1      43.675 136.114  20.266  1.00  0.00     0.014 A 
ATOM     31  C   UNL     1      41.393 136.224  21.572  1.00  0.00     0.256 C 
ATOM     32  H   UNL     1      39.174 136.002  21.743  1.00  0.00     0.170 HD
ATOM     33  O   UNL     1      41.721 136.624  22.719  1.00  0.00    -0.269 OA
BRANCH  23  34
ATOM     34  N   UNL     1      37.824 135.133  19.301  1.00  0.00    -0.058 NA
BRANCH  34  35
ATOM     35  N   UNL     1      37.314 136.054  19.941  1.00  0.00     0.005 N 
ATOM     36  N   UNL     1      36.806 136.976  20.578  1.00  0.00    -0.003 NA
ENDBRANCH  34  35
ENDBRANCH  23  34
ENDBRANCH  19  20
BRANCH  19  37
ATOM     37  C   UNL     1      41.267 135.328  14.762  1.00  0.00     0.113 C 
ATOM     38  C   UNL     1      42.132 136.564  14.984  1.00  0.00     0.027 C 
ENDBRANCH  19  37
ENDBRANCH  18  19
ENDBRANCH  17  18
ENDBRANCH   1  17
TORSDOF 15
ENDMDL
MODEL 4
REMARK VINA RESULT:      -4.8      2.673      7.928
REMARK SMILES CCN(CC/N=C(/OC(=O)[C@H]1C[C@@H]1CO)C1(C#N)CC1)c1cc(N=[N+]=[N-])c2c3c(cccc13)C(=O)N2
REMARK SMILES IDX 6 1 7 2 8 3 9 4 10 5 11 6 13 7 12 8 14 9 15 10 16 12 19 13
REMARK SMILES IDX 20 14 17 15 18 16 5 17 4 18 3 19 21 20 22 21 33 22 23 23
REMARK SMILES IDX 32 24 28 25 27 26 31 27 29 28 36 29 30 30 34 31 35 33 24 34
REMARK SMILES IDX 25 35 26 36 2 37 1 38
REMARK H PARENT 15 11 36 32
ROOT
ATOM      1  N   UNL     1      44.815 132.838  15.066  1.00  0.00    -0.252 NA
ENDROOT
BRANCH   1   2
ATOM      2  C   UNL     1      45.002 131.669  15.608  1.00  0.00     0.214 C 
BRANCH   2   3
ATOM      3  O   UNL     1      44.634 131.441  16.944  1.00  0.00    -0.410 OA
BRANCH   3   4
ATOM      4  C   UNL     1      43.409 131.815  17.525  1.00  0.00     0.315 C 
ATOM      5  O   UNL     1      42.318 131.623  16.919  1.00  0.00    -0.251 OA
BRANCH   4   6
ATOM      6  C   UNL     1      43.374 132.483  18.870  1.00  0.00     0.105 C 
ATOM      7  C   UNL     1      44.583 132.218  19.763  1.00  0.00     0.030 C 
ATOM      8  C   UNL     1      43.250 131.538  20.062  1.00  0.00     0.022 C 
BRANCH   7   9
ATOM      9  C   UNL     1      44.950 133.367  20.709  1.00  0.00     0.160 C 
BRANCH   9  10
ATOM     10  O   UNL     1      43.782 133.934  21.232  1.00  0.00    -0.396 OA
ATOM     11  H   UNL     1      43.233 134.218  20.455  1.00  0.00     0.210 HD
ENDBRANCH   9  10
ENDBRANCH   7   9
ENDBRANCH   4   6
ENDBRANCH   3   4
ENDBRANCH   2   3
BRANCH   2  12
ATOM     12  C   UNL     1      45.548 130.511  14.821  1.00  0.00     0.133 C 
ATOM     13  C   UNL     1      46.948 130.709  14.257  1.00  0.00     0.034 C 
ATOM     14  C   UNL     1      45.746 130.702  13.325  1.00  0.00     0.034 C 
BRANCH  12  15
ATOM     15  C   UNL     1      45.262 129.144  15.281  1.00  0.00     0.079 C 
ATOM     16  N   UNL     1      45.036 128.069  15.646  1.00  0.00    -0.197 NA
ENDBRANCH  12  15
ENDBRANCH   2  12
ENDBRANCH   1   2
BRANCH   1  17
ATOM     17  C   UNL     1      43.763 133.794  15.408  1.00  0.00     0.167 C 
BRANCH  17  18
ATOM     18  C   UNL     1      44.399 135.108  15.878  1.00  0.00     0.140 C 
BRANCH  18  19
ATOM     19  N   UNL     1      43.550 135.820  16.853  1.00  0.00    -0.369 N 
BRANCH  19  20
ATOM     20  C   UNL     1      42.185 136.149  16.535  1.00  0.00     0.045 A 
ATOM     21  C   UNL     1      41.128 135.384  17.110  1.00  0.00     0.039 A 
ATOM     22  C   UNL     1      41.871 137.265  15.722  1.00  0.00     0.008 A 
ATOM     23  C   UNL     1      39.764 135.726  16.886  1.00  0.00     0.064 A 
ATOM     24  C   UNL     1      42.801 138.106  15.069  1.00  0.00     0.011 A 
ATOM     25  C   UNL     1      40.528 137.567  15.555  1.00  0.00     0.021 A 
ATOM     26  C   UNL     1      39.501 136.850  16.100  1.00  0.00     0.059 A 
ATOM     27  C   UNL     1      42.338 139.206  14.295  1.00  0.00     0.002 A 
ATOM     28  C   UNL     1      40.066 138.612  14.813  1.00  0.00     0.050 A 
ATOM     29  N   UNL     1      38.241 137.412  15.726  1.00  0.00    -0.321 N 
ATOM     30  C   UNL     1      40.953 139.469  14.163  1.00  0.00     0.014 A 
ATOM     31  C   UNL     1      38.609 138.531  14.908  1.00  0.00     0.256 C 
ATOM     32  H   UNL     1      37.283 137.087  15.985  1.00  0.00     0.170 HD
ATOM     33  O   UNL     1      37.785 139.307  14.356  1.00  0.00    -0.269 OA
BRANCH  23  34
ATOM     34  N   UNL     1      38.678 134.967  17.433  1.00  0.00    -0.058 NA
BRANCH  34  35
ATOM     35  N   UNL     1      38.719 133.739  17.529  1.00  0.00     0.005 N 
ATOM     36  N   UNL     1      38.761 132.513  17.622  1.00  0.00    -0.003 NA
ENDBRANCH  34  35
ENDBRANCH  23  34
ENDBRANCH  19  20
BRANCH  19  37
ATOM     37  C   UNL     1      44.030 136.025  18.228  1.00  0.00     0.113 C 
ATOM     38  C   UNL     1      43.962 137.499  18.611  1.00  0.00     0.027 C 
ENDBRANCH  19  37
ENDBRANCH  18  19
ENDBRANCH  17  18
ENDBRANCH   1  17
TORSDOF 15
ENDMDL
MODEL 5
REMARK VINA RESULT:      -4.8      3.374      6.367
REMARK SMILES CCN(CC/N=C(/OC(=O)[C@H]1C[C@@H]1CO)C1(C#N)CC1)c1cc(N=[N+]=[N-])c2c3c(cccc13)C(=O)N2
REMARK SMILES IDX 6 1 7 2 8 3 9 4 10 5 11 6 13 7 12 8 14 9 15 10 16 12 19 13
REMARK SMILES IDX 20 14 17 15 18 16 5 17 4 18 3 19 21 20 22 21 33 22 23 23
REMARK SMILES IDX 32 24 28 25 27 26 31 27 29 28 36 29 30 30 34 31 35 33 24 34
REMARK SMILES IDX 25 35 26 36 2 37 1 38
REMARK H PARENT 15 11 36 32
ROOT
ATOM      1  N   UNL     1      43.454 133.546  18.154  1.00  0.00    -0.252 NA
ENDROOT
BRANCH   1   2
ATOM      2  C   UNL     1      43.076 133.260  16.941  1.00  0.00     0.214 C 
BRANCH   2   3
ATOM      3  O   UNL     1      43.221 131.955  16.443  1.00  0.00    -0.410 OA
BRANCH   3   4
ATOM      4  C   UNL     1      44.371 131.158  16.573  1.00  0.00     0.315 C 
ATOM      5  O   UNL     1      44.961 131.045  17.683  1.00  0.00    -0.251 OA
BRANCH   4   6
ATOM      6  C   UNL     1      44.946 130.448  15.380  1.00  0.00     0.105 C 
ATOM      7  C   UNL     1      45.869 131.289  14.501  1.00  0.00     0.030 C 
ATOM      8  C   UNL     1      44.457 130.955  14.025  1.00  0.00     0.022 C 
BRANCH   7   9
ATOM      9  C   UNL     1      46.988 130.505  13.807  1.00  0.00     0.160 C 
BRANCH   9  10
ATOM     10  O   UNL     1      47.780 131.382  13.058  1.00  0.00    -0.396 OA
ATOM     11  H   UNL     1      47.587 132.296  13.396  1.00  0.00     0.210 HD
ENDBRANCH   9  10
ENDBRANCH   7   9
ENDBRANCH   4   6
ENDBRANCH   3   4
ENDBRANCH   2   3
BRANCH   2  12
ATOM     12  C   UNL     1      42.416 134.282  16.057  1.00  0.00     0.133 C 
ATOM     13  C   UNL     1      42.261 133.877  14.598  1.00  0.00     0.034 C 
ATOM     14  C   UNL     1      43.268 134.949  14.988  1.00  0.00     0.034 C 
BRANCH  12  15
ATOM     15  C   UNL     1      41.297 135.068  16.597  1.00  0.00     0.079 C 
ATOM     16  N   UNL     1      40.416 135.686  17.024  1.00  0.00    -0.197 NA
ENDBRANCH  12  15
ENDBRANCH   2  12
ENDBRANCH   1   2
BRANCH   1  17
ATOM     17  C   UNL     1      42.627 133.477  19.358  1.00  0.00     0.167 C 
BRANCH  17  18
ATOM     18  C   UNL     1      43.510 133.679  20.596  1.00  0.00     0.140 C 
BRANCH  18  19
ATOM     19  N   UNL     1      43.471 135.070  21.086  1.00  0.00    -0.369 N 
BRANCH  19  20
ATOM     20  C   UNL     1      44.199 136.109  20.405  1.00  0.00     0.045 A 
ATOM     21  C   UNL     1      43.500 137.010  19.550  1.00  0.00     0.039 A 
ATOM     22  C   UNL     1      45.585 136.297  20.627  1.00  0.00     0.008 A 
ATOM     23  C   UNL     1      44.169 138.099  18.922  1.00  0.00     0.064 A 
ATOM     24  C   UNL     1      46.418 135.482  21.428  1.00  0.00     0.011 A 
ATOM     25  C   UNL     1      46.181 137.386  20.009  1.00  0.00     0.021 A 
ATOM     26  C   UNL     1      45.529 138.263  19.191  1.00  0.00     0.059 A 
ATOM     27  C   UNL     1      47.795 135.805  21.573  1.00  0.00     0.002 A 
ATOM     28  C   UNL     1      47.500 137.708  20.133  1.00  0.00     0.050 A 
ATOM     29  N   UNL     1      46.428 139.262  18.703  1.00  0.00    -0.321 N 
ATOM     30  C   UNL     1      48.349 136.933  20.921  1.00  0.00     0.014 A 
ATOM     31  C   UNL     1      47.679 138.900  19.306  1.00  0.00     0.256 C 
ATOM     32  H   UNL     1      46.226 140.061  18.063  1.00  0.00     0.170 HD
ATOM     33  O   UNL     1      48.757 139.525  19.129  1.00  0.00    -0.269 OA
BRANCH  23  34
ATOM     34  N   UNL     1      43.499 139.011  18.042  1.00  0.00    -0.058 NA
BRANCH  34  35
ATOM     35  N   UNL     1      43.155 138.691  16.903  1.00  0.00     0.005 N 
ATOM     36  N   UNL     1      42.810 138.368  15.767  1.00  0.00    -0.003 NA
ENDBRANCH  34  35
ENDBRANCH  23  34
ENDBRANCH  19  20
BRANCH  19  37
ATOM     37  C   UNL     1      42.533 135.444  22.156  1.00  0.00     0.113 C 
ATOM     38  C   UNL     1      41.096 135.427  21.647  1.00  0.00     0.027 C 
ENDBRANCH  19  37
ENDBRANCH  18  19
ENDBRANCH  17  18
ENDBRANCH   1  17
TORSDOF 15
ENDMDL
MODEL 6
REMARK VINA RESULT:      -4.7      3.367      7.809
REMARK SMILES CCN(CC/N=C(/OC(=O)[C@H]1C[C@@H]1CO)C1(C#N)CC1)c1cc(N=[N+]=[N-])c2c3c(cccc13)C(=O)N2
REMARK SMILES IDX 6 1 7 2 8 3 9 4 10 5 11 6 13 7 12 8 14 9 15 10 16 12 19 13
REMARK SMILES IDX 20 14 17 15 18 16 5 17 4 18 3 19 21 20 22 21 33 22 23 23
REMARK SMILES IDX 32 24 28 25 27 26 31 27 29 28 36 29 30 30 34 31 35 33 24 34
REMARK SMILES IDX 25 35 26 36 2 37 1 38
REMARK H PARENT 15 11 36 32
ROOT
ATOM      1  N   UNL     1      44.149 132.736  17.033  1.00  0.00    -0.252 NA
ENDROOT
BRANCH   1   2
ATOM      2  C   UNL     1      44.929 131.826  16.525  1.00  0.00     0.214 C 
BRANCH   2   3
ATOM      3  O   UNL     1      45.345 131.916  15.187  1.00  0.00    -0.410 OA
BRANCH   3   4
ATOM      4  C   UNL     1      44.914 131.078  14.143  1.00  0.00     0.315 C 
ATOM      5  O   UNL     1      43.699 131.037  13.803  1.00  0.00    -0.251 OA
BRANCH   4   6
ATOM      6  C   UNL     1      45.889 130.185  13.430  1.00  0.00     0.105 C 
ATOM      7  C   UNL     1      47.303 130.741  13.289  1.00  0.00     0.030 C 
ATOM      8  C   UNL     1      46.374 130.701  12.078  1.00  0.00     0.022 C 
BRANCH   7   9
ATOM      9  C   UNL     1      48.414 129.685  13.287  1.00  0.00     0.160 C 
BRANCH   9  10
ATOM     10  O   UNL     1      48.004 128.573  14.031  1.00  0.00    -0.396 OA
ATOM     11  H   UNL     1      47.237 128.872  14.588  1.00  0.00     0.210 HD
ENDBRANCH   9  10
ENDBRANCH   7   9
ENDBRANCH   4   6
ENDBRANCH   3   4
ENDBRANCH   2   3
BRANCH   2  12
ATOM     12  C   UNL     1      45.468 130.694  17.355  1.00  0.00     0.133 C 
ATOM     13  C   UNL     1      46.722 130.026  16.808  1.00  0.00     0.034 C 
ATOM     14  C   UNL     1      45.390 129.291  16.772  1.00  0.00     0.034 C 
BRANCH  12  15
ATOM     15  C   UNL     1      45.423 130.806  18.820  1.00  0.00     0.079 C 
ATOM     16  N   UNL     1      45.389 130.893  19.974  1.00  0.00    -0.197 NA
ENDBRANCH  12  15
ENDBRANCH   2  12
ENDBRANCH   1   2
BRANCH   1  17
ATOM     17  C   UNL     1      42.691 132.671  17.132  1.00  0.00     0.167 C 
BRANCH  17  18
ATOM     18  C   UNL     1      42.112 134.090  17.101  1.00  0.00     0.140 C 
BRANCH  18  19
ATOM     19  N   UNL     1      42.587 134.910  18.232  1.00  0.00    -0.369 N 
BRANCH  19  20
ATOM     20  C   UNL     1      42.339 134.502  19.590  1.00  0.00     0.045 A 
ATOM     21  C   UNL     1      43.413 133.986  20.374  1.00  0.00     0.039 A 
ATOM     22  C   UNL     1      41.065 134.672  20.184  1.00  0.00     0.008 A 
ATOM     23  C   UNL     1      43.228 133.648  21.745  1.00  0.00     0.064 A 
ATOM     24  C   UNL     1      39.902 135.150  19.537  1.00  0.00     0.011 A 
ATOM     25  C   UNL     1      40.946 134.347  21.527  1.00  0.00     0.021 A 
ATOM     26  C   UNL     1      41.962 133.857  22.297  1.00  0.00     0.059 A 
ATOM     27  C   UNL     1      38.691 135.286  20.270  1.00  0.00     0.002 A 
ATOM     28  C   UNL     1      39.792 134.465  22.243  1.00  0.00     0.050 A 
ATOM     29  N   UNL     1      41.510 133.610  23.630  1.00  0.00    -0.321 N 
ATOM     30  C   UNL     1      38.629 134.942  21.642  1.00  0.00     0.014 A 
ATOM     31  C   UNL     1      40.130 133.999  23.587  1.00  0.00     0.256 C 
ATOM     32  H   UNL     1      42.052 133.238  24.441  1.00  0.00     0.170 HD
ATOM     33  O   UNL     1      39.344 133.932  24.568  1.00  0.00    -0.269 OA
BRANCH  23  34
ATOM     34  N   UNL     1      44.280 133.109  22.555  1.00  0.00    -0.058 NA
BRANCH  34  35
ATOM     35  N   UNL     1      44.905 133.799  23.362  1.00  0.00     0.005 N 
ATOM     36  N   UNL     1      45.527 134.491  24.168  1.00  0.00    -0.003 NA
ENDBRANCH  34  35
ENDBRANCH  23  34
ENDBRANCH  19  20
BRANCH  19  37
ATOM     37  C   UNL     1      43.487 136.047  17.984  1.00  0.00     0.113 C 
ATOM     38  C   UNL     1      42.899 137.336  18.550  1.00  0.00     0.027 C 
ENDBRANCH  19  37
ENDBRANCH  18  19
ENDBRANCH  17  18
ENDBRANCH   1  17
TORSDOF 15
ENDMDL
MODEL 7
REMARK VINA RESULT:      -4.6      2.364      7.253
REMARK SMILES CCN(CC/N=C(/OC(=O)[C@H]1C[C@@H]1CO)C1(C#N)CC1)c1cc(N=[N+]=[N-])c2c3c(cccc13)C(=O)N2
REMARK SMILES IDX 6 1 7 2 8 3 9 4 10 5 11 6 13 7 12 8 14 9 15 10 16 12 19 13
REMARK SMILES IDX 20 14 17 15 18 16 5 17 4 18 3 19 21 20 22 21 33 22 23 23
REMARK SMILES IDX 32 24 28 25 27 26 31 27 29 28 36 29 30 30 34 31 35 33 24 34
REMARK SMILES IDX 25 35 26 36 2 37 1 38
REMARK H PARENT 15 11 36 32
ROOT
ATOM      1  N   UNL     1      44.963 132.305  17.470  1.00  0.00    -0.252 NA
ENDROOT
BRANCH   1   2
ATOM      2  C   UNL     1      44.209 132.187  16.416  1.00  0.00     0.214 C 
BRANCH   2   3
ATOM      3  O   UNL     1      44.056 130.938  15.792  1.00  0.00    -0.410 OA
BRANCH   3   4
ATOM      4  C   UNL     1      45.047 129.945  15.705  1.00  0.00     0.315 C 
ATOM      5  O   UNL     1      45.302 129.195  16.689  1.00  0.00    -0.251 OA
BRANCH   4   6
ATOM      6  C   UNL     1      45.850 129.775  14.447  1.00  0.00     0.105 C 
ATOM      7  C   UNL     1      46.524 131.042  13.927  1.00  0.00     0.030 C 
ATOM      8  C   UNL     1      45.290 130.488  13.219  1.00  0.00     0.022 C 
BRANCH   7   9
ATOM      9  C   UNL     1      47.850 130.811  13.192  1.00  0.00     0.160 C 
BRANCH   9  10
ATOM     10  O   UNL     1      47.656 130.968  11.815  1.00  0.00    -0.396 OA
ATOM     11  H   UNL     1      46.747 131.352  11.699  1.00  0.00     0.210 HD
ENDBRANCH   9  10
ENDBRANCH   7   9
ENDBRANCH   4   6
ENDBRANCH   3   4
ENDBRANCH   2   3
BRANCH   2  12
ATOM     12  C   UNL     1      43.428 133.349  15.868  1.00  0.00     0.133 C 
ATOM     13  C   UNL     1      41.921 133.145  15.801  1.00  0.00     0.034 C 
ATOM     14  C   UNL     1      42.744 133.170  14.522  1.00  0.00     0.034 C 
BRANCH  12  15
ATOM     15  C   UNL     1      43.846 134.713  16.224  1.00  0.00     0.079 C 
ATOM     16  N   UNL     1      44.175 135.787  16.501  1.00  0.00    -0.197 NA
ENDBRANCH  12  15
ENDBRANCH   2  12
ENDBRANCH   1   2
BRANCH   1  17
ATOM     17  C   UNL     1      44.527 132.211  18.863  1.00  0.00     0.167 C 
BRANCH  17  18
ATOM     18  C   UNL     1      43.001 132.070  18.913  1.00  0.00     0.140 C 
BRANCH  18  19
ATOM     19  N   UNL     1      42.392 132.966  19.914  1.00  0.00    -0.369 N 
BRANCH  19  20
ATOM     20  C   UNL     1      41.838 134.236  19.523  1.00  0.00     0.045 A 
ATOM     21  C   UNL     1      42.562 135.432  19.801  1.00  0.00     0.039 A 
ATOM     22  C   UNL     1      40.622 134.313  18.801  1.00  0.00     0.008 A 
ATOM     23  C   UNL     1      42.088 136.700  19.360  1.00  0.00     0.064 A 
ATOM     24  C   UNL     1      39.783 133.225  18.465  1.00  0.00     0.011 A 
ATOM     25  C   UNL     1      40.218 135.570  18.377  1.00  0.00     0.021 A 
ATOM     26  C   UNL     1      40.899 136.726  18.628  1.00  0.00     0.059 A 
ATOM     27  C   UNL     1      38.595 133.453  17.718  1.00  0.00     0.002 A 
ATOM     28  C   UNL     1      39.080 135.807  17.664  1.00  0.00     0.050 A 
ATOM     29  N   UNL     1      40.211 137.848  18.069  1.00  0.00    -0.321 N 
ATOM     30  C   UNL     1      38.234 134.759  17.307  1.00  0.00     0.014 A 
ATOM     31  C   UNL     1      39.056 137.254  17.459  1.00  0.00     0.256 C 
ATOM     32  H   UNL     1      40.482 138.855  18.096  1.00  0.00     0.170 HD
ATOM     33  O   UNL     1      38.165 137.902  16.851  1.00  0.00    -0.269 OA
BRANCH  23  34
ATOM     34  N   UNL     1      42.781 137.923  19.640  1.00  0.00    -0.058 NA
BRANCH  34  35
ATOM     35  N   UNL     1      43.609 138.401  18.862  1.00  0.00     0.005 N 
ATOM     36  N   UNL     1      44.434 138.877  18.082  1.00  0.00    -0.003 NA
ENDBRANCH  34  35
ENDBRANCH  23  34
ENDBRANCH  19  20
BRANCH  19  37
ATOM     37  C   UNL     1      42.169 132.485  21.287  1.00  0.00     0.113 C 
ATOM     38  C   UNL     1      43.339 132.863  22.189  1.00  0.00     0.027 C 
ENDBRANCH  19  37
ENDBRANCH  18  19
ENDBRANCH  17  18
ENDBRANCH   1  17
TORSDOF 15
ENDMDL
MODEL 8
REMARK VINA RESULT:      -4.5      3.346      7.131
REMARK SMILES CCN(CC/N=C(/OC(=O)[C@H]1C[C@@H]1CO)C1(C#N)CC1)c1cc(N=[N+]=[N-])c2c3c(cccc13)C(=O)N2
REMARK SMILES IDX 6 1 7 2 8 3 9 4 10 5 11 6 13 7 12 8 14 9 15 10 16 12 19 13
REMARK SMILES IDX 20 14 17 15 18 16 5 17 4 18 3 19 21 20 22 21 33 22 23 23
REMARK SMILES IDX 32 24 28 25 27 26 31 27 29 28 36 29 30 30 34 31 35 33 24 34
REMARK SMILES IDX 25 35 26 36 2 37 1 38
REMARK H PARENT 15 11 36 32
ROOT
ATOM      1  N   UNL     1      45.519 131.185  17.670  1.00  0.00    -0.252 NA
ENDROOT
BRANCH   1   2
ATOM      2  C   UNL     1      44.762 131.032  16.622  1.00  0.00     0.214 C 
BRANCH   2   3
ATOM      3  O   UNL     1      43.403 131.382  16.673  1.00  0.00    -0.410 OA
BRANCH   3   4
ATOM      4  C   UNL     1      42.870 132.632  16.310  1.00  0.00     0.315 C 
ATOM      5  O   UNL     1      41.637 132.769  16.079  1.00  0.00    -0.251 OA
BRANCH   4   6
ATOM      6  C   UNL     1      43.766 133.827  16.156  1.00  0.00     0.105 C 
ATOM      7  C   UNL     1      43.229 135.127  16.750  1.00  0.00     0.030 C 
ATOM      8  C   UNL     1      43.233 134.923  15.236  1.00  0.00     0.022 C 
BRANCH   7   9
ATOM      9  C   UNL     1      44.303 136.087  17.276  1.00  0.00     0.160 C 
BRANCH   9  10
ATOM     10  O   UNL     1      43.731 137.339  17.524  1.00  0.00    -0.396 OA
ATOM     11  H   UNL     1      42.748 137.198  17.567  1.00  0.00     0.210 HD
ENDBRANCH   9  10
ENDBRANCH   7   9
ENDBRANCH   4   6
ENDBRANCH   3   4
ENDBRANCH   2   3
BRANCH   2  12
ATOM     12  C   UNL     1      45.316 130.546  15.311  1.00  0.00     0.133 C 
ATOM     13  C   UNL     1      44.290 129.963  14.349  1.00  0.00     0.034 C 
ATOM     14  C   UNL     1      45.289 129.049  15.043  1.00  0.00     0.034 C 
BRANCH  12  15
ATOM     15  C   UNL     1      46.391 131.315  14.668  1.00  0.00     0.079 C 
ATOM     16  N   UNL     1      47.237 131.922  14.162  1.00  0.00    -0.197 NA
ENDBRANCH  12  15
ENDBRANCH   2  12
ENDBRANCH   1   2
BRANCH   1  17
ATOM     17  C   UNL     1      45.175 131.919  18.888  1.00  0.00     0.167 C 
BRANCH  17  18
ATOM     18  C   UNL     1      44.739 130.930  19.976  1.00  0.00     0.140 C 
BRANCH  18  19
ATOM     19  N   UNL     1      44.303 131.613  21.207  1.00  0.00    -0.369 N 
BRANCH  19  20
ATOM     20  C   UNL     1      44.221 133.050  21.260  1.00  0.00     0.045 A 
ATOM     21  C   UNL     1      45.313 133.794  21.796  1.00  0.00     0.039 A 
ATOM     22  C   UNL     1      43.108 133.741  20.722  1.00  0.00     0.008 A 
ATOM     23  C   UNL     1      45.307 135.218  21.792  1.00  0.00     0.064 A 
ATOM     24  C   UNL     1      41.946 133.149  20.176  1.00  0.00     0.011 A 
ATOM     25  C   UNL     1      43.164 135.126  20.725  1.00  0.00     0.021 A 
ATOM     26  C   UNL     1      44.201 135.857  21.228  1.00  0.00     0.059 A 
ATOM     27  C   UNL     1      40.911 133.972  19.654  1.00  0.00     0.002 A 
ATOM     28  C   UNL     1      42.179 135.932  20.234  1.00  0.00     0.050 A 
ATOM     29  N   UNL     1      43.944 137.257  21.092  1.00  0.00    -0.321 N 
ATOM     30  C   UNL     1      41.024 135.384  19.679  1.00  0.00     0.014 A 
ATOM     31  C   UNL     1      42.656 137.295  20.460  1.00  0.00     0.256 C 
ATOM     32  H   UNL     1      44.546 138.059  21.382  1.00  0.00     0.170 HD
ATOM     33  O   UNL     1      42.044 138.354  20.163  1.00  0.00    -0.269 OA
BRANCH  23  34
ATOM     34  N   UNL     1      46.379 135.996  22.341  1.00  0.00    -0.058 NA
BRANCH  34  35
ATOM     35  N   UNL     1      47.300 136.426  21.644  1.00  0.00     0.005 N 
ATOM     36  N   UNL     1      48.219 136.858  20.949  1.00  0.00    -0.003 NA
ENDBRANCH  34  35
ENDBRANCH  23  34
ENDBRANCH  19  20
BRANCH  19  37
ATOM     37  C   UNL     1      43.759 130.828  22.327  1.00  0.00     0.113 C 
ATOM     38  C   UNL     1      44.828 130.585  23.387  1.00  0.00     0.027 C 
ENDBRANCH  19  37
ENDBRANCH  18  19
ENDBRANCH  17  18
ENDBRANCH   1  17
TORSDOF 15
ENDMDL
MODEL 9
REMARK VINA RESULT:      -4.4      3.231      5.725
REMARK SMILES CCN(CC/N=C(/OC(=O)[C@H]1C[C@@H]1CO)C1(C#N)CC1)c1cc(N=[N+]=[N-])c2c3c(cccc13)C(=O)N2
REMARK SMILES IDX 6 1 7 2 8 3 9 4 10 5 11 6 13 7 12 8 14 9 15 10 16 12 19 13
REMARK SMILES IDX 20 14 17 15 18 16 5 17 4 18 3 19 21 20 22 21 33 22 23 23
REMARK SMILES IDX 32 24 28 25 27 26 31 27 29 28 36 29 30 30 34 31 35 33 24 34
REMARK SMILES IDX 25 35 26 36 2 37 1 38
REMARK H PARENT 15 11 36 32
ROOT
ATOM      1  N   UNL     1      43.346 136.206  16.532  1.00  0.00    -0.252 NA
ENDROOT
BRANCH   1   2
ATOM      2  C   UNL     1      42.231 135.571  16.752  1.00  0.00     0.214 C 
BRANCH   2   3
ATOM      3  O   UNL     1      42.236 134.355  17.455  1.00  0.00    -0.410 OA
BRANCH   3   4
ATOM      4  C   UNL     1      41.698 133.143  16.987  1.00  0.00     0.315 C 
ATOM      5  O   UNL     1      40.528 132.788  17.302  1.00  0.00    -0.251 OA
BRANCH   4   6
ATOM      6  C   UNL     1      42.520 132.225  16.128  1.00  0.00     0.105 C 
ATOM      7  C   UNL     1      43.727 132.868  15.452  1.00  0.00     0.030 C 
ATOM      8  C   UNL     1      42.484 132.530  14.633  1.00  0.00     0.022 C 
BRANCH   7   9
ATOM      9  C   UNL     1      44.920 131.930  15.235  1.00  0.00     0.160 C 
BRANCH   9  10
ATOM     10  O   UNL     1      46.111 132.660  15.322  1.00  0.00    -0.396 OA
ATOM     11  H   UNL     1      46.847 131.995  15.376  1.00  0.00     0.210 HD
ENDBRANCH   9  10
ENDBRANCH   7   9
ENDBRANCH   4   6
ENDBRANCH   3   4
ENDBRANCH   2   3
BRANCH   2  12
ATOM     12  C   UNL     1      40.903 136.135  16.328  1.00  0.00     0.133 C 
ATOM     13  C   UNL     1      40.561 137.499  16.910  1.00  0.00     0.034 C 
ATOM     14  C   UNL     1      39.818 136.259  17.386  1.00  0.00     0.034 C 
BRANCH  12  15
ATOM     15  C   UNL     1      40.457 135.931  14.942  1.00  0.00     0.079 C 
ATOM     16  N   UNL     1      40.107 135.772  13.850  1.00  0.00    -0.197 NA
ENDBRANCH  12  15
ENDBRANCH   2  12
ENDBRANCH   1   2
BRANCH   1  17
ATOM     17  C   UNL     1      44.418 136.437  17.501  1.00  0.00     0.167 C 
BRANCH  17  18
ATOM     18  C   UNL     1      44.134 137.727  18.280  1.00  0.00     0.140 C 
BRANCH  18  19
ATOM     19  N   UNL     1      43.838 137.465  19.701  1.00  0.00    -0.369 N 
BRANCH  19  20
ATOM     20  C   UNL     1      44.668 136.576  20.472  1.00  0.00     0.045 A 
ATOM     21  C   UNL     1      44.095 135.402  21.044  1.00  0.00     0.039 A 
ATOM     22  C   UNL     1      46.058 136.809  20.611  1.00  0.00     0.008 A 
ATOM     23  C   UNL     1      44.898 134.457  21.745  1.00  0.00     0.064 A 
ATOM     24  C   UNL     1      46.767 137.930  20.121  1.00  0.00     0.011 A 
ATOM     25  C   UNL     1      46.795 135.846  21.284  1.00  0.00     0.021 A 
ATOM     26  C   UNL     1      46.267 134.713  21.834  1.00  0.00     0.059 A 
ATOM     27  C   UNL     1      48.172 138.020  20.321  1.00  0.00     0.002 A 
ATOM     28  C   UNL     1      48.141 135.919  21.490  1.00  0.00     0.050 A 
ATOM     29  N   UNL     1      47.288 133.938  22.468  1.00  0.00    -0.321 N 
ATOM     30  C   UNL     1      48.874 137.004  21.012  1.00  0.00     0.014 A 
ATOM     31  C   UNL     1      48.475 134.713  22.245  1.00  0.00     0.256 C 
ATOM     32  H   UNL     1      47.195 133.029  22.971  1.00  0.00     0.170 HD
ATOM     33  O   UNL     1      49.620 134.387  22.654  1.00  0.00    -0.269 OA
BRANCH  23  34
ATOM     34  N   UNL     1      44.351 133.277  22.348  1.00  0.00    -0.058 NA
BRANCH  34  35
ATOM     35  N   UNL     1      44.237 132.217  21.730  1.00  0.00     0.005 N 
ATOM     36  N   UNL     1      44.121 131.158  21.114  1.00  0.00    -0.003 NA
ENDBRANCH  34  35
ENDBRANCH  23  34
ENDBRANCH  19  20
BRANCH  19  37
ATOM     37  C   UNL     1      42.811 138.259  20.394  1.00  0.00     0.113 C 
ATOM     38  C   UNL     1      43.432 139.096  21.506  1.00  0.00     0.027 C 
ENDBRANCH  19  37
ENDBRANCH  18  19
ENDBRANCH  17  18
ENDBRANCH   1  17
TORSDOF 15
ENDMDL


