REMARK SMILES C#C[C@@](O)(c1cc(N=[N+]=[N-])cc(SC(C)(C)CNC[C@](C)(O)C=C)ccc2cc1CC2)C(C)(C)C
REMARK SMILES IDX 14 1 15 2 16 3 13 4 12 5 5 6 6 7 29 8 7 9 28 10 30 11 11 12
REMARK SMILES IDX 27 13 31 14 26 15 25 16 3 17 2 18 1 19 4 20 32 22 33 23
REMARK SMILES IDX 34 24 35 25 8 26 9 27 10 28 17 29 18 30 19 32 20 33 21 34
REMARK SMILES IDX 22 35 23 37 24 38
REMARK H PARENT 4 21 18 31 22 36
ROOT
ATOM      1  C   UNL     1       2.959  -1.806   0.850  1.00  0.00     0.027 C 
ATOM      2  C   UNL     1       4.021  -2.907   1.028  1.00  0.00     0.024 C 
ATOM      3  C   UNL     1       1.798  -2.375   0.009  1.00  0.00     0.024 C 
ENDROOT
BRANCH   1   4
ATOM      4  S   UNL     1       2.358  -1.389   2.553  1.00  0.00    -0.119 SA
BRANCH   4   5
ATOM      5  C   UNL     1       1.264  -0.009   2.165  1.00  0.00     0.008 A 
ATOM      6  C   UNL     1      -2.961   0.907   2.034  1.00  0.00    -0.000 A 
ATOM      7  C   UNL     1      -2.193   0.415   0.936  1.00  0.00     0.018 A 
ATOM      8  C   UNL     1      -2.387   1.877   2.898  1.00  0.00    -0.040 A 
ATOM      9  C   UNL     1      -0.793   0.479   0.874  1.00  0.00     0.039 A 
ATOM     10  C   UNL     1      -1.135   1.678   3.441  1.00  0.00     0.007 A 
ATOM     11  C   UNL     1      -2.504   3.332   2.530  1.00  0.00     0.041 C 
ATOM     12  C   UNL     1      -0.035  -0.318   1.737  1.00  0.00     0.025 A 
ATOM     13  C   UNL     1      -0.282   2.663   2.991  1.00  0.00    -0.047 A 
ATOM     14  C   UNL     1      -1.062   3.851   2.554  1.00  0.00     0.040 C 
ATOM     15  C   UNL     1       1.067   2.493   2.631  1.00  0.00     0.005 A 
ATOM     16  C   UNL     1       1.766   1.287   2.419  1.00  0.00     0.015 A 
BRANCH   6  17
ATOM     17  C   UNL     1      -4.492   0.679   2.020  1.00  0.00     0.155 C 
BRANCH  17  18
ATOM     18  C   UNL     1      -5.199   1.710   2.832  1.00  0.00    -0.066 C 
ATOM     19  C   UNL     1      -5.779   2.540   3.489  1.00  0.00     0.007 C 
ENDBRANCH  17  18
BRANCH  17  20
ATOM     20  O   UNL     1      -4.981   0.790   0.700  1.00  0.00    -0.373 OA
ATOM     21  H   UNL     1      -4.721   1.682   0.347  1.00  0.00     0.213 HD
ENDBRANCH  17  20
BRANCH  17  22
ATOM     22  C   UNL     1      -4.855  -0.760   2.577  1.00  0.00     0.006 C 
ATOM     23  C   UNL     1      -6.388  -0.993   2.523  1.00  0.00     0.015 C 
ATOM     24  C   UNL     1      -4.391  -0.928   4.045  1.00  0.00     0.015 C 
ATOM     25  C   UNL     1      -4.190  -1.878   1.733  1.00  0.00     0.015 C 
ENDBRANCH  17  22
ENDBRANCH   6  17
BRANCH   9  26
ATOM     26  N   UNL     1      -0.134   1.201  -0.174  1.00  0.00    -0.061 NA
BRANCH  26  27
ATOM     27  N   UNL     1      -0.728   2.026  -0.868  1.00  0.00     0.005 N 
ATOM     28  N   UNL     1      -1.322   2.854  -1.555  1.00  0.00    -0.003 NA
ENDBRANCH  26  27
ENDBRANCH   9  26
ENDBRANCH   4   5
ENDBRANCH   1   4
BRANCH   1  29
ATOM     29  C   UNL     1       3.593  -0.569   0.159  1.00  0.00     0.098 C 
BRANCH  29  30
ATOM     30  N   UNL     1       4.008  -0.886  -1.223  1.00  0.00    -0.312 NA
ATOM     31  H   UNL     1       3.589  -0.169  -1.858  1.00  0.00     0.122 HD
BRANCH  30  32
ATOM     32  C   UNL     1       5.472  -0.850  -1.390  1.00  0.00     0.120 C 
BRANCH  32  33
ATOM     33  C   UNL     1       5.890  -1.436  -2.771  1.00  0.00     0.092 C 
ATOM     34  C   UNL     1       5.507  -0.458  -3.898  1.00  0.00     0.048 C 
BRANCH  33  35
ATOM     35  O   UNL     1       5.220  -2.654  -3.021  1.00  0.00    -0.385 OA
ATOM     36  H   UNL     1       5.353  -3.248  -2.237  1.00  0.00     0.211 HD
ENDBRANCH  33  35
BRANCH  33  37
ATOM     37  C   UNL     1       7.398  -1.655  -2.821  1.00  0.00     0.001 C 
ATOM     38  C   UNL     1       8.031  -2.535  -2.038  1.00  0.00     0.007 C 
ENDBRANCH  33  37
ENDBRANCH  32  33
ENDBRANCH  30  32
ENDBRANCH  29  30
ENDBRANCH   1  29
TORSDOF 14


