REMARK SMILES [N-]=[N+]=Nc1c(Cl)c(Cl)c(Cl)c2cccc(OC(=O)[C@@H](N=C=O)c3[nH]cc[nH+]3)c12
REMARK SMILES IDX 16 1 15 2 13 3 14 4 12 5 11 6 28 7 9 8 4 9 7 10 5 11 10 12
REMARK SMILES IDX 8 13 6 14 3 15 2 16 1 17 17 18 18 19 19 20 20 21 21 22 22 23
REMARK SMILES IDX 23 24 24 25 27 26 25 27 26 28
REMARK H PARENT 24 29 27 30
ROOT
ATOM      1  O   UNL     1       1.090   0.097  -1.006  1.00  0.00    -0.424 OA
ENDROOT
BRANCH   1   2
ATOM      2  C   UNL     1       1.059   1.280  -0.249  1.00  0.00     0.139 A 
ATOM      3  C   UNL     1       1.042   3.707  -0.171  1.00  0.00     0.005 A 
ATOM      4  C   UNL     1       1.156   2.525  -0.891  1.00  0.00     0.048 A 
ATOM      5  C   UNL     1       0.818   3.672   1.200  1.00  0.00     0.010 A 
ATOM      6  C   UNL     1       0.749   2.445   1.889  1.00  0.00     0.006 A 
ATOM      7  C   UNL     1       0.932   1.227   1.168  1.00  0.00     0.037 A 
ATOM      8  C   UNL     1       0.490   2.412   3.279  1.00  0.00     0.069 A 
ATOM      9  C   UNL     1       0.938  -0.000   1.887  1.00  0.00     0.069 A 
ATOM     10  C   UNL     1       0.412   1.182   3.951  1.00  0.00     0.079 A 
ATOM     11  C   UNL     1       0.639  -0.014   3.258  1.00  0.00     0.071 A 
ATOM     12  Cl  UNL     1       0.237   3.903   4.200  1.00  0.00    -0.082 Cl
ATOM     13  Cl  UNL     1       0.055   1.138   5.681  1.00  0.00    -0.081 Cl
ATOM     14  Cl  UNL     1       0.596  -1.556   4.119  1.00  0.00    -0.082 Cl
BRANCH   9  15
ATOM     15  N   UNL     1       1.300  -1.242   1.272  1.00  0.00    -0.058 NA
BRANCH  15  16
ATOM     16  N   UNL     1       2.431  -1.415   0.817  1.00  0.00     0.005 N 
ATOM     17  N   UNL     1       3.561  -1.589   0.364  1.00  0.00    -0.003 NA
ENDBRANCH  15  16
ENDBRANCH   9  15
ENDBRANCH   1   2
BRANCH   1  18
ATOM     18  C   UNL     1       0.579  -0.051  -2.304  1.00  0.00     0.349 C 
ATOM     19  O   UNL     1      -0.224   0.795  -2.783  1.00  0.00    -0.248 OA
BRANCH  18  20
ATOM     20  C   UNL     1       0.896  -1.288  -3.085  1.00  0.00     0.341 C 
BRANCH  20  21
ATOM     21  N   UNL     1       2.296  -1.653  -2.876  1.00  0.00    -0.177 NA
BRANCH  21  22
ATOM     22  C   UNL     1       2.861  -2.571  -3.553  1.00  0.00     0.236 C 
ATOM     23  O   UNL     1       3.409  -3.463  -4.212  1.00  0.00    -0.211 OA
ENDBRANCH  21  22
ENDBRANCH  20  21
BRANCH  20  24
ATOM     24  C   UNL     1      -0.022  -2.397  -2.651  1.00  0.00     0.289 A 
ATOM     25  N   UNL     1       0.180  -3.170  -1.564  1.00  0.00    -0.245 N 
ATOM     26  N   UNL     1      -1.194  -2.674  -3.257  1.00  0.00    -0.245 N 
ATOM     27  C   UNL     1      -0.896  -3.974  -1.492  1.00  0.00     0.240 A 
ATOM     28  C   UNL     1      -1.743  -3.668  -2.536  1.00  0.00     0.240 A 
ATOM     29  H   UNL     1       0.993  -3.151  -0.910  1.00  0.00     0.311 HD
ATOM     30  H   UNL     1      -1.600  -2.208  -4.099  1.00  0.00     0.311 HD
ENDBRANCH  20  24
ENDBRANCH  18  20
ENDBRANCH   1  18
TORSDOF 8


