MODEL 1
REMARK VINA RESULT:      -7.1      0.000      0.000
REMARK SMILES C=C(C)/C(O)=[N+]1/C[C@@H]2CC[C@H](Oc3ccc4c5c(ccc(N=[N+]=[N-])c35)CC4)[C@@H]2C1
REMARK SMILES IDX 12 1 11 2 6 3 29 4 7 5 28 6 8 7 9 8 10 9 4 10 5 11 2 13 1 14
REMARK SMILES IDX 3 15 13 16 14 17 25 18 15 19 21 20 17 21 16 22 20 23 18 24
REMARK SMILES IDX 27 25 19 26 26 27 22 28 23 29 24 30
REMARK H PARENT 5 12
ROOT
ATOM      1  O   UNL     1      41.500 133.116  15.255  1.00  0.00    -0.489 OA
ENDROOT
BRANCH   1   2
ATOM      2  C   UNL     1      40.877 133.890  14.222  1.00  0.00     0.183 C 
ATOM      3  N   UNL     1      42.186 136.174  16.406  1.00  0.00    -0.198 N 
ATOM      4  C   UNL     1      42.490 135.749  15.044  1.00  0.00     0.362 C 
ATOM      5  C   UNL     1      40.756 136.163  16.690  1.00  0.00     0.358 C 
ATOM      6  C   UNL     1      41.145 135.391  14.406  1.00  0.00     0.105 C 
ATOM      7  C   UNL     1      40.059 135.893  15.350  1.00  0.00     0.068 C 
ATOM      8  C   UNL     1      38.970 134.810  15.393  1.00  0.00     0.014 C 
ATOM      9  C   UNL     1      39.363 133.777  14.345  1.00  0.00     0.046 C 
BRANCH   3  10
ATOM     10  C   UNL     1      43.069 136.621  17.264  1.00  0.00     0.362 C 
BRANCH  10  11
ATOM     11  O   UNL     1      44.011 135.744  17.803  1.00  0.00    -0.460 OA
ATOM     12  H   UNL     1      45.003 135.861  17.629  1.00  0.00     0.300 HD
ENDBRANCH  10  11
BRANCH  10  13
ATOM     13  C   UNL     1      43.088 138.035  17.710  1.00  0.00     0.053 C 
ATOM     14  C   UNL     1      43.032 138.314  19.014  1.00  0.00     0.023 C 
ATOM     15  C   UNL     1      43.224 139.154  16.717  1.00  0.00     0.055 C 
ENDBRANCH  10  13
ENDBRANCH   3  10
ENDBRANCH   1   2
BRANCH   1  16
ATOM     16  C   UNL     1      42.608 132.268  15.083  1.00  0.00     0.128 A 
ATOM     17  C   UNL     1      42.950 131.737  13.803  1.00  0.00     0.047 A 
ATOM     18  C   UNL     1      43.421 131.935  16.201  1.00  0.00     0.034 A 
ATOM     19  C   UNL     1      44.084 130.920  13.634  1.00  0.00     0.008 A 
ATOM     20  C   UNL     1      43.190 132.340  17.544  1.00  0.00     0.049 A 
ATOM     21  C   UNL     1      44.537 131.129  15.963  1.00  0.00    -0.008 A 
ATOM     22  C   UNL     1      44.873 130.636  14.744  1.00  0.00    -0.039 A 
ATOM     23  C   UNL     1      44.103 131.928  18.558  1.00  0.00     0.011 A 
ATOM     24  C   UNL     1      45.407 130.731  16.928  1.00  0.00    -0.039 A 
ATOM     25  C   UNL     1      46.112 129.802  14.836  1.00  0.00     0.041 C 
ATOM     26  C   UNL     1      45.216 131.123  18.250  1.00  0.00     0.005 A 
ATOM     27  C   UNL     1      46.483 129.870  16.343  1.00  0.00     0.041 C 
BRANCH  20  28
ATOM     28  N   UNL     1      42.039 133.129  17.875  1.00  0.00    -0.060 NA
BRANCH  28  29
ATOM     29  N   UNL     1      41.797 133.490  19.029  1.00  0.00     0.005 N 
ATOM     30  N   UNL     1      41.557 133.850  20.180  1.00  0.00    -0.003 NA
ENDBRANCH  28  29
ENDBRANCH  20  28
ENDBRANCH   1  16
TORSDOF 7
ENDMDL
MODEL 2
REMARK VINA RESULT:      -6.8      2.047      4.555
REMARK SMILES C=C(C)/C(O)=[N+]1/C[C@@H]2CC[C@H](Oc3ccc4c5c(ccc(N=[N+]=[N-])c35)CC4)[C@@H]2C1
REMARK SMILES IDX 12 1 11 2 6 3 29 4 7 5 28 6 8 7 9 8 10 9 4 10 5 11 2 13 1 14
REMARK SMILES IDX 3 15 13 16 14 17 25 18 15 19 21 20 17 21 16 22 20 23 18 24
REMARK SMILES IDX 27 25 19 26 26 27 22 28 23 29 24 30
REMARK H PARENT 5 12
ROOT
ATOM      1  O   UNL     1      42.508 133.747  17.792  1.00  0.00    -0.489 OA
ENDROOT
BRANCH   1   2
ATOM      2  C   UNL     1      42.320 134.410  19.049  1.00  0.00     0.183 C 
ATOM      3  N   UNL     1      39.341 134.726  17.399  1.00  0.00    -0.198 N 
ATOM      4  C   UNL     1      39.806 133.985  18.567  1.00  0.00     0.362 C 
ATOM      5  C   UNL     1      39.977 136.032  17.274  1.00  0.00     0.358 C 
ATOM      6  C   UNL     1      40.866 134.869  19.229  1.00  0.00     0.105 C 
ATOM      7  C   UNL     1      40.778 136.239  18.566  1.00  0.00     0.068 C 
ATOM      8  C   UNL     1      42.221 136.728  18.361  1.00  0.00     0.014 C 
ATOM      9  C   UNL     1      43.113 135.710  19.062  1.00  0.00     0.046 C 
BRANCH   3  10
ATOM     10  C   UNL     1      38.383 134.331  16.597  1.00  0.00     0.362 C 
BRANCH  10  11
ATOM     11  O   UNL     1      38.649 133.354  15.636  1.00  0.00    -0.460 OA
ATOM     12  H   UNL     1      38.083 133.266  14.800  1.00  0.00     0.300 HD
ENDBRANCH  10  11
BRANCH  10  13
ATOM     13  C   UNL     1      37.019 134.910  16.653  1.00  0.00     0.053 C 
ATOM     14  C   UNL     1      36.375 134.960  17.821  1.00  0.00     0.023 C 
ATOM     15  C   UNL     1      36.376 135.487  15.425  1.00  0.00     0.055 C 
ENDBRANCH  10  13
ENDBRANCH   3  10
ENDBRANCH   1   2
BRANCH   1  16
ATOM     16  C   UNL     1      43.463 132.749  17.531  1.00  0.00     0.128 A 
ATOM     17  C   UNL     1      44.342 132.272  18.550  1.00  0.00     0.047 A 
ATOM     18  C   UNL     1      43.556 132.186  16.229  1.00  0.00     0.034 A 
ATOM     19  C   UNL     1      45.269 131.244  18.289  1.00  0.00     0.008 A 
ATOM     20  C   UNL     1      42.791 132.581  15.098  1.00  0.00     0.049 A 
ATOM     21  C   UNL     1      44.488 131.163  16.039  1.00  0.00    -0.008 A 
ATOM     22  C   UNL     1      45.314 130.697  17.011  1.00  0.00    -0.039 A 
ATOM     23  C   UNL     1      42.996 131.913  13.856  1.00  0.00     0.011 A 
ATOM     24  C   UNL     1      44.690 130.527  14.856  1.00  0.00    -0.039 A 
ATOM     25  C   UNL     1      46.197 129.613  16.477  1.00  0.00     0.041 C 
ATOM     26  C   UNL     1      43.946 130.882  13.733  1.00  0.00     0.005 A 
ATOM     27  C   UNL     1      45.764 129.493  14.990  1.00  0.00     0.041 C 
BRANCH  20  28
ATOM     28  N   UNL     1      41.846 133.656  15.202  1.00  0.00    -0.060 NA
BRANCH  28  29
ATOM     29  N   UNL     1      41.183 134.045  14.239  1.00  0.00     0.005 N 
ATOM     30  N   UNL     1      40.523 134.433  13.277  1.00  0.00    -0.003 NA
ENDBRANCH  28  29
ENDBRANCH  20  28
ENDBRANCH   1  16
TORSDOF 7
ENDMDL
MODEL 3
REMARK VINA RESULT:      -6.8      1.797      3.675
REMARK SMILES C=C(C)/C(O)=[N+]1/C[C@@H]2CC[C@H](Oc3ccc4c5c(ccc(N=[N+]=[N-])c35)CC4)[C@@H]2C1
REMARK SMILES IDX 12 1 11 2 6 3 29 4 7 5 28 6 8 7 9 8 10 9 4 10 5 11 2 13 1 14
REMARK SMILES IDX 3 15 13 16 14 17 25 18 15 19 21 20 17 21 16 22 20 23 18 24
REMARK SMILES IDX 27 25 19 26 26 27 22 28 23 29 24 30
REMARK H PARENT 5 12
ROOT
ATOM      1  O   UNL     1      42.060 133.249  16.846  1.00  0.00    -0.489 OA
ENDROOT
BRANCH   1   2
ATOM      2  C   UNL     1      42.356 134.587  17.267  1.00  0.00     0.183 C 
ATOM      3  N   UNL     1      39.827 134.888  14.983  1.00  0.00    -0.198 N 
ATOM      4  C   UNL     1      39.949 135.072  16.426  1.00  0.00     0.362 C 
ATOM      5  C   UNL     1      41.031 135.290  14.263  1.00  0.00     0.358 C 
ATOM      6  C   UNL     1      41.368 135.595  16.663  1.00  0.00     0.105 C 
ATOM      7  C   UNL     1      41.938 135.967  15.299  1.00  0.00     0.068 C 
ATOM      8  C   UNL     1      43.401 135.497  15.284  1.00  0.00     0.014 C 
ATOM      9  C   UNL     1      43.702 135.014  16.697  1.00  0.00     0.046 C 
BRANCH   3  10
ATOM     10  C   UNL     1      38.735 134.508  14.368  1.00  0.00     0.362 C 
BRANCH  10  11
ATOM     11  O   UNL     1      38.705 133.273  13.719  1.00  0.00    -0.460 OA
ATOM     12  H   UNL     1      37.977 133.044  13.051  1.00  0.00     0.300 HD
ENDBRANCH  10  11
BRANCH  10  13
ATOM     13  C   UNL     1      37.525 135.362  14.312  1.00  0.00     0.053 C 
ATOM     14  C   UNL     1      37.434 136.313  13.379  1.00  0.00     0.023 C 
ATOM     15  C   UNL     1      36.378 135.137  15.255  1.00  0.00     0.055 C 
ENDBRANCH  10  13
ENDBRANCH   3  10
ENDBRANCH   1   2
BRANCH   1  16
ATOM     16  C   UNL     1      42.881 132.451  16.027  1.00  0.00     0.128 A 
ATOM     17  C   UNL     1      42.671 132.365  14.618  1.00  0.00     0.047 A 
ATOM     18  C   UNL     1      43.954 131.720  16.605  1.00  0.00     0.034 A 
ATOM     19  C   UNL     1      43.522 131.595  13.802  1.00  0.00     0.008 A 
ATOM     20  C   UNL     1      44.266 131.662  17.991  1.00  0.00     0.049 A 
ATOM     21  C   UNL     1      44.767 130.985  15.739  1.00  0.00    -0.008 A 
ATOM     22  C   UNL     1      44.579 130.914  14.397  1.00  0.00    -0.039 A 
ATOM     23  C   UNL     1      45.383 130.886  18.417  1.00  0.00     0.011 A 
ATOM     24  C   UNL     1      45.830 130.241  16.142  1.00  0.00    -0.039 A 
ATOM     25  C   UNL     1      45.612 130.035  13.766  1.00  0.00     0.041 C 
ATOM     26  C   UNL     1      46.169 130.175  17.491  1.00  0.00     0.005 A 
ATOM     27  C   UNL     1      46.478 129.573  14.970  1.00  0.00     0.041 C 
BRANCH  20  28
ATOM     28  N   UNL     1      43.449 132.352  18.948  1.00  0.00    -0.060 NA
BRANCH  28  29
ATOM     29  N   UNL     1      43.059 131.817  19.988  1.00  0.00     0.005 N 
ATOM     30  N   UNL     1      42.669 131.284  21.025  1.00  0.00    -0.003 NA
ENDBRANCH  28  29
ENDBRANCH  20  28
ENDBRANCH   1  16
TORSDOF 7
ENDMDL
MODEL 4
REMARK VINA RESULT:      -6.7      1.653      1.957
REMARK SMILES C=C(C)/C(O)=[N+]1/C[C@@H]2CC[C@H](Oc3ccc4c5c(ccc(N=[N+]=[N-])c35)CC4)[C@@H]2C1
REMARK SMILES IDX 12 1 11 2 6 3 29 4 7 5 28 6 8 7 9 8 10 9 4 10 5 11 2 13 1 14
REMARK SMILES IDX 3 15 13 16 14 17 25 18 15 19 21 20 17 21 16 22 20 23 18 24
REMARK SMILES IDX 27 25 19 26 26 27 22 28 23 29 24 30
REMARK H PARENT 5 12
ROOT
ATOM      1  O   UNL     1      41.760 133.123  16.721  1.00  0.00    -0.489 OA
ENDROOT
BRANCH   1   2
ATOM      2  C   UNL     1      40.859 134.137  16.257  1.00  0.00     0.183 C 
ATOM      3  N   UNL     1      42.831 135.671  18.593  1.00  0.00    -0.198 N 
ATOM      4  C   UNL     1      42.684 135.755  17.143  1.00  0.00     0.362 C 
ATOM      5  C   UNL     1      41.562 135.436  19.272  1.00  0.00     0.358 C 
ATOM      6  C   UNL     1      41.200 135.508  16.857  1.00  0.00     0.105 C 
ATOM      7  C   UNL     1      40.475 135.566  18.197  1.00  0.00     0.068 C 
ATOM      8  C   UNL     1      39.434 134.436  18.189  1.00  0.00     0.014 C 
ATOM      9  C   UNL     1      39.458 133.852  16.782  1.00  0.00     0.046 C 
BRANCH   3  10
ATOM     10  C   UNL     1      43.947 135.886  19.244  1.00  0.00     0.362 C 
BRANCH  10  11
ATOM     11  O   UNL     1      44.694 134.801  19.707  1.00  0.00    -0.460 OA
ATOM     12  H   UNL     1      45.584 134.556  19.290  1.00  0.00     0.300 HD
ENDBRANCH  10  11
BRANCH  10  13
ATOM     13  C   UNL     1      44.438 137.254  19.535  1.00  0.00     0.053 C 
ATOM     14  C   UNL     1      44.987 137.516  20.724  1.00  0.00     0.023 C 
ATOM     15  C   UNL     1      44.376 138.333  18.492  1.00  0.00     0.055 C 
ENDBRANCH  10  13
ENDBRANCH   3  10
ENDBRANCH   1   2
BRANCH   1  16
ATOM     16  C   UNL     1      42.645 132.387  15.913  1.00  0.00     0.128 A 
ATOM     17  C   UNL     1      42.458 132.284  14.502  1.00  0.00     0.047 A 
ATOM     18  C   UNL     1      43.762 131.736  16.505  1.00  0.00     0.034 A 
ATOM     19  C   UNL     1      43.372 131.578  13.697  1.00  0.00     0.008 A 
ATOM     20  C   UNL     1      44.061 131.701  17.895  1.00  0.00     0.049 A 
ATOM     21  C   UNL     1      44.636 131.061  15.650  1.00  0.00    -0.008 A 
ATOM     22  C   UNL     1      44.469 130.976  14.305  1.00  0.00    -0.039 A 
ATOM     23  C   UNL     1      45.227 131.008  18.334  1.00  0.00     0.011 A 
ATOM     24  C   UNL     1      45.745 130.396  16.065  1.00  0.00    -0.039 A 
ATOM     25  C   UNL     1      45.571 130.173  13.687  1.00  0.00     0.041 C 
ATOM     26  C   UNL     1      46.073 130.355  17.418  1.00  0.00     0.005 A 
ATOM     27  C   UNL     1      46.454 129.775  14.902  1.00  0.00     0.041 C 
BRANCH  20  28
ATOM     28  N   UNL     1      43.186 132.331  18.841  1.00  0.00    -0.060 NA
BRANCH  28  29
ATOM     29  N   UNL     1      42.924 131.824  19.933  1.00  0.00     0.005 N 
ATOM     30  N   UNL     1      42.663 131.319  21.023  1.00  0.00    -0.003 NA
ENDBRANCH  28  29
ENDBRANCH  20  28
ENDBRANCH   1  16
TORSDOF 7
ENDMDL
MODEL 5
REMARK VINA RESULT:      -6.6      1.173      1.406
REMARK SMILES C=C(C)/C(O)=[N+]1/C[C@@H]2CC[C@H](Oc3ccc4c5c(ccc(N=[N+]=[N-])c35)CC4)[C@@H]2C1
REMARK SMILES IDX 12 1 11 2 6 3 29 4 7 5 28 6 8 7 9 8 10 9 4 10 5 11 2 13 1 14
REMARK SMILES IDX 3 15 13 16 14 17 25 18 15 19 21 20 17 21 16 22 20 23 18 24
REMARK SMILES IDX 27 25 19 26 26 27 22 28 23 29 24 30
REMARK H PARENT 5 12
ROOT
ATOM      1  O   UNL     1      41.276 133.579  16.296  1.00  0.00    -0.489 OA
ENDROOT
BRANCH   1   2
ATOM      2  C   UNL     1      40.212 133.940  15.405  1.00  0.00     0.183 C 
ATOM      3  N   UNL     1      41.765 136.880  16.206  1.00  0.00    -0.198 N 
ATOM      4  C   UNL     1      41.657 136.058  15.005  1.00  0.00     0.362 C 
ATOM      5  C   UNL     1      40.543 136.875  17.001  1.00  0.00     0.358 C 
ATOM      6  C   UNL     1      40.260 135.432  15.050  1.00  0.00     0.105 C 
ATOM      7  C   UNL     1      39.490 136.146  16.155  1.00  0.00     0.068 C 
ATOM      8  C   UNL     1      38.688 135.071  16.905  1.00  0.00     0.014 C 
ATOM      9  C   UNL     1      38.876 133.781  16.117  1.00  0.00     0.046 C 
BRANCH   3  10
ATOM     10  C   UNL     1      42.795 137.633  16.505  1.00  0.00     0.362 C 
BRANCH  10  11
ATOM     11  O   UNL     1      43.006 138.821  15.804  1.00  0.00    -0.460 OA
ATOM     12  H   UNL     1      43.484 139.608  16.228  1.00  0.00     0.300 HD
ENDBRANCH  10  11
BRANCH  10  13
ATOM     13  C   UNL     1      43.770 137.253  17.555  1.00  0.00     0.053 C 
ATOM     14  C   UNL     1      44.243 138.189  18.382  1.00  0.00     0.023 C 
ATOM     15  C   UNL     1      44.190 135.823  17.735  1.00  0.00     0.055 C 
ENDBRANCH  10  13
ENDBRANCH   3  10
ENDBRANCH   1   2
BRANCH   1  16
ATOM     16  C   UNL     1      42.375 132.765  15.968  1.00  0.00     0.128 A 
ATOM     17  C   UNL     1      42.685 132.441  14.613  1.00  0.00     0.047 A 
ATOM     18  C   UNL     1      43.209 132.258  17.001  1.00  0.00     0.034 A 
ATOM     19  C   UNL     1      43.811 131.658  14.292  1.00  0.00     0.008 A 
ATOM     20  C   UNL     1      43.010 132.448  18.397  1.00  0.00     0.049 A 
ATOM     21  C   UNL     1      44.315 131.497  16.615  1.00  0.00    -0.008 A 
ATOM     22  C   UNL     1      44.621 131.201  15.327  1.00  0.00    -0.039 A 
ATOM     23  C   UNL     1      43.942 131.879  19.312  1.00  0.00     0.011 A 
ATOM     24  C   UNL     1      45.203 130.949  17.486  1.00  0.00    -0.039 A 
ATOM     25  C   UNL     1      45.857 130.360  15.259  1.00  0.00     0.041 C 
ATOM     26  C   UNL     1      45.043 131.130  18.857  1.00  0.00     0.005 A 
ATOM     27  C   UNL     1      46.260 130.189  16.749  1.00  0.00     0.041 C 
BRANCH  20  28
ATOM     28  N   UNL     1      41.871 133.179  18.873  1.00  0.00    -0.060 NA
BRANCH  28  29
ATOM     29  N   UNL     1      41.752 133.517  20.052  1.00  0.00     0.005 N 
ATOM     30  N   UNL     1      41.633 133.855  21.229  1.00  0.00    -0.003 NA
ENDBRANCH  28  29
ENDBRANCH  20  28
ENDBRANCH   1  16
TORSDOF 7
ENDMDL
MODEL 6
REMARK VINA RESULT:      -6.5      0.978      1.020
REMARK SMILES C=C(C)/C(O)=[N+]1/C[C@@H]2CC[C@H](Oc3ccc4c5c(ccc(N=[N+]=[N-])c35)CC4)[C@@H]2C1
REMARK SMILES IDX 12 1 11 2 6 3 29 4 7 5 28 6 8 7 9 8 10 9 4 10 5 11 2 13 1 14
REMARK SMILES IDX 3 15 13 16 14 17 25 18 15 19 21 20 17 21 16 22 20 23 18 24
REMARK SMILES IDX 27 25 19 26 26 27 22 28 23 29 24 30
REMARK H PARENT 5 12
ROOT
ATOM      1  O   UNL     1      41.552 133.700  15.289  1.00  0.00    -0.489 OA
ENDROOT
BRANCH   1   2
ATOM      2  C   UNL     1      40.778 134.287  14.234  1.00  0.00     0.183 C 
ATOM      3  N   UNL     1      41.025 136.708  16.638  1.00  0.00    -0.198 N 
ATOM      4  C   UNL     1      41.564 136.521  15.295  1.00  0.00     0.362 C 
ATOM      5  C   UNL     1      39.673 136.180  16.777  1.00  0.00     0.358 C 
ATOM      6  C   UNL     1      40.486 135.768  14.511  1.00  0.00     0.105 C 
ATOM      7  C   UNL     1      39.222 135.789  15.363  1.00  0.00     0.068 C 
ATOM      8  C   UNL     1      38.584 134.396  15.249  1.00  0.00     0.014 C 
ATOM      9  C   UNL     1      39.397 133.647  14.200  1.00  0.00     0.046 C 
BRANCH   3  10
ATOM     10  C   UNL     1      41.624 137.367  17.599  1.00  0.00     0.362 C 
BRANCH  10  11
ATOM     11  O   UNL     1      40.932 137.644  18.779  1.00  0.00    -0.460 OA
ATOM     12  H   UNL     1      41.418 137.918  19.625  1.00  0.00     0.300 HD
ENDBRANCH  10  11
BRANCH  10  13
ATOM     13  C   UNL     1      43.016 137.858  17.468  1.00  0.00     0.053 C 
ATOM     14  C   UNL     1      44.027 137.086  17.874  1.00  0.00     0.023 C 
ATOM     15  C   UNL     1      43.307 139.189  16.835  1.00  0.00     0.055 C 
ENDBRANCH  10  13
ENDBRANCH   3  10
ENDBRANCH   1   2
BRANCH   1  16
ATOM     16  C   UNL     1      42.514 132.688  15.128  1.00  0.00     0.128 A 
ATOM     17  C   UNL     1      42.695 132.021  13.879  1.00  0.00     0.047 A 
ATOM     18  C   UNL     1      43.340 132.320  16.225  1.00  0.00     0.034 A 
ATOM     19  C   UNL     1      43.689 131.036  13.717  1.00  0.00     0.008 A 
ATOM     20  C   UNL     1      43.255 132.852  17.542  1.00  0.00     0.049 A 
ATOM     21  C   UNL     1      44.313 131.345  15.996  1.00  0.00    -0.008 A 
ATOM     22  C   UNL     1      44.497 130.721  14.805  1.00  0.00    -0.039 A 
ATOM     23  C   UNL     1      44.162 132.384  18.537  1.00  0.00     0.011 A 
ATOM     24  C   UNL     1      45.176 130.893  16.943  1.00  0.00    -0.039 A 
ATOM     25  C   UNL     1      45.608 129.723  14.899  1.00  0.00     0.041 C 
ATOM     26  C   UNL     1      45.127 131.404  18.238  1.00  0.00     0.005 A 
ATOM     27  C   UNL     1      46.079 129.844  16.374  1.00  0.00     0.041 C 
BRANCH  20  28
ATOM     28  N   UNL     1      42.251 133.823  17.868  1.00  0.00    -0.060 NA
BRANCH  28  29
ATOM     29  N   UNL     1      41.673 133.833  18.956  1.00  0.00     0.005 N 
ATOM     30  N   UNL     1      41.097 133.843  20.042  1.00  0.00    -0.003 NA
ENDBRANCH  28  29
ENDBRANCH  20  28
ENDBRANCH   1  16
TORSDOF 7
ENDMDL
MODEL 7
REMARK VINA RESULT:      -6.5      1.557      1.871
REMARK SMILES C=C(C)/C(O)=[N+]1/C[C@@H]2CC[C@H](Oc3ccc4c5c(ccc(N=[N+]=[N-])c35)CC4)[C@@H]2C1
REMARK SMILES IDX 12 1 11 2 6 3 29 4 7 5 28 6 8 7 9 8 10 9 4 10 5 11 2 13 1 14
REMARK SMILES IDX 3 15 13 16 14 17 25 18 15 19 21 20 17 21 16 22 20 23 18 24
REMARK SMILES IDX 27 25 19 26 26 27 22 28 23 29 24 30
REMARK H PARENT 5 12
ROOT
ATOM      1  O   UNL     1      41.764 133.560  16.843  1.00  0.00    -0.489 OA
ENDROOT
BRANCH   1   2
ATOM      2  C   UNL     1      40.367 133.777  16.604  1.00  0.00     0.183 C 
ATOM      3  N   UNL     1      41.741 136.898  16.867  1.00  0.00    -0.198 N 
ATOM      4  C   UNL     1      41.167 136.106  15.784  1.00  0.00     0.362 C 
ATOM      5  C   UNL     1      41.067 136.679  18.141  1.00  0.00     0.358 C 
ATOM      6  C   UNL     1      40.054 135.269  16.422  1.00  0.00     0.105 C 
ATOM      7  C   UNL     1      39.834 135.821  17.826  1.00  0.00     0.068 C 
ATOM      8  C   UNL     1      39.634 134.612  18.753  1.00  0.00     0.014 C 
ATOM      9  C   UNL     1      39.572 133.391  17.844  1.00  0.00     0.046 C 
BRANCH   3  10
ATOM     10  C   UNL     1      42.686 137.793  16.717  1.00  0.00     0.362 C 
BRANCH  10  11
ATOM     11  O   UNL     1      42.780 138.501  15.518  1.00  0.00    -0.460 OA
ATOM     12  H   UNL     1      43.122 138.064  14.671  1.00  0.00     0.300 HD
ENDBRANCH  10  11
BRANCH  10  13
ATOM     13  C   UNL     1      43.688 138.065  17.776  1.00  0.00     0.053 C 
ATOM     14  C   UNL     1      43.697 139.256  18.380  1.00  0.00     0.023 C 
ATOM     15  C   UNL     1      44.656 137.003  18.212  1.00  0.00     0.055 C 
ENDBRANCH  10  13
ENDBRANCH   3  10
ENDBRANCH   1   2
BRANCH   1  16
ATOM     16  C   UNL     1      42.601 132.724  16.083  1.00  0.00     0.128 A 
ATOM     17  C   UNL     1      42.436 132.585  14.672  1.00  0.00     0.047 A 
ATOM     18  C   UNL     1      43.647 132.005  16.723  1.00  0.00     0.034 A 
ATOM     19  C   UNL     1      43.305 131.777  13.914  1.00  0.00     0.008 A 
ATOM     20  C   UNL     1      43.913 131.997  18.120  1.00  0.00     0.049 A 
ATOM     21  C   UNL     1      44.479 131.229  15.914  1.00  0.00    -0.008 A 
ATOM     22  C   UNL     1      44.334 131.109  14.569  1.00  0.00    -0.039 A 
ATOM     23  C   UNL     1      45.007 131.227  18.612  1.00  0.00     0.011 A 
ATOM     24  C   UNL     1      45.520 130.491  16.379  1.00  0.00    -0.039 A 
ATOM     25  C   UNL     1      45.378 130.196  14.007  1.00  0.00     0.041 C 
ATOM     26  C   UNL     1      45.815 130.473  17.740  1.00  0.00     0.005 A 
ATOM     27  C   UNL     1      46.199 129.771  15.255  1.00  0.00     0.041 C 
BRANCH  20  28
ATOM     28  N   UNL     1      43.074 132.731  19.023  1.00  0.00    -0.060 NA
BRANCH  28  29
ATOM     29  N   UNL     1      43.525 133.563  19.813  1.00  0.00     0.005 N 
ATOM     30  N   UNL     1      43.975 134.392  20.601  1.00  0.00    -0.003 NA
ENDBRANCH  28  29
ENDBRANCH  20  28
ENDBRANCH   1  16
TORSDOF 7
ENDMDL
MODEL 8
REMARK VINA RESULT:      -6.4      2.752      3.656
REMARK SMILES C=C(C)/C(O)=[N+]1/C[C@@H]2CC[C@H](Oc3ccc4c5c(ccc(N=[N+]=[N-])c35)CC4)[C@@H]2C1
REMARK SMILES IDX 12 1 11 2 6 3 29 4 7 5 28 6 8 7 9 8 10 9 4 10 5 11 2 13 1 14
REMARK SMILES IDX 3 15 13 16 14 17 25 18 15 19 21 20 17 21 16 22 20 23 18 24
REMARK SMILES IDX 27 25 19 26 26 27 22 28 23 29 24 30
REMARK H PARENT 5 12
ROOT
ATOM      1  O   UNL     1      42.524 133.604  18.106  1.00  0.00    -0.489 OA
ENDROOT
BRANCH   1   2
ATOM      2  C   UNL     1      41.631 134.726  18.111  1.00  0.00     0.183 C 
ATOM      3  N   UNL     1      43.990 135.426  20.488  1.00  0.00    -0.198 N 
ATOM      4  C   UNL     1      43.654 135.959  19.171  1.00  0.00     0.362 C 
ATOM      5  C   UNL     1      42.812 135.011  21.241  1.00  0.00     0.358 C 
ATOM      6  C   UNL     1      42.133 135.837  19.044  1.00  0.00     0.105 C 
ATOM      7  C   UNL     1      41.600 135.487  20.429  1.00  0.00     0.068 C 
ATOM      8  C   UNL     1      40.501 134.432  20.229  1.00  0.00     0.014 C 
ATOM      9  C   UNL     1      40.300 134.314  18.724  1.00  0.00     0.046 C 
BRANCH   3  10
ATOM     10  C   UNL     1      45.194 135.410  21.002  1.00  0.00     0.362 C 
BRANCH  10  11
ATOM     11  O   UNL     1      45.799 134.188  21.302  1.00  0.00    -0.460 OA
ATOM     12  H   UNL     1      45.250 133.374  21.552  1.00  0.00     0.300 HD
ENDBRANCH  10  11
BRANCH  10  13
ATOM     13  C   UNL     1      45.938 136.656  21.307  1.00  0.00     0.053 C 
ATOM     14  C   UNL     1      47.227 136.749  20.975  1.00  0.00     0.023 C 
ATOM     15  C   UNL     1      45.246 137.832  21.935  1.00  0.00     0.055 C 
ENDBRANCH  10  13
ENDBRANCH   3  10
ENDBRANCH   1   2
BRANCH   1  16
ATOM     16  C   UNL     1      42.939 132.898  16.962  1.00  0.00     0.128 A 
ATOM     17  C   UNL     1      42.344 133.127  15.686  1.00  0.00     0.047 A 
ATOM     18  C   UNL     1      43.984 131.940  17.068  1.00  0.00     0.034 A 
ATOM     19  C   UNL     1      42.794 132.443  14.540  1.00  0.00     0.008 A 
ATOM     20  C   UNL     1      44.645 131.562  18.269  1.00  0.00     0.049 A 
ATOM     21  C   UNL     1      44.391 131.304  15.892  1.00  0.00    -0.008 A 
ATOM     22  C   UNL     1      43.837 131.532  14.674  1.00  0.00    -0.039 A 
ATOM     23  C   UNL     1      45.683 130.586  18.210  1.00  0.00     0.011 A 
ATOM     24  C   UNL     1      45.376 130.371  15.833  1.00  0.00    -0.039 A 
ATOM     25  C   UNL     1      44.490 130.683  13.630  1.00  0.00     0.041 C 
ATOM     26  C   UNL     1      46.052 129.990  16.990  1.00  0.00     0.005 A 
ATOM     27  C   UNL     1      45.556 129.883  14.430  1.00  0.00     0.041 C 
BRANCH  20  28
ATOM     28  N   UNL     1      44.252 132.136  19.524  1.00  0.00    -0.060 NA
BRANCH  28  29
ATOM     29  N   UNL     1      44.489 131.586  20.601  1.00  0.00     0.005 N 
ATOM     30  N   UNL     1      44.725 131.038  21.676  1.00  0.00    -0.003 NA
ENDBRANCH  28  29
ENDBRANCH  20  28
ENDBRANCH   1  16
TORSDOF 7
ENDMDL
MODEL 9
REMARK VINA RESULT:      -6.3      2.198      4.337
REMARK SMILES C=C(C)/C(O)=[N+]1/C[C@@H]2CC[C@H](Oc3ccc4c5c(ccc(N=[N+]=[N-])c35)CC4)[C@@H]2C1
REMARK SMILES IDX 12 1 11 2 6 3 29 4 7 5 28 6 8 7 9 8 10 9 4 10 5 11 2 13 1 14
REMARK SMILES IDX 3 15 13 16 14 17 25 18 15 19 21 20 17 21 16 22 20 23 18 24
REMARK SMILES IDX 27 25 19 26 26 27 22 28 23 29 24 30
REMARK H PARENT 5 12
ROOT
ATOM      1  O   UNL     1      42.453 132.945  18.095  1.00  0.00    -0.489 OA
ENDROOT
BRANCH   1   2
ATOM      2  C   UNL     1      42.018 133.058  19.456  1.00  0.00     0.183 C 
ATOM      3  N   UNL     1      40.171 135.351  17.714  1.00  0.00    -0.198 N 
ATOM      4  C   UNL     1      39.890 134.085  18.383  1.00  0.00     0.362 C 
ATOM      5  C   UNL     1      41.186 136.137  18.406  1.00  0.00     0.358 C 
ATOM      6  C   UNL     1      40.835 134.028  19.586  1.00  0.00     0.105 C 
ATOM      7  C   UNL     1      41.449 135.415  19.734  1.00  0.00     0.068 C 
ATOM      8  C   UNL     1      42.933 135.211  20.076  1.00  0.00     0.014 C 
ATOM      9  C   UNL     1      43.113 133.712  20.287  1.00  0.00     0.046 C 
BRANCH   3  10
ATOM     10  C   UNL     1      39.525 135.803  16.668  1.00  0.00     0.362 C 
BRANCH  10  11
ATOM     11  O   UNL     1      40.235 136.155  15.519  1.00  0.00    -0.460 OA
ATOM     12  H   UNL     1      39.983 136.969  14.971  1.00  0.00     0.300 HD
ENDBRANCH  10  11
BRANCH  10  13
ATOM     13  C   UNL     1      38.053 135.983  16.669  1.00  0.00     0.053 C 
ATOM     14  C   UNL     1      37.497 136.847  17.522  1.00  0.00     0.023 C 
ATOM     15  C   UNL     1      37.187 135.247  15.688  1.00  0.00     0.055 C 
ENDBRANCH  10  13
ENDBRANCH   3  10
ENDBRANCH   1   2
BRANCH   1  16
ATOM     16  C   UNL     1      43.538 132.169  17.647  1.00  0.00     0.128 A 
ATOM     17  C   UNL     1      44.551 131.715  18.544  1.00  0.00     0.047 A 
ATOM     18  C   UNL     1      43.632 131.815  16.274  1.00  0.00     0.034 A 
ATOM     19  C   UNL     1      45.612 130.905  18.094  1.00  0.00     0.008 A 
ATOM     20  C   UNL     1      42.736 132.225  15.249  1.00  0.00     0.049 A 
ATOM     21  C   UNL     1      44.702 131.002  15.894  1.00  0.00    -0.008 A 
ATOM     22  C   UNL     1      45.657 130.555  16.749  1.00  0.00    -0.039 A 
ATOM     23  C   UNL     1      42.960 131.779  13.914  1.00  0.00     0.011 A 
ATOM     24  C   UNL     1      44.922 130.578  14.622  1.00  0.00    -0.039 A 
ATOM     25  C   UNL     1      46.665 129.721  16.022  1.00  0.00     0.041 C 
ATOM     26  C   UNL     1      44.054 130.952  13.598  1.00  0.00     0.005 A 
ATOM     27  C   UNL     1      46.156 129.734  14.554  1.00  0.00     0.041 C 
BRANCH  20  28
ATOM     28  N   UNL     1      41.639 133.099  15.551  1.00  0.00    -0.060 NA
BRANCH  28  29
ATOM     29  N   UNL     1      40.688 133.253  14.782  1.00  0.00     0.005 N 
ATOM     30  N   UNL     1      39.739 133.407  14.016  1.00  0.00    -0.003 NA
ENDBRANCH  28  29
ENDBRANCH  20  28
ENDBRANCH   1  16
TORSDOF 7
ENDMDL


