MODEL 1
REMARK VINA RESULT:      -6.7      0.000      0.000
REMARK SMILES [N-]=[N+]=Nc1c(Cl)c(Cl)c(OC(=O)[C@]2(N)C[C@@H](CO)C2)ccccc([O-])c1NC1(CF)COC1
REMARK SMILES IDX 10 1 11 2 12 3 13 4 16 5 19 6 15 7 17 8 18 9 14 11 9 14
REMARK SMILES IDX 20 15 7 16 21 17 5 18 22 19 4 20 23 21 26 22 24 23 8 24 6 25
REMARK SMILES IDX 25 26 3 27 2 28 1 29 27 30 28 32 31 33 33 34 32 35 29 36
REMARK SMILES IDX 30 37
REMARK H PARENT 18 10 14 12 14 13 27 31
ROOT
ATOM      1  O   UNL     1      43.568 131.844  16.445  1.00  0.00    -0.424 OA
ENDROOT
BRANCH   1   2
ATOM      2  C   UNL     1      44.697 131.261  17.036  1.00  0.00     0.331 C 
ATOM      3  O   UNL     1      44.787 131.161  18.291  1.00  0.00    -0.250 OA
BRANCH   2   4
ATOM      4  C   UNL     1      45.759 130.647  16.150  1.00  0.00     0.116 C 
ATOM      5  C   UNL     1      45.857 130.905  14.005  1.00  0.00     0.019 C 
ATOM      6  C   UNL     1      45.184 129.898  14.941  1.00  0.00     0.040 C 
ATOM      7  C   UNL     1      46.440 131.650  15.209  1.00  0.00     0.040 C 
BRANCH   5   8
ATOM      8  C   UNL     1      46.908 130.296  13.060  1.00  0.00     0.159 C 
BRANCH   8   9
ATOM      9  O   UNL     1      46.658 130.646  11.725  1.00  0.00    -0.396 OA
ATOM     10  H   UNL     1      46.369 129.812  11.272  1.00  0.00     0.210 HD
ENDBRANCH   8   9
ENDBRANCH   5   8
BRANCH   4  11
ATOM     11  N   UNL     1      46.742 129.838  16.878  1.00  0.00    -0.316 NA
ATOM     12  H   UNL     1      46.969 128.989  16.310  1.00  0.00     0.119 HD
ATOM     13  H   UNL     1      46.310 129.512  17.774  1.00  0.00     0.119 HD
ENDBRANCH   4  11
ENDBRANCH   2   4
ENDBRANCH   1   2
BRANCH   1  14
ATOM     14  C   UNL     1      43.374 133.219  16.238  1.00  0.00     0.151 A 
ATOM     15  C   UNL     1      44.156 134.149  16.949  1.00  0.00     0.049 A 
ATOM     16  C   UNL     1      42.386 133.591  15.297  1.00  0.00     0.102 A 
ATOM     17  C   UNL     1      44.417 135.441  16.488  1.00  0.00     0.004 A 
ATOM     18  C   UNL     1      41.674 134.824  15.294  1.00  0.00     0.075 A 
ATOM     19  C   UNL     1      44.375 136.550  17.337  1.00  0.00    -0.000 A 
ATOM     20  C   UNL     1      41.580 135.699  16.408  1.00  0.00     0.080 A 
ATOM     21  C   UNL     1      43.550 136.650  18.474  1.00  0.00    -0.006 A 
ATOM     22  C   UNL     1      41.623 135.229  17.738  1.00  0.00     0.038 A 
ATOM     23  C   UNL     1      42.390 135.885  18.729  1.00  0.00    -0.084 A 
ATOM     24  Cl  UNL     1      41.968 132.376  14.084  1.00  0.00    -0.079 Cl
ATOM     25  Cl  UNL     1      40.793 135.264  13.827  1.00  0.00    -0.082 Cl
ATOM     26  O   UNL     1      41.980 135.770  20.054  1.00  0.00    -0.871 OA
BRANCH  20  27
ATOM     27  N   UNL     1      41.475 137.122  16.223  1.00  0.00    -0.057 NA
BRANCH  27  28
ATOM     28  N   UNL     1      40.398 137.721  16.247  1.00  0.00     0.005 N 
ATOM     29  N   UNL     1      39.325 138.322  16.267  1.00  0.00    -0.003 NA
ENDBRANCH  27  28
ENDBRANCH  20  27
BRANCH  22  30
ATOM     30  N   UNL     1      40.846 134.082  18.133  1.00  0.00    -0.373 N 
ATOM     31  H   UNL     1      41.370 133.220  18.405  1.00  0.00     0.161 HD
BRANCH  30  32
ATOM     32  C   UNL     1      39.396 134.092  18.384  1.00  0.00     0.113 C 
ATOM     33  C   UNL     1      38.667 135.013  17.419  1.00  0.00     0.193 C 
ATOM     34  C   UNL     1      38.599 133.015  17.663  1.00  0.00     0.193 C 
ATOM     35  O   UNL     1      37.959 133.950  16.827  1.00  0.00    -0.376 OA
BRANCH  32  36
ATOM     36  C   UNL     1      39.034 134.312  19.862  1.00  0.00     0.247 C 
ATOM     37  F   UNL     1      37.711 133.991  20.118  1.00  0.00    -0.248 F 
ENDBRANCH  32  36
ENDBRANCH  30  32
ENDBRANCH  22  30
ENDBRANCH   1  14
TORSDOF 11
ENDMDL
MODEL 2
REMARK VINA RESULT:      -6.6      3.115      4.099
REMARK SMILES [N-]=[N+]=Nc1c(Cl)c(Cl)c(OC(=O)[C@]2(N)C[C@@H](CO)C2)ccccc([O-])c1NC1(CF)COC1
REMARK SMILES IDX 10 1 11 2 12 3 13 4 16 5 19 6 15 7 17 8 18 9 14 11 9 14
REMARK SMILES IDX 20 15 7 16 21 17 5 18 22 19 4 20 23 21 26 22 24 23 8 24 6 25
REMARK SMILES IDX 25 26 3 27 2 28 1 29 27 30 28 32 31 33 33 34 32 35 29 36
REMARK SMILES IDX 30 37
REMARK H PARENT 18 10 14 12 14 13 27 31
ROOT
ATOM      1  O   UNL     1      44.162 132.790  16.473  1.00  0.00    -0.424 OA
ENDROOT
BRANCH   1   2
ATOM      2  C   UNL     1      44.867 131.716  17.033  1.00  0.00     0.331 C 
ATOM      3  O   UNL     1      44.681 131.381  18.235  1.00  0.00    -0.250 OA
BRANCH   2   4
ATOM      4  C   UNL     1      45.775 130.889  16.148  1.00  0.00     0.116 C 
ATOM      5  C   UNL     1      45.690 130.873  13.988  1.00  0.00     0.019 C 
ATOM      6  C   UNL     1      45.016 130.066  15.100  1.00  0.00     0.040 C 
ATOM      7  C   UNL     1      46.456 131.690  15.032  1.00  0.00     0.040 C 
BRANCH   5   8
ATOM      8  C   UNL     1      46.581 130.044  13.046  1.00  0.00     0.159 C 
BRANCH   8   9
ATOM      9  O   UNL     1      47.094 130.831  12.004  1.00  0.00    -0.396 OA
ATOM     10  H   UNL     1      46.308 131.167  11.501  1.00  0.00     0.210 HD
ENDBRANCH   8   9
ENDBRANCH   5   8
BRANCH   4  11
ATOM     11  N   UNL     1      46.740 130.071  16.892  1.00  0.00    -0.316 NA
ATOM     12  H   UNL     1      47.619 129.992  16.330  1.00  0.00     0.119 HD
ATOM     13  H   UNL     1      46.348 129.107  17.003  1.00  0.00     0.119 HD
ENDBRANCH   4  11
ENDBRANCH   2   4
ENDBRANCH   1   2
BRANCH   1  14
ATOM     14  C   UNL     1      43.613 133.867  17.187  1.00  0.00     0.151 A 
ATOM     15  C   UNL     1      44.340 135.067  17.306  1.00  0.00     0.049 A 
ATOM     16  C   UNL     1      42.330 133.677  17.748  1.00  0.00     0.102 A 
ATOM     17  C   UNL     1      43.739 136.309  17.522  1.00  0.00     0.004 A 
ATOM     18  C   UNL     1      41.816 134.364  18.884  1.00  0.00     0.075 A 
ATOM     19  C   UNL     1      44.264 137.237  18.426  1.00  0.00    -0.000 A 
ATOM     20  C   UNL     1      42.614 135.065  19.826  1.00  0.00     0.080 A 
ATOM     21  C   UNL     1      44.990 136.895  19.583  1.00  0.00    -0.006 A 
ATOM     22  C   UNL     1      43.942 134.684  20.116  1.00  0.00     0.038 A 
ATOM     23  C   UNL     1      44.976 135.641  20.233  1.00  0.00    -0.084 A 
ATOM     24  Cl  UNL     1      41.334 132.421  17.005  1.00  0.00    -0.079 Cl
ATOM     25  Cl  UNL     1      40.075 134.287  19.177  1.00  0.00    -0.082 Cl
ATOM     26  O   UNL     1      46.064 135.331  21.043  1.00  0.00    -0.871 OA
BRANCH  20  27
ATOM     27  N   UNL     1      42.107 136.229  20.503  1.00  0.00    -0.057 NA
BRANCH  27  28
ATOM     28  N   UNL     1      41.682 136.198  21.659  1.00  0.00     0.005 N 
ATOM     29  N   UNL     1      41.260 136.163  22.814  1.00  0.00    -0.003 NA
ENDBRANCH  27  28
ENDBRANCH  20  27
BRANCH  22  30
ATOM     30  N   UNL     1      44.271 133.301  20.345  1.00  0.00    -0.373 N 
ATOM     31  H   UNL     1      44.999 132.874  19.728  1.00  0.00     0.161 HD
BRANCH  30  32
ATOM     32  C   UNL     1      43.824 132.507  21.500  1.00  0.00     0.113 C 
ATOM     33  C   UNL     1      44.994 131.846  22.213  1.00  0.00     0.193 C 
ATOM     34  C   UNL     1      43.701 133.270  22.811  1.00  0.00     0.193 C 
ATOM     35  O   UNL     1      44.787 132.587  23.392  1.00  0.00    -0.376 OA
BRANCH  32  36
ATOM     36  C   UNL     1      42.664 131.552  21.174  1.00  0.00     0.247 C 
ATOM     37  F   UNL     1      42.622 130.479  22.049  1.00  0.00    -0.248 F 
ENDBRANCH  32  36
ENDBRANCH  30  32
ENDBRANCH  22  30
ENDBRANCH   1  14
TORSDOF 11
ENDMDL
MODEL 3
REMARK VINA RESULT:      -6.6      1.292      1.519
REMARK SMILES [N-]=[N+]=Nc1c(Cl)c(Cl)c(OC(=O)[C@]2(N)C[C@@H](CO)C2)ccccc([O-])c1NC1(CF)COC1
REMARK SMILES IDX 10 1 11 2 12 3 13 4 16 5 19 6 15 7 17 8 18 9 14 11 9 14
REMARK SMILES IDX 20 15 7 16 21 17 5 18 22 19 4 20 23 21 26 22 24 23 8 24 6 25
REMARK SMILES IDX 25 26 3 27 2 28 1 29 27 30 28 32 31 33 33 34 32 35 29 36
REMARK SMILES IDX 30 37
REMARK H PARENT 18 10 14 12 14 13 27 31
ROOT
ATOM      1  O   UNL     1      43.370 131.869  16.691  1.00  0.00    -0.424 OA
ENDROOT
BRANCH   1   2
ATOM      2  C   UNL     1      44.524 131.338  17.283  1.00  0.00     0.331 C 
ATOM      3  O   UNL     1      44.647 131.306  18.538  1.00  0.00    -0.250 OA
BRANCH   2   4
ATOM      4  C   UNL     1      45.577 130.697  16.403  1.00  0.00     0.116 C 
ATOM      5  C   UNL     1      45.539 130.720  14.241  1.00  0.00     0.019 C 
ATOM      6  C   UNL     1      44.990 129.784  15.320  1.00  0.00     0.040 C 
ATOM      7  C   UNL     1      46.134 131.630  15.320  1.00  0.00     0.040 C 
BRANCH   5   8
ATOM      8  C   UNL     1      46.576 130.078  13.304  1.00  0.00     0.159 C 
BRANCH   8   9
ATOM      9  O   UNL     1      47.203 128.979  13.911  1.00  0.00    -0.396 OA
ATOM     10  H   UNL     1      47.146 128.235  13.258  1.00  0.00     0.210 HD
ENDBRANCH   8   9
ENDBRANCH   5   8
BRANCH   4  11
ATOM     11  N   UNL     1      46.651 130.038  17.152  1.00  0.00    -0.316 NA
ATOM     12  H   UNL     1      46.227 129.353  17.821  1.00  0.00     0.119 HD
ATOM     13  H   UNL     1      47.158 130.758  17.717  1.00  0.00     0.119 HD
ENDBRANCH   4  11
ENDBRANCH   2   4
ENDBRANCH   1   2
BRANCH   1  14
ATOM     14  C   UNL     1      43.210 133.196  16.262  1.00  0.00     0.151 A 
ATOM     15  C   UNL     1      43.797 134.243  16.999  1.00  0.00     0.049 A 
ATOM     16  C   UNL     1      42.459 133.402  15.083  1.00  0.00     0.102 A 
ATOM     17  C   UNL     1      44.139 135.476  16.439  1.00  0.00     0.004 A 
ATOM     18  C   UNL     1      41.749 134.591  14.755  1.00  0.00     0.075 A 
ATOM     19  C   UNL     1      43.889 136.681  17.100  1.00  0.00    -0.000 A 
ATOM     20  C   UNL     1      41.392 135.597  15.690  1.00  0.00     0.080 A 
ATOM     21  C   UNL     1      42.826 136.889  17.999  1.00  0.00    -0.006 A 
ATOM     22  C   UNL     1      41.137 135.303  17.047  1.00  0.00     0.038 A 
ATOM     23  C   UNL     1      41.648 136.113  18.087  1.00  0.00    -0.084 A 
ATOM     24  Cl  UNL     1      42.344 132.024  13.982  1.00  0.00    -0.079 Cl
ATOM     25  Cl  UNL     1      41.220 134.801  13.081  1.00  0.00    -0.082 Cl
ATOM     26  O   UNL     1      40.949 136.152  19.290  1.00  0.00    -0.871 OA
BRANCH  20  27
ATOM     27  N   UNL     1      41.312 136.978  15.297  1.00  0.00    -0.057 NA
BRANCH  27  28
ATOM     28  N   UNL     1      40.242 137.557  15.101  1.00  0.00     0.005 N 
ATOM     29  N   UNL     1      39.172 138.133  14.909  1.00  0.00    -0.003 NA
ENDBRANCH  27  28
ENDBRANCH  20  27
BRANCH  22  30
ATOM     30  N   UNL     1      40.306 134.184  17.409  1.00  0.00    -0.373 N 
ATOM     31  H   UNL     1      40.739 133.436  17.996  1.00  0.00     0.161 HD
BRANCH  30  32
ATOM     32  C   UNL     1      38.851 134.110  17.197  1.00  0.00     0.113 C 
ATOM     33  C   UNL     1      38.180 133.214  18.226  1.00  0.00     0.193 C 
ATOM     34  C   UNL     1      38.033 135.194  17.884  1.00  0.00     0.193 C 
ATOM     35  O   UNL     1      37.449 134.281  18.782  1.00  0.00    -0.376 OA
BRANCH  32  36
ATOM     36  C   UNL     1      38.461 133.801  15.742  1.00  0.00     0.247 C 
ATOM     37  F   UNL     1      37.192 134.268  15.443  1.00  0.00    -0.248 F 
ENDBRANCH  32  36
ENDBRANCH  30  32
ENDBRANCH  22  30
ENDBRANCH   1  14
TORSDOF 11
ENDMDL
MODEL 4
REMARK VINA RESULT:      -6.5      2.171      2.630
REMARK SMILES [N-]=[N+]=Nc1c(Cl)c(Cl)c(OC(=O)[C@]2(N)C[C@@H](CO)C2)ccccc([O-])c1NC1(CF)COC1
REMARK SMILES IDX 10 1 11 2 12 3 13 4 16 5 19 6 15 7 17 8 18 9 14 11 9 14
REMARK SMILES IDX 20 15 7 16 21 17 5 18 22 19 4 20 23 21 26 22 24 23 8 24 6 25
REMARK SMILES IDX 25 26 3 27 2 28 1 29 27 30 28 32 31 33 33 34 32 35 29 36
REMARK SMILES IDX 30 37
REMARK H PARENT 18 10 14 12 14 13 27 31
ROOT
ATOM      1  O   UNL     1      44.789 133.299  15.228  1.00  0.00    -0.424 OA
ENDROOT
BRANCH   1   2
ATOM      2  C   UNL     1      45.182 132.257  16.077  1.00  0.00     0.331 C 
ATOM      3  O   UNL     1      44.737 132.184  17.255  1.00  0.00    -0.250 OA
BRANCH   2   4
ATOM      4  C   UNL     1      46.062 131.152  15.531  1.00  0.00     0.116 C 
ATOM      5  C   UNL     1      46.388 130.781  13.426  1.00  0.00     0.019 C 
ATOM      6  C   UNL     1      45.370 130.298  14.462  1.00  0.00     0.040 C 
ATOM      7  C   UNL     1      47.086 131.628  14.493  1.00  0.00     0.040 C 
BRANCH   5   8
ATOM      8  C   UNL     1      47.262 129.668  12.821  1.00  0.00     0.159 C 
BRANCH   8   9
ATOM      9  O   UNL     1      47.816 128.853  13.819  1.00  0.00    -0.396 OA
ATOM     10  H   UNL     1      47.791 127.928  13.462  1.00  0.00     0.210 HD
ENDBRANCH   8   9
ENDBRANCH   5   8
BRANCH   4  11
ATOM     11  N   UNL     1      46.689 130.328  16.569  1.00  0.00    -0.316 NA
ATOM     12  H   UNL     1      46.565 129.319  16.320  1.00  0.00     0.119 HD
ATOM     13  H   UNL     1      46.191 130.493  17.475  1.00  0.00     0.119 HD
ENDBRANCH   4  11
ENDBRANCH   2   4
ENDBRANCH   1   2
BRANCH   1  14
ATOM     14  C   UNL     1      43.762 134.221  15.489  1.00  0.00     0.151 A 
ATOM     15  C   UNL     1      44.078 135.575  15.705  1.00  0.00     0.049 A 
ATOM     16  C   UNL     1      42.441 133.718  15.509  1.00  0.00     0.102 A 
ATOM     17  C   UNL     1      43.181 136.619  15.470  1.00  0.00     0.004 A 
ATOM     18  C   UNL     1      41.352 134.292  16.224  1.00  0.00     0.075 A 
ATOM     19  C   UNL     1      43.047 137.692  16.355  1.00  0.00    -0.000 A 
ATOM     20  C   UNL     1      41.490 135.221  17.288  1.00  0.00     0.080 A 
ATOM     21  C   UNL     1      43.265 137.607  17.744  1.00  0.00    -0.006 A 
ATOM     22  C   UNL     1      42.615 135.221  18.141  1.00  0.00     0.038 A 
ATOM     23  C   UNL     1      43.256 136.424  18.517  1.00  0.00    -0.084 A 
ATOM     24  Cl  UNL     1      42.167 132.211  14.629  1.00  0.00    -0.079 Cl
ATOM     25  Cl  UNL     1      39.719 133.764  15.801  1.00  0.00    -0.082 Cl
ATOM     26  O   UNL     1      43.933 136.452  19.732  1.00  0.00    -0.871 OA
BRANCH  20  27
ATOM     27  N   UNL     1      40.496 136.235  17.519  1.00  0.00    -0.057 NA
BRANCH  27  28
ATOM     28  N   UNL     1      39.649 136.150  18.409  1.00  0.00     0.005 N 
ATOM     29  N   UNL     1      38.805 136.069  19.300  1.00  0.00    -0.003 NA
ENDBRANCH  27  28
ENDBRANCH  20  27
BRANCH  22  30
ATOM     30  N   UNL     1      43.116 133.988  18.691  1.00  0.00    -0.373 N 
ATOM     31  H   UNL     1      44.000 133.607  18.284  1.00  0.00     0.161 HD
BRANCH  30  32
ATOM     32  C   UNL     1      42.605 133.338  19.908  1.00  0.00     0.113 C 
ATOM     33  C   UNL     1      42.176 131.904  19.639  1.00  0.00     0.193 C 
ATOM     34  C   UNL     1      43.654 132.661  20.779  1.00  0.00     0.193 C 
ATOM     35  O   UNL     1      43.169 131.373  20.484  1.00  0.00    -0.376 OA
BRANCH  32  36
ATOM     36  C   UNL     1      41.558 134.179  20.657  1.00  0.00     0.247 C 
ATOM     37  F   UNL     1      41.061 133.511  21.764  1.00  0.00    -0.248 F 
ENDBRANCH  32  36
ENDBRANCH  30  32
ENDBRANCH  22  30
ENDBRANCH   1  14
TORSDOF 11
ENDMDL
MODEL 5
REMARK VINA RESULT:      -6.5      1.847      2.036
REMARK SMILES [N-]=[N+]=Nc1c(Cl)c(Cl)c(OC(=O)[C@]2(N)C[C@@H](CO)C2)ccccc([O-])c1NC1(CF)COC1
REMARK SMILES IDX 10 1 11 2 12 3 13 4 16 5 19 6 15 7 17 8 18 9 14 11 9 14
REMARK SMILES IDX 20 15 7 16 21 17 5 18 22 19 4 20 23 21 26 22 24 23 8 24 6 25
REMARK SMILES IDX 25 26 3 27 2 28 1 29 27 30 28 32 31 33 33 34 32 35 29 36
REMARK SMILES IDX 30 37
REMARK H PARENT 18 10 14 12 14 13 27 31
ROOT
ATOM      1  O   UNL     1      44.280 133.793  15.143  1.00  0.00    -0.424 OA
ENDROOT
BRANCH   1   2
ATOM      2  C   UNL     1      44.602 132.945  16.211  1.00  0.00     0.331 C 
ATOM      3  O   UNL     1      44.197 133.198  17.379  1.00  0.00    -0.250 OA
BRANCH   2   4
ATOM      4  C   UNL     1      45.346 131.656  15.931  1.00  0.00     0.116 C 
ATOM      5  C   UNL     1      45.876 130.958  13.955  1.00  0.00     0.019 C 
ATOM      6  C   UNL     1      44.666 130.779  14.874  1.00  0.00     0.040 C 
ATOM      7  C   UNL     1      46.562 131.828  15.012  1.00  0.00     0.040 C 
BRANCH   5   8
ATOM      8  C   UNL     1      46.621 129.655  13.617  1.00  0.00     0.159 C 
BRANCH   8   9
ATOM      9  O   UNL     1      47.535 129.846  12.570  1.00  0.00    -0.396 OA
ATOM     10  H   UNL     1      47.212 130.635  12.063  1.00  0.00     0.210 HD
ENDBRANCH   8   9
ENDBRANCH   5   8
BRANCH   4  11
ATOM     11  N   UNL     1      45.685 130.896  17.138  1.00  0.00    -0.316 NA
ATOM     12  H   UNL     1      46.095 129.976  16.854  1.00  0.00     0.119 HD
ATOM     13  H   UNL     1      44.805 130.699  17.670  1.00  0.00     0.119 HD
ENDBRANCH   4  11
ENDBRANCH   2   4
ENDBRANCH   1   2
BRANCH   1  14
ATOM     14  C   UNL     1      43.243 134.740  15.137  1.00  0.00     0.151 A 
ATOM     15  C   UNL     1      43.536 136.097  15.368  1.00  0.00     0.049 A 
ATOM     16  C   UNL     1      41.939 134.259  14.884  1.00  0.00     0.102 A 
ATOM     17  C   UNL     1      42.738 137.144  14.902  1.00  0.00     0.004 A 
ATOM     18  C   UNL     1      40.733 134.877  15.319  1.00  0.00     0.075 A 
ATOM     19  C   UNL     1      42.437 138.254  15.697  1.00  0.00    -0.000 A 
ATOM     20  C   UNL     1      40.656 135.847  16.353  1.00  0.00     0.080 A 
ATOM     21  C   UNL     1      42.343 138.223  17.101  1.00  0.00    -0.006 A 
ATOM     22  C   UNL     1      41.565 135.866  17.433  1.00  0.00     0.038 A 
ATOM     23  C   UNL     1      42.137 137.073  17.896  1.00  0.00    -0.084 A 
ATOM     24  Cl  UNL     1      41.830 132.720  14.021  1.00  0.00    -0.079 Cl
ATOM     25  Cl  UNL     1      39.221 134.357  14.566  1.00  0.00    -0.082 Cl
ATOM     26  O   UNL     1      42.530 137.141  19.229  1.00  0.00    -0.871 OA
BRANCH  20  27
ATOM     27  N   UNL     1      39.660 136.884  16.321  1.00  0.00    -0.057 NA
BRANCH  27  28
ATOM     28  N   UNL     1      38.543 136.754  16.824  1.00  0.00     0.005 N 
ATOM     29  N   UNL     1      37.426 136.621  17.322  1.00  0.00    -0.003 NA
ENDBRANCH  27  28
ENDBRANCH  20  27
BRANCH  22  30
ATOM     30  N   UNL     1      41.904 134.649  18.124  1.00  0.00    -0.373 N 
ATOM     31  H   UNL     1      42.898 134.329  18.072  1.00  0.00     0.161 HD
BRANCH  30  32
ATOM     32  C   UNL     1      41.021 133.938  19.062  1.00  0.00     0.113 C 
ATOM     33  C   UNL     1      39.938 134.852  19.615  1.00  0.00     0.193 C 
ATOM     34  C   UNL     1      39.833 133.225  18.432  1.00  0.00     0.193 C 
ATOM     35  O   UNL     1      38.905 134.114  19.007  1.00  0.00    -0.376 OA
BRANCH  32  36
ATOM     36  C   UNL     1      41.783 133.142  20.135  1.00  0.00     0.247 C 
ATOM     37  F   UNL     1      42.244 131.932  19.643  1.00  0.00    -0.248 F 
ENDBRANCH  32  36
ENDBRANCH  30  32
ENDBRANCH  22  30
ENDBRANCH   1  14
TORSDOF 11
ENDMDL
MODEL 6
REMARK VINA RESULT:      -6.5      2.605      3.824
REMARK SMILES [N-]=[N+]=Nc1c(Cl)c(Cl)c(OC(=O)[C@]2(N)C[C@@H](CO)C2)ccccc([O-])c1NC1(CF)COC1
REMARK SMILES IDX 10 1 11 2 12 3 13 4 16 5 19 6 15 7 17 8 18 9 14 11 9 14
REMARK SMILES IDX 20 15 7 16 21 17 5 18 22 19 4 20 23 21 26 22 24 23 8 24 6 25
REMARK SMILES IDX 25 26 3 27 2 28 1 29 27 30 28 32 31 33 33 34 32 35 29 36
REMARK SMILES IDX 30 37
REMARK H PARENT 18 10 14 12 14 13 27 31
ROOT
ATOM      1  O   UNL     1      43.193 131.732  16.513  1.00  0.00    -0.424 OA
ENDROOT
BRANCH   1   2
ATOM      2  C   UNL     1      44.551 132.075  16.557  1.00  0.00     0.331 C 
ATOM      3  O   UNL     1      44.937 133.093  17.194  1.00  0.00    -0.250 OA
BRANCH   2   4
ATOM      4  C   UNL     1      45.567 131.147  15.924  1.00  0.00     0.116 C 
ATOM      5  C   UNL     1      45.868 130.939  13.793  1.00  0.00     0.019 C 
ATOM      6  C   UNL     1      44.973 130.253  14.828  1.00  0.00     0.040 C 
ATOM      7  C   UNL     1      46.468 131.827  14.887  1.00  0.00     0.040 C 
BRANCH   5   8
ATOM      8  C   UNL     1      46.877 130.006  13.102  1.00  0.00     0.159 C 
BRANCH   8   9
ATOM      9  O   UNL     1      47.258 130.505  11.847  1.00  0.00    -0.396 OA
ATOM     10  H   UNL     1      47.711 129.756  11.380  1.00  0.00     0.210 HD
ENDBRANCH   8   9
ENDBRANCH   5   8
BRANCH   4  11
ATOM     11  N   UNL     1      46.348 130.376  16.896  1.00  0.00    -0.316 NA
ATOM     12  H   UNL     1      46.831 129.593  16.397  1.00  0.00     0.119 HD
ATOM     13  H   UNL     1      45.693 129.950  17.592  1.00  0.00     0.119 HD
ENDBRANCH   4  11
ENDBRANCH   2   4
ENDBRANCH   1   2
BRANCH   1  14
ATOM     14  C   UNL     1      42.122 132.640  16.489  1.00  0.00     0.151 A 
ATOM     15  C   UNL     1      41.733 133.229  15.271  1.00  0.00     0.049 A 
ATOM     16  C   UNL     1      41.481 132.906  17.720  1.00  0.00     0.102 A 
ATOM     17  C   UNL     1      40.445 133.709  15.028  1.00  0.00     0.004 A 
ATOM     18  C   UNL     1      40.774 134.099  18.041  1.00  0.00     0.075 A 
ATOM     19  C   UNL     1      40.221 134.921  14.370  1.00  0.00    -0.000 A 
ATOM     20  C   UNL     1      40.902 135.323  17.332  1.00  0.00     0.080 A 
ATOM     21  C   UNL     1      41.097 136.022  14.412  1.00  0.00    -0.006 A 
ATOM     22  C   UNL     1      42.100 135.692  16.683  1.00  0.00     0.038 A 
ATOM     23  C   UNL     1      42.094 136.255  15.386  1.00  0.00    -0.084 A 
ATOM     24  Cl  UNL     1      41.655 131.672  18.973  1.00  0.00    -0.079 Cl
ATOM     25  Cl  UNL     1      39.712 134.075  19.453  1.00  0.00    -0.082 Cl
ATOM     26  O   UNL     1      43.145 137.096  15.034  1.00  0.00    -0.871 OA
BRANCH  20  27
ATOM     27  N   UNL     1      39.791 136.229  17.214  1.00  0.00    -0.057 NA
BRANCH  27  28
ATOM     28  N   UNL     1      39.657 137.221  17.933  1.00  0.00     0.005 N 
ATOM     29  N   UNL     1      39.519 138.210  18.651  1.00  0.00    -0.003 NA
ENDBRANCH  27  28
ENDBRANCH  20  27
BRANCH  22  30
ATOM     30  N   UNL     1      43.368 135.544  17.350  1.00  0.00    -0.373 N 
ATOM     31  H   UNL     1      44.127 135.050  16.830  1.00  0.00     0.161 HD
BRANCH  30  32
ATOM     32  C   UNL     1      43.742 136.210  18.609  1.00  0.00     0.113 C 
ATOM     33  C   UNL     1      45.006 137.040  18.448  1.00  0.00     0.193 C 
ATOM     34  C   UNL     1      43.103 137.571  18.844  1.00  0.00     0.193 C 
ATOM     35  O   UNL     1      44.329 138.249  18.699  1.00  0.00    -0.376 OA
BRANCH  32  36
ATOM     36  C   UNL     1      43.759 135.263  19.820  1.00  0.00     0.247 C 
ATOM     37  F   UNL     1      44.839 135.513  20.650  1.00  0.00    -0.248 F 
ENDBRANCH  32  36
ENDBRANCH  30  32
ENDBRANCH  22  30
ENDBRANCH   1  14
TORSDOF 11
ENDMDL
MODEL 7
REMARK VINA RESULT:      -6.4      2.225      3.092
REMARK SMILES [N-]=[N+]=Nc1c(Cl)c(Cl)c(OC(=O)[C@]2(N)C[C@@H](CO)C2)ccccc([O-])c1NC1(CF)COC1
REMARK SMILES IDX 10 1 11 2 12 3 13 4 16 5 19 6 15 7 17 8 18 9 14 11 9 14
REMARK SMILES IDX 20 15 7 16 21 17 5 18 22 19 4 20 23 21 26 22 24 23 8 24 6 25
REMARK SMILES IDX 25 26 3 27 2 28 1 29 27 30 28 32 31 33 33 34 32 35 29 36
REMARK SMILES IDX 30 37
REMARK H PARENT 18 10 14 12 14 13 27 31
ROOT
ATOM      1  O   UNL     1      43.401 131.762  16.728  1.00  0.00    -0.424 OA
ENDROOT
BRANCH   1   2
ATOM      2  C   UNL     1      44.596 131.065  16.954  1.00  0.00     0.331 C 
ATOM      3  O   UNL     1      45.092 130.997  18.112  1.00  0.00    -0.250 OA
BRANCH   2   4
ATOM      4  C   UNL     1      45.228 130.297  15.813  1.00  0.00     0.116 C 
ATOM      5  C   UNL     1      45.944 131.200  13.983  1.00  0.00     0.019 C 
ATOM      6  C   UNL     1      44.607 130.617  14.447  1.00  0.00     0.040 C 
ATOM      7  C   UNL     1      46.569 130.875  15.342  1.00  0.00     0.040 C 
BRANCH   5   8
ATOM      8  C   UNL     1      46.583 130.465  12.792  1.00  0.00     0.159 C 
BRANCH   8   9
ATOM      9  O   UNL     1      47.759 131.103  12.369  1.00  0.00    -0.396 OA
ATOM     10  H   UNL     1      48.425 130.383  12.222  1.00  0.00     0.210 HD
ENDBRANCH   8   9
ENDBRANCH   5   8
BRANCH   4  11
ATOM     11  N   UNL     1      45.316 128.852  16.049  1.00  0.00    -0.316 NA
ATOM     12  H   UNL     1      44.378 128.502  16.351  1.00  0.00     0.119 HD
ATOM     13  H   UNL     1      45.985 128.681  16.836  1.00  0.00     0.119 HD
ENDBRANCH   4  11
ENDBRANCH   2   4
ENDBRANCH   1   2
BRANCH   1  14
ATOM     14  C   UNL     1      42.975 132.900  17.432  1.00  0.00     0.151 A 
ATOM     15  C   UNL     1      42.253 132.749  18.631  1.00  0.00     0.049 A 
ATOM     16  C   UNL     1      43.315 134.157  16.883  1.00  0.00     0.102 A 
ATOM     17  C   UNL     1      42.225 133.717  19.637  1.00  0.00     0.004 A 
ATOM     18  C   UNL     1      42.601 135.370  17.095  1.00  0.00     0.075 A 
ATOM     19  C   UNL     1      41.045 134.055  20.305  1.00  0.00    -0.000 A 
ATOM     20  C   UNL     1      41.268 135.442  17.580  1.00  0.00     0.080 A 
ATOM     21  C   UNL     1      39.760 133.980  19.735  1.00  0.00    -0.006 A 
ATOM     22  C   UNL     1      40.324 134.421  17.335  1.00  0.00     0.038 A 
ATOM     23  C   UNL     1      39.464 133.950  18.353  1.00  0.00    -0.084 A 
ATOM     24  Cl  UNL     1      44.699 134.179  15.785  1.00  0.00    -0.079 Cl
ATOM     25  Cl  UNL     1      43.402 136.885  16.666  1.00  0.00    -0.082 Cl
ATOM     26  O   UNL     1      38.237 133.415  17.976  1.00  0.00    -0.871 OA
BRANCH  20  27
ATOM     27  N   UNL     1      40.833 136.553  18.383  1.00  0.00    -0.057 NA
BRANCH  27  28
ATOM     28  N   UNL     1      40.127 137.461  17.942  1.00  0.00     0.005 N 
ATOM     29  N   UNL     1      39.423 138.370  17.505  1.00  0.00    -0.003 NA
ENDBRANCH  27  28
ENDBRANCH  20  27
BRANCH  22  30
ATOM     30  N   UNL     1      40.183 133.859  16.016  1.00  0.00    -0.373 N 
ATOM     31  H   UNL     1      40.324 132.828  15.918  1.00  0.00     0.161 HD
BRANCH  30  32
ATOM     32  C   UNL     1      39.653 134.576  14.846  1.00  0.00     0.113 C 
ATOM     33  C   UNL     1      38.590 133.763  14.124  1.00  0.00     0.193 C 
ATOM     34  C   UNL     1      38.482 135.508  15.123  1.00  0.00     0.193 C 
ATOM     35  O   UNL     1      37.577 134.696  14.414  1.00  0.00    -0.376 OA
BRANCH  32  36
ATOM     36  C   UNL     1      40.749 135.139  13.926  1.00  0.00     0.247 C 
ATOM     37  F   UNL     1      40.991 136.479  14.179  1.00  0.00    -0.248 F 
ENDBRANCH  32  36
ENDBRANCH  30  32
ENDBRANCH  22  30
ENDBRANCH   1  14
TORSDOF 11
ENDMDL
MODEL 8
REMARK VINA RESULT:      -6.4      2.536      3.460
REMARK SMILES [N-]=[N+]=Nc1c(Cl)c(Cl)c(OC(=O)[C@]2(N)C[C@@H](CO)C2)ccccc([O-])c1NC1(CF)COC1
REMARK SMILES IDX 10 1 11 2 12 3 13 4 16 5 19 6 15 7 17 8 18 9 14 11 9 14
REMARK SMILES IDX 20 15 7 16 21 17 5 18 22 19 4 20 23 21 26 22 24 23 8 24 6 25
REMARK SMILES IDX 25 26 3 27 2 28 1 29 27 30 28 32 31 33 33 34 32 35 29 36
REMARK SMILES IDX 30 37
REMARK H PARENT 18 10 14 12 14 13 27 31
ROOT
ATOM      1  O   UNL     1      43.182 131.659  16.629  1.00  0.00    -0.424 OA
ENDROOT
BRANCH   1   2
ATOM      2  C   UNL     1      44.469 131.506  17.162  1.00  0.00     0.331 C 
ATOM      3  O   UNL     1      44.712 131.827  18.358  1.00  0.00    -0.250 OA
BRANCH   2   4
ATOM      4  C   UNL     1      45.541 130.843  16.324  1.00  0.00     0.116 C 
ATOM      5  C   UNL     1      45.604 130.892  14.163  1.00  0.00     0.019 C 
ATOM      6  C   UNL     1      44.977 129.961  15.203  1.00  0.00     0.040 C 
ATOM      7  C   UNL     1      46.175 131.770  15.279  1.00  0.00     0.040 C 
BRANCH   5   8
ATOM      8  C   UNL     1      46.663 130.229  13.266  1.00  0.00     0.159 C 
BRANCH   8   9
ATOM      9  O   UNL     1      46.538 130.647  11.933  1.00  0.00    -0.396 OA
ATOM     10  H   UNL     1      47.044 129.988  11.390  1.00  0.00     0.210 HD
ENDBRANCH   8   9
ENDBRANCH   5   8
BRANCH   4  11
ATOM     11  N   UNL     1      46.560 130.143  17.112  1.00  0.00    -0.316 NA
ATOM     12  H   UNL     1      46.222 129.173  17.316  1.00  0.00     0.119 HD
ATOM     13  H   UNL     1      46.674 130.637  18.028  1.00  0.00     0.119 HD
ENDBRANCH   4  11
ENDBRANCH   2   4
ENDBRANCH   1   2
BRANCH   1  14
ATOM     14  C   UNL     1      42.419 132.837  16.664  1.00  0.00     0.151 A 
ATOM     15  C   UNL     1      42.720 133.889  15.777  1.00  0.00     0.049 A 
ATOM     16  C   UNL     1      41.366 132.890  17.604  1.00  0.00     0.102 A 
ATOM     17  C   UNL     1      41.781 134.840  15.369  1.00  0.00     0.004 A 
ATOM     18  C   UNL     1      40.825 134.079  18.170  1.00  0.00     0.075 A 
ATOM     19  C   UNL     1      42.097 136.198  15.281  1.00  0.00    -0.000 A 
ATOM     20  C   UNL     1      41.475 135.342  18.158  1.00  0.00     0.080 A 
ATOM     21  C   UNL     1      43.054 136.845  16.085  1.00  0.00    -0.006 A 
ATOM     22  C   UNL     1      42.881 135.461  18.165  1.00  0.00     0.038 A 
ATOM     23  C   UNL     1      43.549 136.382  17.325  1.00  0.00    -0.084 A 
ATOM     24  Cl  UNL     1      40.742 131.335  18.164  1.00  0.00    -0.079 Cl
ATOM     25  Cl  UNL     1      39.268 133.965  18.998  1.00  0.00    -0.082 Cl
ATOM     26  O   UNL     1      44.783 136.870  17.741  1.00  0.00    -0.871 OA
BRANCH  20  27
ATOM     27  N   UNL     1      40.717 136.563  18.099  1.00  0.00    -0.057 NA
BRANCH  27  28
ATOM     28  N   UNL     1      40.510 137.269  19.087  1.00  0.00     0.005 N 
ATOM     29  N   UNL     1      40.307 137.978  20.072  1.00  0.00    -0.003 NA
ENDBRANCH  27  28
ENDBRANCH  20  27
BRANCH  22  30
ATOM     30  N   UNL     1      43.677 134.670  19.068  1.00  0.00    -0.373 N 
ATOM     31  H   UNL     1      44.401 134.046  18.646  1.00  0.00     0.161 HD
BRANCH  30  32
ATOM     32  C   UNL     1      43.697 134.825  20.532  1.00  0.00     0.113 C 
ATOM     33  C   UNL     1      42.889 133.737  21.221  1.00  0.00     0.193 C 
ATOM     34  C   UNL     1      44.860 134.152  21.246  1.00  0.00     0.193 C 
ATOM     35  O   UNL     1      44.024 133.197  21.855  1.00  0.00    -0.376 OA
BRANCH  32  36
ATOM     36  C   UNL     1      43.363 136.251  20.999  1.00  0.00     0.247 C 
ATOM     37  F   UNL     1      43.194 136.313  22.373  1.00  0.00    -0.248 F 
ENDBRANCH  32  36
ENDBRANCH  30  32
ENDBRANCH  22  30
ENDBRANCH   1  14
TORSDOF 11
ENDMDL
MODEL 9
REMARK VINA RESULT:      -6.3      2.599      3.921
REMARK SMILES [N-]=[N+]=Nc1c(Cl)c(Cl)c(OC(=O)[C@]2(N)C[C@@H](CO)C2)ccccc([O-])c1NC1(CF)COC1
REMARK SMILES IDX 10 1 11 2 12 3 13 4 16 5 19 6 15 7 17 8 18 9 14 11 9 14
REMARK SMILES IDX 20 15 7 16 21 17 5 18 22 19 4 20 23 21 26 22 24 23 8 24 6 25
REMARK SMILES IDX 25 26 3 27 2 28 1 29 27 30 28 32 31 33 33 34 32 35 29 36
REMARK SMILES IDX 30 37
REMARK H PARENT 18 10 14 12 14 13 27 31
ROOT
ATOM      1  O   UNL     1      42.850 132.496  15.405  1.00  0.00    -0.424 OA
ENDROOT
BRANCH   1   2
ATOM      2  C   UNL     1      44.228 132.710  15.548  1.00  0.00     0.331 C 
ATOM      3  O   UNL     1      44.674 133.852  15.845  1.00  0.00    -0.250 OA
BRANCH   2   4
ATOM      4  C   UNL     1      45.171 131.529  15.453  1.00  0.00     0.116 C 
ATOM      5  C   UNL     1      46.121 130.870  13.625  1.00  0.00     0.019 C 
ATOM      6  C   UNL     1      44.804 130.546  14.334  1.00  0.00     0.040 C 
ATOM      7  C   UNL     1      46.494 131.846  14.744  1.00  0.00     0.040 C 
BRANCH   5   8
ATOM      8  C   UNL     1      47.077 129.675  13.474  1.00  0.00     0.159 C 
BRANCH   8   9
ATOM      9  O   UNL     1      47.258 129.007  14.695  1.00  0.00    -0.396 OA
ATOM     10  H   UNL     1      46.386 129.052  15.165  1.00  0.00     0.210 HD
ENDBRANCH   8   9
ENDBRANCH   5   8
BRANCH   4  11
ATOM     11  N   UNL     1      45.394 130.846  16.731  1.00  0.00    -0.316 NA
ATOM     12  H   UNL     1      44.671 131.167  17.416  1.00  0.00     0.119 HD
ATOM     13  H   UNL     1      46.330 131.128  17.105  1.00  0.00     0.119 HD
ENDBRANCH   4  11
ENDBRANCH   2   4
ENDBRANCH   1   2
BRANCH   1  14
ATOM     14  C   UNL     1      41.843 133.413  15.744  1.00  0.00     0.151 A 
ATOM     15  C   UNL     1      41.381 134.330  14.781  1.00  0.00     0.049 A 
ATOM     16  C   UNL     1      41.337 133.350  17.063  1.00  0.00     0.102 A 
ATOM     17  C   UNL     1      40.108 134.905  14.818  1.00  0.00     0.004 A 
ATOM     18  C   UNL     1      40.740 134.431  17.769  1.00  0.00     0.075 A 
ATOM     19  C   UNL     1      39.902 136.259  14.543  1.00  0.00    -0.000 A 
ATOM     20  C   UNL     1      40.880 135.798  17.412  1.00  0.00     0.080 A 
ATOM     21  C   UNL     1      40.848 137.273  14.789  1.00  0.00    -0.006 A 
ATOM     22  C   UNL     1      42.034 136.290  16.764  1.00  0.00     0.038 A 
ATOM     23  C   UNL     1      41.944 137.190  15.677  1.00  0.00    -0.084 A 
ATOM     24  Cl  UNL     1      41.547 131.810  17.905  1.00  0.00    -0.079 Cl
ATOM     25  Cl  UNL     1      39.815 134.054  19.227  1.00  0.00    -0.082 Cl
ATOM     26  O   UNL     1      43.009 138.057  15.457  1.00  0.00    -0.871 OA
BRANCH  20  27
ATOM     27  N   UNL     1      39.823 136.740  17.665  1.00  0.00    -0.057 NA
BRANCH  27  28
ATOM     28  N   UNL     1      38.630 136.435  17.615  1.00  0.00     0.005 N 
ATOM     29  N   UNL     1      37.440 136.129  17.570  1.00  0.00    -0.003 NA
ENDBRANCH  27  28
ENDBRANCH  20  27
BRANCH  22  30
ATOM     30  N   UNL     1      43.346 135.917  17.226  1.00  0.00    -0.373 N 
ATOM     31  H   UNL     1      43.987 135.465  16.534  1.00  0.00     0.161 HD
BRANCH  30  32
ATOM     32  C   UNL     1      43.927 136.306  18.520  1.00  0.00     0.113 C 
ATOM     33  C   UNL     1      45.082 137.280  18.346  1.00  0.00     0.193 C 
ATOM     34  C   UNL     1      43.271 137.499  19.200  1.00  0.00     0.193 C 
ATOM     35  O   UNL     1      44.401 138.318  19.009  1.00  0.00    -0.376 OA
BRANCH  32  36
ATOM     36  C   UNL     1      44.243 135.110  19.433  1.00  0.00     0.247 C 
ATOM     37  F   UNL     1      43.950 133.904  18.817  1.00  0.00    -0.248 F 
ENDBRANCH  32  36
ENDBRANCH  30  32
ENDBRANCH  22  30
ENDBRANCH   1  14
TORSDOF 11
ENDMDL


