REMARK SMILES CC(=O)n1ccnc1[C@H](N=C=O)C(=O)Oc1cccc2c(Cl)c(Cl)c(Cl)c(N=[N+]=[N-])c12
REMARK SMILES IDX 13 1 14 2 9 3 8 4 6 5 7 6 5 7 4 8 2 9 3 10 1 11 10 12 11 13
REMARK SMILES IDX 12 14 15 15 16 16 17 17 31 18 18 19 27 20 20 21 19 22 25 23
REMARK SMILES IDX 21 24 23 25 26 26 22 27 24 28 28 29 29 30 30 31
REMARK H PARENT
ROOT
ATOM      1  C   UNL     1      -0.616   0.658  -1.684  1.00  0.00     0.345 C 
ATOM      2  O   UNL     1       0.037   0.979  -2.716  1.00  0.00    -0.249 OA
ENDROOT
BRANCH   1   3
ATOM      3  C   UNL     1      -2.041   0.186  -1.795  1.00  0.00     0.295 C 
BRANCH   3   4
ATOM      4  C   UNL     1      -2.101  -1.276  -1.438  1.00  0.00     0.152 A 
ATOM      5  C   UNL     1      -1.837  -3.386  -1.615  1.00  0.00     0.131 A 
ATOM      6  N   UNL     1      -1.497  -2.219  -2.195  1.00  0.00    -0.238 NA
ATOM      7  C   UNL     1      -2.644  -3.143  -0.529  1.00  0.00     0.116 A 
ATOM      8  N   UNL     1      -2.801  -1.814  -0.408  1.00  0.00    -0.272 N 
BRANCH   8   9
ATOM      9  C   UNL     1      -3.586  -1.175   0.612  1.00  0.00     0.228 C 
ATOM     10  O   UNL     1      -4.713  -1.651   0.915  1.00  0.00    -0.274 OA
ATOM     11  C   UNL     1      -3.072   0.003   1.379  1.00  0.00     0.115 C 
ENDBRANCH   8   9
ENDBRANCH   3   4
BRANCH   3  12
ATOM     12  N   UNL     1      -2.562   0.365  -3.150  1.00  0.00    -0.182 NA
BRANCH  12  13
ATOM     13  C   UNL     1      -2.845   1.515  -3.618  1.00  0.00     0.236 C 
ATOM     14  O   UNL     1      -3.120   2.633  -4.072  1.00  0.00    -0.211 OA
ENDBRANCH  12  13
ENDBRANCH   3  12
ENDBRANCH   1   3
BRANCH   1  15
ATOM     15  O   UNL     1       0.000   0.639  -0.427  1.00  0.00    -0.424 OA
BRANCH  15  16
ATOM     16  C   UNL     1       1.247   1.206  -0.126  1.00  0.00     0.139 A 
ATOM     17  C   UNL     1       1.598   2.441  -0.691  1.00  0.00     0.048 A 
ATOM     18  C   UNL     1       2.134   0.564   0.788  1.00  0.00     0.037 A 
ATOM     19  C   UNL     1       2.806   3.047  -0.377  1.00  0.00     0.005 A 
ATOM     20  C   UNL     1       1.824  -0.690   1.386  1.00  0.00     0.069 A 
ATOM     21  C   UNL     1       3.367   1.204   1.111  1.00  0.00     0.006 A 
ATOM     22  C   UNL     1       3.683   2.441   0.514  1.00  0.00     0.010 A 
ATOM     23  C   UNL     1       2.754  -1.298   2.262  1.00  0.00     0.071 A 
ATOM     24  C   UNL     1       4.260   0.600   2.024  1.00  0.00     0.069 A 
ATOM     25  C   UNL     1       3.952  -0.646   2.589  1.00  0.00     0.079 A 
ATOM     26  Cl  UNL     1       2.484  -2.930   2.890  1.00  0.00    -0.082 Cl
ATOM     27  Cl  UNL     1       5.788   1.381   2.465  1.00  0.00    -0.082 Cl
ATOM     28  Cl  UNL     1       5.092  -1.409   3.705  1.00  0.00    -0.081 Cl
BRANCH  20  29
ATOM     29  N   UNL     1       0.593  -1.355   1.047  1.00  0.00    -0.058 NA
BRANCH  29  30
ATOM     30  N   UNL     1      -0.079  -1.982   1.867  1.00  0.00     0.005 N 
ATOM     31  N   UNL     1      -0.759  -2.605   2.681  1.00  0.00    -0.003 NA
ENDBRANCH  29  30
ENDBRANCH  20  29
ENDBRANCH  15  16
ENDBRANCH   1  15
TORSDOF 9


