MODEL 1
REMARK VINA RESULT:      -6.6      0.000      0.000
REMARK SMILES Cc1n[nH+]n([C@@H]2O[C@@]2(C#N)[NH2+]c2cccc(C#N)c2C)c1-c1cc2ccccc2c2ccccc12
REMARK SMILES IDX 11 1 8 4 6 5 7 6 5 7 2 8 3 9 21 10 4 11 1 12 22 14 23 15
REMARK SMILES IDX 35 16 24 17 34 18 30 19 25 20 29 21 33 22 31 23 26 24 28 25
REMARK SMILES IDX 32 26 27 27 9 28 10 29 12 30 13 31 19 32 14 33 16 34 15 35
REMARK SMILES IDX 20 36 17 37 18 38
REMARK H PARENT 11 2 11 3 4 13
ROOT
ATOM      1  N   UNL     1      44.874 137.169  18.876  1.00  0.00    -0.269 N 
ATOM      2  H   UNL     1      44.850 138.165  19.184  1.00  0.00     0.356 HD
ATOM      3  H   UNL     1      45.884 136.987  18.663  1.00  0.00     0.356 HD
ENDROOT
BRANCH   1   4
ATOM      4  C   UNL     1      44.424 136.278  19.959  1.00  0.00     0.349 C 
ATOM      5  C   UNL     1      45.234 135.063  20.250  1.00  0.00     0.395 C 
ATOM      6  O   UNL     1      45.356 136.241  21.017  1.00  0.00    -0.270 OA
BRANCH   5   7
ATOM      7  N   UNL     1      44.545 134.014  21.000  1.00  0.00    -0.088 N 
ATOM      8  C   UNL     1      43.416 132.235  21.580  1.00  0.00     0.137 A 
ATOM      9  N   UNL     1      43.689 132.937  22.700  1.00  0.00     0.020 NA
ATOM     10  C   UNL     1      43.959 132.910  20.504  1.00  0.00     0.140 A 
ATOM     11  N   UNL     1      44.380 133.999  22.313  1.00  0.00    -0.014 N 
ATOM     12  C   UNL     1      42.601 130.984  21.543  1.00  0.00     0.076 C 
ATOM     13  H   UNL     1      44.734 134.735  22.965  1.00  0.00     0.526 HD
BRANCH  10  14
ATOM     14  C   UNL     1      43.872 132.542  19.075  1.00  0.00     0.015 A 
ATOM     15  C   UNL     1      44.930 131.821  18.525  1.00  0.00     0.020 A 
ATOM     16  C   UNL     1      42.771 132.909  18.267  1.00  0.00    -0.008 A 
ATOM     17  C   UNL     1      44.928 131.448  17.180  1.00  0.00    -0.017 A 
ATOM     18  C   UNL     1      41.696 133.647  18.808  1.00  0.00     0.009 A 
ATOM     19  C   UNL     1      42.754 132.555  16.883  1.00  0.00    -0.010 A 
ATOM     20  C   UNL     1      46.010 130.710  16.674  1.00  0.00     0.009 A 
ATOM     21  C   UNL     1      43.847 131.816  16.334  1.00  0.00    -0.010 A 
ATOM     22  C   UNL     1      40.613 134.014  18.016  1.00  0.00     0.001 A 
ATOM     23  C   UNL     1      41.639 132.955  16.104  1.00  0.00     0.009 A 
ATOM     24  C   UNL     1      46.044 130.340  15.332  1.00  0.00     0.001 A 
ATOM     25  C   UNL     1      43.913 131.426  14.971  1.00  0.00     0.009 A 
ATOM     26  C   UNL     1      40.584 133.671  16.671  1.00  0.00     0.001 A 
ATOM     27  C   UNL     1      45.002 130.702  14.484  1.00  0.00     0.001 A 
ENDBRANCH  10  14
ENDBRANCH   5   7
BRANCH   4  28
ATOM     28  C   UNL     1      43.058 136.438  20.484  1.00  0.00     0.168 C 
ATOM     29  N   UNL     1      41.985 136.567  20.900  1.00  0.00    -0.188 NA
ENDBRANCH   4  28
ENDBRANCH   1   4
BRANCH   1  30
ATOM     30  C   UNL     1      44.089 136.959  17.677  1.00  0.00     0.137 A 
ATOM     31  C   UNL     1      44.369 135.824  16.890  1.00  0.00     0.068 A 
ATOM     32  C   UNL     1      43.051 137.850  17.258  1.00  0.00     0.028 A 
ATOM     33  C   UNL     1      43.673 135.574  15.712  1.00  0.00     0.008 A 
ATOM     34  C   UNL     1      42.344 137.564  16.062  1.00  0.00     0.061 A 
ATOM     35  C   UNL     1      42.667 136.439  15.299  1.00  0.00     0.020 A 
ATOM     36  C   UNL     1      42.631 139.055  18.075  1.00  0.00     0.052 C 
BRANCH  34  37
ATOM     37  C   UNL     1      41.279 138.418  15.590  1.00  0.00     0.100 C 
ATOM     38  N   UNL     1      40.424 139.101  15.211  1.00  0.00    -0.192 NA
ENDBRANCH  34  37
ENDBRANCH   1  30
TORSDOF 6
ENDMDL
MODEL 2
REMARK VINA RESULT:      -6.4      2.885      6.325
REMARK SMILES Cc1n[nH+]n([C@@H]2O[C@@]2(C#N)[NH2+]c2cccc(C#N)c2C)c1-c1cc2ccccc2c2ccccc12
REMARK SMILES IDX 11 1 8 4 6 5 7 6 5 7 2 8 3 9 21 10 4 11 1 12 22 14 23 15
REMARK SMILES IDX 35 16 24 17 34 18 30 19 25 20 29 21 33 22 31 23 26 24 28 25
REMARK SMILES IDX 32 26 27 27 9 28 10 29 12 30 13 31 19 32 14 33 16 34 15 35
REMARK SMILES IDX 20 36 17 37 18 38
REMARK H PARENT 11 2 11 3 4 13
ROOT
ATOM      1  N   UNL     1      43.291 131.707  17.197  1.00  0.00    -0.269 N 
ATOM      2  H   UNL     1      43.601 131.076  17.967  1.00  0.00     0.356 HD
ATOM      3  H   UNL     1      42.255 131.560  17.139  1.00  0.00     0.356 HD
ENDROOT
BRANCH   1   4
ATOM      4  C   UNL     1      43.577 133.114  17.530  1.00  0.00     0.349 C 
ATOM      5  C   UNL     1      42.948 133.688  18.750  1.00  0.00     0.395 C 
ATOM      6  O   UNL     1      44.280 133.222  18.748  1.00  0.00    -0.270 OA
BRANCH   5   7
ATOM      7  N   UNL     1      42.899 135.147  18.804  1.00  0.00    -0.088 N 
ATOM      8  C   UNL     1      42.351 137.248  18.548  1.00  0.00     0.137 A 
ATOM      9  N   UNL     1      43.503 137.202  19.249  1.00  0.00     0.020 NA
ATOM     10  C   UNL     1      41.963 135.951  18.268  1.00  0.00     0.140 A 
ATOM     11  N   UNL     1      43.799 135.918  19.394  1.00  0.00    -0.014 N 
ATOM     12  C   UNL     1      41.678 138.506  18.106  1.00  0.00     0.076 C 
ATOM     13  H   UNL     1      44.644 135.568  19.897  1.00  0.00     0.526 HD
BRANCH  10  14
ATOM     14  C   UNL     1      40.789 135.513  17.484  1.00  0.00     0.015 A 
ATOM     15  C   UNL     1      40.876 135.577  16.095  1.00  0.00     0.020 A 
ATOM     16  C   UNL     1      39.600 135.057  18.098  1.00  0.00    -0.008 A 
ATOM     17  C   UNL     1      39.805 135.194  15.286  1.00  0.00    -0.017 A 
ATOM     18  C   UNL     1      39.494 134.995  19.505  1.00  0.00     0.009 A 
ATOM     19  C   UNL     1      38.483 134.677  17.293  1.00  0.00    -0.010 A 
ATOM     20  C   UNL     1      39.944 135.262  13.891  1.00  0.00     0.009 A 
ATOM     21  C   UNL     1      38.588 134.748  15.870  1.00  0.00    -0.010 A 
ATOM     22  C   UNL     1      38.325 134.550  20.114  1.00  0.00     0.001 A 
ATOM     23  C   UNL     1      37.304 134.239  17.948  1.00  0.00     0.009 A 
ATOM     24  C   UNL     1      38.886 134.905  13.060  1.00  0.00     0.001 A 
ATOM     25  C   UNL     1      37.528 134.394  14.995  1.00  0.00     0.009 A 
ATOM     26  C   UNL     1      37.236 134.174  19.340  1.00  0.00     0.001 A 
ATOM     27  C   UNL     1      37.681 134.478  13.610  1.00  0.00     0.001 A 
ENDBRANCH  10  14
ENDBRANCH   5   7
BRANCH   4  28
ATOM     28  C   UNL     1      44.194 133.971  16.504  1.00  0.00     0.168 C 
ATOM     29  N   UNL     1      44.679 134.649  15.700  1.00  0.00    -0.188 NA
ENDBRANCH   4  28
ENDBRANCH   1   4
BRANCH   1  30
ATOM     30  C   UNL     1      43.894 131.346  15.930  1.00  0.00     0.137 A 
ATOM     31  C   UNL     1      43.156 131.578  14.753  1.00  0.00     0.068 A 
ATOM     32  C   UNL     1      45.196 130.763  15.824  1.00  0.00     0.028 A 
ATOM     33  C   UNL     1      43.662 131.230  13.504  1.00  0.00     0.008 A 
ATOM     34  C   UNL     1      45.697 130.433  14.539  1.00  0.00     0.061 A 
ATOM     35  C   UNL     1      44.925 130.661  13.397  1.00  0.00     0.020 A 
ATOM     36  C   UNL     1      46.092 130.541  17.027  1.00  0.00     0.052 C 
BRANCH  34  37
ATOM     37  C   UNL     1      47.008 129.851  14.363  1.00  0.00     0.100 C 
ATOM     38  N   UNL     1      48.059 129.386  14.221  1.00  0.00    -0.192 NA
ENDBRANCH  34  37
ENDBRANCH   1  30
TORSDOF 6
ENDMDL
MODEL 3
REMARK VINA RESULT:      -6.0      2.733      6.245
REMARK SMILES Cc1n[nH+]n([C@@H]2O[C@@]2(C#N)[NH2+]c2cccc(C#N)c2C)c1-c1cc2ccccc2c2ccccc12
REMARK SMILES IDX 11 1 8 4 6 5 7 6 5 7 2 8 3 9 21 10 4 11 1 12 22 14 23 15
REMARK SMILES IDX 35 16 24 17 34 18 30 19 25 20 29 21 33 22 31 23 26 24 28 25
REMARK SMILES IDX 32 26 27 27 9 28 10 29 12 30 13 31 19 32 14 33 16 34 15 35
REMARK SMILES IDX 20 36 17 37 18 38
REMARK H PARENT 11 2 11 3 4 13
ROOT
ATOM      1  N   UNL     1      43.973 133.958  15.254  1.00  0.00    -0.269 N 
ATOM      2  H   UNL     1      43.787 133.716  14.257  1.00  0.00     0.356 HD
ATOM      3  H   UNL     1      44.766 134.642  15.212  1.00  0.00     0.356 HD
ENDROOT
BRANCH   1   4
ATOM      4  C   UNL     1      42.794 134.598  15.864  1.00  0.00     0.349 C 
ATOM      5  C   UNL     1      43.007 135.813  16.697  1.00  0.00     0.395 C 
ATOM      6  O   UNL     1      42.589 135.896  15.352  1.00  0.00    -0.270 OA
BRANCH   5   7
ATOM      7  N   UNL     1      41.916 136.147  17.610  1.00  0.00    -0.088 N 
ATOM      8  C   UNL     1      40.604 136.325  19.349  1.00  0.00     0.137 A 
ATOM      9  N   UNL     1      40.004 136.946  18.312  1.00  0.00     0.020 NA
ATOM     10  C   UNL     1      41.814 135.822  18.911  1.00  0.00     0.140 A 
ATOM     11  N   UNL     1      40.829 136.827  17.281  1.00  0.00    -0.014 N 
ATOM     12  C   UNL     1      39.999 136.166  20.705  1.00  0.00     0.076 C 
ATOM     13  H   UNL     1      40.633 137.212  16.330  1.00  0.00     0.526 HD
BRANCH  10  14
ATOM     14  C   UNL     1      42.792 135.029  19.686  1.00  0.00     0.015 A 
ATOM     15  C   UNL     1      42.439 133.727  20.035  1.00  0.00     0.020 A 
ATOM     16  C   UNL     1      44.042 135.555  20.086  1.00  0.00    -0.008 A 
ATOM     17  C   UNL     1      43.302 132.920  20.778  1.00  0.00    -0.017 A 
ATOM     18  C   UNL     1      44.409 136.875  19.747  1.00  0.00     0.009 A 
ATOM     19  C   UNL     1      44.935 134.755  20.863  1.00  0.00    -0.010 A 
ATOM     20  C   UNL     1      42.910 131.610  21.094  1.00  0.00     0.009 A 
ATOM     21  C   UNL     1      44.559 133.422  21.213  1.00  0.00    -0.010 A 
ATOM     22  C   UNL     1      45.636 137.398  20.142  1.00  0.00     0.001 A 
ATOM     23  C   UNL     1      46.172 135.325  21.256  1.00  0.00     0.009 A 
ATOM     24  C   UNL     1      43.742 130.788  21.850  1.00  0.00     0.001 A 
ATOM     25  C   UNL     1      45.382 132.560  21.983  1.00  0.00     0.009 A 
ATOM     26  C   UNL     1      46.513 136.628  20.893  1.00  0.00     0.001 A 
ATOM     27  C   UNL     1      44.971 131.264  22.296  1.00  0.00     0.001 A 
ENDBRANCH  10  14
ENDBRANCH   5   7
BRANCH   4  28
ATOM     28  C   UNL     1      41.524 133.853  15.896  1.00  0.00     0.168 C 
ATOM     29  N   UNL     1      40.524 133.270  15.919  1.00  0.00    -0.188 NA
ENDBRANCH   4  28
ENDBRANCH   1   4
BRANCH   1  30
ATOM     30  C   UNL     1      44.384 132.800  16.022  1.00  0.00     0.137 A 
ATOM     31  C   UNL     1      44.679 132.979  17.387  1.00  0.00     0.068 A 
ATOM     32  C   UNL     1      44.506 131.493  15.455  1.00  0.00     0.028 A 
ATOM     33  C   UNL     1      45.106 131.917  18.178  1.00  0.00     0.008 A 
ATOM     34  C   UNL     1      44.926 130.422  16.285  1.00  0.00     0.061 A 
ATOM     35  C   UNL     1      45.230 130.645  17.631  1.00  0.00     0.020 A 
ATOM     36  C   UNL     1      44.143 131.190  14.015  1.00  0.00     0.052 C 
BRANCH  34  37
ATOM     37  C   UNL     1      45.061 129.076  15.776  1.00  0.00     0.100 C 
ATOM     38  N   UNL     1      45.169 127.997  15.371  1.00  0.00    -0.192 NA
ENDBRANCH  34  37
ENDBRANCH   1  30
TORSDOF 6
ENDMDL
MODEL 4
REMARK VINA RESULT:      -6.0      2.514      5.558
REMARK SMILES Cc1n[nH+]n([C@@H]2O[C@@]2(C#N)[NH2+]c2cccc(C#N)c2C)c1-c1cc2ccccc2c2ccccc12
REMARK SMILES IDX 11 1 8 4 6 5 7 6 5 7 2 8 3 9 21 10 4 11 1 12 22 14 23 15
REMARK SMILES IDX 35 16 24 17 34 18 30 19 25 20 29 21 33 22 31 23 26 24 28 25
REMARK SMILES IDX 32 26 27 27 9 28 10 29 12 30 13 31 19 32 14 33 16 34 15 35
REMARK SMILES IDX 20 36 17 37 18 38
REMARK H PARENT 11 2 11 3 4 13
ROOT
ATOM      1  N   UNL     1      40.375 134.231  21.187  1.00  0.00    -0.269 N 
ATOM      2  H   UNL     1      40.385 134.795  22.064  1.00  0.00     0.356 HD
ATOM      3  H   UNL     1      39.887 133.343  21.453  1.00  0.00     0.356 HD
ENDROOT
BRANCH   1   4
ATOM      4  C   UNL     1      39.614 134.922  20.131  1.00  0.00     0.349 C 
ATOM      5  C   UNL     1      39.252 134.152  18.910  1.00  0.00     0.395 C 
ATOM      6  O   UNL     1      38.334 134.353  19.963  1.00  0.00    -0.270 OA
BRANCH   5   7
ATOM      7  N   UNL     1      38.900 134.957  17.742  1.00  0.00    -0.088 N 
ATOM      8  C   UNL     1      38.939 136.069  15.860  1.00  0.00     0.137 A 
ATOM      9  N   UNL     1      37.713 136.218  16.405  1.00  0.00     0.020 NA
ATOM     10  C   UNL     1      39.691 135.269  16.700  1.00  0.00     0.140 A 
ATOM     11  N   UNL     1      37.722 135.525  17.535  1.00  0.00    -0.014 N 
ATOM     12  C   UNL     1      39.391 136.731  14.600  1.00  0.00     0.076 C 
ATOM     13  H   UNL     1      36.905 135.453  18.181  1.00  0.00     0.526 HD
BRANCH  10  14
ATOM     14  C   UNL     1      41.105 134.874  16.536  1.00  0.00     0.015 A 
ATOM     15  C   UNL     1      41.373 133.698  15.838  1.00  0.00     0.020 A 
ATOM     16  C   UNL     1      42.169 135.636  17.072  1.00  0.00    -0.008 A 
ATOM     17  C   UNL     1      42.683 133.251  15.653  1.00  0.00    -0.017 A 
ATOM     18  C   UNL     1      41.912 136.825  17.788  1.00  0.00     0.009 A 
ATOM     19  C   UNL     1      43.517 135.190  16.912  1.00  0.00    -0.010 A 
ATOM     20  C   UNL     1      42.905 132.067  14.932  1.00  0.00     0.009 A 
ATOM     21  C   UNL     1      43.775 133.981  16.195  1.00  0.00    -0.010 A 
ATOM     22  C   UNL     1      42.955 137.576  18.321  1.00  0.00     0.001 A 
ATOM     23  C   UNL     1      44.553 135.975  17.477  1.00  0.00     0.009 A 
ATOM     24  C   UNL     1      44.198 131.587  14.747  1.00  0.00     0.001 A 
ATOM     25  C   UNL     1      45.080 133.464  15.991  1.00  0.00     0.009 A 
ATOM     26  C   UNL     1      44.268 137.154  18.167  1.00  0.00     0.001 A 
ATOM     27  C   UNL     1      45.281 132.280  15.279  1.00  0.00     0.001 A 
ENDBRANCH  10  14
ENDBRANCH   5   7
BRANCH   4  28
ATOM     28  C   UNL     1      39.522 136.390  20.173  1.00  0.00     0.168 C 
ATOM     29  N   UNL     1      39.448 137.545  20.210  1.00  0.00    -0.188 NA
ENDBRANCH   4  28
ENDBRANCH   1   4
BRANCH   1  30
ATOM     30  C   UNL     1      41.716 133.919  20.734  1.00  0.00     0.137 A 
ATOM     31  C   UNL     1      41.886 132.816  19.875  1.00  0.00     0.068 A 
ATOM     32  C   UNL     1      42.866 134.675  21.123  1.00  0.00     0.028 A 
ATOM     33  C   UNL     1      43.148 132.442  19.423  1.00  0.00     0.008 A 
ATOM     34  C   UNL     1      44.140 134.285  20.636  1.00  0.00     0.061 A 
ATOM     35  C   UNL     1      44.269 133.171  19.801  1.00  0.00     0.020 A 
ATOM     36  C   UNL     1      42.773 135.918  21.986  1.00  0.00     0.052 C 
BRANCH  34  37
ATOM     37  C   UNL     1      45.339 135.012  20.983  1.00  0.00     0.100 C 
ATOM     38  N   UNL     1      46.299 135.594  21.264  1.00  0.00    -0.192 NA
ENDBRANCH  34  37
ENDBRANCH   1  30
TORSDOF 6
ENDMDL
MODEL 5
REMARK VINA RESULT:      -5.9      2.534      5.519
REMARK SMILES Cc1n[nH+]n([C@@H]2O[C@@]2(C#N)[NH2+]c2cccc(C#N)c2C)c1-c1cc2ccccc2c2ccccc12
REMARK SMILES IDX 11 1 8 4 6 5 7 6 5 7 2 8 3 9 21 10 4 11 1 12 22 14 23 15
REMARK SMILES IDX 35 16 24 17 34 18 30 19 25 20 29 21 33 22 31 23 26 24 28 25
REMARK SMILES IDX 32 26 27 27 9 28 10 29 12 30 13 31 19 32 14 33 16 34 15 35
REMARK SMILES IDX 20 36 17 37 18 38
REMARK H PARENT 11 2 11 3 4 13
ROOT
ATOM      1  N   UNL     1      44.604 130.827  19.087  1.00  0.00    -0.269 N 
ATOM      2  H   UNL     1      45.406 130.186  19.264  1.00  0.00     0.356 HD
ATOM      3  H   UNL     1      43.790 130.187  18.925  1.00  0.00     0.356 HD
ENDROOT
BRANCH   1   4
ATOM      4  C   UNL     1      44.345 131.676  20.264  1.00  0.00     0.349 C 
ATOM      5  C   UNL     1      42.930 131.948  20.636  1.00  0.00     0.395 C 
ATOM      6  O   UNL     1      43.693 130.955  21.286  1.00  0.00    -0.270 OA
BRANCH   5   7
ATOM      7  N   UNL     1      42.720 133.104  21.503  1.00  0.00    -0.088 N 
ATOM      8  C   UNL     1      42.197 135.070  22.304  1.00  0.00     0.137 A 
ATOM      9  N   UNL     1      42.789 134.365  23.290  1.00  0.00     0.020 NA
ATOM     10  C   UNL     1      42.148 134.276  21.174  1.00  0.00     0.140 A 
ATOM     11  N   UNL     1      43.082 133.179  22.774  1.00  0.00    -0.014 N 
ATOM     12  C   UNL     1      41.751 136.490  22.430  1.00  0.00     0.076 C 
ATOM     13  H   UNL     1      43.553 132.412  23.304  1.00  0.00     0.526 HD
BRANCH  10  14
ATOM     14  C   UNL     1      41.628 134.643  19.840  1.00  0.00     0.015 A 
ATOM     15  C   UNL     1      40.457 134.024  19.407  1.00  0.00     0.020 A 
ATOM     16  C   UNL     1      42.286 135.575  19.004  1.00  0.00    -0.008 A 
ATOM     17  C   UNL     1      39.912 134.307  18.153  1.00  0.00    -0.017 A 
ATOM     18  C   UNL     1      43.478 136.204  19.426  1.00  0.00     0.009 A 
ATOM     19  C   UNL     1      41.758 135.868  17.710  1.00  0.00    -0.010 A 
ATOM     20  C   UNL     1      38.723 133.670  17.765  1.00  0.00     0.009 A 
ATOM     21  C   UNL     1      40.557 135.225  17.280  1.00  0.00    -0.010 A 
ATOM     22  C   UNL     1      44.131 137.118  18.607  1.00  0.00     0.001 A 
ATOM     23  C   UNL     1      42.456 136.797  16.898  1.00  0.00     0.009 A 
ATOM     24  C   UNL     1      38.166 133.919  16.514  1.00  0.00     0.001 A 
ATOM     25  C   UNL     1      39.965 135.455  16.011  1.00  0.00     0.009 A 
ATOM     26  C   UNL     1      43.623 137.413  17.349  1.00  0.00     0.001 A 
ATOM     27  C   UNL     1      38.788 134.804  15.639  1.00  0.00     0.001 A 
ENDBRANCH  10  14
ENDBRANCH   5   7
BRANCH   4  28
ATOM     28  C   UNL     1      45.454 132.466  20.822  1.00  0.00     0.168 C 
ATOM     29  N   UNL     1      46.329 133.085  21.263  1.00  0.00    -0.188 NA
ENDBRANCH   4  28
ENDBRANCH   1   4
BRANCH   1  30
ATOM     30  C   UNL     1      44.814 131.638  17.905  1.00  0.00     0.137 A 
ATOM     31  C   UNL     1      44.197 132.903  17.849  1.00  0.00     0.068 A 
ATOM     32  C   UNL     1      45.612 131.209  16.798  1.00  0.00     0.028 A 
ATOM     33  C   UNL     1      44.333 133.723  16.733  1.00  0.00     0.008 A 
ATOM     34  C   UNL     1      45.750 132.070  15.679  1.00  0.00     0.061 A 
ATOM     35  C   UNL     1      45.105 133.310  15.653  1.00  0.00     0.020 A 
ATOM     36  C   UNL     1      46.371 129.898  16.797  1.00  0.00     0.052 C 
BRANCH  34  37
ATOM     37  C   UNL     1      46.550 131.701  14.533  1.00  0.00     0.100 C 
ATOM     38  N   UNL     1      47.188 131.406  13.614  1.00  0.00    -0.192 NA
ENDBRANCH  34  37
ENDBRANCH   1  30
TORSDOF 6
ENDMDL
MODEL 6
REMARK VINA RESULT:      -5.8      1.188      1.814
REMARK SMILES Cc1n[nH+]n([C@@H]2O[C@@]2(C#N)[NH2+]c2cccc(C#N)c2C)c1-c1cc2ccccc2c2ccccc12
REMARK SMILES IDX 11 1 8 4 6 5 7 6 5 7 2 8 3 9 21 10 4 11 1 12 22 14 23 15
REMARK SMILES IDX 35 16 24 17 34 18 30 19 25 20 29 21 33 22 31 23 26 24 28 25
REMARK SMILES IDX 32 26 27 27 9 28 10 29 12 30 13 31 19 32 14 33 16 34 15 35
REMARK SMILES IDX 20 36 17 37 18 38
REMARK H PARENT 11 2 11 3 4 13
ROOT
ATOM      1  N   UNL     1      44.656 137.253  19.998  1.00  0.00    -0.269 N 
ATOM      2  H   UNL     1      44.894 138.158  20.459  1.00  0.00     0.356 HD
ATOM      3  H   UNL     1      45.513 137.010  19.446  1.00  0.00     0.356 HD
ENDROOT
BRANCH   1   4
ATOM      4  C   UNL     1      44.396 136.209  21.004  1.00  0.00     0.349 C 
ATOM      5  C   UNL     1      45.223 134.971  20.960  1.00  0.00     0.395 C 
ATOM      6  O   UNL     1      45.507 136.025  21.855  1.00  0.00    -0.270 OA
BRANCH   5   7
ATOM      7  N   UNL     1      44.664 133.818  21.662  1.00  0.00    -0.088 N 
ATOM      8  C   UNL     1      43.644 131.953  22.172  1.00  0.00     0.137 A 
ATOM      9  N   UNL     1      44.091 132.508  23.318  1.00  0.00     0.020 NA
ATOM     10  C   UNL     1      44.007 132.776  21.123  1.00  0.00     0.140 A 
ATOM     11  N   UNL     1      44.711 133.627  22.971  1.00  0.00    -0.014 N 
ATOM     12  C   UNL     1      42.834 130.700  22.098  1.00  0.00     0.076 C 
ATOM     13  H   UNL     1      45.164 134.278  23.651  1.00  0.00     0.526 HD
BRANCH  10  14
ATOM     14  C   UNL     1      43.693 132.596  19.690  1.00  0.00     0.015 A 
ATOM     15  C   UNL     1      44.656 131.990  18.886  1.00  0.00     0.020 A 
ATOM     16  C   UNL     1      42.471 133.030  19.126  1.00  0.00    -0.008 A 
ATOM     17  C   UNL     1      44.439 131.798  17.520  1.00  0.00    -0.017 A 
ATOM     18  C   UNL     1      41.489 133.653  19.927  1.00  0.00     0.009 A 
ATOM     19  C   UNL     1      42.233 132.862  17.727  1.00  0.00    -0.010 A 
ATOM     20  C   UNL     1      45.432 131.171  16.752  1.00  0.00     0.009 A 
ATOM     21  C   UNL     1      43.230 132.239  16.916  1.00  0.00    -0.010 A 
ATOM     22  C   UNL     1      40.288 134.085  19.375  1.00  0.00     0.001 A 
ATOM     23  C   UNL     1      41.001 133.323  17.198  1.00  0.00     0.009 A 
ATOM     24  C   UNL     1      45.252 130.983  15.385  1.00  0.00     0.001 A 
ATOM     25  C   UNL     1      43.078 132.034  15.520  1.00  0.00     0.009 A 
ATOM     26  C   UNL     1      40.044 133.922  18.019  1.00  0.00     0.001 A 
ATOM     27  C   UNL     1      44.081 131.417  14.771  1.00  0.00     0.001 A 
ENDBRANCH  10  14
ENDBRANCH   5   7
BRANCH   4  28
ATOM     28  C   UNL     1      43.154 136.279  21.790  1.00  0.00     0.168 C 
ATOM     29  N   UNL     1      42.175 136.330  22.407  1.00  0.00    -0.188 NA
ENDBRANCH   4  28
ENDBRANCH   1   4
BRANCH   1  30
ATOM     30  C   UNL     1      43.531 137.389  19.095  1.00  0.00     0.137 A 
ATOM     31  C   UNL     1      42.508 138.293  19.440  1.00  0.00     0.068 A 
ATOM     32  C   UNL     1      43.415 136.646  17.878  1.00  0.00     0.028 A 
ATOM     33  C   UNL     1      41.386 138.454  18.633  1.00  0.00     0.008 A 
ATOM     34  C   UNL     1      42.270 136.840  17.064  1.00  0.00     0.061 A 
ATOM     35  C   UNL     1      41.266 137.732  17.452  1.00  0.00     0.020 A 
ATOM     36  C   UNL     1      44.497 135.704  17.389  1.00  0.00     0.052 C 
BRANCH  34  37
ATOM     37  C   UNL     1      42.096 136.128  15.819  1.00  0.00     0.100 C 
ATOM     38  N   UNL     1      41.959 135.556  14.822  1.00  0.00    -0.192 NA
ENDBRANCH  34  37
ENDBRANCH   1  30
TORSDOF 6
ENDMDL
MODEL 7
REMARK VINA RESULT:      -5.7      2.710      5.338
REMARK SMILES Cc1n[nH+]n([C@@H]2O[C@@]2(C#N)[NH2+]c2cccc(C#N)c2C)c1-c1cc2ccccc2c2ccccc12
REMARK SMILES IDX 11 1 8 4 6 5 7 6 5 7 2 8 3 9 21 10 4 11 1 12 22 14 23 15
REMARK SMILES IDX 35 16 24 17 34 18 30 19 25 20 29 21 33 22 31 23 26 24 28 25
REMARK SMILES IDX 32 26 27 27 9 28 10 29 12 30 13 31 19 32 14 33 16 34 15 35
REMARK SMILES IDX 20 36 17 37 18 38
REMARK H PARENT 11 2 11 3 4 13
ROOT
ATOM      1  N   UNL     1      42.301 136.642  14.874  1.00  0.00    -0.269 N 
ATOM      2  H   UNL     1      42.061 137.029  13.936  1.00  0.00     0.356 HD
ATOM      3  H   UNL     1      43.225 137.078  15.107  1.00  0.00     0.356 HD
ENDROOT
BRANCH   1   4
ATOM      4  C   UNL     1      41.295 137.037  15.874  1.00  0.00     0.349 C 
ATOM      5  C   UNL     1      41.768 137.702  17.120  1.00  0.00     0.395 C 
ATOM      6  O   UNL     1      41.250 138.438  16.033  1.00  0.00    -0.270 OA
BRANCH   5   7
ATOM      7  N   UNL     1      40.828 137.680  18.239  1.00  0.00    -0.088 N 
ATOM      8  C   UNL     1      39.752 137.188  20.076  1.00  0.00     0.137 A 
ATOM      9  N   UNL     1      39.097 138.200  19.471  1.00  0.00     0.020 NA
ATOM     10  C   UNL     1      40.848 136.858  19.303  1.00  0.00     0.140 A 
ATOM     11  N   UNL     1      39.781 138.479  18.370  1.00  0.00    -0.014 N 
ATOM     12  C   UNL     1      39.296 136.516  21.330  1.00  0.00     0.076 C 
ATOM     13  H   UNL     1      39.513 139.224  17.689  1.00  0.00     0.526 HD
BRANCH  10  14
ATOM     14  C   UNL     1      41.829 135.780  19.547  1.00  0.00     0.015 A 
ATOM     15  C   UNL     1      42.981 136.100  20.263  1.00  0.00     0.020 A 
ATOM     16  C   UNL     1      41.636 134.463  19.069  1.00  0.00    -0.008 A 
ATOM     17  C   UNL     1      43.960 135.139  20.522  1.00  0.00    -0.017 A 
ATOM     18  C   UNL     1      40.478 134.126  18.336  1.00  0.00     0.009 A 
ATOM     19  C   UNL     1      42.632 133.466  19.305  1.00  0.00    -0.010 A 
ATOM     20  C   UNL     1      45.098 135.505  21.258  1.00  0.00     0.009 A 
ATOM     21  C   UNL     1      43.808 133.811  20.040  1.00  0.00    -0.010 A 
ATOM     22  C   UNL     1      40.285 132.833  17.860  1.00  0.00     0.001 A 
ATOM     23  C   UNL     1      42.407 132.162  18.796  1.00  0.00     0.009 A 
ATOM     24  C   UNL     1      46.100 134.573  21.516  1.00  0.00     0.001 A 
ATOM     25  C   UNL     1      44.848 132.886  20.318  1.00  0.00     0.009 A 
ATOM     26  C   UNL     1      41.245 131.856  18.088  1.00  0.00     0.001 A 
ATOM     27  C   UNL     1      45.977 133.270  21.043  1.00  0.00     0.001 A 
ENDBRANCH  10  14
ENDBRANCH   5   7
BRANCH   4  28
ATOM     28  C   UNL     1      39.934 136.490  15.762  1.00  0.00     0.168 C 
ATOM     29  N   UNL     1      38.864 136.055  15.674  1.00  0.00    -0.188 NA
ENDBRANCH   4  28
ENDBRANCH   1   4
BRANCH   1  30
ATOM     30  C   UNL     1      42.451 135.201  14.837  1.00  0.00     0.137 A 
ATOM     31  C   UNL     1      41.558 134.460  14.039  1.00  0.00     0.068 A 
ATOM     32  C   UNL     1      43.459 134.504  15.576  1.00  0.00     0.028 A 
ATOM     33  C   UNL     1      41.627 133.072  13.979  1.00  0.00     0.008 A 
ATOM     34  C   UNL     1      43.520 133.089  15.484  1.00  0.00     0.061 A 
ATOM     35  C   UNL     1      42.601 132.389  14.697  1.00  0.00     0.020 A 
ATOM     36  C   UNL     1      44.507 135.219  16.404  1.00  0.00     0.052 C 
BRANCH  34  37
ATOM     37  C   UNL     1      44.519 132.327  16.196  1.00  0.00     0.100 C 
ATOM     38  N   UNL     1      45.318 131.715  16.769  1.00  0.00    -0.192 NA
ENDBRANCH  34  37
ENDBRANCH   1  30
TORSDOF 6
ENDMDL
MODEL 8
REMARK VINA RESULT:      -5.7      2.728      6.857
REMARK SMILES Cc1n[nH+]n([C@@H]2O[C@@]2(C#N)[NH2+]c2cccc(C#N)c2C)c1-c1cc2ccccc2c2ccccc12
REMARK SMILES IDX 11 1 8 4 6 5 7 6 5 7 2 8 3 9 21 10 4 11 1 12 22 14 23 15
REMARK SMILES IDX 35 16 24 17 34 18 30 19 25 20 29 21 33 22 31 23 26 24 28 25
REMARK SMILES IDX 32 26 27 27 9 28 10 29 12 30 13 31 19 32 14 33 16 34 15 35
REMARK SMILES IDX 20 36 17 37 18 38
REMARK H PARENT 11 2 11 3 4 13
ROOT
ATOM      1  N   UNL     1      42.970 131.861  15.974  1.00  0.00    -0.269 N 
ATOM      2  H   UNL     1      42.196 131.253  15.630  1.00  0.00     0.356 HD
ATOM      3  H   UNL     1      43.836 131.434  15.568  1.00  0.00     0.356 HD
ENDROOT
BRANCH   1   4
ATOM      4  C   UNL     1      42.812 133.238  15.477  1.00  0.00     0.349 C 
ATOM      5  C   UNL     1      43.485 134.336  16.225  1.00  0.00     0.395 C 
ATOM      6  O   UNL     1      44.046 133.779  15.057  1.00  0.00    -0.270 OA
BRANCH   5   7
ATOM      7  N   UNL     1      42.965 135.678  15.974  1.00  0.00    -0.088 N 
ATOM      8  C   UNL     1      41.876 137.570  16.083  1.00  0.00     0.137 A 
ATOM      9  N   UNL     1      42.619 137.584  14.957  1.00  0.00     0.020 NA
ATOM     10  C   UNL     1      42.094 136.369  16.730  1.00  0.00     0.140 A 
ATOM     11  N   UNL     1      43.271 136.430  14.929  1.00  0.00    -0.014 N 
ATOM     12  C   UNL     1      40.933 138.656  16.488  1.00  0.00     0.076 C 
ATOM     13  H   UNL     1      43.930 136.151  14.168  1.00  0.00     0.526 HD
BRANCH  10  14
ATOM     14  C   UNL     1      41.460 135.892  17.977  1.00  0.00     0.015 A 
ATOM     15  C   UNL     1      42.167 136.051  19.167  1.00  0.00     0.020 A 
ATOM     16  C   UNL     1      40.186 135.277  17.989  1.00  0.00    -0.008 A 
ATOM     17  C   UNL     1      41.642 135.614  20.384  1.00  0.00    -0.017 A 
ATOM     18  C   UNL     1      39.461 135.101  16.790  1.00  0.00     0.009 A 
ATOM     19  C   UNL     1      39.635 134.804  19.219  1.00  0.00    -0.010 A 
ATOM     20  C   UNL     1      42.385 135.808  21.559  1.00  0.00     0.009 A 
ATOM     21  C   UNL     1      40.373 134.975  20.430  1.00  0.00    -0.010 A 
ATOM     22  C   UNL     1      38.211 134.493  16.795  1.00  0.00     0.001 A 
ATOM     23  C   UNL     1      38.362 134.180  19.185  1.00  0.00     0.009 A 
ATOM     24  C   UNL     1      41.894 135.366  22.784  1.00  0.00     0.001 A 
ATOM     25  C   UNL     1      39.902 134.534  21.694  1.00  0.00     0.009 A 
ATOM     26  C   UNL     1      37.663 134.035  17.986  1.00  0.00     0.001 A 
ATOM     27  C   UNL     1      40.660 134.727  22.850  1.00  0.00     0.001 A 
ENDBRANCH  10  14
ENDBRANCH   5   7
BRANCH   4  28
ATOM     28  C   UNL     1      41.765 133.514  14.480  1.00  0.00     0.168 C 
ATOM     29  N   UNL     1      40.944 133.732  13.693  1.00  0.00    -0.188 NA
ENDBRANCH   4  28
ENDBRANCH   1   4
BRANCH   1  30
ATOM     30  C   UNL     1      43.064 131.843  17.420  1.00  0.00     0.137 A 
ATOM     31  C   UNL     1      41.894 132.088  18.165  1.00  0.00     0.068 A 
ATOM     32  C   UNL     1      44.287 131.595  18.118  1.00  0.00     0.028 A 
ATOM     33  C   UNL     1      41.916 132.113  19.555  1.00  0.00     0.008 A 
ATOM     34  C   UNL     1      44.281 131.608  19.537  1.00  0.00     0.061 A 
ATOM     35  C   UNL     1      43.102 131.876  20.239  1.00  0.00     0.020 A 
ATOM     36  C   UNL     1      45.580 131.252  17.405  1.00  0.00     0.052 C 
BRANCH  34  37
ATOM     37  C   UNL     1      45.481 131.355  20.302  1.00  0.00     0.100 C 
ATOM     38  N   UNL     1      46.442 131.155  20.915  1.00  0.00    -0.192 NA
ENDBRANCH  34  37
ENDBRANCH   1  30
TORSDOF 6
ENDMDL
MODEL 9
REMARK VINA RESULT:      -5.7      2.382      5.452
REMARK SMILES Cc1n[nH+]n([C@@H]2O[C@@]2(C#N)[NH2+]c2cccc(C#N)c2C)c1-c1cc2ccccc2c2ccccc12
REMARK SMILES IDX 11 1 8 4 6 5 7 6 5 7 2 8 3 9 21 10 4 11 1 12 22 14 23 15
REMARK SMILES IDX 35 16 24 17 34 18 30 19 25 20 29 21 33 22 31 23 26 24 28 25
REMARK SMILES IDX 32 26 27 27 9 28 10 29 12 30 13 31 19 32 14 33 16 34 15 35
REMARK SMILES IDX 20 36 17 37 18 38
REMARK H PARENT 11 2 11 3 4 13
ROOT
ATOM      1  N   UNL     1      43.237 131.820  19.636  1.00  0.00    -0.269 N 
ATOM      2  H   UNL     1      43.973 131.175  19.998  1.00  0.00     0.356 HD
ATOM      3  H   UNL     1      42.345 131.278  19.735  1.00  0.00     0.356 HD
ENDROOT
BRANCH   1   4
ATOM      4  C   UNL     1      43.170 133.044  20.452  1.00  0.00     0.349 C 
ATOM      5  C   UNL     1      41.833 133.511  20.910  1.00  0.00     0.395 C 
ATOM      6  O   UNL     1      42.692 132.773  21.751  1.00  0.00    -0.270 OA
BRANCH   5   7
ATOM      7  N   UNL     1      41.763 134.911  21.323  1.00  0.00    -0.088 N 
ATOM      8  C   UNL     1      41.438 137.071  21.400  1.00  0.00     0.137 A 
ATOM      9  N   UNL     1      42.038 136.701  22.550  1.00  0.00     0.020 NA
ATOM     10  C   UNL     1      41.259 135.942  20.623  1.00  0.00     0.140 A 
ATOM     11  N   UNL     1      42.210 135.389  22.473  1.00  0.00    -0.014 N 
ATOM     12  C   UNL     1      41.106 138.481  21.034  1.00  0.00     0.076 C 
ATOM     13  H   UNL     1      42.655 134.814  23.223  1.00  0.00     0.526 HD
BRANCH  10  14
ATOM     14  C   UNL     1      40.685 135.869  19.263  1.00  0.00     0.015 A 
ATOM     15  C   UNL     1      39.324 135.594  19.147  1.00  0.00     0.020 A 
ATOM     16  C   UNL     1      41.471 136.052  18.101  1.00  0.00    -0.008 A 
ATOM     17  C   UNL     1      38.711 135.495  17.897  1.00  0.00    -0.017 A 
ATOM     18  C   UNL     1      42.853 136.323  18.203  1.00  0.00     0.009 A 
ATOM     19  C   UNL     1      40.871 135.938  16.810  1.00  0.00    -0.010 A 
ATOM     20  C   UNL     1      37.334 135.230  17.830  1.00  0.00     0.009 A 
ATOM     21  C   UNL     1      39.474 135.655  16.708  1.00  0.00    -0.010 A 
ATOM     22  C   UNL     1      43.631 136.500  17.063  1.00  0.00     0.001 A 
ATOM     23  C   UNL     1      41.696 136.114  15.671  1.00  0.00     0.009 A 
ATOM     24  C   UNL     1      36.699 135.108  16.597  1.00  0.00     0.001 A 
ATOM     25  C   UNL     1      38.798 135.522  15.468  1.00  0.00     0.009 A 
ATOM     26  C   UNL     1      43.056 136.395  15.804  1.00  0.00     0.001 A 
ATOM     27  C   UNL     1      37.430 135.248  15.421  1.00  0.00     0.001 A 
ENDBRANCH  10  14
ENDBRANCH   5   7
BRANCH   4  28
ATOM     28  C   UNL     1      44.354 133.918  20.513  1.00  0.00     0.168 C 
ATOM     29  N   UNL     1      45.282 134.608  20.563  1.00  0.00    -0.188 NA
ENDBRANCH   4  28
ENDBRANCH   1   4
BRANCH   1  30
ATOM     30  C   UNL     1      43.445 132.143  18.239  1.00  0.00     0.137 A 
ATOM     31  C   UNL     1      44.769 132.293  17.782  1.00  0.00     0.068 A 
ATOM     32  C   UNL     1      42.370 132.318  17.312  1.00  0.00     0.028 A 
ATOM     33  C   UNL     1      45.041 132.629  16.460  1.00  0.00     0.008 A 
ATOM     34  C   UNL     1      42.674 132.644  15.965  1.00  0.00     0.061 A 
ATOM     35  C   UNL     1      44.001 132.805  15.556  1.00  0.00     0.020 A 
ATOM     36  C   UNL     1      40.919 132.108  17.694  1.00  0.00     0.052 C 
BRANCH  34  37
ATOM     37  C   UNL     1      41.636 132.826  14.977  1.00  0.00     0.100 C 
ATOM     38  N   UNL     1      40.803 132.969  14.185  1.00  0.00    -0.192 NA
ENDBRANCH  34  37
ENDBRANCH   1  30
TORSDOF 6
ENDMDL


