REMARK SMILES [N-]=[N+]=Nc1c(Cl)c(Cl)c(OC(=O)[C@]2(N)C[C@@H](CO)C2)ccccc([O-])c1NC1(CF)COC1
REMARK SMILES IDX 10 1 11 2 12 3 13 4 16 5 15 6 19 7 17 8 18 9 14 11 9 14
REMARK SMILES IDX 20 15 7 16 21 17 5 18 22 19 4 20 23 21 26 22 24 23 8 24 6 25
REMARK SMILES IDX 25 26 3 27 2 28 1 29 27 30 28 32 31 33 33 34 32 35 29 36
REMARK SMILES IDX 30 37
REMARK H PARENT 18 10 14 12 14 13 27 31
ROOT
ATOM      1  O   UNL     1      -1.088  -0.893   1.298  1.00  0.00    -0.424 OA
ENDROOT
BRANCH   1   2
ATOM      2  C   UNL     1      -2.283  -1.627   1.333  1.00  0.00     0.331 C 
ATOM      3  O   UNL     1      -2.306  -2.850   1.032  1.00  0.00    -0.250 OA
BRANCH   2   4
ATOM      4  C   UNL     1      -3.558  -0.908   1.710  1.00  0.00     0.116 C 
ATOM      5  C   UNL     1      -4.595  -1.043   3.606  1.00  0.00     0.019 C 
ATOM      6  C   UNL     1      -3.466  -0.171   3.054  1.00  0.00     0.040 C 
ATOM      7  C   UNL     1      -4.682  -1.793   2.274  1.00  0.00     0.040 C 
BRANCH   5   8
ATOM      8  C   UNL     1      -5.872  -0.272   3.988  1.00  0.00     0.159 C 
BRANCH   8   9
ATOM      9  O   UNL     1      -6.291   0.571   2.950  1.00  0.00    -0.396 OA
ATOM     10  H   UNL     1      -7.084   1.060   3.299  1.00  0.00     0.210 HD
ENDBRANCH   8   9
ENDBRANCH   5   8
BRANCH   4  11
ATOM     11  N   UNL     1      -4.040  -0.031   0.640  1.00  0.00    -0.316 NA
ATOM     12  H   UNL     1      -4.213  -0.617  -0.212  1.00  0.00     0.119 HD
ATOM     13  H   UNL     1      -3.282   0.651   0.397  1.00  0.00     0.119 HD
ENDBRANCH   4  11
ENDBRANCH   2   4
ENDBRANCH   1   2
BRANCH   1  14
ATOM     14  C   UNL     1       0.132  -1.305   0.736  1.00  0.00     0.151 A 
ATOM     15  C   UNL     1       0.165  -2.332  -0.223  1.00  0.00     0.049 A 
ATOM     16  C   UNL     1       1.282  -0.576   1.113  1.00  0.00     0.102 A 
ATOM     17  C   UNL     1       1.307  -3.095  -0.488  1.00  0.00     0.004 A 
ATOM     18  C   UNL     1       2.451  -0.419   0.323  1.00  0.00     0.075 A 
ATOM     19  C   UNL     1       1.700  -3.422  -1.789  1.00  0.00    -0.000 A 
ATOM     20  C   UNL     1       2.507  -0.536  -1.087  1.00  0.00     0.080 A 
ATOM     21  C   UNL     1       1.394  -2.655  -2.928  1.00  0.00    -0.006 A 
ATOM     22  C   UNL     1       1.364  -0.371  -1.910  1.00  0.00     0.038 A 
ATOM     23  C   UNL     1       1.035  -1.290  -2.932  1.00  0.00    -0.084 A 
ATOM     24  Cl  UNL     1       1.226   0.228   2.684  1.00  0.00    -0.079 Cl
ATOM     25  Cl  UNL     1       3.974  -0.117   1.167  1.00  0.00    -0.082 Cl
ATOM     26  O   UNL     1       0.294  -0.828  -4.015  1.00  0.00    -0.871 OA
BRANCH  20  27
ATOM     27  N   UNL     1       3.781  -0.851  -1.676  1.00  0.00    -0.057 NA
BRANCH  27  28
ATOM     28  N   UNL     1       3.984  -0.815  -2.891  1.00  0.00     0.005 N 
ATOM     29  N   UNL     1       4.189  -0.784  -4.104  1.00  0.00    -0.003 NA
ENDBRANCH  27  28
ENDBRANCH  20  27
BRANCH  22  30
ATOM     30  N   UNL     1       0.473   0.736  -1.693  1.00  0.00    -0.373 N 
ATOM     31  H   UNL     1      -0.553   0.527  -1.692  1.00  0.00     0.161 HD
BRANCH  30  32
ATOM     32  C   UNL     1       0.880   2.149  -1.735  1.00  0.00     0.113 C 
ATOM     33  C   UNL     1       1.933   2.488  -2.777  1.00  0.00     0.193 C 
ATOM     34  C   UNL     1      -0.018   2.968  -2.651  1.00  0.00     0.193 C 
ATOM     35  O   UNL     1       1.030   3.240  -3.550  1.00  0.00    -0.376 OA
BRANCH  32  36
ATOM     36  C   UNL     1       1.093   2.777  -0.347  1.00  0.00     0.247 C 
ATOM     37  F   UNL     1       2.330   2.431   0.155  1.00  0.00    -0.248 F 
ENDBRANCH  32  36
ENDBRANCH  30  32
ENDBRANCH  22  30
ENDBRANCH   1  14
TORSDOF 11


