MODEL 1
REMARK VINA RESULT:      -7.0      0.000      0.000
REMARK SMILES CC[C@H]1C[C@]1([N-]C(=O)c1[nH+]oc(C)c1C)C(=O)Oc1c(Cl)c(Cl)c(N)c2ccccc12
REMARK SMILES IDX 3 1 4 2 5 3 2 4 1 5 6 6 7 7 8 8 9 9 10 10 14 11 11 12 12 13
REMARK SMILES IDX 15 15 13 16 16 17 17 18 18 19 19 20 20 21 31 22 22 23 30 24
REMARK SMILES IDX 26 25 24 26 29 27 27 28 28 29 21 30 23 31 25 32
REMARK H PARENT 10 14 25 33 25 34
ROOT
ATOM      1  C   UNL     1      45.255 131.500  14.516  1.00  0.00    -0.012 C 
ATOM      2  C   UNL     1      44.457 130.409  15.235  1.00  0.00     0.002 C 
ATOM      3  C   UNL     1      44.478 131.827  15.789  1.00  0.00     0.001 C 
ENDROOT
BRANCH   1   4
ATOM      4  C   UNL     1      46.780 131.339  14.615  1.00  0.00    -0.000 C 
ATOM      5  C   UNL     1      47.369 131.028  13.245  1.00  0.00     0.004 C 
ENDBRANCH   1   4
BRANCH   3   6
ATOM      6  N   UNL     1      45.279 132.026  16.992  1.00  0.00    -0.629 NA
BRANCH   6   7
ATOM      7  C   UNL     1      44.976 131.406  18.244  1.00  0.00     0.153 C 
ATOM      8  O   UNL     1      45.585 130.359  18.594  1.00  0.00    -0.308 OA
BRANCH   7   9
ATOM      9  C   UNL     1      43.952 131.983  19.134  1.00  0.00     0.279 A 
ATOM     10  N   UNL     1      42.629 131.779  18.986  1.00  0.00    -0.026 N 
ATOM     11  C   UNL     1      44.144 132.812  20.231  1.00  0.00     0.072 A 
ATOM     12  O   UNL     1      42.005 132.431  19.922  1.00  0.00    -0.243 OA
ATOM     13  C   UNL     1      42.860 133.063  20.693  1.00  0.00     0.187 A 
ATOM     14  H   UNL     1      42.159 131.202  18.252  1.00  0.00     0.517 HD
ATOM     15  C   UNL     1      45.433 133.339  20.783  1.00  0.00     0.056 C 
ATOM     16  C   UNL     1      42.473 133.907  21.862  1.00  0.00     0.096 C 
ENDBRANCH   7   9
ENDBRANCH   6   7
ENDBRANCH   3   6
BRANCH   3  17
ATOM     17  C   UNL     1      43.270 132.689  15.617  1.00  0.00     0.300 C 
ATOM     18  O   UNL     1      42.132 132.249  15.936  1.00  0.00    -0.253 OA
BRANCH  17  19
ATOM     19  O   UNL     1      43.427 133.997  15.148  1.00  0.00    -0.425 OA
BRANCH  19  20
ATOM     20  C   UNL     1      42.608 135.052  15.566  1.00  0.00     0.158 A 
ATOM     21  C   UNL     1      41.495 135.386  14.788  1.00  0.00     0.105 A 
ATOM     22  C   UNL     1      42.890 135.771  16.746  1.00  0.00     0.028 A 
ATOM     23  C   UNL     1      40.631 136.417  15.190  1.00  0.00     0.087 A 
ATOM     24  C   UNL     1      44.047 135.485  17.502  1.00  0.00     0.013 A 
ATOM     25  C   UNL     1      42.009 136.802  17.175  1.00  0.00     0.010 A 
ATOM     26  C   UNL     1      40.879 137.134  16.381  1.00  0.00     0.060 A 
ATOM     27  C   UNL     1      44.305 136.167  18.689  1.00  0.00     0.001 A 
ATOM     28  C   UNL     1      42.279 137.456  18.399  1.00  0.00     0.011 A 
ATOM     29  C   UNL     1      43.418 137.139  19.142  1.00  0.00     0.001 A 
ATOM     30  Cl  UNL     1      41.188 134.480  13.306  1.00  0.00    -0.078 Cl
ATOM     31  Cl  UNL     1      39.250 136.827  14.166  1.00  0.00    -0.080 Cl
BRANCH  26  32
ATOM     32  N   UNL     1      39.997 138.208  16.753  1.00  0.00    -0.397 N 
ATOM     33  H   UNL     1      39.061 138.023  17.177  1.00  0.00     0.156 HD
ATOM     34  H   UNL     1      40.209 139.203  16.530  1.00  0.00     0.156 HD
ENDBRANCH  26  32
ENDBRANCH  19  20
ENDBRANCH  17  19
ENDBRANCH   3  17
TORSDOF 8
ENDMDL
MODEL 2
REMARK VINA RESULT:      -6.8      1.973      2.975
REMARK SMILES CC[C@H]1C[C@]1([N-]C(=O)c1[nH+]oc(C)c1C)C(=O)Oc1c(Cl)c(Cl)c(N)c2ccccc12
REMARK SMILES IDX 3 1 4 2 5 3 2 4 1 5 6 6 7 7 8 8 9 9 10 10 14 11 11 12 12 13
REMARK SMILES IDX 15 15 13 16 16 17 17 18 18 19 19 20 20 21 31 22 22 23 30 24
REMARK SMILES IDX 26 25 24 26 29 27 27 28 28 29 21 30 23 31 25 32
REMARK H PARENT 10 14 25 33 25 34
ROOT
ATOM      1  C   UNL     1      45.328 131.262  14.028  1.00  0.00    -0.012 C 
ATOM      2  C   UNL     1      44.466 130.275  14.820  1.00  0.00     0.002 C 
ATOM      3  C   UNL     1      44.302 131.773  15.036  1.00  0.00     0.001 C 
ENDROOT
BRANCH   1   4
ATOM      4  C   UNL     1      46.812 131.272  14.431  1.00  0.00    -0.000 C 
ATOM      5  C   UNL     1      47.696 131.186  13.194  1.00  0.00     0.004 C 
ENDBRANCH   1   4
BRANCH   3   6
ATOM      6  N   UNL     1      44.841 132.296  16.287  1.00  0.00    -0.629 NA
BRANCH   6   7
ATOM      7  C   UNL     1      44.475 131.783  17.570  1.00  0.00     0.153 C 
ATOM      8  O   UNL     1      45.180 130.892  18.117  1.00  0.00    -0.308 OA
BRANCH   7   9
ATOM      9  C   UNL     1      43.277 132.288  18.262  1.00  0.00     0.279 A 
ATOM     10  N   UNL     1      42.016 131.989  17.893  1.00  0.00    -0.026 N 
ATOM     11  C   UNL     1      43.218 133.133  19.362  1.00  0.00     0.072 A 
ATOM     12  O   UNL     1      41.197 132.598  18.698  1.00  0.00    -0.243 OA
ATOM     13  C   UNL     1      41.860 133.293  19.593  1.00  0.00     0.187 A 
ATOM     14  H   UNL     1      41.721 131.376  17.100  1.00  0.00     0.517 HD
ATOM     15  C   UNL     1      44.353 133.754  20.118  1.00  0.00     0.056 C 
ATOM     16  C   UNL     1      41.219 134.112  20.665  1.00  0.00     0.096 C 
ENDBRANCH   7   9
ENDBRANCH   6   7
ENDBRANCH   3   6
BRANCH   3  17
ATOM     17  C   UNL     1      43.106 132.459  14.462  1.00  0.00     0.300 C 
ATOM     18  O   UNL     1      42.150 131.778  13.999  1.00  0.00    -0.253 OA
BRANCH  17  19
ATOM     19  O   UNL     1      43.040 133.856  14.493  1.00  0.00    -0.425 OA
BRANCH  19  20
ATOM     20  C   UNL     1      42.222 134.554  15.388  1.00  0.00     0.158 A 
ATOM     21  C   UNL     1      42.823 135.284  16.419  1.00  0.00     0.105 A 
ATOM     22  C   UNL     1      40.818 134.528  15.263  1.00  0.00     0.028 A 
ATOM     23  C   UNL     1      42.038 136.023  17.318  1.00  0.00     0.087 A 
ATOM     24  C   UNL     1      40.199 133.742  14.269  1.00  0.00     0.013 A 
ATOM     25  C   UNL     1      40.013 135.291  16.155  1.00  0.00     0.010 A 
ATOM     26  C   UNL     1      40.632 136.033  17.197  1.00  0.00     0.060 A 
ATOM     27  C   UNL     1      38.814 133.747  14.119  1.00  0.00     0.001 A 
ATOM     28  C   UNL     1      38.613 135.302  15.960  1.00  0.00     0.011 A 
ATOM     29  C   UNL     1      38.026 134.534  14.953  1.00  0.00     0.001 A 
ATOM     30  Cl  UNL     1      44.582 135.273  16.557  1.00  0.00    -0.078 Cl
ATOM     31  Cl  UNL     1      42.834 136.910  18.623  1.00  0.00    -0.080 Cl
BRANCH  26  32
ATOM     32  N   UNL     1      39.848 136.770  18.152  1.00  0.00    -0.397 N 
ATOM     33  H   UNL     1      38.815 136.635  18.229  1.00  0.00     0.156 HD
ATOM     34  H   UNL     1      40.254 137.532  18.734  1.00  0.00     0.156 HD
ENDBRANCH  26  32
ENDBRANCH  19  20
ENDBRANCH  17  19
ENDBRANCH   3  17
TORSDOF 8
ENDMDL
MODEL 3
REMARK VINA RESULT:      -6.7      3.222      5.189
REMARK SMILES CC[C@H]1C[C@]1([N-]C(=O)c1[nH+]oc(C)c1C)C(=O)Oc1c(Cl)c(Cl)c(N)c2ccccc12
REMARK SMILES IDX 3 1 4 2 5 3 2 4 1 5 6 6 7 7 8 8 9 9 10 10 14 11 11 12 12 13
REMARK SMILES IDX 15 15 13 16 16 17 17 18 18 19 19 20 20 21 31 22 22 23 30 24
REMARK SMILES IDX 26 25 24 26 29 27 27 28 28 29 21 30 23 31 25 32
REMARK H PARENT 10 14 25 33 25 34
ROOT
ATOM      1  C   UNL     1      45.521 131.778  15.697  1.00  0.00    -0.012 C 
ATOM      2  C   UNL     1      45.009 133.216  15.811  1.00  0.00     0.002 C 
ATOM      3  C   UNL     1      44.224 132.075  16.444  1.00  0.00     0.001 C 
ENDROOT
BRANCH   1   4
ATOM      4  C   UNL     1      45.427 131.182  14.283  1.00  0.00    -0.000 C 
ATOM      5  C   UNL     1      45.956 129.754  14.274  1.00  0.00     0.004 C 
ENDBRANCH   1   4
BRANCH   3   6
ATOM      6  N   UNL     1      42.992 131.696  15.760  1.00  0.00    -0.629 NA
BRANCH   6   7
ATOM      7  C   UNL     1      42.059 132.650  15.246  1.00  0.00     0.153 C 
ATOM      8  O   UNL     1      41.724 132.611  14.031  1.00  0.00    -0.308 OA
BRANCH   7   9
ATOM      9  C   UNL     1      41.484 133.681  16.127  1.00  0.00     0.279 A 
ATOM     10  N   UNL     1      40.715 133.408  17.199  1.00  0.00    -0.026 N 
ATOM     11  C   UNL     1      41.609 135.060  16.022  1.00  0.00     0.072 A 
ATOM     12  O   UNL     1      40.364 134.531  17.750  1.00  0.00    -0.243 OA
ATOM     13  C   UNL     1      40.871 135.547  17.090  1.00  0.00     0.187 A 
ATOM     14  H   UNL     1      40.432 132.464  17.547  1.00  0.00     0.517 HD
ATOM     15  C   UNL     1      42.347 135.850  14.985  1.00  0.00     0.056 C 
ATOM     16  C   UNL     1      40.659 136.979  17.460  1.00  0.00     0.096 C 
ENDBRANCH   7   9
ENDBRANCH   6   7
ENDBRANCH   3   6
BRANCH   3  17
ATOM     17  C   UNL     1      44.268 131.902  17.927  1.00  0.00     0.300 C 
ATOM     18  O   UNL     1      45.110 131.119  18.446  1.00  0.00    -0.253 OA
BRANCH  17  19
ATOM     19  O   UNL     1      43.404 132.656  18.727  1.00  0.00    -0.425 OA
BRANCH  19  20
ATOM     20  C   UNL     1      43.851 133.414  19.815  1.00  0.00     0.158 A 
ATOM     21  C   UNL     1      43.879 132.821  21.081  1.00  0.00     0.105 A 
ATOM     22  C   UNL     1      44.266 134.752  19.650  1.00  0.00     0.028 A 
ATOM     23  C   UNL     1      44.351 133.537  22.192  1.00  0.00     0.087 A 
ATOM     24  C   UNL     1      44.178 135.381  18.391  1.00  0.00     0.013 A 
ATOM     25  C   UNL     1      44.767 135.481  20.765  1.00  0.00     0.010 A 
ATOM     26  C   UNL     1      44.795 134.869  22.047  1.00  0.00     0.060 A 
ATOM     27  C   UNL     1      44.626 136.688  18.218  1.00  0.00     0.001 A 
ATOM     28  C   UNL     1      45.243 136.795  20.554  1.00  0.00     0.011 A 
ATOM     29  C   UNL     1      45.168 137.388  19.293  1.00  0.00     0.001 A 
ATOM     30  Cl  UNL     1      43.329 131.153  21.252  1.00  0.00    -0.078 Cl
ATOM     31  Cl  UNL     1      44.345 132.760  23.780  1.00  0.00    -0.080 Cl
BRANCH  26  32
ATOM     32  N   UNL     1      45.242 135.593  23.207  1.00  0.00    -0.397 N 
ATOM     33  H   UNL     1      46.257 135.702  23.424  1.00  0.00     0.156 HD
ATOM     34  H   UNL     1      44.580 135.953  23.926  1.00  0.00     0.156 HD
ENDBRANCH  26  32
ENDBRANCH  19  20
ENDBRANCH  17  19
ENDBRANCH   3  17
TORSDOF 8
ENDMDL
MODEL 4
REMARK VINA RESULT:      -6.6      3.320      5.253
REMARK SMILES CC[C@H]1C[C@]1([N-]C(=O)c1[nH+]oc(C)c1C)C(=O)Oc1c(Cl)c(Cl)c(N)c2ccccc12
REMARK SMILES IDX 3 1 4 2 5 3 2 4 1 5 6 6 7 7 8 8 9 9 10 10 14 11 11 12 12 13
REMARK SMILES IDX 15 15 13 16 16 17 17 18 18 19 19 20 20 21 31 22 22 23 30 24
REMARK SMILES IDX 26 25 24 26 29 27 27 28 28 29 21 30 23 31 25 32
REMARK H PARENT 10 14 25 33 25 34
ROOT
ATOM      1  C   UNL     1      45.205 131.181  15.590  1.00  0.00    -0.012 C 
ATOM      2  C   UNL     1      45.034 132.702  15.609  1.00  0.00     0.002 C 
ATOM      3  C   UNL     1      44.123 131.823  16.454  1.00  0.00     0.001 C 
ENDROOT
BRANCH   1   4
ATOM      4  C   UNL     1      44.781 130.512  14.272  1.00  0.00    -0.000 C 
ATOM      5  C   UNL     1      45.938 130.517  13.281  1.00  0.00     0.004 C 
ENDBRANCH   1   4
BRANCH   3   6
ATOM      6  N   UNL     1      42.753 131.681  15.973  1.00  0.00    -0.629 NA
BRANCH   6   7
ATOM      7  C   UNL     1      42.116 132.647  15.133  1.00  0.00     0.153 C 
ATOM      8  O   UNL     1      41.866 132.367  13.929  1.00  0.00    -0.308 OA
BRANCH   7   9
ATOM      9  C   UNL     1      41.748 133.971  15.664  1.00  0.00     0.279 A 
ATOM     10  N   UNL     1      42.202 135.134  15.158  1.00  0.00    -0.026 N 
ATOM     11  C   UNL     1      40.916 134.260  16.736  1.00  0.00     0.072 A 
ATOM     12  O   UNL     1      41.700 136.110  15.855  1.00  0.00    -0.243 OA
ATOM     13  C   UNL     1      40.925 135.645  16.807  1.00  0.00     0.187 A 
ATOM     14  H   UNL     1      42.849 135.258  14.346  1.00  0.00     0.517 HD
ATOM     15  C   UNL     1      40.190 133.303  17.633  1.00  0.00     0.056 C 
ATOM     16  C   UNL     1      40.194 136.501  17.788  1.00  0.00     0.096 C 
ENDBRANCH   7   9
ENDBRANCH   6   7
ENDBRANCH   3   6
BRANCH   3  17
ATOM     17  C   UNL     1      44.343 131.763  17.931  1.00  0.00     0.300 C 
ATOM     18  O   UNL     1      45.333 131.133  18.395  1.00  0.00    -0.253 OA
BRANCH  17  19
ATOM     19  O   UNL     1      43.471 132.453  18.779  1.00  0.00    -0.425 OA
BRANCH  19  20
ATOM     20  C   UNL     1      43.922 133.290  19.806  1.00  0.00     0.158 A 
ATOM     21  C   UNL     1      44.010 132.773  21.103  1.00  0.00     0.105 A 
ATOM     22  C   UNL     1      44.281 134.629  19.550  1.00  0.00     0.028 A 
ATOM     23  C   UNL     1      44.488 133.571  22.155  1.00  0.00     0.087 A 
ATOM     24  C   UNL     1      44.132 135.179  18.260  1.00  0.00     0.013 A 
ATOM     25  C   UNL     1      44.787 135.440  20.604  1.00  0.00     0.010 A 
ATOM     26  C   UNL     1      44.878 134.907  21.918  1.00  0.00     0.060 A 
ATOM     27  C   UNL     1      44.524 136.489  17.998  1.00  0.00     0.001 A 
ATOM     28  C   UNL     1      45.207 136.756  20.302  1.00  0.00     0.011 A 
ATOM     29  C   UNL     1      45.072 137.270  19.012  1.00  0.00     0.001 A 
ATOM     30  Cl  UNL     1      43.529 131.100  21.388  1.00  0.00    -0.078 Cl
ATOM     31  Cl  UNL     1      44.560 132.889  23.784  1.00  0.00    -0.080 Cl
BRANCH  26  32
ATOM     32  N   UNL     1      45.331 135.714  23.019  1.00  0.00    -0.397 N 
ATOM     33  H   UNL     1      44.685 136.357  23.526  1.00  0.00     0.156 HD
ATOM     34  H   UNL     1      46.335 135.765  23.294  1.00  0.00     0.156 HD
ENDBRANCH  26  32
ENDBRANCH  19  20
ENDBRANCH  17  19
ENDBRANCH   3  17
TORSDOF 8
ENDMDL
MODEL 5
REMARK VINA RESULT:      -6.6      2.078      3.733
REMARK SMILES CC[C@H]1C[C@]1([N-]C(=O)c1[nH+]oc(C)c1C)C(=O)Oc1c(Cl)c(Cl)c(N)c2ccccc12
REMARK SMILES IDX 3 1 4 2 5 3 2 4 1 5 6 6 7 7 8 8 9 9 10 10 14 11 11 12 12 13
REMARK SMILES IDX 15 15 13 16 16 17 17 18 18 19 19 20 20 21 31 22 22 23 30 24
REMARK SMILES IDX 26 25 24 26 29 27 27 28 28 29 21 30 23 31 25 32
REMARK H PARENT 10 14 25 33 25 34
ROOT
ATOM      1  C   UNL     1      45.039 131.319  15.100  1.00  0.00    -0.012 C 
ATOM      2  C   UNL     1      44.770 131.372  16.606  1.00  0.00     0.002 C 
ATOM      3  C   UNL     1      44.198 132.447  15.691  1.00  0.00     0.001 C 
ENDROOT
BRANCH   1   4
ATOM      4  C   UNL     1      46.493 131.624  14.705  1.00  0.00    -0.000 C 
ATOM      5  C   UNL     1      46.856 130.897  13.417  1.00  0.00     0.004 C 
ENDBRANCH   1   4
BRANCH   3   6
ATOM      6  N   UNL     1      44.844 133.753  15.766  1.00  0.00    -0.629 NA
BRANCH   6   7
ATOM      7  C   UNL     1      44.117 134.980  15.866  1.00  0.00     0.153 C 
ATOM      8  O   UNL     1      43.644 135.518  14.829  1.00  0.00    -0.308 OA
BRANCH   7   9
ATOM      9  C   UNL     1      43.917 135.624  17.176  1.00  0.00     0.279 A 
ATOM     10  N   UNL     1      44.389 135.127  18.336  1.00  0.00    -0.026 N 
ATOM     11  C   UNL     1      43.230 136.797  17.455  1.00  0.00     0.072 A 
ATOM     12  O   UNL     1      44.033 135.923  19.300  1.00  0.00    -0.243 OA
ATOM     13  C   UNL     1      43.341 136.936  18.830  1.00  0.00     0.187 A 
ATOM     14  H   UNL     1      44.948 134.253  18.466  1.00  0.00     0.517 HD
ATOM     15  C   UNL     1      42.510 137.701  16.500  1.00  0.00     0.056 C 
ATOM     16  C   UNL     1      42.780 138.033  19.673  1.00  0.00     0.096 C 
ENDBRANCH   7   9
ENDBRANCH   6   7
ENDBRANCH   3   6
BRANCH   3  17
ATOM     17  C   UNL     1      42.741 132.418  15.364  1.00  0.00     0.300 C 
ATOM     18  O   UNL     1      42.355 132.643  14.185  1.00  0.00    -0.253 OA
BRANCH  17  19
ATOM     19  O   UNL     1      41.824 132.089  16.368  1.00  0.00    -0.425 OA
BRANCH  19  20
ATOM     20  C   UNL     1      41.387 133.012  17.324  1.00  0.00     0.158 A 
ATOM     21  C   UNL     1      40.550 134.056  16.916  1.00  0.00     0.105 A 
ATOM     22  C   UNL     1      41.778 132.904  18.674  1.00  0.00     0.028 A 
ATOM     23  C   UNL     1      40.064 134.985  17.850  1.00  0.00     0.087 A 
ATOM     24  C   UNL     1      42.675 131.895  19.083  1.00  0.00     0.013 A 
ATOM     25  C   UNL     1      41.274 133.826  19.634  1.00  0.00     0.010 A 
ATOM     26  C   UNL     1      40.421 134.881  19.212  1.00  0.00     0.060 A 
ATOM     27  C   UNL     1      43.030 131.762  20.424  1.00  0.00     0.001 A 
ATOM     28  C   UNL     1      41.627 133.648  20.991  1.00  0.00     0.011 A 
ATOM     29  C   UNL     1      42.497 132.627  21.375  1.00  0.00     0.001 A 
ATOM     30  Cl  UNL     1      40.102 134.173  15.213  1.00  0.00    -0.078 Cl
ATOM     31  Cl  UNL     1      39.031 136.304  17.291  1.00  0.00    -0.080 Cl
BRANCH  26  32
ATOM     32  N   UNL     1      39.939 135.865  20.144  1.00  0.00    -0.397 N 
ATOM     33  H   UNL     1      40.593 136.494  20.660  1.00  0.00     0.156 HD
ATOM     34  H   UNL     1      38.935 135.928  20.415  1.00  0.00     0.156 HD
ENDBRANCH  26  32
ENDBRANCH  19  20
ENDBRANCH  17  19
ENDBRANCH   3  17
TORSDOF 8
ENDMDL
MODEL 6
REMARK VINA RESULT:      -6.5      2.060      3.127
REMARK SMILES CC[C@H]1C[C@]1([N-]C(=O)c1[nH+]oc(C)c1C)C(=O)Oc1c(Cl)c(Cl)c(N)c2ccccc12
REMARK SMILES IDX 3 1 4 2 5 3 2 4 1 5 6 6 7 7 8 8 9 9 10 10 14 11 11 12 12 13
REMARK SMILES IDX 15 15 13 16 16 17 17 18 18 19 19 20 20 21 31 22 22 23 30 24
REMARK SMILES IDX 26 25 24 26 29 27 27 28 28 29 21 30 23 31 25 32
REMARK H PARENT 10 14 25 33 25 34
ROOT
ATOM      1  C   UNL     1      45.283 131.419  14.235  1.00  0.00    -0.012 C 
ATOM      2  C   UNL     1      44.497 130.463  15.137  1.00  0.00     0.002 C 
ATOM      3  C   UNL     1      44.333 131.969  15.297  1.00  0.00     0.001 C 
ENDROOT
BRANCH   1   4
ATOM      4  C   UNL     1      46.793 131.459  14.519  1.00  0.00    -0.000 C 
ATOM      5  C   UNL     1      47.576 131.105  13.262  1.00  0.00     0.004 C 
ENDBRANCH   1   4
BRANCH   3   6
ATOM      6  N   UNL     1      44.963 132.554  16.476  1.00  0.00    -0.629 NA
BRANCH   6   7
ATOM      7  C   UNL     1      44.717 132.089  17.805  1.00  0.00     0.153 C 
ATOM      8  O   UNL     1      45.245 131.017  18.206  1.00  0.00    -0.308 OA
BRANCH   7   9
ATOM      9  C   UNL     1      43.847 132.856  18.714  1.00  0.00     0.279 A 
ATOM     10  N   UNL     1      44.306 133.732  19.629  1.00  0.00    -0.026 N 
ATOM     11  C   UNL     1      42.463 132.818  18.806  1.00  0.00     0.072 A 
ATOM     12  O   UNL     1      43.289 134.228  20.270  1.00  0.00    -0.243 OA
ATOM     13  C   UNL     1      42.167 133.718  19.819  1.00  0.00     0.187 A 
ATOM     14  H   UNL     1      45.303 133.987  19.813  1.00  0.00     0.517 HD
ATOM     15  C   UNL     1      41.502 131.983  18.016  1.00  0.00     0.056 C 
ATOM     16  C   UNL     1      40.813 134.073  20.341  1.00  0.00     0.096 C 
ENDBRANCH   7   9
ENDBRANCH   6   7
ENDBRANCH   3   6
BRANCH   3  17
ATOM     17  C   UNL     1      43.088 132.619  14.788  1.00  0.00     0.300 C 
ATOM     18  O   UNL     1      42.103 131.910  14.443  1.00  0.00    -0.253 OA
BRANCH  17  19
ATOM     19  O   UNL     1      43.014 134.015  14.750  1.00  0.00    -0.425 OA
BRANCH  19  20
ATOM     20  C   UNL     1      42.139 134.747  15.561  1.00  0.00     0.158 A 
ATOM     21  C   UNL     1      42.676 135.558  16.566  1.00  0.00     0.105 A 
ATOM     22  C   UNL     1      40.743 134.674  15.378  1.00  0.00     0.028 A 
ATOM     23  C   UNL     1      41.834 136.333  17.380  1.00  0.00     0.087 A 
ATOM     24  C   UNL     1      40.189 133.809  14.412  1.00  0.00     0.013 A 
ATOM     25  C   UNL     1      39.881 135.472  16.182  1.00  0.00     0.010 A 
ATOM     26  C   UNL     1      40.435 136.296  17.199  1.00  0.00     0.060 A 
ATOM     27  C   UNL     1      38.813 133.767  14.204  1.00  0.00     0.001 A 
ATOM     28  C   UNL     1      38.491 135.432  15.927  1.00  0.00     0.011 A 
ATOM     29  C   UNL     1      37.968 134.585  14.949  1.00  0.00     0.001 A 
ATOM     30  Cl  UNL     1      44.427 135.604  16.780  1.00  0.00    -0.078 Cl
ATOM     31  Cl  UNL     1      42.549 137.324  18.656  1.00  0.00    -0.080 Cl
BRANCH  26  32
ATOM     32  N   UNL     1      39.591 137.072  18.068  1.00  0.00    -0.397 N 
ATOM     33  H   UNL     1      38.554 137.085  17.952  1.00  0.00     0.156 HD
ATOM     34  H   UNL     1      39.979 137.725  18.781  1.00  0.00     0.156 HD
ENDBRANCH  26  32
ENDBRANCH  19  20
ENDBRANCH  17  19
ENDBRANCH   3  17
TORSDOF 8
ENDMDL
MODEL 7
REMARK VINA RESULT:      -6.5      2.859      5.211
REMARK SMILES CC[C@H]1C[C@]1([N-]C(=O)c1[nH+]oc(C)c1C)C(=O)Oc1c(Cl)c(Cl)c(N)c2ccccc12
REMARK SMILES IDX 3 1 4 2 5 3 2 4 1 5 6 6 7 7 8 8 9 9 10 10 14 11 11 12 12 13
REMARK SMILES IDX 15 15 13 16 16 17 17 18 18 19 19 20 20 21 31 22 22 23 30 24
REMARK SMILES IDX 26 25 24 26 29 27 27 28 28 29 21 30 23 31 25 32
REMARK H PARENT 10 14 25 33 25 34
ROOT
ATOM      1  C   UNL     1      44.356 131.899  16.123  1.00  0.00    -0.012 C 
ATOM      2  C   UNL     1      44.788 133.184  16.834  1.00  0.00     0.002 C 
ATOM      3  C   UNL     1      43.363 133.042  16.315  1.00  0.00     0.001 C 
ENDROOT
BRANCH   1   4
ATOM      4  C   UNL     1      44.981 131.704  14.732  1.00  0.00    -0.000 C 
ATOM      5  C   UNL     1      44.330 130.525  14.020  1.00  0.00     0.004 C 
ENDBRANCH   1   4
BRANCH   3   6
ATOM      6  N   UNL     1      43.043 133.818  15.122  1.00  0.00    -0.629 NA
BRANCH   6   7
ATOM      7  C   UNL     1      41.798 133.708  14.429  1.00  0.00     0.153 C 
ATOM      8  O   UNL     1      41.445 132.601  13.939  1.00  0.00    -0.308 OA
BRANCH   7   9
ATOM      9  C   UNL     1      40.920 134.882  14.282  1.00  0.00     0.279 A 
ATOM     10  N   UNL     1      41.368 136.152  14.230  1.00  0.00    -0.026 N 
ATOM     11  C   UNL     1      39.535 134.906  14.184  1.00  0.00     0.072 A 
ATOM     12  O   UNL     1      40.344 136.944  14.107  1.00  0.00    -0.243 OA
ATOM     13  C   UNL     1      39.228 136.254  14.073  1.00  0.00     0.187 A 
ATOM     14  H   UNL     1      42.362 136.471  14.279  1.00  0.00     0.517 HD
ATOM     15  C   UNL     1      38.582 133.750  14.214  1.00  0.00     0.056 C 
ATOM     16  C   UNL     1      37.869 136.860  13.941  1.00  0.00     0.096 C 
ENDBRANCH   7   9
ENDBRANCH   6   7
ENDBRANCH   3   6
BRANCH   3  17
ATOM     17  C   UNL     1      42.260 132.794  17.291  1.00  0.00     0.300 C 
ATOM     18  O   UNL     1      41.602 131.719  17.239  1.00  0.00    -0.253 OA
BRANCH  17  19
ATOM     19  O   UNL     1      42.005 133.742  18.288  1.00  0.00    -0.425 OA
BRANCH  19  20
ATOM     20  C   UNL     1      41.260 134.903  18.053  1.00  0.00     0.158 A 
ATOM     21  C   UNL     1      41.938 136.119  17.913  1.00  0.00     0.105 A 
ATOM     22  C   UNL     1      39.854 134.860  17.957  1.00  0.00     0.028 A 
ATOM     23  C   UNL     1      41.229 137.301  17.644  1.00  0.00     0.087 A 
ATOM     24  C   UNL     1      39.157 133.652  18.163  1.00  0.00     0.013 A 
ATOM     25  C   UNL     1      39.128 136.048  17.663  1.00  0.00     0.010 A 
ATOM     26  C   UNL     1      39.823 137.278  17.519  1.00  0.00     0.060 A 
ATOM     27  C   UNL     1      37.772 133.600  18.029  1.00  0.00     0.001 A 
ATOM     28  C   UNL     1      37.726 135.960  17.503  1.00  0.00     0.011 A 
ATOM     29  C   UNL     1      37.060 134.747  17.688  1.00  0.00     0.001 A 
ATOM     30  Cl  UNL     1      43.696 136.137  18.062  1.00  0.00    -0.078 Cl
ATOM     31  Cl  UNL     1      42.119 138.821  17.501  1.00  0.00    -0.080 Cl
BRANCH  26  32
ATOM     32  N   UNL     1      39.118 138.508  17.278  1.00  0.00    -0.397 N 
ATOM     33  H   UNL     1      39.584 139.435  17.392  1.00  0.00     0.156 HD
ATOM     34  H   UNL     1      38.096 138.532  17.077  1.00  0.00     0.156 HD
ENDBRANCH  26  32
ENDBRANCH  19  20
ENDBRANCH  17  19
ENDBRANCH   3  17
TORSDOF 8
ENDMDL
MODEL 8
REMARK VINA RESULT:      -6.4      3.191      5.698
REMARK SMILES CC[C@H]1C[C@]1([N-]C(=O)c1[nH+]oc(C)c1C)C(=O)Oc1c(Cl)c(Cl)c(N)c2ccccc12
REMARK SMILES IDX 3 1 4 2 5 3 2 4 1 5 6 6 7 7 8 8 9 9 10 10 14 11 11 12 12 13
REMARK SMILES IDX 15 15 13 16 16 17 17 18 18 19 19 20 20 21 31 22 22 23 30 24
REMARK SMILES IDX 26 25 24 26 29 27 27 28 28 29 21 30 23 31 25 32
REMARK H PARENT 10 14 25 33 25 34
ROOT
ATOM      1  C   UNL     1      44.542 131.200  15.268  1.00  0.00    -0.012 C 
ATOM      2  C   UNL     1      45.422 132.359  15.742  1.00  0.00     0.002 C 
ATOM      3  C   UNL     1      43.907 132.509  15.731  1.00  0.00     0.001 C 
ENDROOT
BRANCH   1   4
ATOM      4  C   UNL     1      44.619 130.922  13.758  1.00  0.00    -0.000 C 
ATOM      5  C   UNL     1      45.937 130.242  13.413  1.00  0.00     0.004 C 
ENDBRANCH   1   4
BRANCH   3   6
ATOM      6  N   UNL     1      43.362 133.360  14.680  1.00  0.00    -0.629 NA
BRANCH   6   7
ATOM      7  C   UNL     1      41.959 133.527  14.458  1.00  0.00     0.153 C 
ATOM      8  O   UNL     1      41.290 132.600  13.927  1.00  0.00    -0.308 OA
BRANCH   7   9
ATOM      9  C   UNL     1      41.286 134.779  14.846  1.00  0.00     0.279 A 
ATOM     10  N   UNL     1      41.685 136.001  14.443  1.00  0.00    -0.026 N 
ATOM     11  C   UNL     1      40.177 134.934  15.666  1.00  0.00     0.072 A 
ATOM     12  O   UNL     1      40.890 136.887  14.966  1.00  0.00    -0.243 OA
ATOM     13  C   UNL     1      39.972 136.305  15.703  1.00  0.00     0.187 A 
ATOM     14  H   UNL     1      42.493 136.226  13.819  1.00  0.00     0.517 HD
ATOM     15  C   UNL     1      39.389 133.873  16.373  1.00  0.00     0.056 C 
ATOM     16  C   UNL     1      38.903 137.036  16.446  1.00  0.00     0.096 C 
ENDBRANCH   7   9
ENDBRANCH   6   7
ENDBRANCH   3   6
BRANCH   3  17
ATOM     17  C   UNL     1      43.166 132.455  17.027  1.00  0.00     0.300 C 
ATOM     18  O   UNL     1      42.136 131.734  17.134  1.00  0.00    -0.253 OA
BRANCH  17  19
ATOM     19  O   UNL     1      43.657 133.169  18.124  1.00  0.00    -0.425 OA
BRANCH  19  20
ATOM     20  C   UNL     1      43.191 132.966  19.427  1.00  0.00     0.158 A 
ATOM     21  C   UNL     1      43.780 131.961  20.202  1.00  0.00     0.105 A 
ATOM     22  C   UNL     1      42.148 133.751  19.959  1.00  0.00     0.028 A 
ATOM     23  C   UNL     1      43.362 131.747  21.525  1.00  0.00     0.087 A 
ATOM     24  C   UNL     1      41.503 134.722  19.165  1.00  0.00     0.013 A 
ATOM     25  C   UNL     1      41.732 133.558  21.306  1.00  0.00     0.010 A 
ATOM     26  C   UNL     1      42.337 132.538  22.088  1.00  0.00     0.060 A 
ATOM     27  C   UNL     1      40.500 135.526  19.701  1.00  0.00     0.001 A 
ATOM     28  C   UNL     1      40.734 134.410  21.833  1.00  0.00     0.011 A 
ATOM     29  C   UNL     1      40.127 135.379  21.034  1.00  0.00     0.001 A 
ATOM     30  Cl  UNL     1      45.066 130.982  19.494  1.00  0.00    -0.078 Cl
ATOM     31  Cl  UNL     1      44.112 130.449  22.462  1.00  0.00    -0.080 Cl
BRANCH  26  32
ATOM     32  N   UNL     1      41.903 132.276  23.434  1.00  0.00    -0.397 N 
ATOM     33  H   UNL     1      41.147 132.839  23.882  1.00  0.00     0.156 HD
ATOM     34  H   UNL     1      42.385 131.586  24.049  1.00  0.00     0.156 HD
ENDBRANCH  26  32
ENDBRANCH  19  20
ENDBRANCH  17  19
ENDBRANCH   3  17
TORSDOF 8
ENDMDL
MODEL 9
REMARK VINA RESULT:      -6.3      3.316      5.163
REMARK SMILES CC[C@H]1C[C@]1([N-]C(=O)c1[nH+]oc(C)c1C)C(=O)Oc1c(Cl)c(Cl)c(N)c2ccccc12
REMARK SMILES IDX 3 1 4 2 5 3 2 4 1 5 6 6 7 7 8 8 9 9 10 10 14 11 11 12 12 13
REMARK SMILES IDX 15 15 13 16 16 17 17 18 18 19 19 20 20 21 31 22 22 23 30 24
REMARK SMILES IDX 26 25 24 26 29 27 27 28 28 29 21 30 23 31 25 32
REMARK H PARENT 10 14 25 33 25 34
ROOT
ATOM      1  C   UNL     1      45.145 131.266  15.509  1.00  0.00    -0.012 C 
ATOM      2  C   UNL     1      45.467 132.760  15.603  1.00  0.00     0.002 C 
ATOM      3  C   UNL     1      44.070 132.259  15.944  1.00  0.00     0.001 C 
ENDROOT
BRANCH   1   4
ATOM      4  C   UNL     1      45.092 130.719  14.073  1.00  0.00    -0.000 C 
ATOM      5  C   UNL     1      46.275 129.795  13.815  1.00  0.00     0.004 C 
ENDBRANCH   1   4
BRANCH   3   6
ATOM      6  N   UNL     1      43.033 132.550  14.960  1.00  0.00    -0.629 NA
BRANCH   6   7
ATOM      7  C   UNL     1      42.404 133.828  14.842  1.00  0.00     0.153 C 
ATOM      8  O   UNL     1      43.101 134.856  14.622  1.00  0.00    -0.308 OA
BRANCH   7   9
ATOM      9  C   UNL     1      40.943 133.956  14.978  1.00  0.00     0.279 A 
ATOM     10  N   UNL     1      40.074 133.720  13.975  1.00  0.00    -0.026 N 
ATOM     11  C   UNL     1      40.219 134.333  16.100  1.00  0.00     0.072 A 
ATOM     12  O   UNL     1      38.870 133.931  14.417  1.00  0.00    -0.243 OA
ATOM     13  C   UNL     1      38.898 134.297  15.678  1.00  0.00     0.187 A 
ATOM     14  H   UNL     1      40.303 133.420  13.001  1.00  0.00     0.517 HD
ATOM     15  C   UNL     1      40.736 134.717  17.453  1.00  0.00     0.056 C 
ATOM     16  C   UNL     1      37.685 134.617  16.488  1.00  0.00     0.096 C 
ENDBRANCH   7   9
ENDBRANCH   6   7
ENDBRANCH   3   6
BRANCH   3  17
ATOM     17  C   UNL     1      43.657 132.189  17.378  1.00  0.00     0.300 C 
ATOM     18  O   UNL     1      42.520 131.738  17.685  1.00  0.00    -0.253 OA
BRANCH  17  19
ATOM     19  O   UNL     1      44.564 132.581  18.368  1.00  0.00    -0.425 OA
BRANCH  19  20
ATOM     20  C   UNL     1      44.207 133.421  19.429  1.00  0.00     0.158 A 
ATOM     21  C   UNL     1      43.989 132.854  20.689  1.00  0.00     0.105 A 
ATOM     22  C   UNL     1      44.066 134.811  19.243  1.00  0.00     0.028 A 
ATOM     23  C   UNL     1      43.660 133.666  21.787  1.00  0.00     0.087 A 
ATOM     24  C   UNL     1      44.219 135.384  17.963  1.00  0.00     0.013 A 
ATOM     25  C   UNL     1      43.756 135.647  20.352  1.00  0.00     0.010 A 
ATOM     26  C   UNL     1      43.539 135.064  21.630  1.00  0.00     0.060 A 
ATOM     27  C   UNL     1      44.120 136.761  17.785  1.00  0.00     0.001 A 
ATOM     28  C   UNL     1      43.692 137.044  20.148  1.00  0.00     0.011 A 
ATOM     29  C   UNL     1      43.871 137.589  18.876  1.00  0.00     0.001 A 
ATOM     30  Cl  UNL     1      44.151 131.108  20.878  1.00  0.00    -0.078 Cl
ATOM     31  Cl  UNL     1      43.365 132.910  23.356  1.00  0.00    -0.080 Cl
BRANCH  26  32
ATOM     32  N   UNL     1      43.167 135.870  22.762  1.00  0.00    -0.397 N 
ATOM     33  H   UNL     1      42.479 136.650  22.673  1.00  0.00     0.156 HD
ATOM     34  H   UNL     1      43.636 135.777  23.687  1.00  0.00     0.156 HD
ENDBRANCH  26  32
ENDBRANCH  19  20
ENDBRANCH  17  19
ENDBRANCH   3  17
TORSDOF 8
ENDMDL


