MODEL 1
REMARK VINA RESULT:      -6.0      0.000      0.000
REMARK SMILES C#C[C@](O)(c1cc(N)cc(SC(C)(C)CNC[C@](C)(O)C=C)ccc2cc1CC2)C(C)(C)C
REMARK SMILES IDX 12 1 13 2 14 3 11 4 10 5 5 6 6 7 27 8 7 9 26 10 28 11 9 12
REMARK SMILES IDX 25 13 29 14 24 15 23 16 3 17 2 18 1 19 4 20 30 22 31 23
REMARK SMILES IDX 32 24 33 25 8 26 15 29 16 30 17 32 18 33 19 34 20 35 21 37
REMARK SMILES IDX 22 38
REMARK H PARENT 4 21 8 27 8 28 16 31 20 36
ROOT
ATOM      1  C   UNL     1      43.655 132.532  17.263  1.00  0.00     0.027 C 
ATOM      2  C   UNL     1      42.488 132.166  16.328  1.00  0.00     0.024 C 
ATOM      3  C   UNL     1      43.109 132.899  18.657  1.00  0.00     0.024 C 
ENDROOT
BRANCH   1   4
ATOM      4  S   UNL     1      44.643 133.932  16.554  1.00  0.00    -0.118 SA
BRANCH   4   5
ATOM      5  C   UNL     1      43.430 135.265  16.672  1.00  0.00     0.010 A 
ATOM      6  C   UNL     1      39.516 136.693  15.175  1.00  0.00     0.002 A 
ATOM      7  C   UNL     1      40.776 136.580  14.519  1.00  0.00     0.033 A 
ATOM      8  C   UNL     1      39.462 136.697  16.588  1.00  0.00    -0.040 A 
ATOM      9  C   UNL     1      41.992 136.716  15.204  1.00  0.00     0.033 A 
ATOM     10  C   UNL     1      40.352 135.941  17.324  1.00  0.00     0.007 A 
ATOM     11  C   UNL     1      39.145 137.955  17.340  1.00  0.00     0.041 C 
ATOM     12  C   UNL     1      42.719 135.554  15.484  1.00  0.00     0.040 A 
ATOM     13  C   UNL     1      41.000 136.757  18.214  1.00  0.00    -0.047 A 
ATOM     14  C   UNL     1      40.194 137.989  18.459  1.00  0.00     0.040 C 
ATOM     15  C   UNL     1      42.356 136.678  18.551  1.00  0.00     0.005 A 
ATOM     16  C   UNL     1      43.384 135.937  17.921  1.00  0.00     0.015 A 
BRANCH   6  17
ATOM     17  C   UNL     1      38.206 136.772  14.372  1.00  0.00     0.155 C 
BRANCH  17  18
ATOM     18  C   UNL     1      38.306 137.917  13.423  1.00  0.00    -0.066 C 
ATOM     19  C   UNL     1      38.404 138.850  12.668  1.00  0.00     0.007 C 
ENDBRANCH  17  18
BRANCH  17  20
ATOM     20  O   UNL     1      37.156 137.041  15.285  1.00  0.00    -0.373 OA
ATOM     21  H   UNL     1      37.506 136.994  16.216  1.00  0.00     0.213 HD
ENDBRANCH  17  20
BRANCH  17  22
ATOM     22  C   UNL     1      37.896 135.411  13.605  1.00  0.00     0.006 C 
ATOM     23  C   UNL     1      38.344 134.156  14.401  1.00  0.00     0.015 C 
ATOM     24  C   UNL     1      38.621 135.380  12.234  1.00  0.00     0.015 C 
ATOM     25  C   UNL     1      36.376 135.284  13.327  1.00  0.00     0.015 C 
ENDBRANCH  17  22
ENDBRANCH   6  17
BRANCH   9  26
ATOM     26  N   UNL     1      42.323 137.970  15.820  1.00  0.00    -0.399 N 
ATOM     27  H   UNL     1      41.639 138.454  16.442  1.00  0.00     0.156 HD
ATOM     28  H   UNL     1      43.295 138.350  15.779  1.00  0.00     0.156 HD
ENDBRANCH   9  26
ENDBRANCH   4   5
ENDBRANCH   1   4
BRANCH   1  29
ATOM     29  C   UNL     1      44.595 131.310  17.419  1.00  0.00     0.098 C 
BRANCH  29  30
ATOM     30  N   UNL     1      45.820 131.470  16.616  1.00  0.00    -0.312 NA
ATOM     31  H   UNL     1      46.538 131.992  17.170  1.00  0.00     0.122 HD
BRANCH  30  32
ATOM     32  C   UNL     1      46.370 130.189  16.136  1.00  0.00     0.120 C 
BRANCH  32  33
ATOM     33  C   UNL     1      46.271 129.994  14.592  1.00  0.00     0.092 C 
ATOM     34  C   UNL     1      44.792 129.979  14.150  1.00  0.00     0.048 C 
BRANCH  33  35
ATOM     35  O   UNL     1      46.872 128.773  14.222  1.00  0.00    -0.385 OA
ATOM     36  H   UNL     1      46.222 128.265  13.661  1.00  0.00     0.211 HD
ENDBRANCH  33  35
BRANCH  33  37
ATOM     37  C   UNL     1      46.989 131.106  13.849  1.00  0.00     0.001 C 
ATOM     38  C   UNL     1      47.921 130.884  12.913  1.00  0.00     0.007 C 
ENDBRANCH  33  37
ENDBRANCH  32  33
ENDBRANCH  30  32
ENDBRANCH  29  30
ENDBRANCH   1  29
TORSDOF 13
ENDMDL
MODEL 2
REMARK VINA RESULT:      -5.6      3.686      6.684
REMARK SMILES C#C[C@](O)(c1cc(N)cc(SC(C)(C)CNC[C@](C)(O)C=C)ccc2cc1CC2)C(C)(C)C
REMARK SMILES IDX 12 1 13 2 14 3 11 4 10 5 5 6 6 7 27 8 7 9 26 10 28 11 9 12
REMARK SMILES IDX 25 13 29 14 24 15 23 16 3 17 2 18 1 19 4 20 30 22 31 23
REMARK SMILES IDX 32 24 33 25 8 26 15 29 16 30 17 32 18 33 19 34 20 35 21 37
REMARK SMILES IDX 22 38
REMARK H PARENT 4 21 8 27 8 28 16 31 20 36
ROOT
ATOM      1  C   UNL     1      42.839 132.949  16.152  1.00  0.00     0.027 C 
ATOM      2  C   UNL     1      42.613 132.040  17.374  1.00  0.00     0.024 C 
ATOM      3  C   UNL     1      44.188 133.681  16.291  1.00  0.00     0.024 C 
ENDROOT
BRANCH   1   4
ATOM      4  S   UNL     1      41.448 134.162  15.977  1.00  0.00    -0.118 SA
BRANCH   4   5
ATOM      5  C   UNL     1      41.992 135.436  17.135  1.00  0.00     0.010 A 
ATOM      6  C   UNL     1      43.983 136.126  21.029  1.00  0.00     0.002 A 
ATOM      7  C   UNL     1      42.707 135.570  20.724  1.00  0.00     0.033 A 
ATOM      8  C   UNL     1      44.654 136.907  20.059  1.00  0.00    -0.040 A 
ATOM      9  C   UNL     1      41.970 135.959  19.595  1.00  0.00     0.033 A 
ATOM     10  C   UNL     1      44.539 136.607  18.717  1.00  0.00     0.007 A 
ATOM     11  C   UNL     1      44.779 138.392  20.223  1.00  0.00     0.041 C 
ATOM     12  C   UNL     1      41.935 135.085  18.504  1.00  0.00     0.040 A 
ATOM     13  C   UNL     1      44.103 137.721  18.049  1.00  0.00    -0.047 A 
ATOM     14  C   UNL     1      44.410 138.947  18.842  1.00  0.00     0.040 C 
ATOM     15  C   UNL     1      43.178 137.729  16.998  1.00  0.00     0.005 A 
ATOM     16  C   UNL     1      42.335 136.683  16.551  1.00  0.00     0.015 A 
BRANCH   6  17
ATOM     17  C   UNL     1      44.663 135.859  22.383  1.00  0.00     0.155 C 
BRANCH  17  18
ATOM     18  C   UNL     1      43.718 136.247  23.468  1.00  0.00    -0.066 C 
ATOM     19  C   UNL     1      42.941 136.571  24.328  1.00  0.00     0.007 C 
ENDBRANCH  17  18
BRANCH  17  20
ATOM     20  O   UNL     1      45.803 136.697  22.465  1.00  0.00    -0.373 OA
ATOM     21  H   UNL     1      46.626 136.138  22.469  1.00  0.00     0.213 HD
ENDBRANCH  17  20
BRANCH  17  22
ATOM     22  C   UNL     1      45.119 134.340  22.530  1.00  0.00     0.006 C 
ATOM     23  C   UNL     1      45.782 133.783  21.241  1.00  0.00     0.015 C 
ATOM     24  C   UNL     1      43.904 133.435  22.861  1.00  0.00     0.015 C 
ATOM     25  C   UNL     1      46.135 134.193  23.692  1.00  0.00     0.015 C 
ENDBRANCH  17  22
ENDBRANCH   6  17
BRANCH   9  26
ATOM     26  N   UNL     1      41.509 137.314  19.483  1.00  0.00    -0.399 N 
ATOM     27  H   UNL     1      40.488 137.528  19.454  1.00  0.00     0.156 HD
ATOM     28  H   UNL     1      42.170 138.117  19.574  1.00  0.00     0.156 HD
ENDBRANCH   9  26
ENDBRANCH   4   5
ENDBRANCH   1   4
BRANCH   1  29
ATOM     29  C   UNL     1      42.889 132.085  14.866  1.00  0.00     0.098 C 
BRANCH  29  30
ATOM     30  N   UNL     1      44.277 131.768  14.486  1.00  0.00    -0.312 NA
ATOM     31  H   UNL     1      44.934 132.409  14.989  1.00  0.00     0.122 HD
BRANCH  30  32
ATOM     32  C   UNL     1      44.638 130.360  14.736  1.00  0.00     0.120 C 
BRANCH  32  33
ATOM     33  C   UNL     1      46.170 130.116  14.896  1.00  0.00     0.092 C 
ATOM     34  C   UNL     1      46.965 131.203  14.141  1.00  0.00     0.048 C 
BRANCH  33  35
ATOM     35  O   UNL     1      46.513 128.852  14.375  1.00  0.00    -0.385 OA
ATOM     36  H   UNL     1      46.292 128.163  15.062  1.00  0.00     0.211 HD
ENDBRANCH  33  35
BRANCH  33  37
ATOM     37  C   UNL     1      46.582 130.140  16.357  1.00  0.00     0.001 C 
ATOM     38  C   UNL     1      45.730 130.390  17.360  1.00  0.00     0.007 C 
ENDBRANCH  33  37
ENDBRANCH  32  33
ENDBRANCH  30  32
ENDBRANCH  29  30
ENDBRANCH   1  29
TORSDOF 13
ENDMDL
MODEL 3
REMARK VINA RESULT:      -5.6      3.855      6.206
REMARK SMILES C#C[C@](O)(c1cc(N)cc(SC(C)(C)CNC[C@](C)(O)C=C)ccc2cc1CC2)C(C)(C)C
REMARK SMILES IDX 12 1 13 2 14 3 11 4 10 5 5 6 6 7 27 8 7 9 26 10 28 11 9 12
REMARK SMILES IDX 25 13 29 14 24 15 23 16 3 17 2 18 1 19 4 20 30 22 31 23
REMARK SMILES IDX 32 24 33 25 8 26 15 29 16 30 17 32 18 33 19 34 20 35 21 37
REMARK SMILES IDX 22 38
REMARK H PARENT 4 21 8 27 8 28 16 31 20 36
ROOT
ATOM      1  C   UNL     1      45.211 131.181  15.661  1.00  0.00     0.027 C 
ATOM      2  C   UNL     1      46.453 131.601  14.854  1.00  0.00     0.024 C 
ATOM      3  C   UNL     1      45.281 129.675  15.979  1.00  0.00     0.024 C 
ENDROOT
BRANCH   1   4
ATOM      4  S   UNL     1      43.661 131.585  14.726  1.00  0.00    -0.118 SA
BRANCH   4   5
ATOM      5  C   UNL     1      43.096 133.024  15.660  1.00  0.00     0.010 A 
ATOM      6  C   UNL     1      41.939 134.454  19.687  1.00  0.00     0.002 A 
ATOM      7  C   UNL     1      41.284 133.554  18.798  1.00  0.00     0.033 A 
ATOM      8  C   UNL     1      42.929 135.333  19.187  1.00  0.00    -0.040 A 
ATOM      9  C   UNL     1      41.399 133.661  17.404  1.00  0.00     0.033 A 
ATOM     10  C   UNL     1      43.762 134.937  18.161  1.00  0.00     0.007 A 
ATOM     11  C   UNL     1      42.658 136.802  19.062  1.00  0.00     0.041 C 
ATOM     12  C   UNL     1      42.229 132.750  16.744  1.00  0.00     0.040 A 
ATOM     13  C   UNL     1      43.677 135.848  17.141  1.00  0.00    -0.047 A 
ATOM     14  C   UNL     1      43.180 137.154  17.663  1.00  0.00     0.040 C 
ATOM     15  C   UNL     1      43.667 135.542  15.775  1.00  0.00     0.005 A 
ATOM     16  C   UNL     1      43.512 134.281  15.151  1.00  0.00     0.015 A 
BRANCH   6  17
ATOM     17  C   UNL     1      41.616 134.463  21.191  1.00  0.00     0.155 C 
BRANCH  17  18
ATOM     18  C   UNL     1      42.813 134.961  21.926  1.00  0.00    -0.066 C 
ATOM     19  C   UNL     1      43.775 135.384  22.514  1.00  0.00     0.007 C 
ENDBRANCH  17  18
BRANCH  17  20
ATOM     20  O   UNL     1      41.374 133.125  21.588  1.00  0.00    -0.373 OA
ATOM     21  H   UNL     1      40.639 133.105  22.258  1.00  0.00     0.213 HD
ENDBRANCH  17  20
BRANCH  17  22
ATOM     22  C   UNL     1      40.330 135.346  21.516  1.00  0.00     0.006 C 
ATOM     23  C   UNL     1      40.686 136.797  21.934  1.00  0.00     0.015 C 
ATOM     24  C   UNL     1      39.512 134.713  22.672  1.00  0.00     0.015 C 
ATOM     25  C   UNL     1      39.400 135.419  20.278  1.00  0.00     0.015 C 
ENDBRANCH  17  22
ENDBRANCH   6  17
BRANCH   9  26
ATOM     26  N   UNL     1      40.893 134.828  16.738  1.00  0.00    -0.399 N 
ATOM     27  H   UNL     1      39.886 134.897  16.475  1.00  0.00     0.156 HD
ATOM     28  H   UNL     1      41.481 135.686  16.635  1.00  0.00     0.156 HD
ENDBRANCH   9  26
ENDBRANCH   4   5
ENDBRANCH   1   4
BRANCH   1  29
ATOM     29  C   UNL     1      45.179 131.957  17.002  1.00  0.00     0.098 C 
BRANCH  29  30
ATOM     30  N   UNL     1      45.281 131.042  18.153  1.00  0.00    -0.312 NA
ATOM     31  H   UNL     1      46.288 130.852  18.363  1.00  0.00     0.122 HD
BRANCH  30  32
ATOM     32  C   UNL     1      44.589 131.544  19.355  1.00  0.00     0.120 C 
BRANCH  32  33
ATOM     33  C   UNL     1      45.473 131.555  20.639  1.00  0.00     0.092 C 
ATOM     34  C   UNL     1      45.847 133.005  21.017  1.00  0.00     0.048 C 
BRANCH  33  35
ATOM     35  O   UNL     1      46.656 130.821  20.415  1.00  0.00    -0.385 OA
ATOM     36  H   UNL     1      46.886 130.338  21.257  1.00  0.00     0.211 HD
ENDBRANCH  33  35
BRANCH  33  37
ATOM     37  C   UNL     1      44.750 130.918  21.812  1.00  0.00     0.001 C 
ATOM     38  C   UNL     1      44.276 131.616  22.853  1.00  0.00     0.007 C 
ENDBRANCH  33  37
ENDBRANCH  32  33
ENDBRANCH  30  32
ENDBRANCH  29  30
ENDBRANCH   1  29
TORSDOF 13
ENDMDL
MODEL 4
REMARK VINA RESULT:      -5.5      3.032      8.776
REMARK SMILES C#C[C@](O)(c1cc(N)cc(SC(C)(C)CNC[C@](C)(O)C=C)ccc2cc1CC2)C(C)(C)C
REMARK SMILES IDX 12 1 13 2 14 3 11 4 10 5 5 6 6 7 27 8 7 9 26 10 28 11 9 12
REMARK SMILES IDX 25 13 29 14 24 15 23 16 3 17 2 18 1 19 4 20 30 22 31 23
REMARK SMILES IDX 32 24 33 25 8 26 15 29 16 30 17 32 18 33 19 34 20 35 21 37
REMARK SMILES IDX 22 38
REMARK H PARENT 4 21 8 27 8 28 16 31 20 36
ROOT
ATOM      1  C   UNL     1      40.027 136.117  14.861  1.00  0.00     0.027 C 
ATOM      2  C   UNL     1      41.436 136.720  15.013  1.00  0.00     0.024 C 
ATOM      3  C   UNL     1      38.972 137.238  14.919  1.00  0.00     0.024 C 
ENDROOT
BRANCH   1   4
ATOM      4  S   UNL     1      39.715 134.851  16.181  1.00  0.00    -0.118 SA
BRANCH   4   5
ATOM      5  C   UNL     1      41.388 134.205  16.399  1.00  0.00     0.010 A 
ATOM      6  C   UNL     1      44.291 132.713  19.389  1.00  0.00     0.002 A 
ATOM      7  C   UNL     1      43.777 134.023  19.168  1.00  0.00     0.033 A 
ATOM      8  C   UNL     1      44.192 131.742  18.366  1.00  0.00    -0.040 A 
ATOM      9  C   UNL     1      43.391 134.472  17.896  1.00  0.00     0.033 A 
ATOM     10  C   UNL     1      43.098 131.722  17.525  1.00  0.00     0.007 A 
ATOM     11  C   UNL     1      45.407 131.301  17.606  1.00  0.00     0.041 C 
ATOM     12  C   UNL     1      42.023 134.546  17.616  1.00  0.00     0.040 A 
ATOM     13  C   UNL     1      43.534 131.782  16.227  1.00  0.00    -0.047 A 
ATOM     14  C   UNL     1      44.951 131.320  16.141  1.00  0.00     0.040 C 
ATOM     15  C   UNL     1      42.928 132.512  15.198  1.00  0.00     0.005 A 
ATOM     16  C   UNL     1      41.916 133.498  15.288  1.00  0.00     0.015 A 
BRANCH   6  17
ATOM     17  C   UNL     1      44.922 132.324  20.738  1.00  0.00     0.155 C 
BRANCH  17  18
ATOM     18  C   UNL     1      45.843 133.417  21.159  1.00  0.00    -0.066 C 
ATOM     19  C   UNL     1      46.603 134.292  21.486  1.00  0.00     0.007 C 
ENDBRANCH  17  18
BRANCH  17  20
ATOM     20  O   UNL     1      45.688 131.150  20.532  1.00  0.00    -0.373 OA
ATOM     21  H   UNL     1      45.179 130.518  19.957  1.00  0.00     0.213 HD
ENDBRANCH  17  20
BRANCH  17  22
ATOM     22  C   UNL     1      43.816 132.039  21.850  1.00  0.00     0.006 C 
ATOM     23  C   UNL     1      43.206 133.339  22.438  1.00  0.00     0.015 C 
ATOM     24  C   UNL     1      44.422 131.230  23.026  1.00  0.00     0.015 C 
ATOM     25  C   UNL     1      42.660 131.195  21.255  1.00  0.00     0.015 C 
ENDBRANCH  17  22
ENDBRANCH   6  17
BRANCH   9  26
ATOM     26  N   UNL     1      44.374 134.584  16.855  1.00  0.00    -0.399 N 
ATOM     27  H   UNL     1      44.766 135.514  16.591  1.00  0.00     0.156 HD
ATOM     28  H   UNL     1      44.822 133.734  16.445  1.00  0.00     0.156 HD
ENDBRANCH   9  26
ENDBRANCH   4   5
ENDBRANCH   1   4
BRANCH   1  29
ATOM     29  C   UNL     1      39.911 135.414  13.484  1.00  0.00     0.098 C 
BRANCH  29  30
ATOM     30  N   UNL     1      39.580 136.376  12.418  1.00  0.00    -0.312 NA
ATOM     31  H   UNL     1      40.459 136.702  11.953  1.00  0.00     0.122 HD
BRANCH  30  32
ATOM     32  C   UNL     1      38.640 135.834  11.420  1.00  0.00     0.120 C 
BRANCH  32  33
ATOM     33  C   UNL     1      37.970 136.919  10.523  1.00  0.00     0.092 C 
ATOM     34  C   UNL     1      37.700 138.197  11.345  1.00  0.00     0.048 C 
BRANCH  33  35
ATOM     35  O   UNL     1      36.748 136.435  10.014  1.00  0.00    -0.385 OA
ATOM     36  H   UNL     1      36.101 137.194   9.987  1.00  0.00     0.211 HD
ENDBRANCH  33  35
BRANCH  33  37
ATOM     37  C   UNL     1      38.852 137.278   9.341  1.00  0.00     0.001 C 
ATOM     38  C   UNL     1      39.468 136.367   8.576  1.00  0.00     0.007 C 
ENDBRANCH  33  37
ENDBRANCH  32  33
ENDBRANCH  30  32
ENDBRANCH  29  30
ENDBRANCH   1  29
TORSDOF 13
ENDMDL
MODEL 5
REMARK VINA RESULT:      -5.3      3.602      6.321
REMARK SMILES C#C[C@](O)(c1cc(N)cc(SC(C)(C)CNC[C@](C)(O)C=C)ccc2cc1CC2)C(C)(C)C
REMARK SMILES IDX 12 1 13 2 14 3 11 4 10 5 5 6 6 7 27 8 7 9 26 10 28 11 9 12
REMARK SMILES IDX 25 13 29 14 24 15 23 16 3 17 2 18 1 19 4 20 30 22 31 23
REMARK SMILES IDX 32 24 33 25 8 26 15 29 16 30 17 32 18 33 19 34 20 35 21 37
REMARK SMILES IDX 22 38
REMARK H PARENT 4 21 8 27 8 28 16 31 20 36
ROOT
ATOM      1  C   UNL     1      45.235 131.159  15.469  1.00  0.00     0.027 C 
ATOM      2  C   UNL     1      45.682 132.632  15.519  1.00  0.00     0.024 C 
ATOM      3  C   UNL     1      45.874 130.462  14.252  1.00  0.00     0.024 C 
ENDROOT
BRANCH   1   4
ATOM      4  S   UNL     1      43.386 131.043  15.397  1.00  0.00    -0.118 SA
BRANCH   4   5
ATOM      5  C   UNL     1      42.946 132.739  15.835  1.00  0.00     0.010 A 
ATOM      6  C   UNL     1      43.681 135.993  18.745  1.00  0.00     0.002 A 
ATOM      7  C   UNL     1      43.010 134.745  18.898  1.00  0.00     0.033 A 
ATOM      8  C   UNL     1      43.886 136.522  17.450  1.00  0.00    -0.040 A 
ATOM      9  C   UNL     1      42.328 134.127  17.840  1.00  0.00     0.033 A 
ATOM     10  C   UNL     1      44.129 135.682  16.382  1.00  0.00     0.007 A 
ATOM     11  C   UNL     1      43.107 137.711  16.974  1.00  0.00     0.041 C 
ATOM     12  C   UNL     1      42.938 133.032  17.219  1.00  0.00     0.040 A 
ATOM     13  C   UNL     1      43.214 135.940  15.396  1.00  0.00    -0.047 A 
ATOM     14  C   UNL     1      42.656 137.313  15.562  1.00  0.00     0.040 C 
ATOM     15  C   UNL     1      42.591 134.977  14.592  1.00  0.00     0.005 A 
ATOM     16  C   UNL     1      42.572 133.571  14.748  1.00  0.00     0.015 A 
BRANCH   6  17
ATOM     17  C   UNL     1      44.219 136.761  19.965  1.00  0.00     0.155 C 
BRANCH  17  18
ATOM     18  C   UNL     1      45.459 137.480  19.558  1.00  0.00    -0.066 C 
ATOM     19  C   UNL     1      46.449 138.080  19.225  1.00  0.00     0.007 C 
ENDBRANCH  17  18
BRANCH  17  20
ATOM     20  O   UNL     1      44.562 135.809  20.957  1.00  0.00    -0.373 OA
ATOM     21  H   UNL     1      43.741 135.333  21.259  1.00  0.00     0.213 HD
ENDBRANCH  17  20
BRANCH  17  22
ATOM     22  C   UNL     1      43.136 137.768  20.559  1.00  0.00     0.006 C 
ATOM     23  C   UNL     1      41.681 137.369  20.195  1.00  0.00     0.015 C 
ATOM     24  C   UNL     1      43.376 139.204  20.025  1.00  0.00     0.015 C 
ATOM     25  C   UNL     1      43.244 137.824  22.105  1.00  0.00     0.015 C 
ENDBRANCH  17  22
ENDBRANCH   6  17
BRANCH   9  26
ATOM     26  N   UNL     1      41.185 134.773  17.259  1.00  0.00    -0.399 N 
ATOM     27  H   UNL     1      40.958 134.648  16.249  1.00  0.00     0.156 HD
ATOM     28  H   UNL     1      40.480 135.259  17.858  1.00  0.00     0.156 HD
ENDBRANCH   9  26
ENDBRANCH   4   5
ENDBRANCH   1   4
BRANCH   1  29
ATOM     29  C   UNL     1      45.714 130.429  16.750  1.00  0.00     0.098 C 
BRANCH  29  30
ATOM     30  N   UNL     1      45.672 131.321  17.922  1.00  0.00    -0.312 NA
ATOM     31  H   UNL     1      44.980 132.088  17.756  1.00  0.00     0.122 HD
BRANCH  30  32
ATOM     32  C   UNL     1      45.366 130.612  19.178  1.00  0.00     0.120 C 
BRANCH  32  33
ATOM     33  C   UNL     1      44.890 131.545  20.334  1.00  0.00     0.092 C 
ATOM     34  C   UNL     1      43.359 131.447  20.501  1.00  0.00     0.048 C 
BRANCH  33  35
ATOM     35  O   UNL     1      45.235 132.881  20.046  1.00  0.00    -0.385 OA
ATOM     36  H   UNL     1      44.511 133.471  20.399  1.00  0.00     0.211 HD
ENDBRANCH  33  35
BRANCH  33  37
ATOM     37  C   UNL     1      45.548 131.172  21.650  1.00  0.00     0.001 C 
ATOM     38  C   UNL     1      44.985 131.398  22.845  1.00  0.00     0.007 C 
ENDBRANCH  33  37
ENDBRANCH  32  33
ENDBRANCH  30  32
ENDBRANCH  29  30
ENDBRANCH   1  29
TORSDOF 13
ENDMDL
MODEL 6
REMARK VINA RESULT:      -5.3      3.781      7.803
REMARK SMILES C#C[C@](O)(c1cc(N)cc(SC(C)(C)CNC[C@](C)(O)C=C)ccc2cc1CC2)C(C)(C)C
REMARK SMILES IDX 12 1 13 2 14 3 11 4 10 5 5 6 6 7 27 8 7 9 26 10 28 11 9 12
REMARK SMILES IDX 25 13 29 14 24 15 23 16 3 17 2 18 1 19 4 20 30 22 31 23
REMARK SMILES IDX 32 24 33 25 8 26 15 29 16 30 17 32 18 33 19 34 20 35 21 37
REMARK SMILES IDX 22 38
REMARK H PARENT 4 21 8 27 8 28 16 31 20 36
ROOT
ATOM      1  C   UNL     1      43.683 136.996  19.192  1.00  0.00     0.027 C 
ATOM      2  C   UNL     1      43.182 138.169  20.055  1.00  0.00     0.024 C 
ATOM      3  C   UNL     1      43.847 137.458  17.731  1.00  0.00     0.024 C 
ENDROOT
BRANCH   1   4
ATOM      4  S   UNL     1      42.512 135.562  19.301  1.00  0.00    -0.118 SA
BRANCH   4   5
ATOM      5  C   UNL     1      42.829 134.774  17.707  1.00  0.00     0.010 A 
ATOM      6  C   UNL     1      45.124 131.573  15.685  1.00  0.00     0.002 A 
ATOM      7  C   UNL     1      45.556 132.800  16.266  1.00  0.00     0.033 A 
ATOM      8  C   UNL     1      43.760 131.401  15.349  1.00  0.00    -0.040 A 
ATOM      9  C   UNL     1      44.741 133.941  16.300  1.00  0.00     0.033 A 
ATOM     10  C   UNL     1      42.772 131.971  16.125  1.00  0.00     0.007 A 
ATOM     11  C   UNL     1      43.318 131.392  13.917  1.00  0.00     0.041 C 
ATOM     12  C   UNL     1      44.141 134.280  17.517  1.00  0.00     0.040 A 
ATOM     13  C   UNL     1      41.972 132.746  15.327  1.00  0.00    -0.047 A 
ATOM     14  C   UNL     1      42.087 132.307  13.906  1.00  0.00     0.040 C 
ATOM     15  C   UNL     1      41.432 133.990  15.678  1.00  0.00     0.005 A 
ATOM     16  C   UNL     1      41.752 134.814  16.783  1.00  0.00     0.015 A 
BRANCH   6  17
ATOM     17  C   UNL     1      46.108 130.414  15.450  1.00  0.00     0.155 C 
BRANCH  17  18
ATOM     18  C   UNL     1      45.357 129.131  15.556  1.00  0.00    -0.066 C 
ATOM     19  C   UNL     1      44.762 128.090  15.660  1.00  0.00     0.007 C 
ENDBRANCH  17  18
BRANCH  17  20
ATOM     20  O   UNL     1      47.073 130.451  16.487  1.00  0.00    -0.373 OA
ATOM     21  H   UNL     1      46.850 131.184  17.122  1.00  0.00     0.213 HD
ENDBRANCH  17  20
BRANCH  17  22
ATOM     22  C   UNL     1      46.846 130.537  14.043  1.00  0.00     0.006 C 
ATOM     23  C   UNL     1      47.897 129.419  13.815  1.00  0.00     0.015 C 
ATOM     24  C   UNL     1      47.578 131.900  13.929  1.00  0.00     0.015 C 
ATOM     25  C   UNL     1      45.815 130.468  12.887  1.00  0.00     0.015 C 
ENDBRANCH  17  22
ENDBRANCH   6  17
BRANCH   9  26
ATOM     26  N   UNL     1      44.336 134.561  15.070  1.00  0.00    -0.399 N 
ATOM     27  H   UNL     1      43.336 134.556  14.775  1.00  0.00     0.156 HD
ATOM     28  H   UNL     1      45.001 135.151  14.521  1.00  0.00     0.156 HD
ENDBRANCH   9  26
ENDBRANCH   4   5
ENDBRANCH   1   4
BRANCH   1  29
ATOM     29  C   UNL     1      45.067 136.527  19.708  1.00  0.00     0.098 C 
BRANCH  29  30
ATOM     30  N   UNL     1      44.929 135.587  20.835  1.00  0.00    -0.312 NA
ATOM     31  H   UNL     1      44.759 134.622  20.468  1.00  0.00     0.122 HD
BRANCH  30  32
ATOM     32  C   UNL     1      46.089 135.598  21.744  1.00  0.00     0.120 C 
BRANCH  32  33
ATOM     33  C   UNL     1      46.524 134.184  22.236  1.00  0.00     0.092 C 
ATOM     34  C   UNL     1      46.386 134.088  23.770  1.00  0.00     0.048 C 
BRANCH  33  35
ATOM     35  O   UNL     1      47.868 133.944  21.881  1.00  0.00    -0.385 OA
ATOM     36  H   UNL     1      48.059 132.976  22.030  1.00  0.00     0.211 HD
ENDBRANCH  33  35
BRANCH  33  37
ATOM     37  C   UNL     1      45.678 133.095  21.603  1.00  0.00     0.001 C 
ATOM     38  C   UNL     1      46.177 131.926  21.180  1.00  0.00     0.007 C 
ENDBRANCH  33  37
ENDBRANCH  32  33
ENDBRANCH  30  32
ENDBRANCH  29  30
ENDBRANCH   1  29
TORSDOF 13
ENDMDL
MODEL 7
REMARK VINA RESULT:      -5.2      2.822      5.902
REMARK SMILES C#C[C@](O)(c1cc(N)cc(SC(C)(C)CNC[C@](C)(O)C=C)ccc2cc1CC2)C(C)(C)C
REMARK SMILES IDX 12 1 13 2 14 3 11 4 10 5 5 6 6 7 27 8 7 9 26 10 28 11 9 12
REMARK SMILES IDX 25 13 29 14 24 15 23 16 3 17 2 18 1 19 4 20 30 22 31 23
REMARK SMILES IDX 32 24 33 25 8 26 15 29 16 30 17 32 18 33 19 34 20 35 21 37
REMARK SMILES IDX 22 38
REMARK H PARENT 4 21 8 27 8 28 16 31 20 36
ROOT
ATOM      1  C   UNL     1      45.339 131.687  15.657  1.00  0.00     0.027 C 
ATOM      2  C   UNL     1      45.189 133.171  16.041  1.00  0.00     0.024 C 
ATOM      3  C   UNL     1      46.441 131.535  14.591  1.00  0.00     0.024 C 
ENDROOT
BRANCH   1   4
ATOM      4  S   UNL     1      43.727 131.010  15.038  1.00  0.00    -0.118 SA
BRANCH   4   5
ATOM      5  C   UNL     1      42.656 132.436  15.322  1.00  0.00     0.010 A 
ATOM      6  C   UNL     1      41.884 135.856  18.025  1.00  0.00     0.002 A 
ATOM      7  C   UNL     1      41.712 134.456  18.227  1.00  0.00     0.033 A 
ATOM      8  C   UNL     1      41.989 136.365  16.709  1.00  0.00    -0.040 A 
ATOM      9  C   UNL     1      41.399 133.581  17.176  1.00  0.00     0.033 A 
ATOM     10  C   UNL     1      42.616 135.629  15.724  1.00  0.00     0.007 A 
ATOM     11  C   UNL     1      40.870 137.153  16.099  1.00  0.00     0.041 C 
ATOM     12  C   UNL     1      42.421 132.767  16.677  1.00  0.00     0.040 A 
ATOM     13  C   UNL     1      41.758 135.482  14.666  1.00  0.00    -0.047 A 
ATOM     14  C   UNL     1      40.720 136.552  14.696  1.00  0.00     0.040 C 
ATOM     15  C   UNL     1      41.606 134.321  13.898  1.00  0.00     0.005 A 
ATOM     16  C   UNL     1      42.095 133.018  14.155  1.00  0.00     0.015 A 
BRANCH   6  17
ATOM     17  C   UNL     1      41.994 136.824  19.217  1.00  0.00     0.155 C 
BRANCH  17  18
ATOM     18  C   UNL     1      41.624 136.085  20.457  1.00  0.00    -0.066 C 
ATOM     19  C   UNL     1      41.344 135.495  21.469  1.00  0.00     0.007 C 
ENDBRANCH  17  18
BRANCH  17  20
ATOM     20  O   UNL     1      41.050 137.861  19.018  1.00  0.00    -0.373 OA
ATOM     21  H   UNL     1      40.306 137.764  19.672  1.00  0.00     0.213 HD
ENDBRANCH  17  20
BRANCH  17  22
ATOM     22  C   UNL     1      43.451 137.457  19.334  1.00  0.00     0.006 C 
ATOM     23  C   UNL     1      43.732 138.527  18.245  1.00  0.00     0.015 C 
ATOM     24  C   UNL     1      44.536 136.357  19.202  1.00  0.00     0.015 C 
ATOM     25  C   UNL     1      43.637 138.125  20.721  1.00  0.00     0.015 C 
ENDBRANCH  17  22
ENDBRANCH   6  17
BRANCH   9  26
ATOM     26  N   UNL     1      40.152 133.726  16.480  1.00  0.00    -0.399 N 
ATOM     27  H   UNL     1      39.285 133.272  16.841  1.00  0.00     0.156 HD
ATOM     28  H   UNL     1      40.054 134.400  15.688  1.00  0.00     0.156 HD
ENDBRANCH   9  26
ENDBRANCH   4   5
ENDBRANCH   1   4
BRANCH   1  29
ATOM     29  C   UNL     1      45.757 130.869  16.905  1.00  0.00     0.098 C 
BRANCH  29  30
ATOM     30  N   UNL     1      44.963 131.250  18.087  1.00  0.00    -0.312 NA
ATOM     31  H   UNL     1      44.010 130.822  18.023  1.00  0.00     0.122 HD
BRANCH  30  32
ATOM     32  C   UNL     1      45.610 130.885  19.361  1.00  0.00     0.120 C 
BRANCH  32  33
ATOM     33  C   UNL     1      45.156 131.753  20.574  1.00  0.00     0.092 C 
ATOM     34  C   UNL     1      43.939 132.619  20.185  1.00  0.00     0.048 C 
BRANCH  33  35
ATOM     35  O   UNL     1      46.209 132.599  20.980  1.00  0.00    -0.385 OA
ATOM     36  H   UNL     1      47.056 132.253  20.583  1.00  0.00     0.211 HD
ENDBRANCH  33  35
BRANCH  33  37
ATOM     37  C   UNL     1      44.777 130.886  21.761  1.00  0.00     0.001 C 
ATOM     38  C   UNL     1      44.826 131.312  23.030  1.00  0.00     0.007 C 
ENDBRANCH  33  37
ENDBRANCH  32  33
ENDBRANCH  30  32
ENDBRANCH  29  30
ENDBRANCH   1  29
TORSDOF 13
ENDMDL
MODEL 8
REMARK VINA RESULT:      -5.2      2.349      4.078
REMARK SMILES C#C[C@](O)(c1cc(N)cc(SC(C)(C)CNC[C@](C)(O)C=C)ccc2cc1CC2)C(C)(C)C
REMARK SMILES IDX 12 1 13 2 14 3 11 4 10 5 5 6 6 7 27 8 7 9 26 10 28 11 9 12
REMARK SMILES IDX 25 13 29 14 24 15 23 16 3 17 2 18 1 19 4 20 30 22 31 23
REMARK SMILES IDX 32 24 33 25 8 26 15 29 16 30 17 32 18 33 19 34 20 35 21 37
REMARK SMILES IDX 22 38
REMARK H PARENT 4 21 8 27 8 28 16 31 20 36
ROOT
ATOM      1  C   UNL     1      45.490 130.925  15.456  1.00  0.00     0.027 C 
ATOM      2  C   UNL     1      46.704 131.449  14.666  1.00  0.00     0.024 C 
ATOM      3  C   UNL     1      45.661 129.420  15.734  1.00  0.00     0.024 C 
ENDROOT
BRANCH   1   4
ATOM      4  S   UNL     1      43.920 131.248  14.524  1.00  0.00    -0.118 SA
BRANCH   4   5
ATOM      5  C   UNL     1      43.152 132.468  15.613  1.00  0.00     0.010 A 
ATOM      6  C   UNL     1      40.975 136.321  15.707  1.00  0.00     0.002 A 
ATOM      7  C   UNL     1      42.330 136.028  15.378  1.00  0.00     0.033 A 
ATOM      8  C   UNL     1      40.216 135.382  16.443  1.00  0.00    -0.040 A 
ATOM      9  C   UNL     1      43.026 134.956  15.956  1.00  0.00     0.033 A 
ATOM     10  C   UNL     1      40.413 134.028  16.261  1.00  0.00     0.007 A 
ATOM     11  C   UNL     1      39.856 135.639  17.875  1.00  0.00     0.041 C 
ATOM     12  C   UNL     1      43.227 133.812  15.178  1.00  0.00     0.040 A 
ATOM     13  C   UNL     1      40.687 133.452  17.474  1.00  0.00    -0.047 A 
ATOM     14  C   UNL     1      40.171 134.312  18.578  1.00  0.00     0.040 C 
ATOM     15  C   UNL     1      41.627 132.439  17.700  1.00  0.00     0.005 A 
ATOM     16  C   UNL     1      42.634 131.955  16.831  1.00  0.00     0.015 A 
BRANCH   6  17
ATOM     17  C   UNL     1      40.309 137.628  15.243  1.00  0.00     0.155 C 
BRANCH  17  18
ATOM     18  C   UNL     1      41.368 138.533  14.712  1.00  0.00    -0.066 C 
ATOM     19  C   UNL     1      42.208 139.276  14.275  1.00  0.00     0.007 C 
ENDBRANCH  17  18
BRANCH  17  20
ATOM     20  O   UNL     1      39.727 138.243  16.380  1.00  0.00    -0.373 OA
ATOM     21  H   UNL     1      38.760 138.013  16.423  1.00  0.00     0.213 HD
ENDBRANCH  17  20
BRANCH  17  22
ATOM     22  C   UNL     1      39.176 137.364  14.154  1.00  0.00     0.006 C 
ATOM     23  C   UNL     1      37.791 137.067  14.787  1.00  0.00     0.015 C 
ATOM     24  C   UNL     1      39.552 136.154  13.259  1.00  0.00     0.015 C 
ATOM     25  C   UNL     1      39.024 138.596  13.225  1.00  0.00     0.015 C 
ENDBRANCH  17  22
ENDBRANCH   6  17
BRANCH   9  26
ATOM     26  N   UNL     1      43.273 134.951  17.370  1.00  0.00    -0.399 N 
ATOM     27  H   UNL     1      43.890 134.228  17.800  1.00  0.00     0.156 HD
ATOM     28  H   UNL     1      42.966 135.747  17.973  1.00  0.00     0.156 HD
ENDBRANCH   9  26
ENDBRANCH   4   5
ENDBRANCH   1   4
BRANCH   1  29
ATOM     29  C   UNL     1      45.402 131.661  16.817  1.00  0.00     0.098 C 
BRANCH  29  30
ATOM     30  N   UNL     1      45.919 130.824  17.914  1.00  0.00    -0.312 NA
ATOM     31  H   UNL     1      46.799 131.244  18.292  1.00  0.00     0.122 HD
BRANCH  30  32
ATOM     32  C   UNL     1      44.938 130.617  18.996  1.00  0.00     0.120 C 
BRANCH  32  33
ATOM     33  C   UNL     1      45.189 131.499  20.257  1.00  0.00     0.092 C 
ATOM     34  C   UNL     1      46.696 131.531  20.594  1.00  0.00     0.048 C 
BRANCH  33  35
ATOM     35  O   UNL     1      44.485 130.973  21.359  1.00  0.00    -0.385 OA
ATOM     36  H   UNL     1      45.024 131.143  22.182  1.00  0.00     0.211 HD
ENDBRANCH  33  35
BRANCH  33  37
ATOM     37  C   UNL     1      44.710 132.923  20.039  1.00  0.00     0.001 C 
ATOM     38  C   UNL     1      43.635 133.440  20.649  1.00  0.00     0.007 C 
ENDBRANCH  33  37
ENDBRANCH  32  33
ENDBRANCH  30  32
ENDBRANCH  29  30
ENDBRANCH   1  29
TORSDOF 13
ENDMDL
MODEL 9
REMARK VINA RESULT:      -5.2      2.138      2.670
REMARK SMILES C#C[C@](O)(c1cc(N)cc(SC(C)(C)CNC[C@](C)(O)C=C)ccc2cc1CC2)C(C)(C)C
REMARK SMILES IDX 12 1 13 2 14 3 11 4 10 5 5 6 6 7 27 8 7 9 26 10 28 11 9 12
REMARK SMILES IDX 25 13 29 14 24 15 23 16 3 17 2 18 1 19 4 20 30 22 31 23
REMARK SMILES IDX 32 24 33 25 8 26 15 29 16 30 17 32 18 33 19 34 20 35 21 37
REMARK SMILES IDX 22 38
REMARK H PARENT 4 21 8 27 8 28 16 31 20 36
ROOT
ATOM      1  C   UNL     1      43.597 132.307  19.112  1.00  0.00     0.027 C 
ATOM      2  C   UNL     1      42.251 131.907  19.744  1.00  0.00     0.024 C 
ATOM      3  C   UNL     1      44.725 131.434  19.695  1.00  0.00     0.024 C 
ENDROOT
BRANCH   1   4
ATOM      4  S   UNL     1      43.942 134.106  19.398  1.00  0.00    -0.118 SA
BRANCH   4   5
ATOM      5  C   UNL     1      42.266 134.770  19.281  1.00  0.00     0.010 A 
ATOM      6  C   UNL     1      38.852 135.418  16.538  1.00  0.00     0.002 A 
ATOM      7  C   UNL     1      40.139 136.029  16.579  1.00  0.00     0.033 A 
ATOM      8  C   UNL     1      38.362 134.743  17.680  1.00  0.00    -0.040 A 
ATOM      9  C   UNL     1      40.848 136.203  17.777  1.00  0.00     0.033 A 
ATOM     10  C   UNL     1      39.225 134.054  18.508  1.00  0.00     0.007 A 
ATOM     11  C   UNL     1      37.254 135.330  18.502  1.00  0.00     0.041 C 
ATOM     12  C   UNL     1      41.919 135.342  18.034  1.00  0.00     0.040 A 
ATOM     13  C   UNL     1      39.075 134.515  19.790  1.00  0.00    -0.047 A 
ATOM     14  C   UNL     1      37.740 135.164  19.947  1.00  0.00     0.040 C 
ATOM     15  C   UNL     1      40.112 134.719  20.708  1.00  0.00     0.005 A 
ATOM     16  C   UNL     1      41.509 134.725  20.480  1.00  0.00     0.015 A 
BRANCH   6  17
ATOM     17  C   UNL     1      37.999 135.448  15.258  1.00  0.00     0.155 C 
BRANCH  17  18
ATOM     18  C   UNL     1      37.586 136.857  15.001  1.00  0.00    -0.066 C 
ATOM     19  C   UNL     1      37.247 137.997  14.816  1.00  0.00     0.007 C 
ENDBRANCH  17  18
BRANCH  17  20
ATOM     20  O   UNL     1      36.833 134.679  15.499  1.00  0.00    -0.373 OA
ATOM     21  H   UNL     1      36.693 134.043  14.747  1.00  0.00     0.213 HD
ENDBRANCH  17  20
BRANCH  17  22
ATOM     22  C   UNL     1      38.779 134.838  14.010  1.00  0.00     0.006 C 
ATOM     23  C   UNL     1      39.786 133.728  14.413  1.00  0.00     0.015 C 
ATOM     24  C   UNL     1      39.573 135.945  13.269  1.00  0.00     0.015 C 
ATOM     25  C   UNL     1      37.777 134.229  12.995  1.00  0.00     0.015 C 
ENDBRANCH  17  22
ENDBRANCH   6  17
BRANCH   9  26
ATOM     26  N   UNL     1      40.311 137.054  18.801  1.00  0.00    -0.399 N 
ATOM     27  H   UNL     1      40.929 137.450  19.542  1.00  0.00     0.156 HD
ATOM     28  H   UNL     1      39.331 137.412  18.744  1.00  0.00     0.156 HD
ENDBRANCH   9  26
ENDBRANCH   4   5
ENDBRANCH   1   4
BRANCH   1  29
ATOM     29  C   UNL     1      43.543 132.065  17.581  1.00  0.00     0.098 C 
BRANCH  29  30
ATOM     30  N   UNL     1      44.804 132.462  16.931  1.00  0.00    -0.312 NA
ATOM     31  H   UNL     1      45.360 133.066  17.580  1.00  0.00     0.122 HD
BRANCH  30  32
ATOM     32  C   UNL     1      45.609 131.312  16.479  1.00  0.00     0.120 C 
BRANCH  32  33
ATOM     33  C   UNL     1      45.607 131.103  14.934  1.00  0.00     0.092 C 
ATOM     34  C   UNL     1      46.962 131.538  14.335  1.00  0.00     0.048 C 
BRANCH  33  35
ATOM     35  O   UNL     1      44.580 131.870  14.346  1.00  0.00    -0.385 OA
ATOM     36  H   UNL     1      44.232 132.503  15.035  1.00  0.00     0.211 HD
ENDBRANCH  33  35
BRANCH  33  37
ATOM     37  C   UNL     1      45.361 129.649  14.573  1.00  0.00     0.001 C 
ATOM     38  C   UNL     1      45.116 128.696  15.482  1.00  0.00     0.007 C 
ENDBRANCH  33  37
ENDBRANCH  32  33
ENDBRANCH  30  32
ENDBRANCH  29  30
ENDBRANCH   1  29
TORSDOF 13
ENDMDL


