MODEL 1
REMARK VINA RESULT:      -6.1      0.000      0.000
REMARK SMILES CC[C@H]1C[C@]1(N)C(=O)Oc1ccccc(O)c(NC2(CF)COC2)c(N=[N+]=[N-])c(Cl)c1Cl
REMARK SMILES IDX 15 1 14 2 13 3 12 4 11 5 10 6 31 7 32 8 29 9 30 10 25 11
REMARK SMILES IDX 17 12 16 13 18 15 19 17 22 18 24 19 23 20 20 21 21 22 26 23
REMARK SMILES IDX 27 24 28 25 9 26 7 27 8 28 5 29 4 30 3 31 6 32 2 35 1 36
REMARK H PARENT 16 14 18 16 6 33 6 34
ROOT
ATOM      1  C   UNL     1      42.559 135.319  19.194  1.00  0.00     0.139 A 
ATOM      2  C   UNL     1      42.380 134.202  20.045  1.00  0.00     0.048 A 
ATOM      3  C   UNL     1      41.889 132.938  19.665  1.00  0.00     0.004 A 
ATOM      4  C   UNL     1      41.873 132.461  18.351  1.00  0.00     0.004 A 
ATOM      5  C   UNL     1      42.827 132.856  17.410  1.00  0.00     0.049 A 
ATOM      6  C   UNL     1      42.510 133.187  16.078  1.00  0.00     0.151 A 
ATOM      7  C   UNL     1      41.230 133.633  15.674  1.00  0.00     0.102 A 
ATOM      8  Cl  UNL     1      40.829 133.418  13.964  1.00  0.00    -0.079 Cl
ATOM      9  C   UNL     1      40.286 134.290  16.510  1.00  0.00     0.075 A 
ATOM     10  Cl  UNL     1      38.606 134.354  15.959  1.00  0.00    -0.082 Cl
ATOM     11  C   UNL     1      40.610 134.940  17.732  1.00  0.00     0.085 A 
ATOM     12  C   UNL     1      41.883 135.501  17.964  1.00  0.00     0.088 A 
ENDROOT
BRANCH   1  13
ATOM     13  O   UNL     1      43.463 136.307  19.585  1.00  0.00    -0.506 OA
ATOM     14  H   UNL     1      44.134 136.705  18.938  1.00  0.00     0.293 HD
ENDBRANCH   1  13
BRANCH  12  15
ATOM     15  N   UNL     1      42.509 136.322  16.963  1.00  0.00    -0.369 N 
ATOM     16  H   UNL     1      43.501 136.100  16.713  1.00  0.00     0.161 HD
BRANCH  15  17
ATOM     17  C   UNL     1      41.957 137.589  16.454  1.00  0.00     0.113 C 
ATOM     18  C   UNL     1      41.144 138.390  17.460  1.00  0.00     0.193 C 
ATOM     19  C   UNL     1      42.939 138.738  16.614  1.00  0.00     0.193 C 
ATOM     20  O   UNL     1      42.107 139.413  17.528  1.00  0.00    -0.376 OA
BRANCH  17  21
ATOM     21  C   UNL     1      41.346 137.469  15.047  1.00  0.00     0.247 C 
ATOM     22  F   UNL     1      41.483 138.646  14.330  1.00  0.00    -0.248 F 
ENDBRANCH  17  21
ENDBRANCH  15  17
ENDBRANCH  12  15
BRANCH  11  23
ATOM     23  N   UNL     1      39.658 135.010  18.810  1.00  0.00    -0.057 NA
BRANCH  23  24
ATOM     24  N   UNL     1      39.038 136.037  19.086  1.00  0.00     0.005 N 
ATOM     25  N   UNL     1      38.415 137.059  19.361  1.00  0.00    -0.003 NA
ENDBRANCH  23  24
ENDBRANCH  11  23
BRANCH   6  26
ATOM     26  O   UNL     1      43.489 133.070  15.078  1.00  0.00    -0.424 OA
BRANCH  26  27
ATOM     27  C   UNL     1      44.778 132.554  15.253  1.00  0.00     0.331 C 
ATOM     28  O   UNL     1      45.736 133.295  15.604  1.00  0.00    -0.250 OA
BRANCH  27  29
ATOM     29  C   UNL     1      45.022 131.103  14.981  1.00  0.00     0.118 C 
ATOM     30  C   UNL     1      44.435 130.557  13.688  1.00  0.00     0.040 C 
ATOM     31  C   UNL     1      45.947 130.722  13.830  1.00  0.00     0.022 C 
BRANCH  29  32
ATOM     32  N   UNL     1      44.942 130.178  16.106  1.00  0.00    -0.316 NA
ATOM     33  H   UNL     1      44.656 130.724  16.949  1.00  0.00     0.119 HD
ATOM     34  H   UNL     1      45.904 129.813  16.287  1.00  0.00     0.119 HD
ENDBRANCH  29  32
BRANCH  31  35
ATOM     35  C   UNL     1      46.746 129.419  13.986  1.00  0.00     0.003 C 
ATOM     36  C   UNL     1      48.137 129.571  13.383  1.00  0.00     0.004 C 
ENDBRANCH  31  35
ENDBRANCH  27  29
ENDBRANCH  26  27
ENDBRANCH   6  26
TORSDOF 11
ENDMDL
MODEL 2
REMARK VINA RESULT:      -5.9      2.644      3.462
REMARK SMILES CC[C@H]1C[C@]1(N)C(=O)Oc1ccccc(O)c(NC2(CF)COC2)c(N=[N+]=[N-])c(Cl)c1Cl
REMARK SMILES IDX 15 1 14 2 13 3 12 4 11 5 10 6 31 7 32 8 29 9 30 10 25 11
REMARK SMILES IDX 17 12 16 13 18 15 19 17 22 18 24 19 23 20 20 21 21 22 26 23
REMARK SMILES IDX 27 24 28 25 9 26 7 27 8 28 5 29 4 30 3 31 6 32 2 35 1 36
REMARK H PARENT 16 14 18 16 6 33 6 34
ROOT
ATOM      1  C   UNL     1      42.222 137.072  15.785  1.00  0.00     0.139 A 
ATOM      2  C   UNL     1      43.162 137.665  16.662  1.00  0.00     0.048 A 
ATOM      3  C   UNL     1      43.709 137.073  17.816  1.00  0.00     0.004 A 
ATOM      4  C   UNL     1      43.724 135.698  18.065  1.00  0.00     0.004 A 
ATOM      5  C   UNL     1      43.775 134.759  17.032  1.00  0.00     0.049 A 
ATOM      6  C   UNL     1      42.996 133.587  17.011  1.00  0.00     0.151 A 
ATOM      7  C   UNL     1      41.775 133.455  17.712  1.00  0.00     0.102 A 
ATOM      8  Cl  UNL     1      41.257 131.804  18.079  1.00  0.00    -0.079 Cl
ATOM      9  C   UNL     1      40.915 134.528  18.076  1.00  0.00     0.075 A 
ATOM     10  Cl  UNL     1      39.697 134.217  19.320  1.00  0.00    -0.082 Cl
ATOM     11  C   UNL     1      40.938 135.815  17.474  1.00  0.00     0.085 A 
ATOM     12  C   UNL     1      41.358 136.009  16.142  1.00  0.00     0.088 A 
ENDROOT
BRANCH   1  13
ATOM     13  O   UNL     1      42.137 137.561  14.482  1.00  0.00    -0.506 OA
ATOM     14  H   UNL     1      41.542 138.346  14.242  1.00  0.00     0.293 HD
ENDBRANCH   1  13
BRANCH  12  15
ATOM     15  N   UNL     1      40.876 135.149  15.094  1.00  0.00    -0.369 N 
ATOM     16  H   UNL     1      41.588 134.602  14.557  1.00  0.00     0.161 HD
BRANCH  15  17
ATOM     17  C   UNL     1      39.504 135.171  14.560  1.00  0.00     0.113 C 
ATOM     18  C   UNL     1      38.842 136.541  14.534  1.00  0.00     0.193 C 
ATOM     19  C   UNL     1      39.490 135.343  13.049  1.00  0.00     0.193 C 
ATOM     20  O   UNL     1      38.860 136.600  13.128  1.00  0.00    -0.376 OA
BRANCH  17  21
ATOM     21  C   UNL     1      38.627 134.017  15.074  1.00  0.00     0.247 C 
ATOM     22  F   UNL     1      37.397 133.988  14.439  1.00  0.00    -0.248 F 
ENDBRANCH  17  21
ENDBRANCH  15  17
ENDBRANCH  12  15
BRANCH  11  23
ATOM     23  N   UNL     1      40.574 136.990  18.223  1.00  0.00    -0.057 NA
BRANCH  23  24
ATOM     24  N   UNL     1      40.802 137.110  19.427  1.00  0.00     0.005 N 
ATOM     25  N   UNL     1      41.034 137.230  20.627  1.00  0.00    -0.003 NA
ENDBRANCH  23  24
ENDBRANCH  11  23
BRANCH   6  26
ATOM     26  O   UNL     1      43.431 132.473  16.275  1.00  0.00    -0.424 OA
BRANCH  26  27
ATOM     27  C   UNL     1      44.501 131.636  16.614  1.00  0.00     0.331 C 
ATOM     28  O   UNL     1      44.579 131.106  17.756  1.00  0.00    -0.250 OA
BRANCH  27  29
ATOM     29  C   UNL     1      45.586 131.403  15.611  1.00  0.00     0.118 C 
ATOM     30  C   UNL     1      46.510 130.225  15.886  1.00  0.00     0.040 C 
ATOM     31  C   UNL     1      45.512 130.160  14.731  1.00  0.00     0.022 C 
BRANCH  29  32
ATOM     32  N   UNL     1      46.263 132.571  15.058  1.00  0.00    -0.316 NA
ATOM     33  H   UNL     1      45.542 133.308  14.888  1.00  0.00     0.119 HD
ATOM     34  H   UNL     1      46.654 132.302  14.127  1.00  0.00     0.119 HD
ENDBRANCH  29  32
BRANCH  31  35
ATOM     35  C   UNL     1      46.116 130.271  13.323  1.00  0.00     0.003 C 
ATOM     36  C   UNL     1      47.462 129.558  13.262  1.00  0.00     0.004 C 
ENDBRANCH  31  35
ENDBRANCH  27  29
ENDBRANCH  26  27
ENDBRANCH   6  26
TORSDOF 11
ENDMDL
MODEL 3
REMARK VINA RESULT:      -5.9      2.431      3.180
REMARK SMILES CC[C@H]1C[C@]1(N)C(=O)Oc1ccccc(O)c(NC2(CF)COC2)c(N=[N+]=[N-])c(Cl)c1Cl
REMARK SMILES IDX 15 1 14 2 13 3 12 4 11 5 10 6 31 7 32 8 29 9 30 10 25 11
REMARK SMILES IDX 17 12 16 13 18 15 19 17 22 18 24 19 23 20 20 21 21 22 26 23
REMARK SMILES IDX 27 24 28 25 9 26 7 27 8 28 5 29 4 30 3 31 6 32 2 35 1 36
REMARK H PARENT 16 14 18 16 6 33 6 34
ROOT
ATOM      1  C   UNL     1      42.548 137.067  16.048  1.00  0.00     0.139 A 
ATOM      2  C   UNL     1      43.478 137.623  16.958  1.00  0.00     0.048 A 
ATOM      3  C   UNL     1      44.017 136.982  18.090  1.00  0.00     0.004 A 
ATOM      4  C   UNL     1      44.033 135.597  18.279  1.00  0.00     0.004 A 
ATOM      5  C   UNL     1      44.097 134.706  17.205  1.00  0.00     0.049 A 
ATOM      6  C   UNL     1      43.321 133.533  17.125  1.00  0.00     0.151 A 
ATOM      7  C   UNL     1      42.095 133.367  17.808  1.00  0.00     0.102 A 
ATOM      8  Cl  UNL     1      41.578 131.699  18.098  1.00  0.00    -0.079 Cl
ATOM      9  C   UNL     1      41.228 134.420  18.212  1.00  0.00     0.075 A 
ATOM     10  Cl  UNL     1      40.000 134.052  19.430  1.00  0.00    -0.082 Cl
ATOM     11  C   UNL     1      41.253 135.733  17.668  1.00  0.00     0.085 A 
ATOM     12  C   UNL     1      41.684 135.987  16.349  1.00  0.00     0.088 A 
ENDROOT
BRANCH   1  13
ATOM     13  O   UNL     1      42.473 137.613  14.767  1.00  0.00    -0.506 OA
ATOM     14  H   UNL     1      42.112 137.086  13.980  1.00  0.00     0.293 HD
ENDBRANCH   1  13
BRANCH  12  15
ATOM     15  N   UNL     1      41.214 135.173  15.260  1.00  0.00    -0.369 N 
ATOM     16  H   UNL     1      41.927 134.614  14.738  1.00  0.00     0.161 HD
BRANCH  15  17
ATOM     17  C   UNL     1      39.867 135.261  14.672  1.00  0.00     0.113 C 
ATOM     18  C   UNL     1      38.799 134.436  15.377  1.00  0.00     0.193 C 
ATOM     19  C   UNL     1      39.077 136.428  15.242  1.00  0.00     0.193 C 
ATOM     20  O   UNL     1      38.127 135.581  15.846  1.00  0.00    -0.376 OA
BRANCH  17  21
ATOM     21  C   UNL     1      39.863 135.184  13.135  1.00  0.00     0.247 C 
ATOM     22  F   UNL     1      39.204 136.265  12.573  1.00  0.00    -0.248 F 
ENDBRANCH  17  21
ENDBRANCH  15  17
ENDBRANCH  12  15
BRANCH  11  23
ATOM     23  N   UNL     1      40.879 136.873  18.464  1.00  0.00    -0.057 NA
BRANCH  23  24
ATOM     24  N   UNL     1      41.112 136.948  19.671  1.00  0.00     0.005 N 
ATOM     25  N   UNL     1      41.349 137.021  20.874  1.00  0.00    -0.003 NA
ENDBRANCH  23  24
ENDBRANCH  11  23
BRANCH   6  26
ATOM     26  O   UNL     1      43.767 132.454  16.344  1.00  0.00    -0.424 OA
BRANCH  26  27
ATOM     27  C   UNL     1      44.724 131.508  16.729  1.00  0.00     0.331 C 
ATOM     28  O   UNL     1      45.084 131.393  17.932  1.00  0.00    -0.250 OA
BRANCH  27  29
ATOM     29  C   UNL     1      45.356 130.647  15.680  1.00  0.00     0.118 C 
ATOM     30  C   UNL     1      44.666 130.630  14.323  1.00  0.00     0.040 C 
ATOM     31  C   UNL     1      46.019 131.321  14.484  1.00  0.00     0.022 C 
BRANCH  29  32
ATOM     32  N   UNL     1      45.885 129.351  16.093  1.00  0.00    -0.316 NA
ATOM     33  H   UNL     1      45.298 128.610  15.648  1.00  0.00     0.119 HD
ATOM     34  H   UNL     1      45.754 129.268  17.126  1.00  0.00     0.119 HD
ENDBRANCH  29  32
BRANCH  31  35
ATOM     35  C   UNL     1      47.216 130.593  13.855  1.00  0.00     0.003 C 
ATOM     36  C   UNL     1      47.163 130.693  12.335  1.00  0.00     0.004 C 
ENDBRANCH  31  35
ENDBRANCH  27  29
ENDBRANCH  26  27
ENDBRANCH   6  26
TORSDOF 11
ENDMDL
MODEL 4
REMARK VINA RESULT:      -5.9      2.422      3.316
REMARK SMILES CC[C@H]1C[C@]1(N)C(=O)Oc1ccccc(O)c(NC2(CF)COC2)c(N=[N+]=[N-])c(Cl)c1Cl
REMARK SMILES IDX 15 1 14 2 13 3 12 4 11 5 10 6 31 7 32 8 29 9 30 10 25 11
REMARK SMILES IDX 17 12 16 13 18 15 19 17 22 18 24 19 23 20 20 21 21 22 26 23
REMARK SMILES IDX 27 24 28 25 9 26 7 27 8 28 5 29 4 30 3 31 6 32 2 35 1 36
REMARK H PARENT 16 14 18 16 6 33 6 34
ROOT
ATOM      1  C   UNL     1      42.675 136.860  16.251  1.00  0.00     0.139 A 
ATOM      2  C   UNL     1      43.728 137.288  17.096  1.00  0.00     0.048 A 
ATOM      3  C   UNL     1      44.288 136.555  18.159  1.00  0.00     0.004 A 
ATOM      4  C   UNL     1      44.181 135.169  18.305  1.00  0.00     0.004 A 
ATOM      5  C   UNL     1      44.068 134.317  17.204  1.00  0.00     0.049 A 
ATOM      6  C   UNL     1      43.175 133.229  17.155  1.00  0.00     0.151 A 
ATOM      7  C   UNL     1      41.997 133.158  17.934  1.00  0.00     0.102 A 
ATOM      8  Cl  UNL     1      41.341 131.540  18.216  1.00  0.00    -0.079 Cl
ATOM      9  C   UNL     1      41.276 134.275  18.439  1.00  0.00     0.075 A 
ATOM     10  Cl  UNL     1      40.119 133.983  19.745  1.00  0.00    -0.082 Cl
ATOM     11  C   UNL     1      41.388 135.599  17.934  1.00  0.00     0.085 A 
ATOM     12  C   UNL     1      41.735 135.859  16.592  1.00  0.00     0.088 A 
ENDROOT
BRANCH   1  13
ATOM     13  O   UNL     1      42.553 137.459  14.997  1.00  0.00    -0.506 OA
ATOM     14  H   UNL     1      42.137 136.974  14.211  1.00  0.00     0.293 HD
ENDBRANCH   1  13
BRANCH  12  15
ATOM     15  N   UNL     1      41.099 135.136  15.523  1.00  0.00    -0.369 N 
ATOM     16  H   UNL     1      41.693 134.472  14.974  1.00  0.00     0.161 HD
BRANCH  15  17
ATOM     17  C   UNL     1      39.762 135.442  14.987  1.00  0.00     0.113 C 
ATOM     18  C   UNL     1      39.746 136.014  13.577  1.00  0.00     0.193 C 
ATOM     19  C   UNL     1      39.139 134.235  14.303  1.00  0.00     0.193 C 
ATOM     20  O   UNL     1      39.152 134.857  13.040  1.00  0.00    -0.376 OA
BRANCH  17  21
ATOM     21  C   UNL     1      38.841 136.141  16.001  1.00  0.00     0.247 C 
ATOM     22  F   UNL     1      37.643 136.525  15.421  1.00  0.00    -0.248 F 
ENDBRANCH  17  21
ENDBRANCH  15  17
ENDBRANCH  12  15
BRANCH  11  23
ATOM     23  N   UNL     1      41.196 136.739  18.792  1.00  0.00    -0.057 NA
BRANCH  23  24
ATOM     24  N   UNL     1      41.449 136.716  19.997  1.00  0.00     0.005 N 
ATOM     25  N   UNL     1      41.698 136.688  21.199  1.00  0.00    -0.003 NA
ENDBRANCH  23  24
ENDBRANCH  11  23
BRANCH   6  26
ATOM     26  O   UNL     1      43.446 132.142  16.308  1.00  0.00    -0.424 OA
BRANCH  26  27
ATOM     27  C   UNL     1      44.514 131.248  16.443  1.00  0.00     0.331 C 
ATOM     28  O   UNL     1      45.158 131.157  17.523  1.00  0.00    -0.250 OA
BRANCH  27  29
ATOM     29  C   UNL     1      44.917 130.416  15.266  1.00  0.00     0.118 C 
ATOM     30  C   UNL     1      44.131 130.645  13.983  1.00  0.00     0.040 C 
ATOM     31  C   UNL     1      45.585 131.104  14.080  1.00  0.00     0.022 C 
BRANCH  29  32
ATOM     32  N   UNL     1      45.264 129.020  15.507  1.00  0.00    -0.316 NA
ATOM     33  H   UNL     1      45.055 128.483  14.636  1.00  0.00     0.119 HD
ATOM     34  H   UNL     1      44.626 128.658  16.252  1.00  0.00     0.119 HD
ENDBRANCH  29  32
BRANCH  31  35
ATOM     35  C   UNL     1      46.598 130.274  13.278  1.00  0.00     0.003 C 
ATOM     36  C   UNL     1      47.890 131.057  13.078  1.00  0.00     0.004 C 
ENDBRANCH  31  35
ENDBRANCH  27  29
ENDBRANCH  26  27
ENDBRANCH   6  26
TORSDOF 11
ENDMDL
MODEL 5
REMARK VINA RESULT:      -5.9      2.959      4.089
REMARK SMILES CC[C@H]1C[C@]1(N)C(=O)Oc1ccccc(O)c(NC2(CF)COC2)c(N=[N+]=[N-])c(Cl)c1Cl
REMARK SMILES IDX 15 1 14 2 13 3 12 4 11 5 10 6 31 7 32 8 29 9 30 10 25 11
REMARK SMILES IDX 17 12 16 13 18 15 19 17 22 18 24 19 23 20 20 21 21 22 26 23
REMARK SMILES IDX 27 24 28 25 9 26 7 27 8 28 5 29 4 30 3 31 6 32 2 35 1 36
REMARK H PARENT 16 14 18 16 6 33 6 34
ROOT
ATOM      1  C   UNL     1      41.072 135.932  15.840  1.00  0.00     0.139 A 
ATOM      2  C   UNL     1      41.954 136.736  15.079  1.00  0.00     0.048 A 
ATOM      3  C   UNL     1      43.356 136.775  15.200  1.00  0.00     0.004 A 
ATOM      4  C   UNL     1      44.125 135.769  15.792  1.00  0.00     0.004 A 
ATOM      5  C   UNL     1      43.729 134.430  15.775  1.00  0.00     0.049 A 
ATOM      6  C   UNL     1      43.829 133.577  16.891  1.00  0.00     0.151 A 
ATOM      7  C   UNL     1      43.858 134.047  18.225  1.00  0.00     0.102 A 
ATOM      8  Cl  UNL     1      44.582 132.964  19.422  1.00  0.00    -0.079 Cl
ATOM      9  C   UNL     1      43.296 135.273  18.677  1.00  0.00     0.075 A 
ATOM     10  Cl  UNL     1      43.823 135.886  20.250  1.00  0.00    -0.082 Cl
ATOM     11  C   UNL     1      42.306 136.011  17.974  1.00  0.00     0.085 A 
ATOM     12  C   UNL     1      41.384 135.387  17.109  1.00  0.00     0.088 A 
ENDROOT
BRANCH   1  13
ATOM     13  O   UNL     1      39.813 135.651  15.310  1.00  0.00    -0.506 OA
ATOM     14  H   UNL     1      39.266 136.354  14.827  1.00  0.00     0.293 HD
ENDBRANCH   1  13
BRANCH  12  15
ATOM     15  N   UNL     1      40.694 134.194  17.520  1.00  0.00    -0.369 N 
ATOM     16  H   UNL     1      40.944 133.303  17.031  1.00  0.00     0.161 HD
BRANCH  15  17
ATOM     17  C   UNL     1      39.502 134.173  18.384  1.00  0.00     0.113 C 
ATOM     18  C   UNL     1      39.785 134.252  19.877  1.00  0.00     0.193 C 
ATOM     19  C   UNL     1      38.941 135.568  18.606  1.00  0.00     0.193 C 
ATOM     20  O   UNL     1      39.228 135.540  19.985  1.00  0.00    -0.376 OA
BRANCH  17  21
ATOM     21  C   UNL     1      38.454 133.130  17.958  1.00  0.00     0.247 C 
ATOM     22  F   UNL     1      37.163 133.595  18.151  1.00  0.00    -0.248 F 
ENDBRANCH  17  21
ENDBRANCH  15  17
ENDBRANCH  12  15
BRANCH  11  23
ATOM     23  N   UNL     1      42.236 137.445  18.080  1.00  0.00    -0.057 NA
BRANCH  23  24
ATOM     24  N   UNL     1      41.360 138.023  18.725  1.00  0.00     0.005 N 
ATOM     25  N   UNL     1      40.488 138.604  19.365  1.00  0.00    -0.003 NA
ENDBRANCH  23  24
ENDBRANCH  11  23
BRANCH   6  26
ATOM     26  O   UNL     1      43.918 132.188  16.703  1.00  0.00    -0.424 OA
BRANCH  26  27
ATOM     27  C   UNL     1      44.096 131.540  15.475  1.00  0.00     0.331 C 
ATOM     28  O   UNL     1      43.235 131.630  14.558  1.00  0.00    -0.250 OA
BRANCH  27  29
ATOM     29  C   UNL     1      45.314 130.695  15.270  1.00  0.00     0.118 C 
ATOM     30  C   UNL     1      45.070 129.210  15.052  1.00  0.00     0.040 C 
ATOM     31  C   UNL     1      45.555 130.082  13.895  1.00  0.00     0.022 C 
BRANCH  29  32
ATOM     32  N   UNL     1      46.490 130.990  16.083  1.00  0.00    -0.316 NA
ATOM     33  H   UNL     1      46.722 132.000  15.954  1.00  0.00     0.119 HD
ATOM     34  H   UNL     1      47.289 130.438  15.699  1.00  0.00     0.119 HD
ENDBRANCH  29  32
BRANCH  31  35
ATOM     35  C   UNL     1      47.017 129.876  13.474  1.00  0.00     0.003 C 
ATOM     36  C   UNL     1      47.288 130.551  12.135  1.00  0.00     0.004 C 
ENDBRANCH  31  35
ENDBRANCH  27  29
ENDBRANCH  26  27
ENDBRANCH   6  26
TORSDOF 11
ENDMDL
MODEL 6
REMARK VINA RESULT:      -5.8      2.491      3.658
REMARK SMILES CC[C@H]1C[C@]1(N)C(=O)Oc1ccccc(O)c(NC2(CF)COC2)c(N=[N+]=[N-])c(Cl)c1Cl
REMARK SMILES IDX 15 1 14 2 13 3 12 4 11 5 10 6 31 7 32 8 29 9 30 10 25 11
REMARK SMILES IDX 17 12 16 13 18 15 19 17 22 18 24 19 23 20 20 21 21 22 26 23
REMARK SMILES IDX 27 24 28 25 9 26 7 27 8 28 5 29 4 30 3 31 6 32 2 35 1 36
REMARK H PARENT 16 14 18 16 6 33 6 34
ROOT
ATOM      1  C   UNL     1      39.492 133.796  16.692  1.00  0.00     0.139 A 
ATOM      2  C   UNL     1      38.786 133.665  15.472  1.00  0.00     0.048 A 
ATOM      3  C   UNL     1      39.234 134.082  14.204  1.00  0.00     0.004 A 
ATOM      4  C   UNL     1      40.572 134.323  13.881  1.00  0.00     0.004 A 
ATOM      5  C   UNL     1      41.618 133.641  14.507  1.00  0.00     0.049 A 
ATOM      6  C   UNL     1      42.803 134.268  14.940  1.00  0.00     0.151 A 
ATOM      7  C   UNL     1      42.882 135.646  15.248  1.00  0.00     0.102 A 
ATOM      8  Cl  UNL     1      44.493 136.374  15.175  1.00  0.00    -0.079 Cl
ATOM      9  C   UNL     1      41.794 136.459  15.671  1.00  0.00     0.075 A 
ATOM     10  Cl  UNL     1      41.990 138.213  15.565  1.00  0.00    -0.082 Cl
ATOM     11  C   UNL     1      40.581 135.957  16.216  1.00  0.00     0.085 A 
ATOM     12  C   UNL     1      40.528 134.734  16.917  1.00  0.00     0.088 A 
ENDROOT
BRANCH   1  13
ATOM     13  O   UNL     1      39.153 132.946  17.744  1.00  0.00    -0.506 OA
ATOM     14  H   UNL     1      39.855 132.535  18.348  1.00  0.00     0.293 HD
ENDBRANCH   1  13
BRANCH  12  15
ATOM     15  N   UNL     1      41.509 134.429  17.924  1.00  0.00    -0.369 N 
ATOM     16  H   UNL     1      42.146 133.620  17.742  1.00  0.00     0.161 HD
BRANCH  15  17
ATOM     17  C   UNL     1      41.518 135.000  19.282  1.00  0.00     0.113 C 
ATOM     18  C   UNL     1      40.214 135.651  19.719  1.00  0.00     0.193 C 
ATOM     19  C   UNL     1      41.137 133.967  20.331  1.00  0.00     0.193 C 
ATOM     20  O   UNL     1      39.957 134.653  20.677  1.00  0.00    -0.376 OA
BRANCH  17  21
ATOM     21  C   UNL     1      42.799 135.788  19.606  1.00  0.00     0.247 C 
ATOM     22  F   UNL     1      42.842 136.993  18.924  1.00  0.00    -0.248 F 
ENDBRANCH  17  21
ENDBRANCH  15  17
ENDBRANCH  12  15
BRANCH  11  23
ATOM     23  N   UNL     1      39.338 136.660  16.032  1.00  0.00    -0.057 NA
BRANCH  23  24
ATOM     24  N   UNL     1      38.817 137.335  16.920  1.00  0.00     0.005 N 
ATOM     25  N   UNL     1      38.294 138.011  17.802  1.00  0.00    -0.003 NA
ENDBRANCH  23  24
ENDBRANCH  11  23
BRANCH   6  26
ATOM     26  O   UNL     1      43.982 133.517  15.072  1.00  0.00    -0.424 OA
BRANCH  26  27
ATOM     27  C   UNL     1      44.150 132.400  15.898  1.00  0.00     0.331 C 
ATOM     28  O   UNL     1      43.888 132.452  17.130  1.00  0.00    -0.250 OA
BRANCH  27  29
ATOM     29  C   UNL     1      44.689 131.135  15.306  1.00  0.00     0.118 C 
ATOM     30  C   UNL     1      43.916 130.566  14.126  1.00  0.00     0.040 C 
ATOM     31  C   UNL     1      45.297 131.183  13.909  1.00  0.00     0.022 C 
BRANCH  29  32
ATOM     32  N   UNL     1      45.203 130.122  16.222  1.00  0.00    -0.316 NA
ATOM     33  H   UNL     1      45.808 130.604  16.925  1.00  0.00     0.119 HD
ATOM     34  H   UNL     1      45.819 129.480  15.674  1.00  0.00     0.119 HD
ENDBRANCH  29  32
BRANCH  31  35
ATOM     35  C   UNL     1      46.430 130.190  13.612  1.00  0.00     0.003 C 
ATOM     36  C   UNL     1      47.578 130.889  12.894  1.00  0.00     0.004 C 
ENDBRANCH  31  35
ENDBRANCH  27  29
ENDBRANCH  26  27
ENDBRANCH   6  26
TORSDOF 11
ENDMDL
MODEL 7
REMARK VINA RESULT:      -5.8      2.310      3.304
REMARK SMILES CC[C@H]1C[C@]1(N)C(=O)Oc1ccccc(O)c(NC2(CF)COC2)c(N=[N+]=[N-])c(Cl)c1Cl
REMARK SMILES IDX 15 1 14 2 13 3 12 4 11 5 10 6 31 7 32 8 29 9 30 10 25 11
REMARK SMILES IDX 17 12 16 13 18 15 19 17 22 18 24 19 23 20 20 21 21 22 26 23
REMARK SMILES IDX 27 24 28 25 9 26 7 27 8 28 5 29 4 30 3 31 6 32 2 35 1 36
REMARK H PARENT 16 14 18 16 6 33 6 34
ROOT
ATOM      1  C   UNL     1      43.001 136.425  16.464  1.00  0.00     0.139 A 
ATOM      2  C   UNL     1      43.975 136.813  17.416  1.00  0.00     0.048 A 
ATOM      3  C   UNL     1      44.320 136.108  18.585  1.00  0.00     0.004 A 
ATOM      4  C   UNL     1      44.057 134.751  18.794  1.00  0.00     0.004 A 
ATOM      5  C   UNL     1      44.000 133.838  17.739  1.00  0.00     0.049 A 
ATOM      6  C   UNL     1      43.016 132.836  17.634  1.00  0.00     0.151 A 
ATOM      7  C   UNL     1      41.747 132.928  18.252  1.00  0.00     0.102 A 
ATOM      8  Cl  UNL     1      40.902 131.400  18.537  1.00  0.00    -0.079 Cl
ATOM      9  C   UNL     1      41.084 134.139  18.592  1.00  0.00     0.075 A 
ATOM     10  Cl  UNL     1      39.747 134.046  19.747  1.00  0.00    -0.082 Cl
ATOM     11  C   UNL     1      41.390 135.408  18.031  1.00  0.00     0.085 A 
ATOM     12  C   UNL     1      41.930 135.541  16.734  1.00  0.00     0.088 A 
ENDROOT
BRANCH   1  13
ATOM     13  O   UNL     1      43.099 136.944  15.173  1.00  0.00    -0.506 OA
ATOM     14  H   UNL     1      43.994 137.134  14.739  1.00  0.00     0.293 HD
ENDBRANCH   1  13
BRANCH  12  15
ATOM     15  N   UNL     1      41.365 134.807  15.633  1.00  0.00    -0.369 N 
ATOM     16  H   UNL     1      42.012 134.195  15.084  1.00  0.00     0.161 HD
BRANCH  15  17
ATOM     17  C   UNL     1      40.024 135.041  15.072  1.00  0.00     0.113 C 
ATOM     18  C   UNL     1      39.730 134.305  13.773  1.00  0.00     0.193 C 
ATOM     19  C   UNL     1      38.999 134.070  15.636  1.00  0.00     0.193 C 
ATOM     20  O   UNL     1      38.783 133.462  14.384  1.00  0.00    -0.376 OA
BRANCH  17  21
ATOM     21  C   UNL     1      39.591 136.516  15.116  1.00  0.00     0.247 C 
ATOM     22  F   UNL     1      40.131 137.238  14.064  1.00  0.00    -0.248 F 
ENDBRANCH  17  21
ENDBRANCH  15  17
ENDBRANCH  12  15
BRANCH  11  23
ATOM     23  N   UNL     1      41.206 136.618  18.789  1.00  0.00    -0.057 NA
BRANCH  23  24
ATOM     24  N   UNL     1      41.379 136.674  20.007  1.00  0.00     0.005 N 
ATOM     25  N   UNL     1      41.549 136.725  21.222  1.00  0.00    -0.003 NA
ENDBRANCH  23  24
ENDBRANCH  11  23
BRANCH   6  26
ATOM     26  O   UNL     1      43.281 131.672  16.894  1.00  0.00    -0.424 OA
BRANCH  26  27
ATOM     27  C   UNL     1      44.552 131.161  16.603  1.00  0.00     0.331 C 
ATOM     28  O   UNL     1      45.233 130.564  17.481  1.00  0.00    -0.250 OA
BRANCH  27  29
ATOM     29  C   UNL     1      45.119 131.364  15.234  1.00  0.00     0.118 C 
ATOM     30  C   UNL     1      45.976 132.607  15.041  1.00  0.00     0.040 C 
ATOM     31  C   UNL     1      46.625 131.224  15.039  1.00  0.00     0.022 C 
BRANCH  29  32
ATOM     32  N   UNL     1      44.268 131.048  14.092  1.00  0.00    -0.316 NA
ATOM     33  H   UNL     1      44.040 130.030  14.135  1.00  0.00     0.119 HD
ATOM     34  H   UNL     1      44.829 131.202  13.223  1.00  0.00     0.119 HD
ENDBRANCH  29  32
BRANCH  31  35
ATOM     35  C   UNL     1      47.102 130.716  13.670  1.00  0.00     0.003 C 
ATOM     36  C   UNL     1      47.658 129.303  13.790  1.00  0.00     0.004 C 
ENDBRANCH  31  35
ENDBRANCH  27  29
ENDBRANCH  26  27
ENDBRANCH   6  26
TORSDOF 11
ENDMDL
MODEL 8
REMARK VINA RESULT:      -5.6      2.743      4.094
REMARK SMILES CC[C@H]1C[C@]1(N)C(=O)Oc1ccccc(O)c(NC2(CF)COC2)c(N=[N+]=[N-])c(Cl)c1Cl
REMARK SMILES IDX 15 1 14 2 13 3 12 4 11 5 10 6 31 7 32 8 29 9 30 10 25 11
REMARK SMILES IDX 17 12 16 13 18 15 19 17 22 18 24 19 23 20 20 21 21 22 26 23
REMARK SMILES IDX 27 24 28 25 9 26 7 27 8 28 5 29 4 30 3 31 6 32 2 35 1 36
REMARK H PARENT 16 14 18 16 6 33 6 34
ROOT
ATOM      1  C   UNL     1      39.375 133.565  17.369  1.00  0.00     0.139 A 
ATOM      2  C   UNL     1      38.451 134.265  16.556  1.00  0.00     0.048 A 
ATOM      3  C   UNL     1      38.759 135.285  15.637  1.00  0.00     0.004 A 
ATOM      4  C   UNL     1      40.029 135.500  15.093  1.00  0.00     0.004 A 
ATOM      5  C   UNL     1      40.936 134.456  14.901  1.00  0.00     0.049 A 
ATOM      6  C   UNL     1      42.307 134.555  15.207  1.00  0.00     0.151 A 
ATOM      7  C   UNL     1      42.826 135.467  16.155  1.00  0.00     0.102 A 
ATOM      8  Cl  UNL     1      44.535 135.890  15.982  1.00  0.00    -0.079 Cl
ATOM      9  C   UNL     1      42.107 136.006  17.258  1.00  0.00     0.075 A 
ATOM     10  Cl  UNL     1      42.766 137.447  18.042  1.00  0.00    -0.082 Cl
ATOM     11  C   UNL     1      40.922 135.437  17.799  1.00  0.00     0.085 A 
ATOM     12  C   UNL     1      40.656 134.053  17.722  1.00  0.00     0.088 A 
ENDROOT
BRANCH   1  13
ATOM     13  O   UNL     1      39.008 132.310  17.854  1.00  0.00    -0.506 OA
ATOM     14  H   UNL     1      38.618 131.595  17.251  1.00  0.00     0.293 HD
ENDBRANCH   1  13
BRANCH  12  15
ATOM     15  N   UNL     1      41.678 133.096  18.050  1.00  0.00    -0.369 N 
ATOM     16  H   UNL     1      41.675 132.193  17.522  1.00  0.00     0.161 HD
BRANCH  15  17
ATOM     17  C   UNL     1      42.557 133.182  19.228  1.00  0.00     0.113 C 
ATOM     18  C   UNL     1      42.024 134.033  20.372  1.00  0.00     0.193 C 
ATOM     19  C   UNL     1      42.306 132.044  20.204  1.00  0.00     0.193 C 
ATOM     20  O   UNL     1      41.842 132.916  21.209  1.00  0.00    -0.376 OA
BRANCH  17  21
ATOM     21  C   UNL     1      44.039 133.396  18.872  1.00  0.00     0.247 C 
ATOM     22  F   UNL     1      44.425 134.713  19.066  1.00  0.00    -0.248 F 
ENDBRANCH  17  21
ENDBRANCH  15  17
ENDBRANCH  12  15
BRANCH  11  23
ATOM     23  N   UNL     1      39.916 136.263  18.413  1.00  0.00    -0.057 NA
BRANCH  23  24
ATOM     24  N   UNL     1      39.615 137.377  17.982  1.00  0.00     0.005 N 
ATOM     25  N   UNL     1      39.319 138.490  17.556  1.00  0.00    -0.003 NA
ENDBRANCH  23  24
ENDBRANCH  11  23
BRANCH   6  26
ATOM     26  O   UNL     1      43.231 133.729  14.547  1.00  0.00    -0.424 OA
BRANCH  26  27
ATOM     27  C   UNL     1      43.468 132.378  14.831  1.00  0.00     0.331 C 
ATOM     28  O   UNL     1      42.516 131.575  15.024  1.00  0.00    -0.250 OA
BRANCH  27  29
ATOM     29  C   UNL     1      44.880 131.897  14.941  1.00  0.00     0.118 C 
ATOM     30  C   UNL     1      45.062 130.414  15.232  1.00  0.00     0.040 C 
ATOM     31  C   UNL     1      45.424 130.973  13.857  1.00  0.00     0.022 C 
BRANCH  29  32
ATOM     32  N   UNL     1      45.839 132.757  15.626  1.00  0.00    -0.316 NA
ATOM     33  H   UNL     1      45.350 133.645  15.877  1.00  0.00     0.119 HD
ATOM     34  H   UNL     1      46.592 133.002  14.944  1.00  0.00     0.119 HD
ENDBRANCH  29  32
BRANCH  31  35
ATOM     35  C   UNL     1      46.927 131.070  13.554  1.00  0.00     0.003 C 
ATOM     36  C   UNL     1      47.268 130.288  12.291  1.00  0.00     0.004 C 
ENDBRANCH  31  35
ENDBRANCH  27  29
ENDBRANCH  26  27
ENDBRANCH   6  26
TORSDOF 11
ENDMDL
MODEL 9
REMARK VINA RESULT:      -5.6      2.205      2.631
REMARK SMILES CC[C@H]1C[C@]1(N)C(=O)Oc1ccccc(O)c(NC2(CF)COC2)c(N=[N+]=[N-])c(Cl)c1Cl
REMARK SMILES IDX 15 1 14 2 13 3 12 4 11 5 10 6 31 7 32 8 29 9 30 10 25 11
REMARK SMILES IDX 17 12 16 13 18 15 19 17 22 18 24 19 23 20 20 21 21 22 26 23
REMARK SMILES IDX 27 24 28 25 9 26 7 27 8 28 5 29 4 30 3 31 6 32 2 35 1 36
REMARK H PARENT 16 14 18 16 6 33 6 34
ROOT
ATOM      1  C   UNL     1      43.990 134.093  20.543  1.00  0.00     0.139 A 
ATOM      2  C   UNL     1      43.994 132.755  21.007  1.00  0.00     0.048 A 
ATOM      3  C   UNL     1      43.210 131.699  20.505  1.00  0.00     0.004 A 
ATOM      4  C   UNL     1      42.608 131.695  19.244  1.00  0.00     0.004 A 
ATOM      5  C   UNL     1      43.162 132.377  18.158  1.00  0.00     0.049 A 
ATOM      6  C   UNL     1      42.401 133.142  17.254  1.00  0.00     0.151 A 
ATOM      7  C   UNL     1      41.147 133.709  17.582  1.00  0.00     0.102 A 
ATOM      8  Cl  UNL     1      40.079 134.089  16.223  1.00  0.00    -0.079 Cl
ATOM      9  C   UNL     1      40.718 134.053  18.893  1.00  0.00     0.075 A 
ATOM     10  Cl  UNL     1      38.987 134.314  19.148  1.00  0.00    -0.082 Cl
ATOM     11  C   UNL     1      41.590 134.248  19.999  1.00  0.00     0.085 A 
ATOM     12  C   UNL     1      42.920 134.686  19.832  1.00  0.00     0.088 A 
ENDROOT
BRANCH   1  13
ATOM     13  O   UNL     1      45.111 134.882  20.797  1.00  0.00    -0.506 OA
ATOM     14  H   UNL     1      45.770 134.655  21.533  1.00  0.00     0.293 HD
ENDBRANCH   1  13
BRANCH  12  15
ATOM     15  N   UNL     1      43.218 135.792  18.962  1.00  0.00    -0.369 N 
ATOM     16  H   UNL     1      43.886 135.617  18.177  1.00  0.00     0.161 HD
BRANCH  15  17
ATOM     17  C   UNL     1      42.857 137.193  19.237  1.00  0.00     0.113 C 
ATOM     18  C   UNL     1      42.759 137.558  20.711  1.00  0.00     0.193 C 
ATOM     19  C   UNL     1      44.083 138.091  19.288  1.00  0.00     0.193 C 
ATOM     20  O   UNL     1      43.898 138.383  20.654  1.00  0.00    -0.376 OA
BRANCH  17  21
ATOM     21  C   UNL     1      41.722 137.721  18.342  1.00  0.00     0.247 C 
ATOM     22  F   UNL     1      41.417 139.041  18.630  1.00  0.00    -0.248 F 
ENDBRANCH  17  21
ENDBRANCH  15  17
ENDBRANCH  12  15
BRANCH  11  23
ATOM     23  N   UNL     1      41.160 133.957  21.342  1.00  0.00    -0.057 NA
BRANCH  23  24
ATOM     24  N   UNL     1      40.857 134.835  22.150  1.00  0.00     0.005 N 
ATOM     25  N   UNL     1      40.559 135.711  22.957  1.00  0.00    -0.003 NA
ENDBRANCH  23  24
ENDBRANCH  11  23
BRANCH   6  26
ATOM     26  O   UNL     1      42.878 133.362  15.951  1.00  0.00    -0.424 OA
BRANCH  26  27
ATOM     27  C   UNL     1      43.275 132.368  15.049  1.00  0.00     0.331 C 
ATOM     28  O   UNL     1      42.449 131.830  14.263  1.00  0.00    -0.250 OA
BRANCH  27  29
ATOM     29  C   UNL     1      44.702 131.917  15.049  1.00  0.00     0.118 C 
ATOM     30  C   UNL     1      44.954 130.491  15.517  1.00  0.00     0.040 C 
ATOM     31  C   UNL     1      45.132 130.854  14.044  1.00  0.00     0.022 C 
BRANCH  29  32
ATOM     32  N   UNL     1      45.717 132.872  15.483  1.00  0.00    -0.316 NA
ATOM     33  H   UNL     1      45.226 133.739  15.796  1.00  0.00     0.119 HD
ATOM     34  H   UNL     1      46.292 133.127  14.648  1.00  0.00     0.119 HD
ENDBRANCH  29  32
BRANCH  31  35
ATOM     35  C   UNL     1      46.583 130.917  13.545  1.00  0.00     0.003 C 
ATOM     36  C   UNL     1      47.180 129.518  13.462  1.00  0.00     0.004 C 
ENDBRANCH  31  35
ENDBRANCH  27  29
ENDBRANCH  26  27
ENDBRANCH   6  26
TORSDOF 11
ENDMDL


