MODEL 1
REMARK VINA RESULT:      -8.8      0.000      0.000
REMARK SMILES Cc1nnn(C/C([O-])=N\c2cccc(C#N)c2C)c1-c1cc2ccccc2c2ccccc12
REMARK SMILES IDX 9 1 10 2 12 3 13 4 11 5 14 6 17 7 18 8 15 9 16 10 7 11 8 12
REMARK SMILES IDX 6 13 5 14 4 15 19 16 3 17 2 18 1 19 20 20 21 21 33 22 22 23
REMARK SMILES IDX 32 24 28 25 23 26 27 27 31 28 29 29 24 30 26 31 30 32 25 33
REMARK H PARENT
ROOT
ATOM      1  N   UNL     1      43.428 131.568  14.179  1.00  0.00    -0.267 NA
ENDROOT
BRANCH   1   2
ATOM      2  C   UNL     1      44.587 131.108  14.895  1.00  0.00     0.066 A 
ATOM      3  C   UNL     1      45.661 130.492  16.987  1.00  0.00     0.004 A 
ATOM      4  C   UNL     1      46.790 130.065  16.290  1.00  0.00     0.020 A 
ATOM      5  C   UNL     1      44.556 130.984  16.294  1.00  0.00     0.028 A 
ATOM      6  C   UNL     1      46.817 130.111  14.893  1.00  0.00     0.057 A 
ATOM      7  C   UNL     1      45.713 130.641  14.178  1.00  0.00    -0.008 A 
ATOM      8  C   UNL     1      45.693 130.633  12.667  1.00  0.00     0.048 C 
BRANCH   6   9
ATOM      9  C   UNL     1      47.986 129.604  14.213  1.00  0.00     0.099 C 
ATOM     10  N   UNL     1      48.924 129.197  13.672  1.00  0.00    -0.192 NA
ENDBRANCH   6   9
ENDBRANCH   1   2
BRANCH   1  11
ATOM     11  C   UNL     1      42.538 132.445  14.553  1.00  0.00    -0.014 C 
ATOM     12  O   UNL     1      41.311 132.454  13.904  1.00  0.00    -0.860 OA
BRANCH  11  13
ATOM     13  C   UNL     1      42.776 133.489  15.614  1.00  0.00     0.186 C 
BRANCH  13  14
ATOM     14  N   UNL     1      41.613 133.591  16.492  1.00  0.00    -0.240 N 
ATOM     15  N   UNL     1      40.381 133.283  16.118  1.00  0.00    -0.066 NA
ATOM     16  C   UNL     1      41.563 134.048  17.760  1.00  0.00     0.092 A 
ATOM     17  N   UNL     1      39.524 133.498  17.108  1.00  0.00    -0.135 NA
ATOM     18  C   UNL     1      40.240 133.962  18.151  1.00  0.00     0.088 A 
ATOM     19  C   UNL     1      39.652 134.337  19.473  1.00  0.00     0.071 C 
BRANCH  16  20
ATOM     20  C   UNL     1      42.719 134.486  18.578  1.00  0.00     0.010 A 
ATOM     21  C   UNL     1      43.076 135.834  18.525  1.00  0.00     0.019 A 
ATOM     22  C   UNL     1      43.483 133.586  19.356  1.00  0.00    -0.008 A 
ATOM     23  C   UNL     1      44.169 136.320  19.244  1.00  0.00    -0.017 A 
ATOM     24  C   UNL     1      43.109 132.229  19.465  1.00  0.00     0.009 A 
ATOM     25  C   UNL     1      44.635 134.052  20.063  1.00  0.00    -0.010 A 
ATOM     26  C   UNL     1      44.462 137.694  19.194  1.00  0.00     0.009 A 
ATOM     27  C   UNL     1      44.972 135.440  20.017  1.00  0.00    -0.010 A 
ATOM     28  C   UNL     1      43.874 131.333  20.205  1.00  0.00     0.001 A 
ATOM     29  C   UNL     1      45.397 133.109  20.798  1.00  0.00     0.009 A 
ATOM     30  C   UNL     1      45.540 138.211  19.908  1.00  0.00     0.001 A 
ATOM     31  C   UNL     1      46.065 135.997  20.728  1.00  0.00     0.009 A 
ATOM     32  C   UNL     1      45.018 131.768  20.859  1.00  0.00     0.001 A 
ATOM     33  C   UNL     1      46.338 137.365  20.672  1.00  0.00     0.001 A 
ENDBRANCH  16  20
ENDBRANCH  13  14
ENDBRANCH  11  13
ENDBRANCH   1  11
TORSDOF 6
ENDMDL
MODEL 2
REMARK VINA RESULT:      -8.8      2.842      5.913
REMARK SMILES Cc1nnn(C/C([O-])=N\c2cccc(C#N)c2C)c1-c1cc2ccccc2c2ccccc12
REMARK SMILES IDX 9 1 10 2 12 3 13 4 11 5 14 6 17 7 18 8 15 9 16 10 7 11 8 12
REMARK SMILES IDX 6 13 5 14 4 15 19 16 3 17 2 18 1 19 20 20 21 21 33 22 22 23
REMARK SMILES IDX 32 24 28 25 23 26 27 27 31 28 29 29 24 30 26 31 30 32 25 33
REMARK H PARENT
ROOT
ATOM      1  N   UNL     1      40.515 133.398  19.720  1.00  0.00    -0.267 NA
ENDROOT
BRANCH   1   2
ATOM      2  C   UNL     1      41.922 133.103  19.685  1.00  0.00     0.066 A 
ATOM      3  C   UNL     1      43.774 131.773  18.840  1.00  0.00     0.004 A 
ATOM      4  C   UNL     1      44.680 132.611  19.486  1.00  0.00     0.020 A 
ATOM      5  C   UNL     1      42.406 132.033  18.914  1.00  0.00     0.028 A 
ATOM      6  C   UNL     1      44.227 133.725  20.200  1.00  0.00     0.057 A 
ATOM      7  C   UNL     1      42.838 133.980  20.312  1.00  0.00    -0.008 A 
ATOM      8  C   UNL     1      42.332 135.217  21.017  1.00  0.00     0.048 C 
BRANCH   6   9
ATOM      9  C   UNL     1      45.208 134.596  20.805  1.00  0.00     0.099 C 
ATOM     10  N   UNL     1      45.996 135.292  21.288  1.00  0.00    -0.192 NA
ENDBRANCH   6   9
ENDBRANCH   1   2
BRANCH   1  11
ATOM     11  C   UNL     1      39.774 133.929  18.787  1.00  0.00    -0.014 C 
ATOM     12  O   UNL     1      39.533 135.296  18.838  1.00  0.00    -0.860 OA
BRANCH  11  13
ATOM     13  C   UNL     1      39.116 133.143  17.683  1.00  0.00     0.186 C 
BRANCH  13  14
ATOM     14  N   UNL     1      38.918 133.991  16.509  1.00  0.00    -0.240 N 
ATOM     15  N   UNL     1      37.739 134.465  16.135  1.00  0.00    -0.066 NA
ATOM     16  C   UNL     1      39.834 134.383  15.600  1.00  0.00     0.092 A 
ATOM     17  N   UNL     1      37.854 135.178  15.022  1.00  0.00    -0.135 NA
ATOM     18  C   UNL     1      39.156 135.155  14.676  1.00  0.00     0.088 A 
ATOM     19  C   UNL     1      39.716 135.837  13.469  1.00  0.00     0.071 C 
BRANCH  16  20
ATOM     20  C   UNL     1      41.286 134.089  15.638  1.00  0.00     0.010 A 
ATOM     21  C   UNL     1      41.728 132.919  15.019  1.00  0.00     0.019 A 
ATOM     22  C   UNL     1      42.211 134.920  16.313  1.00  0.00    -0.008 A 
ATOM     23  C   UNL     1      43.076 132.558  15.036  1.00  0.00    -0.017 A 
ATOM     24  C   UNL     1      41.794 136.134  16.902  1.00  0.00     0.009 A 
ATOM     25  C   UNL     1      43.589 134.545  16.385  1.00  0.00    -0.010 A 
ATOM     26  C   UNL     1      43.478 131.393  14.360  1.00  0.00     0.009 A 
ATOM     27  C   UNL     1      44.027 133.357  15.724  1.00  0.00    -0.010 A 
ATOM     28  C   UNL     1      42.693 136.940  17.593  1.00  0.00     0.001 A 
ATOM     29  C   UNL     1      44.475 135.385  17.106  1.00  0.00     0.009 A 
ATOM     30  C   UNL     1      44.817 131.012  14.350  1.00  0.00     0.001 A 
ATOM     31  C   UNL     1      45.382 132.938  15.699  1.00  0.00     0.009 A 
ATOM     32  C   UNL     1      44.024 136.562  17.703  1.00  0.00     0.001 A 
ATOM     33  C   UNL     1      45.765 131.782  15.017  1.00  0.00     0.001 A 
ENDBRANCH  16  20
ENDBRANCH  13  14
ENDBRANCH  11  13
ENDBRANCH   1  11
TORSDOF 6
ENDMDL
MODEL 3
REMARK VINA RESULT:      -8.7      1.412      1.677
REMARK SMILES Cc1nnn(C/C([O-])=N\c2cccc(C#N)c2C)c1-c1cc2ccccc2c2ccccc12
REMARK SMILES IDX 9 1 10 2 12 3 13 4 11 5 14 6 17 7 18 8 15 9 16 10 7 11 8 12
REMARK SMILES IDX 6 13 5 14 4 15 19 16 3 17 2 18 1 19 20 20 21 21 33 22 22 23
REMARK SMILES IDX 32 24 28 25 23 26 27 27 31 28 29 29 24 30 26 31 30 32 25 33
REMARK H PARENT
ROOT
ATOM      1  N   UNL     1      43.003 132.133  15.486  1.00  0.00    -0.267 NA
ENDROOT
BRANCH   1   2
ATOM      2  C   UNL     1      44.226 131.501  15.905  1.00  0.00     0.066 A 
ATOM      3  C   UNL     1      45.688 130.718  17.682  1.00  0.00     0.004 A 
ATOM      4  C   UNL     1      46.532 130.134  16.740  1.00  0.00     0.020 A 
ATOM      5  C   UNL     1      44.527 131.372  17.271  1.00  0.00     0.028 A 
ATOM      6  C   UNL     1      46.215 130.186  15.379  1.00  0.00     0.057 A 
ATOM      7  C   UNL     1      45.057 130.878  14.945  1.00  0.00    -0.008 A 
ATOM      8  C   UNL     1      44.659 130.884  13.488  1.00  0.00     0.048 C 
BRANCH   6   9
ATOM      9  C   UNL     1      47.091 129.516  14.446  1.00  0.00     0.099 C 
ATOM     10  N   UNL     1      47.794 128.983  13.698  1.00  0.00    -0.192 NA
ENDBRANCH   6   9
ENDBRANCH   1   2
BRANCH   1  11
ATOM     11  C   UNL     1      42.302 133.037  16.110  1.00  0.00    -0.014 C 
ATOM     12  O   UNL     1      41.045 132.683  16.584  1.00  0.00    -0.860 OA
BRANCH  11  13
ATOM     13  C   UNL     1      42.746 134.464  16.305  1.00  0.00     0.186 C 
BRANCH  13  14
ATOM     14  N   UNL     1      41.815 135.167  17.184  1.00  0.00    -0.240 N 
ATOM     15  N   UNL     1      40.640 135.632  16.789  1.00  0.00    -0.066 NA
ATOM     16  C   UNL     1      41.987 135.511  18.477  1.00  0.00     0.092 A 
ATOM     17  N   UNL     1      40.021 136.248  17.788  1.00  0.00    -0.135 NA
ATOM     18  C   UNL     1      40.836 136.173  18.859  1.00  0.00     0.088 A 
ATOM     19  C   UNL     1      40.516 136.752  20.199  1.00  0.00     0.071 C 
BRANCH  16  20
ATOM     20  C   UNL     1      43.157 135.176  19.323  1.00  0.00     0.010 A 
ATOM     21  C   UNL     1      44.136 136.156  19.493  1.00  0.00     0.019 A 
ATOM     22  C   UNL     1      43.329 133.900  19.911  1.00  0.00    -0.008 A 
ATOM     23  C   UNL     1      45.281 135.909  20.252  1.00  0.00    -0.017 A 
ATOM     24  C   UNL     1      42.328 132.912  19.794  1.00  0.00     0.009 A 
ATOM     25  C   UNL     1      44.517 133.609  20.651  1.00  0.00    -0.010 A 
ATOM     26  C   UNL     1      46.217 136.942  20.430  1.00  0.00     0.009 A 
ATOM     27  C   UNL     1      45.497 134.633  20.836  1.00  0.00    -0.010 A 
ATOM     28  C   UNL     1      42.505 131.647  20.345  1.00  0.00     0.001 A 
ATOM     29  C   UNL     1      44.669 132.306  21.189  1.00  0.00     0.009 A 
ATOM     30  C   UNL     1      47.364 136.730  21.190  1.00  0.00     0.001 A 
ATOM     31  C   UNL     1      46.678 134.448  21.599  1.00  0.00     0.009 A 
ATOM     32  C   UNL     1      43.674 131.342  21.029  1.00  0.00     0.001 A 
ATOM     33  C   UNL     1      47.593 135.487  21.772  1.00  0.00     0.001 A 
ENDBRANCH  16  20
ENDBRANCH  13  14
ENDBRANCH  11  13
ENDBRANCH   1  11
TORSDOF 6
ENDMDL
MODEL 4
REMARK VINA RESULT:      -8.3      2.535      6.275
REMARK SMILES Cc1nnn(C/C([O-])=N\c2cccc(C#N)c2C)c1-c1cc2ccccc2c2ccccc12
REMARK SMILES IDX 9 1 10 2 12 3 13 4 11 5 14 6 17 7 18 8 15 9 16 10 7 11 8 12
REMARK SMILES IDX 6 13 5 14 4 15 19 16 3 17 2 18 1 19 20 20 21 21 33 22 22 23
REMARK SMILES IDX 32 24 28 25 23 26 27 27 31 28 29 29 24 30 26 31 30 32 25 33
REMARK H PARENT
ROOT
ATOM      1  N   UNL     1      42.106 132.965  14.607  1.00  0.00    -0.267 NA
ENDROOT
BRANCH   1   2
ATOM      2  C   UNL     1      41.751 134.355  14.709  1.00  0.00     0.066 A 
ATOM      3  C   UNL     1      42.410 136.690  14.871  1.00  0.00     0.004 A 
ATOM      4  C   UNL     1      41.078 137.081  14.754  1.00  0.00     0.020 A 
ATOM      5  C   UNL     1      42.749 135.338  14.820  1.00  0.00     0.028 A 
ATOM      6  C   UNL     1      40.074 136.125  14.570  1.00  0.00     0.057 A 
ATOM      7  C   UNL     1      40.401 134.746  14.551  1.00  0.00    -0.008 A 
ATOM      8  C   UNL     1      39.342 133.703  14.282  1.00  0.00     0.048 C 
BRANCH   6   9
ATOM      9  C   UNL     1      38.715 136.584  14.396  1.00  0.00     0.099 C 
ATOM     10  N   UNL     1      37.626 136.949  14.259  1.00  0.00    -0.192 NA
ENDBRANCH   6   9
ENDBRANCH   1   2
BRANCH   1  11
ATOM     11  C   UNL     1      43.270 132.410  14.798  1.00  0.00    -0.014 C 
ATOM     12  O   UNL     1      43.500 131.157  14.243  1.00  0.00    -0.860 OA
BRANCH  11  13
ATOM     13  C   UNL     1      44.369 133.017  15.632  1.00  0.00     0.186 C 
BRANCH  13  14
ATOM     14  N   UNL     1      44.437 132.358  16.935  1.00  0.00    -0.240 N 
ATOM     15  N   UNL     1      45.318 131.418  17.238  1.00  0.00    -0.066 NA
ATOM     16  C   UNL     1      43.625 132.529  17.998  1.00  0.00     0.092 A 
ATOM     17  N   UNL     1      45.129 130.982  18.476  1.00  0.00    -0.135 NA
ATOM     18  C   UNL     1      44.086 131.671  18.979  1.00  0.00     0.088 A 
ATOM     19  C   UNL     1      43.539 131.480  20.357  1.00  0.00     0.071 C 
BRANCH  16  20
ATOM     20  C   UNL     1      42.508 133.498  18.100  1.00  0.00     0.010 A 
ATOM     21  C   UNL     1      41.211 133.012  17.936  1.00  0.00     0.019 A 
ATOM     22  C   UNL     1      42.719 134.882  18.305  1.00  0.00    -0.008 A 
ATOM     23  C   UNL     1      40.107 133.864  17.990  1.00  0.00    -0.017 A 
ATOM     24  C   UNL     1      44.019 135.388  18.525  1.00  0.00     0.009 A 
ATOM     25  C   UNL     1      41.608 135.781  18.316  1.00  0.00    -0.010 A 
ATOM     26  C   UNL     1      38.818 133.319  17.864  1.00  0.00     0.009 A 
ATOM     27  C   UNL     1      40.284 135.261  18.171  1.00  0.00    -0.010 A 
ATOM     28  C   UNL     1      44.236 136.751  18.697  1.00  0.00     0.001 A 
ATOM     29  C   UNL     1      41.867 137.164  18.484  1.00  0.00     0.009 A 
ATOM     30  C   UNL     1      37.697 134.143  17.924  1.00  0.00     0.001 A 
ATOM     31  C   UNL     1      39.122 136.073  18.222  1.00  0.00     0.009 A 
ATOM     32  C   UNL     1      43.167 137.636  18.666  1.00  0.00     0.001 A 
ATOM     33  C   UNL     1      37.849 135.514  18.102  1.00  0.00     0.001 A 
ENDBRANCH  16  20
ENDBRANCH  13  14
ENDBRANCH  11  13
ENDBRANCH   1  11
TORSDOF 6
ENDMDL
MODEL 5
REMARK VINA RESULT:      -8.3      2.902      6.903
REMARK SMILES Cc1nnn(C/C([O-])=N\c2cccc(C#N)c2C)c1-c1cc2ccccc2c2ccccc12
REMARK SMILES IDX 9 1 10 2 12 3 13 4 11 5 14 6 17 7 18 8 15 9 16 10 7 11 8 12
REMARK SMILES IDX 6 13 5 14 4 15 19 16 3 17 2 18 1 19 20 20 21 21 33 22 22 23
REMARK SMILES IDX 32 24 28 25 23 26 27 27 31 28 29 29 24 30 26 31 30 32 25 33
REMARK H PARENT
ROOT
ATOM      1  N   UNL     1      41.529 134.607  13.754  1.00  0.00    -0.267 NA
ENDROOT
BRANCH   1   2
ATOM      2  C   UNL     1      40.206 134.972  14.185  1.00  0.00     0.066 A 
ATOM      3  C   UNL     1      37.919 134.345  14.721  1.00  0.00     0.004 A 
ATOM      4  C   UNL     1      37.662 135.638  15.171  1.00  0.00     0.020 A 
ATOM      5  C   UNL     1      39.189 134.004  14.258  1.00  0.00     0.028 A 
ATOM      6  C   UNL     1      38.678 136.599  15.176  1.00  0.00     0.057 A 
ATOM      7  C   UNL     1      39.964 136.276  14.676  1.00  0.00    -0.008 A 
ATOM      8  C   UNL     1      41.094 137.277  14.740  1.00  0.00     0.048 C 
BRANCH   6   9
ATOM      9  C   UNL     1      38.378 137.910  15.705  1.00  0.00     0.099 C 
ATOM     10  N   UNL     1      38.138 138.958  16.132  1.00  0.00    -0.192 NA
ENDBRANCH   6   9
ENDBRANCH   1   2
BRANCH   1  11
ATOM     11  C   UNL     1      42.449 133.965  14.417  1.00  0.00    -0.014 C 
ATOM     12  O   UNL     1      43.600 134.653  14.780  1.00  0.00    -0.860 OA
BRANCH  11  13
ATOM     13  C   UNL     1      42.369 132.502  14.771  1.00  0.00     0.186 C 
BRANCH  13  14
ATOM     14  N   UNL     1      43.139 132.233  15.984  1.00  0.00    -0.240 N 
ATOM     15  N   UNL     1      44.212 131.458  16.016  1.00  0.00    -0.066 NA
ATOM     16  C   UNL     1      42.886 132.649  17.241  1.00  0.00     0.092 A 
ATOM     17  N   UNL     1      44.689 131.372  17.251  1.00  0.00    -0.135 NA
ATOM     18  C   UNL     1      43.887 132.120  18.034  1.00  0.00     0.088 A 
ATOM     19  C   UNL     1      44.071 132.290  19.507  1.00  0.00     0.071 C 
BRANCH  16  20
ATOM     20  C   UNL     1      41.786 133.550  17.659  1.00  0.00     0.010 A 
ATOM     21  C   UNL     1      40.503 133.009  17.753  1.00  0.00     0.019 A 
ATOM     22  C   UNL     1      41.987 134.928  17.913  1.00  0.00    -0.008 A 
ATOM     23  C   UNL     1      39.410 133.797  18.114  1.00  0.00    -0.017 A 
ATOM     24  C   UNL     1      43.284 135.485  17.874  1.00  0.00     0.009 A 
ATOM     25  C   UNL     1      40.875 135.765  18.237  1.00  0.00    -0.010 A 
ATOM     26  C   UNL     1      38.146 133.196  18.238  1.00  0.00     0.009 A 
ATOM     27  C   UNL     1      39.573 135.188  18.353  1.00  0.00    -0.010 A 
ATOM     28  C   UNL     1      43.484 136.845  18.094  1.00  0.00     0.001 A 
ATOM     29  C   UNL     1      41.115 137.147  18.444  1.00  0.00     0.009 A 
ATOM     30  C   UNL     1      37.038 133.955  18.606  1.00  0.00     0.001 A 
ATOM     31  C   UNL     1      38.423 135.934  18.720  1.00  0.00     0.009 A 
ATOM     32  C   UNL     1      42.404 137.673  18.366  1.00  0.00     0.001 A 
ATOM     33  C   UNL     1      37.177 135.318  18.845  1.00  0.00     0.001 A 
ENDBRANCH  16  20
ENDBRANCH  13  14
ENDBRANCH  11  13
ENDBRANCH   1  11
TORSDOF 6
ENDMDL
MODEL 6
REMARK VINA RESULT:      -8.2      3.530      6.812
REMARK SMILES Cc1nnn(C/C([O-])=N\c2cccc(C#N)c2C)c1-c1cc2ccccc2c2ccccc12
REMARK SMILES IDX 9 1 10 2 12 3 13 4 11 5 14 6 17 7 18 8 15 9 16 10 7 11 8 12
REMARK SMILES IDX 6 13 5 14 4 15 19 16 3 17 2 18 1 19 20 20 21 21 33 22 22 23
REMARK SMILES IDX 32 24 28 25 23 26 27 27 31 28 29 29 24 30 26 31 30 32 25 33
REMARK H PARENT
ROOT
ATOM      1  N   UNL     1      39.664 134.232  14.362  1.00  0.00    -0.267 NA
ENDROOT
BRANCH   1   2
ATOM      2  C   UNL     1      39.356 135.540  13.847  1.00  0.00     0.066 A 
ATOM      3  C   UNL     1      39.853 137.915  13.702  1.00  0.00     0.004 A 
ATOM      4  C   UNL     1      38.863 138.070  12.734  1.00  0.00     0.020 A 
ATOM      5  C   UNL     1      40.119 136.655  14.235  1.00  0.00     0.028 A 
ATOM      6  C   UNL     1      38.140 136.963  12.279  1.00  0.00     0.057 A 
ATOM      7  C   UNL     1      38.376 135.682  12.838  1.00  0.00    -0.008 A 
ATOM      8  C   UNL     1      37.657 134.462  12.310  1.00  0.00     0.048 C 
BRANCH   6   9
ATOM      9  C   UNL     1      37.164 137.165  11.233  1.00  0.00     0.099 C 
ATOM     10  N   UNL     1      36.384 137.330  10.395  1.00  0.00    -0.192 NA
ENDBRANCH   6   9
ENDBRANCH   1   2
BRANCH   1  11
ATOM     11  C   UNL     1      40.734 133.842  14.996  1.00  0.00    -0.014 C 
ATOM     12  O   UNL     1      41.823 133.415  14.248  1.00  0.00    -0.860 OA
BRANCH  11  13
ATOM     13  C   UNL     1      40.847 133.773  16.498  1.00  0.00     0.186 C 
BRANCH  13  14
ATOM     14  N   UNL     1      41.682 134.866  16.992  1.00  0.00    -0.240 N 
ATOM     15  N   UNL     1      41.245 136.103  17.167  1.00  0.00    -0.066 NA
ATOM     16  C   UNL     1      42.997 134.840  17.291  1.00  0.00     0.092 A 
ATOM     17  N   UNL     1      42.225 136.888  17.596  1.00  0.00    -0.135 NA
ATOM     18  C   UNL     1      43.327 136.119  17.697  1.00  0.00     0.088 A 
ATOM     19  C   UNL     1      44.662 136.620  18.144  1.00  0.00     0.071 C 
BRANCH  16  20
ATOM     20  C   UNL     1      43.881 133.651  17.250  1.00  0.00     0.010 A 
ATOM     21  C   UNL     1      44.424 133.288  16.017  1.00  0.00     0.019 A 
ATOM     22  C   UNL     1      44.144 132.860  18.393  1.00  0.00    -0.008 A 
ATOM     23  C   UNL     1      45.243 132.166  15.890  1.00  0.00    -0.017 A 
ATOM     24  C   UNL     1      43.646 133.237  19.660  1.00  0.00     0.009 A 
ATOM     25  C   UNL     1      44.940 131.679  18.278  1.00  0.00    -0.010 A 
ATOM     26  C   UNL     1      45.803 131.867  14.636  1.00  0.00     0.009 A 
ATOM     27  C   UNL     1      45.509 131.337  17.012  1.00  0.00    -0.010 A 
ATOM     28  C   UNL     1      43.877 132.448  20.782  1.00  0.00     0.001 A 
ATOM     29  C   UNL     1      45.145 130.893  19.440  1.00  0.00     0.009 A 
ATOM     30  C   UNL     1      46.632 130.760  14.480  1.00  0.00     0.001 A 
ATOM     31  C   UNL     1      46.352 130.213  16.819  1.00  0.00     0.009 A 
ATOM     32  C   UNL     1      44.613 131.277  20.671  1.00  0.00     0.001 A 
ATOM     33  C   UNL     1      46.905 129.936  15.568  1.00  0.00     0.001 A 
ENDBRANCH  16  20
ENDBRANCH  13  14
ENDBRANCH  11  13
ENDBRANCH   1  11
TORSDOF 6
ENDMDL
MODEL 7
REMARK VINA RESULT:      -8.2      2.399      5.595
REMARK SMILES Cc1nnn(C/C([O-])=N\c2cccc(C#N)c2C)c1-c1cc2ccccc2c2ccccc12
REMARK SMILES IDX 9 1 10 2 12 3 13 4 11 5 14 6 17 7 18 8 15 9 16 10 7 11 8 12
REMARK SMILES IDX 6 13 5 14 4 15 19 16 3 17 2 18 1 19 20 20 21 21 33 22 22 23
REMARK SMILES IDX 32 24 28 25 23 26 27 27 31 28 29 29 24 30 26 31 30 32 25 33
REMARK H PARENT
ROOT
ATOM      1  N   UNL     1      45.300 132.888  15.427  1.00  0.00    -0.267 NA
ENDROOT
BRANCH   1   2
ATOM      2  C   UNL     1      44.173 133.781  15.462  1.00  0.00     0.066 A 
ATOM      3  C   UNL     1      43.255 135.996  15.864  1.00  0.00     0.004 A 
ATOM      4  C   UNL     1      42.014 135.577  15.389  1.00  0.00     0.020 A 
ATOM      5  C   UNL     1      44.335 135.115  15.875  1.00  0.00     0.028 A 
ATOM      6  C   UNL     1      41.847 134.275  14.905  1.00  0.00     0.057 A 
ATOM      7  C   UNL     1      42.927 133.359  14.942  1.00  0.00    -0.008 A 
ATOM      8  C   UNL     1      42.787 131.972  14.359  1.00  0.00     0.048 C 
BRANCH   6   9
ATOM      9  C   UNL     1      40.557 133.904  14.369  1.00  0.00     0.099 C 
ATOM     10  N   UNL     1      39.526 133.605  13.939  1.00  0.00    -0.192 NA
ENDBRANCH   6   9
ENDBRANCH   1   2
BRANCH   1  11
ATOM     11  C   UNL     1      45.471 131.772  16.079  1.00  0.00    -0.014 C 
ATOM     12  O   UNL     1      46.666 131.087  15.906  1.00  0.00    -0.860 OA
BRANCH  11  13
ATOM     13  C   UNL     1      44.429 131.147  16.970  1.00  0.00     0.186 C 
BRANCH  13  14
ATOM     14  N   UNL     1      44.807 131.302  18.373  1.00  0.00    -0.240 N 
ATOM     15  N   UNL     1      45.779 130.615  18.952  1.00  0.00    -0.066 NA
ATOM     16  C   UNL     1      44.233 132.084  19.310  1.00  0.00     0.092 A 
ATOM     17  N   UNL     1      45.881 130.939  20.234  1.00  0.00    -0.135 NA
ATOM     18  C   UNL     1      44.936 131.868  20.480  1.00  0.00     0.088 A 
ATOM     19  C   UNL     1      44.706 132.499  21.815  1.00  0.00     0.071 C 
BRANCH  16  20
ATOM     20  C   UNL     1      43.115 133.032  19.092  1.00  0.00     0.010 A 
ATOM     21  C   UNL     1      41.911 132.516  18.610  1.00  0.00     0.019 A 
ATOM     22  C   UNL     1      43.246 134.424  19.309  1.00  0.00    -0.008 A 
ATOM     23  C   UNL     1      40.820 133.347  18.353  1.00  0.00    -0.017 A 
ATOM     24  C   UNL     1      44.437 134.961  19.845  1.00  0.00     0.009 A 
ATOM     25  C   UNL     1      42.158 135.301  19.007  1.00  0.00    -0.010 A 
ATOM     26  C   UNL     1      39.615 132.774  17.910  1.00  0.00     0.009 A 
ATOM     27  C   UNL     1      40.925 134.752  18.537  1.00  0.00    -0.010 A 
ATOM     28  C   UNL     1      44.582 136.332  20.032  1.00  0.00     0.001 A 
ATOM     29  C   UNL     1      42.345 136.693  19.200  1.00  0.00     0.009 A 
ATOM     30  C   UNL     1      38.506 133.576  17.655  1.00  0.00     0.001 A 
ATOM     31  C   UNL     1      39.778 135.541  18.263  1.00  0.00     0.009 A 
ATOM     32  C   UNL     1      43.546 137.194  19.701  1.00  0.00     0.001 A 
ATOM     33  C   UNL     1      38.589 134.954  17.831  1.00  0.00     0.001 A 
ENDBRANCH  16  20
ENDBRANCH  13  14
ENDBRANCH  11  13
ENDBRANCH   1  11
TORSDOF 6
ENDMDL
MODEL 8
REMARK VINA RESULT:      -8.2      2.460      6.976
REMARK SMILES Cc1nnn(C/C([O-])=N\c2cccc(C#N)c2C)c1-c1cc2ccccc2c2ccccc12
REMARK SMILES IDX 9 1 10 2 12 3 13 4 11 5 14 6 17 7 18 8 15 9 16 10 7 11 8 12
REMARK SMILES IDX 6 13 5 14 4 15 19 16 3 17 2 18 1 19 20 20 21 21 33 22 22 23
REMARK SMILES IDX 32 24 28 25 23 26 27 27 31 28 29 29 24 30 26 31 30 32 25 33
REMARK H PARENT
ROOT
ATOM      1  N   UNL     1      40.322 133.787  17.201  1.00  0.00    -0.267 NA
ENDROOT
BRANCH   1   2
ATOM      2  C   UNL     1      39.104 134.539  17.346  1.00  0.00     0.066 A 
ATOM      3  C   UNL     1      36.765 134.886  16.783  1.00  0.00     0.004 A 
ATOM      4  C   UNL     1      36.678 135.900  17.734  1.00  0.00     0.020 A 
ATOM      5  C   UNL     1      37.960 134.189  16.609  1.00  0.00     0.028 A 
ATOM      6  C   UNL     1      37.783 136.217  18.531  1.00  0.00     0.057 A 
ATOM      7  C   UNL     1      39.013 135.541  18.340  1.00  0.00    -0.008 A 
ATOM      8  C   UNL     1      40.196 135.818  19.239  1.00  0.00     0.048 C 
BRANCH   6   9
ATOM      9  C   UNL     1      37.627 137.236  19.543  1.00  0.00     0.099 C 
ATOM     10  N   UNL     1      37.500 138.054  20.351  1.00  0.00    -0.192 NA
ENDBRANCH   6   9
ENDBRANCH   1   2
BRANCH   1  11
ATOM     11  C   UNL     1      41.120 133.728  16.172  1.00  0.00    -0.014 C 
ATOM     12  O   UNL     1      41.634 132.490  15.809  1.00  0.00    -0.860 OA
BRANCH  11  13
ATOM     13  C   UNL     1      41.567 134.930  15.381  1.00  0.00     0.186 C 
BRANCH  13  14
ATOM     14  N   UNL     1      42.351 135.828  16.226  1.00  0.00    -0.240 N 
ATOM     15  N   UNL     1      42.090 137.118  16.368  1.00  0.00    -0.066 NA
ATOM     16  C   UNL     1      43.463 135.546  16.935  1.00  0.00     0.092 A 
ATOM     17  N   UNL     1      42.979 137.689  17.170  1.00  0.00    -0.135 NA
ATOM     18  C   UNL     1      43.839 136.724  17.551  1.00  0.00     0.088 A 
ATOM     19  C   UNL     1      45.005 136.950  18.458  1.00  0.00     0.071 C 
BRANCH  16  20
ATOM     20  C   UNL     1      44.100 134.214  17.071  1.00  0.00     0.010 A 
ATOM     21  C   UNL     1      44.807 133.719  15.974  1.00  0.00     0.019 A 
ATOM     22  C   UNL     1      43.972 133.427  18.239  1.00  0.00    -0.008 A 
ATOM     23  C   UNL     1      45.412 132.462  16.013  1.00  0.00    -0.017 A 
ATOM     24  C   UNL     1      43.305 133.929  19.377  1.00  0.00     0.009 A 
ATOM     25  C   UNL     1      44.542 132.116  18.283  1.00  0.00    -0.010 A 
ATOM     26  C   UNL     1      46.151 132.027  14.899  1.00  0.00     0.009 A 
ATOM     27  C   UNL     1      45.284 131.636  17.160  1.00  0.00    -0.010 A 
ATOM     28  C   UNL     1      43.151 133.147  20.518  1.00  0.00     0.001 A 
ATOM     29  C   UNL     1      44.356 131.344  19.457  1.00  0.00     0.009 A 
ATOM     30  C   UNL     1      46.775 130.782  14.911  1.00  0.00     0.001 A 
ATOM     31  C   UNL     1      45.927 130.371  17.138  1.00  0.00     0.009 A 
ATOM     32  C   UNL     1      43.664 131.858  20.554  1.00  0.00     0.001 A 
ATOM     33  C   UNL     1      46.662 129.958  16.027  1.00  0.00     0.001 A 
ENDBRANCH  16  20
ENDBRANCH  13  14
ENDBRANCH  11  13
ENDBRANCH   1  11
TORSDOF 6
ENDMDL
MODEL 9
REMARK VINA RESULT:      -8.0      2.683      6.092
REMARK SMILES Cc1nnn(C/C([O-])=N\c2cccc(C#N)c2C)c1-c1cc2ccccc2c2ccccc12
REMARK SMILES IDX 9 1 10 2 12 3 13 4 11 5 14 6 17 7 18 8 15 9 16 10 7 11 8 12
REMARK SMILES IDX 6 13 5 14 4 15 19 16 3 17 2 18 1 19 20 20 21 21 33 22 22 23
REMARK SMILES IDX 32 24 28 25 23 26 27 27 31 28 29 29 24 30 26 31 30 32 25 33
REMARK H PARENT
ROOT
ATOM      1  N   UNL     1      43.492 133.321  14.792  1.00  0.00    -0.267 NA
ENDROOT
BRANCH   1   2
ATOM      2  C   UNL     1      42.266 134.049  14.594  1.00  0.00     0.066 A 
ATOM      3  C   UNL     1      39.869 134.063  14.189  1.00  0.00     0.004 A 
ATOM      4  C   UNL     1      39.842 135.445  14.356  1.00  0.00     0.020 A 
ATOM      5  C   UNL     1      41.067 133.364  14.334  1.00  0.00     0.028 A 
ATOM      6  C   UNL     1      41.010 136.141  14.686  1.00  0.00     0.057 A 
ATOM      7  C   UNL     1      42.240 135.447  14.803  1.00  0.00    -0.008 A 
ATOM      8  C   UNL     1      43.498 136.168  15.229  1.00  0.00     0.048 C 
BRANCH   6   9
ATOM      9  C   UNL     1      40.919 137.566  14.906  1.00  0.00     0.099 C 
ATOM     10  N   UNL     1      40.850 138.707  15.083  1.00  0.00    -0.192 NA
ENDBRANCH   6   9
ENDBRANCH   1   2
BRANCH   1  11
ATOM     11  C   UNL     1      43.837 132.577  15.805  1.00  0.00    -0.014 C 
ATOM     12  O   UNL     1      43.199 131.355  15.970  1.00  0.00    -0.860 OA
BRANCH  11  13
ATOM     13  C   UNL     1      44.852 132.982  16.844  1.00  0.00     0.186 C 
BRANCH  13  14
ATOM     14  N   UNL     1      44.536 132.359  18.127  1.00  0.00    -0.240 N 
ATOM     15  N   UNL     1      45.277 131.416  18.689  1.00  0.00    -0.066 NA
ATOM     16  C   UNL     1      43.460 132.569  18.913  1.00  0.00     0.092 A 
ATOM     17  N   UNL     1      44.737 131.017  19.833  1.00  0.00    -0.135 NA
ATOM     18  C   UNL     1      43.608 131.733  20.004  1.00  0.00     0.088 A 
ATOM     19  C   UNL     1      42.691 131.587  21.175  1.00  0.00     0.071 C 
BRANCH  16  20
ATOM     20  C   UNL     1      42.379 133.554  18.672  1.00  0.00     0.010 A 
ATOM     21  C   UNL     1      41.131 133.065  18.284  1.00  0.00     0.019 A 
ATOM     22  C   UNL     1      42.587 134.949  18.774  1.00  0.00    -0.008 A 
ATOM     23  C   UNL     1      40.069 133.929  18.012  1.00  0.00    -0.017 A 
ATOM     24  C   UNL     1      43.826 135.463  19.215  1.00  0.00     0.009 A 
ATOM     25  C   UNL     1      41.528 135.855  18.453  1.00  0.00    -0.010 A 
ATOM     26  C   UNL     1      38.819 133.386  17.668  1.00  0.00     0.009 A 
ATOM     27  C   UNL     1      40.249 135.336  18.082  1.00  0.00    -0.010 A 
ATOM     28  C   UNL     1      44.045 136.836  19.288  1.00  0.00     0.001 A 
ATOM     29  C   UNL     1      41.790 137.246  18.529  1.00  0.00     0.009 A 
ATOM     30  C   UNL     1      37.739 134.222  17.400  1.00  0.00     0.001 A 
ATOM     31  C   UNL     1      39.130 136.159  17.798  1.00  0.00     0.009 A 
ATOM     32  C   UNL     1      43.036 137.722  18.937  1.00  0.00     0.001 A 
ATOM     33  C   UNL     1      37.895 135.603  17.465  1.00  0.00     0.001 A 
ENDBRANCH  16  20
ENDBRANCH  13  14
ENDBRANCH  11  13
ENDBRANCH   1  11
TORSDOF 6
ENDMDL


