MODEL 1
REMARK VINA RESULT:      -8.1      0.000      0.000
REMARK SMILES Cc1n[nH+]n(/C=C2\C[C@@H](C)OC2=O)c1-c1c2ccccc2cc2c(N=[N+]=[N-])cccc12
REMARK SMILES IDX 15 1 16 2 17 3 18 4 19 5 20 6 21 7 22 8 23 9 24 10 28 11
REMARK SMILES IDX 29 12 30 13 31 14 14 15 5 16 4 17 2 18 3 19 1 21 6 22 7 23
REMARK SMILES IDX 12 24 8 25 11 26 9 27 13 28 10 29 25 30 26 31 27 32
REMARK H PARENT 4 20
ROOT
ATOM      1  C   UNL     1      43.537 132.681  17.654  1.00  0.00     0.022 A 
ATOM      2  C   UNL     1      44.239 132.338  18.838  1.00  0.00    -0.008 A 
ATOM      3  C   UNL     1      43.968 132.966  20.075  1.00  0.00     0.009 A 
ATOM      4  C   UNL     1      44.685 132.620  21.223  1.00  0.00     0.001 A 
ATOM      5  C   UNL     1      45.671 131.637  21.165  1.00  0.00     0.001 A 
ATOM      6  C   UNL     1      45.942 130.990  19.958  1.00  0.00     0.009 A 
ATOM      7  C   UNL     1      45.234 131.331  18.794  1.00  0.00    -0.017 A 
ATOM      8  C   UNL     1      45.512 130.668  17.595  1.00  0.00     0.018 A 
ATOM      9  C   UNL     1      44.826 130.993  16.413  1.00  0.00    -0.008 A 
ATOM     10  C   UNL     1      45.121 130.319  15.202  1.00  0.00     0.045 A 
ATOM     11  C   UNL     1      44.439 130.677  14.027  1.00  0.00     0.011 A 
ATOM     12  C   UNL     1      43.484 131.690  14.045  1.00  0.00     0.001 A 
ATOM     13  C   UNL     1      43.186 132.356  15.231  1.00  0.00     0.009 A 
ATOM     14  C   UNL     1      43.838 132.013  16.436  1.00  0.00    -0.008 A 
ENDROOT
BRANCH   1  15
ATOM     15  C   UNL     1      42.509 133.751  17.689  1.00  0.00     0.142 A 
ATOM     16  N   UNL     1      42.754 135.073  17.645  1.00  0.00    -0.103 N 
ATOM     17  N   UNL     1      41.589 135.696  17.729  1.00  0.00    -0.012 N 
ATOM     18  C   UNL     1      41.143 133.605  17.844  1.00  0.00     0.137 A 
ATOM     19  N   UNL     1      40.587 134.835  17.846  1.00  0.00     0.020 NA
ATOM     20  H   UNL     1      41.457 136.729  17.661  1.00  0.00     0.527 HD
ATOM     21  C   UNL     1      40.372 132.330  17.925  1.00  0.00     0.076 C 
BRANCH  16  22
ATOM     22  C   UNL     1      44.030 135.697  17.450  1.00  0.00     0.171 C 
BRANCH  22  23
ATOM     23  C   UNL     1      44.385 136.811  18.101  1.00  0.00     0.063 C 
ATOM     24  C   UNL     1      43.945 138.144  17.765  1.00  0.00     0.336 C 
ATOM     25  C   UNL     1      45.415 136.940  19.178  1.00  0.00     0.090 C 
ATOM     26  O   UNL     1      44.637 139.086  18.492  1.00  0.00    -0.459 OA
ATOM     27  C   UNL     1      45.606 138.474  19.341  1.00  0.00     0.178 C 
ATOM     28  O   UNL     1      43.063 138.431  16.914  1.00  0.00    -0.247 OA
ATOM     29  C   UNL     1      47.007 138.922  18.928  1.00  0.00     0.053 C 
ENDBRANCH  22  23
ENDBRANCH  16  22
ENDBRANCH   1  15
BRANCH  10  30
ATOM     30  N   UNL     1      46.116 129.279  15.181  1.00  0.00    -0.060 NA
BRANCH  30  31
ATOM     31  N   UNL     1      47.026 129.247  14.351  1.00  0.00     0.005 N 
ATOM     32  N   UNL     1      47.934 129.217  13.522  1.00  0.00    -0.003 NA
ENDBRANCH  30  31
ENDBRANCH  10  30
TORSDOF 5
ENDMDL
MODEL 2
REMARK VINA RESULT:      -8.0      1.302      2.030
REMARK SMILES Cc1n[nH+]n(/C=C2\C[C@@H](C)OC2=O)c1-c1c2ccccc2cc2c(N=[N+]=[N-])cccc12
REMARK SMILES IDX 15 1 16 2 17 3 18 4 19 5 20 6 21 7 22 8 23 9 24 10 28 11
REMARK SMILES IDX 29 12 30 13 31 14 14 15 5 16 4 17 2 18 3 19 1 21 6 22 7 23
REMARK SMILES IDX 12 24 8 25 11 26 9 27 13 28 10 29 25 30 26 31 27 32
REMARK H PARENT 4 20
ROOT
ATOM      1  C   UNL     1      43.509 132.229  17.600  1.00  0.00     0.022 A 
ATOM      2  C   UNL     1      44.206 131.957  18.805  1.00  0.00    -0.008 A 
ATOM      3  C   UNL     1      43.779 132.477  20.049  1.00  0.00     0.009 A 
ATOM      4  C   UNL     1      44.494 132.207  21.218  1.00  0.00     0.001 A 
ATOM      5  C   UNL     1      45.634 131.407  21.175  1.00  0.00     0.001 A 
ATOM      6  C   UNL     1      46.064 130.868  19.962  1.00  0.00     0.009 A 
ATOM      7  C   UNL     1      45.359 131.135  18.776  1.00  0.00    -0.017 A 
ATOM      8  C   UNL     1      45.798 130.581  17.569  1.00  0.00     0.018 A 
ATOM      9  C   UNL     1      45.119 130.837  16.366  1.00  0.00    -0.008 A 
ATOM     10  C   UNL     1      45.577 130.276  15.149  1.00  0.00     0.045 A 
ATOM     11  C   UNL     1      44.896 130.565  13.955  1.00  0.00     0.011 A 
ATOM     12  C   UNL     1      43.782 131.400  13.960  1.00  0.00     0.001 A 
ATOM     13  C   UNL     1      43.324 131.954  15.153  1.00  0.00     0.009 A 
ATOM     14  C   UNL     1      43.971 131.675  16.376  1.00  0.00    -0.008 A 
ENDROOT
BRANCH   1  15
ATOM     15  C   UNL     1      42.313 133.108  17.621  1.00  0.00     0.142 A 
ATOM     16  N   UNL     1      42.318 134.439  17.433  1.00  0.00    -0.103 N 
ATOM     17  N   UNL     1      41.069 134.863  17.556  1.00  0.00    -0.012 N 
ATOM     18  C   UNL     1      41.007 132.751  17.905  1.00  0.00     0.137 A 
ATOM     19  N   UNL     1      40.245 133.864  17.838  1.00  0.00     0.020 NA
ATOM     20  H   UNL     1      40.754 135.846  17.402  1.00  0.00     0.527 HD
ATOM     21  C   UNL     1      40.480 131.380  18.170  1.00  0.00     0.076 C 
BRANCH  16  22
ATOM     22  C   UNL     1      43.449 135.245  17.073  1.00  0.00     0.171 C 
BRANCH  22  23
ATOM     23  C   UNL     1      43.315 136.427  16.461  1.00  0.00     0.063 C 
ATOM     24  C   UNL     1      43.323 137.710  17.122  1.00  0.00     0.336 C 
ATOM     25  C   UNL     1      42.968 136.668  15.025  1.00  0.00     0.090 C 
ATOM     26  O   UNL     1      42.966 138.713  16.250  1.00  0.00    -0.459 OA
ATOM     27  C   UNL     1      42.665 138.191  14.958  1.00  0.00     0.178 C 
ATOM     28  O   UNL     1      43.598 137.907  18.335  1.00  0.00    -0.247 OA
ATOM     29  C   UNL     1      41.200 138.466  14.622  1.00  0.00     0.053 C 
ENDBRANCH  22  23
ENDBRANCH  16  22
ENDBRANCH   1  15
BRANCH  10  30
ATOM     30  N   UNL     1      46.734 129.420  15.141  1.00  0.00    -0.060 NA
BRANCH  30  31
ATOM     31  N   UNL     1      47.489 129.332  14.171  1.00  0.00     0.005 N 
ATOM     32  N   UNL     1      48.242 129.244  13.203  1.00  0.00    -0.003 NA
ENDBRANCH  30  31
ENDBRANCH  10  30
TORSDOF 5
ENDMDL
MODEL 3
REMARK VINA RESULT:      -8.0      3.457      6.758
REMARK SMILES Cc1n[nH+]n(/C=C2\C[C@@H](C)OC2=O)c1-c1c2ccccc2cc2c(N=[N+]=[N-])cccc12
REMARK SMILES IDX 15 1 16 2 17 3 18 4 19 5 20 6 21 7 22 8 23 9 24 10 28 11
REMARK SMILES IDX 29 12 30 13 31 14 14 15 5 16 4 17 2 18 3 19 1 21 6 22 7 23
REMARK SMILES IDX 12 24 8 25 11 26 9 27 13 28 10 29 25 30 26 31 27 32
REMARK H PARENT 4 20
ROOT
ATOM      1  C   UNL     1      43.231 134.372  17.005  1.00  0.00     0.022 A 
ATOM      2  C   UNL     1      43.257 135.782  16.848  1.00  0.00    -0.008 A 
ATOM      3  C   UNL     1      42.816 136.410  15.661  1.00  0.00     0.009 A 
ATOM      4  C   UNL     1      42.867 137.799  15.527  1.00  0.00     0.001 A 
ATOM      5  C   UNL     1      43.342 138.588  16.572  1.00  0.00     0.001 A 
ATOM      6  C   UNL     1      43.765 137.992  17.761  1.00  0.00     0.009 A 
ATOM      7  C   UNL     1      43.725 136.595  17.909  1.00  0.00    -0.017 A 
ATOM      8  C   UNL     1      44.145 136.014  19.109  1.00  0.00     0.018 A 
ATOM      9  C   UNL     1      44.125 134.620  19.284  1.00  0.00    -0.008 A 
ATOM     10  C   UNL     1      44.559 134.042  20.502  1.00  0.00     0.045 A 
ATOM     11  C   UNL     1      44.552 132.644  20.645  1.00  0.00     0.011 A 
ATOM     12  C   UNL     1      44.129 131.828  19.599  1.00  0.00     0.001 A 
ATOM     13  C   UNL     1      43.699 132.388  18.400  1.00  0.00     0.009 A 
ATOM     14  C   UNL     1      43.675 133.789  18.223  1.00  0.00    -0.008 A 
ENDROOT
BRANCH   1  15
ATOM     15  C   UNL     1      42.762 133.513  15.889  1.00  0.00     0.142 A 
ATOM     16  N   UNL     1      43.547 132.756  15.102  1.00  0.00    -0.103 N 
ATOM     17  N   UNL     1      42.765 132.166  14.211  1.00  0.00    -0.012 N 
ATOM     18  C   UNL     1      41.473 133.386  15.406  1.00  0.00     0.137 A 
ATOM     19  N   UNL     1      41.498 132.522  14.368  1.00  0.00     0.020 NA
ATOM     20  H   UNL     1      43.086 131.469  13.503  1.00  0.00     0.527 HD
ATOM     21  C   UNL     1      40.235 134.015  15.951  1.00  0.00     0.076 C 
BRANCH  16  22
ATOM     22  C   UNL     1      44.958 132.549  15.253  1.00  0.00     0.171 C 
BRANCH  22  23
ATOM     23  C   UNL     1      45.542 131.382  14.956  1.00  0.00     0.063 C 
ATOM     24  C   UNL     1      46.262 130.552  15.892  1.00  0.00     0.336 C 
ATOM     25  C   UNL     1      45.720 130.781  13.598  1.00  0.00     0.090 C 
ATOM     26  O   UNL     1      46.908 129.526  15.240  1.00  0.00    -0.459 OA
ATOM     27  C   UNL     1      46.704 129.600  13.831  1.00  0.00     0.178 C 
ATOM     28  O   UNL     1      46.319 130.732  17.136  1.00  0.00    -0.247 OA
ATOM     29  C   UNL     1      48.042 129.825  13.129  1.00  0.00     0.053 C 
ENDBRANCH  22  23
ENDBRANCH  16  22
ENDBRANCH   1  15
BRANCH  10  30
ATOM     30  N   UNL     1      45.007 134.884  21.579  1.00  0.00    -0.060 NA
BRANCH  30  31
ATOM     31  N   UNL     1      46.197 135.136  21.776  1.00  0.00     0.005 N 
ATOM     32  N   UNL     1      47.385 135.388  21.971  1.00  0.00    -0.003 NA
ENDBRANCH  30  31
ENDBRANCH  10  30
TORSDOF 5
ENDMDL
MODEL 4
REMARK VINA RESULT:      -7.9      3.164      6.232
REMARK SMILES Cc1n[nH+]n(/C=C2\C[C@@H](C)OC2=O)c1-c1c2ccccc2cc2c(N=[N+]=[N-])cccc12
REMARK SMILES IDX 15 1 16 2 17 3 18 4 19 5 20 6 21 7 22 8 23 9 24 10 28 11
REMARK SMILES IDX 29 12 30 13 31 14 14 15 5 16 4 17 2 18 3 19 1 21 6 22 7 23
REMARK SMILES IDX 12 24 8 25 11 26 9 27 13 28 10 29 25 30 26 31 27 32
REMARK H PARENT 4 20
ROOT
ATOM      1  C   UNL     1      43.616 133.569  19.762  1.00  0.00     0.022 A 
ATOM      2  C   UNL     1      43.671 132.896  21.010  1.00  0.00    -0.008 A 
ATOM      3  C   UNL     1      43.095 131.618  21.196  1.00  0.00     0.009 A 
ATOM      4  C   UNL     1      43.151 130.985  22.439  1.00  0.00     0.001 A 
ATOM      5  C   UNL     1      43.790 131.602  23.513  1.00  0.00     0.001 A 
ATOM      6  C   UNL     1      44.381 132.854  23.348  1.00  0.00     0.009 A 
ATOM      7  C   UNL     1      44.330 133.507  22.105  1.00  0.00    -0.017 A 
ATOM      8  C   UNL     1      44.935 134.758  21.953  1.00  0.00     0.018 A 
ATOM      9  C   UNL     1      44.892 135.439  20.725  1.00  0.00    -0.008 A 
ATOM     10  C   UNL     1      45.503 136.709  20.586  1.00  0.00     0.045 A 
ATOM     11  C   UNL     1      45.427 137.381  19.354  1.00  0.00     0.011 A 
ATOM     12  C   UNL     1      44.753 136.811  18.278  1.00  0.00     0.001 A 
ATOM     13  C   UNL     1      44.152 135.562  18.406  1.00  0.00     0.009 A 
ATOM     14  C   UNL     1      44.220 134.847  19.622  1.00  0.00    -0.008 A 
ENDROOT
BRANCH   1  15
ATOM     15  C   UNL     1      42.909 132.943  18.616  1.00  0.00     0.142 A 
ATOM     16  N   UNL     1      43.454 132.085  17.736  1.00  0.00    -0.103 N 
ATOM     17  N   UNL     1      42.519 131.777  16.850  1.00  0.00    -0.012 N 
ATOM     18  C   UNL     1      41.612 133.172  18.197  1.00  0.00     0.137 A 
ATOM     19  N   UNL     1      41.385 132.416  17.102  1.00  0.00     0.020 NA
ATOM     20  H   UNL     1      42.631 131.084  16.079  1.00  0.00     0.527 HD
ATOM     21  C   UNL     1      40.587 134.037  18.854  1.00  0.00     0.076 C 
BRANCH  16  22
ATOM     22  C   UNL     1      44.775 131.529  17.793  1.00  0.00     0.171 C 
BRANCH  22  23
ATOM     23  C   UNL     1      45.566 131.462  16.717  1.00  0.00     0.063 C 
ATOM     24  C   UNL     1      45.639 132.460  15.677  1.00  0.00     0.336 C 
ATOM     25  C   UNL     1      46.398 130.299  16.278  1.00  0.00     0.090 C 
ATOM     26  O   UNL     1      46.393 132.009  14.617  1.00  0.00    -0.459 OA
ATOM     27  C   UNL     1      46.856 130.679  14.841  1.00  0.00     0.178 C 
ATOM     28  O   UNL     1      45.084 133.589  15.705  1.00  0.00    -0.247 OA
ATOM     29  C   UNL     1      46.263 129.744  13.788  1.00  0.00     0.053 C 
ENDBRANCH  22  23
ENDBRANCH  16  22
ENDBRANCH   1  15
BRANCH  10  30
ATOM     30  N   UNL     1      46.191 137.303  21.701  1.00  0.00    -0.060 NA
BRANCH  30  31
ATOM     31  N   UNL     1      47.416 137.260  21.825  1.00  0.00     0.005 N 
ATOM     32  N   UNL     1      48.639 137.215  21.950  1.00  0.00    -0.003 NA
ENDBRANCH  30  31
ENDBRANCH  10  30
TORSDOF 5
ENDMDL
MODEL 5
REMARK VINA RESULT:      -7.9      3.660      6.673
REMARK SMILES Cc1n[nH+]n(/C=C2\C[C@@H](C)OC2=O)c1-c1c2ccccc2cc2c(N=[N+]=[N-])cccc12
REMARK SMILES IDX 15 1 16 2 17 3 18 4 19 5 20 6 21 7 22 8 23 9 24 10 28 11
REMARK SMILES IDX 29 12 30 13 31 14 14 15 5 16 4 17 2 18 3 19 1 21 6 22 7 23
REMARK SMILES IDX 12 24 8 25 11 26 9 27 13 28 10 29 25 30 26 31 27 32
REMARK H PARENT 4 20
ROOT
ATOM      1  C   UNL     1      43.728 133.919  17.752  1.00  0.00     0.022 A 
ATOM      2  C   UNL     1      43.831 135.333  17.812  1.00  0.00    -0.008 A 
ATOM      3  C   UNL     1      43.340 136.162  16.777  1.00  0.00     0.009 A 
ATOM      4  C   UNL     1      43.468 137.550  16.854  1.00  0.00     0.001 A 
ATOM      5  C   UNL     1      44.072 138.139  17.963  1.00  0.00     0.001 A 
ATOM      6  C   UNL     1      44.548 137.342  19.005  1.00  0.00     0.009 A 
ATOM      7  C   UNL     1      44.430 135.944  18.940  1.00  0.00    -0.017 A 
ATOM      8  C   UNL     1      44.905 135.159  19.996  1.00  0.00     0.018 A 
ATOM      9  C   UNL     1      44.810 133.758  19.957  1.00  0.00    -0.008 A 
ATOM     10  C   UNL     1      45.300 132.974  21.029  1.00  0.00     0.045 A 
ATOM     11  C   UNL     1      45.215 131.573  20.956  1.00  0.00     0.011 A 
ATOM     12  C   UNL     1      44.661 130.955  19.839  1.00  0.00     0.001 A 
ATOM     13  C   UNL     1      44.176 131.719  18.781  1.00  0.00     0.009 A 
ATOM     14  C   UNL     1      44.227 133.129  18.823  1.00  0.00    -0.008 A 
ENDROOT
BRANCH   1  15
ATOM     15  C   UNL     1      43.120 133.272  16.563  1.00  0.00     0.142 A 
ATOM     16  N   UNL     1      43.793 132.620  15.599  1.00  0.00    -0.103 N 
ATOM     17  N   UNL     1      42.908 132.214  14.701  1.00  0.00    -0.012 N 
ATOM     18  C   UNL     1      41.790 133.278  16.185  1.00  0.00     0.137 A 
ATOM     19  N   UNL     1      41.681 132.593  15.027  1.00  0.00     0.020 NA
ATOM     20  H   UNL     1      43.129 131.629  13.866  1.00  0.00     0.527 HD
ATOM     21  C   UNL     1      40.639 133.862  16.934  1.00  0.00     0.076 C 
BRANCH  16  22
ATOM     22  C   UNL     1      45.198 132.332  15.585  1.00  0.00     0.171 C 
BRANCH  22  23
ATOM     23  C   UNL     1      45.702 131.276  14.937  1.00  0.00     0.063 C 
ATOM     24  C   UNL     1      45.671 129.915  15.417  1.00  0.00     0.336 C 
ATOM     25  C   UNL     1      46.534 131.291  13.694  1.00  0.00     0.090 C 
ATOM     26  O   UNL     1      46.441 129.097  14.622  1.00  0.00    -0.459 OA
ATOM     27  C   UNL     1      47.069 129.835  13.576  1.00  0.00     0.178 C 
ATOM     28  O   UNL     1      45.045 129.511  16.432  1.00  0.00    -0.247 OA
ATOM     29  C   UNL     1      48.586 129.771  13.741  1.00  0.00     0.053 C 
ENDBRANCH  22  23
ENDBRANCH  16  22
ENDBRANCH   1  15
BRANCH  10  30
ATOM     30  N   UNL     1      45.882 133.612  22.180  1.00  0.00    -0.060 NA
BRANCH  30  31
ATOM     31  N   UNL     1      45.579 133.304  23.334  1.00  0.00     0.005 N 
ATOM     32  N   UNL     1      45.277 132.995  24.486  1.00  0.00    -0.003 NA
ENDBRANCH  30  31
ENDBRANCH  10  30
TORSDOF 5
ENDMDL
MODEL 6
REMARK VINA RESULT:      -7.8      3.485      6.496
REMARK SMILES Cc1n[nH+]n(/C=C2\C[C@@H](C)OC2=O)c1-c1c2ccccc2cc2c(N=[N+]=[N-])cccc12
REMARK SMILES IDX 15 1 16 2 17 3 18 4 19 5 20 6 21 7 22 8 23 9 24 10 28 11
REMARK SMILES IDX 29 12 30 13 31 14 14 15 5 16 4 17 2 18 3 19 1 21 6 22 7 23
REMARK SMILES IDX 12 24 8 25 11 26 9 27 13 28 10 29 25 30 26 31 27 32
REMARK H PARENT 4 20
ROOT
ATOM      1  C   UNL     1      43.860 133.851  17.874  1.00  0.00     0.022 A 
ATOM      2  C   UNL     1      44.347 133.029  18.923  1.00  0.00    -0.008 A 
ATOM      3  C   UNL     1      44.284 131.618  18.857  1.00  0.00     0.009 A 
ATOM      4  C   UNL     1      44.756 130.832  19.911  1.00  0.00     0.001 A 
ATOM      5  C   UNL     1      45.309 131.432  21.040  1.00  0.00     0.001 A 
ATOM      6  C   UNL     1      45.399 132.822  21.120  1.00  0.00     0.009 A 
ATOM      7  C   UNL     1      44.924 133.627  20.070  1.00  0.00    -0.017 A 
ATOM      8  C   UNL     1      45.028 135.018  20.162  1.00  0.00     0.018 A 
ATOM      9  C   UNL     1      44.554 135.849  19.132  1.00  0.00    -0.008 A 
ATOM     10  C   UNL     1      44.659 137.257  19.239  1.00  0.00     0.045 A 
ATOM     11  C   UNL     1      44.156 138.068  18.208  1.00  0.00     0.011 A 
ATOM     12  C   UNL     1      43.554 137.498  17.090  1.00  0.00     0.001 A 
ATOM     13  C   UNL     1      43.448 136.114  16.976  1.00  0.00     0.009 A 
ATOM     14  C   UNL     1      43.956 135.265  17.983  1.00  0.00    -0.008 A 
ENDROOT
BRANCH   1  15
ATOM     15  C   UNL     1      43.235 133.231  16.679  1.00  0.00     0.142 A 
ATOM     16  N   UNL     1      43.896 132.619  15.680  1.00  0.00    -0.103 N 
ATOM     17  N   UNL     1      42.997 132.228  14.790  1.00  0.00    -0.012 N 
ATOM     18  C   UNL     1      41.897 133.228  16.332  1.00  0.00     0.137 A 
ATOM     19  N   UNL     1      41.771 132.577  15.156  1.00  0.00     0.020 NA
ATOM     20  H   UNL     1      43.207 131.672  13.933  1.00  0.00     0.527 HD
ATOM     21  C   UNL     1      40.754 133.771  17.124  1.00  0.00     0.076 C 
BRANCH  16  22
ATOM     22  C   UNL     1      45.304 132.354  15.627  1.00  0.00     0.171 C 
BRANCH  22  23
ATOM     23  C   UNL     1      45.816 131.377  14.870  1.00  0.00     0.063 C 
ATOM     24  C   UNL     1      45.509 129.974  15.007  1.00  0.00     0.336 C 
ATOM     25  C   UNL     1      46.913 131.497  13.860  1.00  0.00     0.090 C 
ATOM     26  O   UNL     1      46.341 129.210  14.220  1.00  0.00    -0.459 OA
ATOM     27  C   UNL     1      47.282 130.024  13.522  1.00  0.00     0.178 C 
ATOM     28  O   UNL     1      44.618 129.488  15.753  1.00  0.00    -0.247 OA
ATOM     29  C   UNL     1      48.699 129.674  13.974  1.00  0.00     0.053 C 
ENDBRANCH  22  23
ENDBRANCH  16  22
ENDBRANCH   1  15
BRANCH  10  30
ATOM     30  N   UNL     1      45.272 137.847  20.400  1.00  0.00    -0.060 NA
BRANCH  30  31
ATOM     31  N   UNL     1      46.493 137.969  20.516  1.00  0.00     0.005 N 
ATOM     32  N   UNL     1      47.711 138.092  20.633  1.00  0.00    -0.003 NA
ENDBRANCH  30  31
ENDBRANCH  10  30
TORSDOF 5
ENDMDL
MODEL 7
REMARK VINA RESULT:      -7.5      3.467      6.115
REMARK SMILES Cc1n[nH+]n(/C=C2\C[C@@H](C)OC2=O)c1-c1c2ccccc2cc2c(N=[N+]=[N-])cccc12
REMARK SMILES IDX 15 1 16 2 17 3 18 4 19 5 20 6 21 7 22 8 23 9 24 10 28 11
REMARK SMILES IDX 29 12 30 13 31 14 14 15 5 16 4 17 2 18 3 19 1 21 6 22 7 23
REMARK SMILES IDX 12 24 8 25 11 26 9 27 13 28 10 29 25 30 26 31 27 32
REMARK H PARENT 4 20
ROOT
ATOM      1  C   UNL     1      43.472 133.614  18.166  1.00  0.00     0.022 A 
ATOM      2  C   UNL     1      44.344 132.793  17.406  1.00  0.00    -0.008 A 
ATOM      3  C   UNL     1      44.708 133.118  16.080  1.00  0.00     0.009 A 
ATOM      4  C   UNL     1      45.557 132.284  15.348  1.00  0.00     0.001 A 
ATOM      5  C   UNL     1      46.068 131.123  15.925  1.00  0.00     0.001 A 
ATOM      6  C   UNL     1      45.736 130.792  17.239  1.00  0.00     0.009 A 
ATOM      7  C   UNL     1      44.881 131.618  17.987  1.00  0.00    -0.017 A 
ATOM      8  C   UNL     1      44.565 131.276  19.305  1.00  0.00     0.018 A 
ATOM      9  C   UNL     1      43.705 132.078  20.074  1.00  0.00    -0.008 A 
ATOM     10  C   UNL     1      43.387 131.718  21.407  1.00  0.00     0.045 A 
ATOM     11  C   UNL     1      42.505 132.523  22.148  1.00  0.00     0.011 A 
ATOM     12  C   UNL     1      41.941 133.662  21.582  1.00  0.00     0.001 A 
ATOM     13  C   UNL     1      42.250 134.024  20.273  1.00  0.00     0.009 A 
ATOM     14  C   UNL     1      43.144 133.251  19.501  1.00  0.00    -0.008 A 
ENDROOT
BRANCH   1  15
ATOM     15  C   UNL     1      42.889 134.836  17.557  1.00  0.00     0.142 A 
ATOM     16  N   UNL     1      41.757 134.885  16.833  1.00  0.00    -0.103 N 
ATOM     17  N   UNL     1      41.589 136.139  16.442  1.00  0.00    -0.012 N 
ATOM     18  C   UNL     1      43.421 136.112  17.551  1.00  0.00     0.137 A 
ATOM     19  N   UNL     1      42.578 136.913  16.863  1.00  0.00     0.020 NA
ATOM     20  H   UNL     1      40.763 136.494  15.913  1.00  0.00     0.527 HD
ATOM     21  C   UNL     1      44.663 136.580  18.232  1.00  0.00     0.076 C 
BRANCH  16  22
ATOM     22  C   UNL     1      40.846 133.802  16.602  1.00  0.00     0.171 C 
BRANCH  22  23
ATOM     23  C   UNL     1      39.925 133.840  15.633  1.00  0.00     0.063 C 
ATOM     24  C   UNL     1      40.207 133.808  14.218  1.00  0.00     0.336 C 
ATOM     25  C   UNL     1      38.458 134.089  15.789  1.00  0.00     0.090 C 
ATOM     26  O   UNL     1      39.070 134.062  13.485  1.00  0.00    -0.459 OA
ATOM     27  C   UNL     1      37.953 134.312  14.335  1.00  0.00     0.178 C 
ATOM     28  O   UNL     1      41.336 133.597  13.701  1.00  0.00    -0.247 OA
ATOM     29  C   UNL     1      37.452 135.739  14.119  1.00  0.00     0.053 C 
ENDBRANCH  22  23
ENDBRANCH  16  22
ENDBRANCH   1  15
BRANCH  10  30
ATOM     30  N   UNL     1      43.962 130.535  21.989  1.00  0.00    -0.060 NA
BRANCH  30  31
ATOM     31  N   UNL     1      44.547 130.546  23.073  1.00  0.00     0.005 N 
ATOM     32  N   UNL     1      45.131 130.557  24.156  1.00  0.00    -0.003 NA
ENDBRANCH  30  31
ENDBRANCH  10  30
TORSDOF 5
ENDMDL
MODEL 8
REMARK VINA RESULT:      -7.5      2.568      5.039
REMARK SMILES Cc1n[nH+]n(/C=C2\C[C@@H](C)OC2=O)c1-c1c2ccccc2cc2c(N=[N+]=[N-])cccc12
REMARK SMILES IDX 15 1 16 2 17 3 18 4 19 5 20 6 21 7 22 8 23 9 24 10 28 11
REMARK SMILES IDX 29 12 30 13 31 14 14 15 5 16 4 17 2 18 3 19 1 21 6 22 7 23
REMARK SMILES IDX 12 24 8 25 11 26 9 27 13 28 10 29 25 30 26 31 27 32
REMARK H PARENT 4 20
ROOT
ATOM      1  C   UNL     1      43.713 134.337  18.222  1.00  0.00     0.022 A 
ATOM      2  C   UNL     1      43.390 135.376  17.312  1.00  0.00    -0.008 A 
ATOM      3  C   UNL     1      42.745 136.562  17.731  1.00  0.00     0.009 A 
ATOM      4  C   UNL     1      42.424 137.563  16.811  1.00  0.00     0.001 A 
ATOM      5  C   UNL     1      42.750 137.409  15.465  1.00  0.00     0.001 A 
ATOM      6  C   UNL     1      43.403 136.254  15.031  1.00  0.00     0.009 A 
ATOM      7  C   UNL     1      43.728 135.237  15.944  1.00  0.00    -0.017 A 
ATOM      8  C   UNL     1      44.389 134.089  15.495  1.00  0.00     0.018 A 
ATOM      9  C   UNL     1      44.719 133.051  16.382  1.00  0.00    -0.008 A 
ATOM     10  C   UNL     1      45.383 131.890  15.915  1.00  0.00     0.045 A 
ATOM     11  C   UNL     1      45.681 130.855  16.816  1.00  0.00     0.011 A 
ATOM     12  C   UNL     1      45.325 130.959  18.158  1.00  0.00     0.001 A 
ATOM     13  C   UNL     1      44.673 132.098  18.625  1.00  0.00     0.009 A 
ATOM     14  C   UNL     1      44.371 133.167  17.755  1.00  0.00    -0.008 A 
ENDROOT
BRANCH   1  15
ATOM     15  C   UNL     1      43.342 134.467  19.654  1.00  0.00     0.142 A 
ATOM     16  N   UNL     1      42.207 134.011  20.212  1.00  0.00    -0.103 N 
ATOM     17  N   UNL     1      42.231 134.346  21.493  1.00  0.00    -0.012 N 
ATOM     18  C   UNL     1      44.036 135.130  20.649  1.00  0.00     0.137 A 
ATOM     19  N   UNL     1      43.330 135.023  21.795  1.00  0.00     0.020 NA
ATOM     20  H   UNL     1      41.509 134.074  22.196  1.00  0.00     0.527 HD
ATOM     21  C   UNL     1      45.367 135.795  20.536  1.00  0.00     0.076 C 
BRANCH  16  22
ATOM     22  C   UNL     1      41.195 133.226  19.566  1.00  0.00     0.171 C 
BRANCH  22  23
ATOM     23  C   UNL     1      40.266 133.773  18.774  1.00  0.00     0.063 C 
ATOM     24  C   UNL     1      40.208 133.627  17.340  1.00  0.00     0.336 C 
ATOM     25  C   UNL     1      39.215 134.764  19.165  1.00  0.00     0.090 C 
ATOM     26  O   UNL     1      39.260 134.466  16.800  1.00  0.00    -0.459 OA
ATOM     27  C   UNL     1      38.633 135.256  17.810  1.00  0.00     0.178 C 
ATOM     28  O   UNL     1      40.928 132.857  16.652  1.00  0.00    -0.247 OA
ATOM     29  C   UNL     1      38.931 136.734  17.564  1.00  0.00     0.053 C 
ENDBRANCH  22  23
ENDBRANCH  16  22
ENDBRANCH   1  15
BRANCH  10  30
ATOM     30  N   UNL     1      45.743 131.777  14.526  1.00  0.00    -0.060 NA
BRANCH  30  31
ATOM     31  N   UNL     1      46.740 131.161  14.147  1.00  0.00     0.005 N 
ATOM     32  N   UNL     1      47.736 130.547  13.767  1.00  0.00    -0.003 NA
ENDBRANCH  30  31
ENDBRANCH  10  30
TORSDOF 5
ENDMDL
MODEL 9
REMARK VINA RESULT:      -7.5      3.403      6.939
REMARK SMILES Cc1n[nH+]n(/C=C2\C[C@@H](C)OC2=O)c1-c1c2ccccc2cc2c(N=[N+]=[N-])cccc12
REMARK SMILES IDX 15 1 16 2 17 3 18 4 19 5 20 6 21 7 22 8 23 9 24 10 28 11
REMARK SMILES IDX 29 12 30 13 31 14 14 15 5 16 4 17 2 18 3 19 1 21 6 22 7 23
REMARK SMILES IDX 12 24 8 25 11 26 9 27 13 28 10 29 25 30 26 31 27 32
REMARK H PARENT 4 20
ROOT
ATOM      1  C   UNL     1      43.145 134.911  16.928  1.00  0.00     0.022 A 
ATOM      2  C   UNL     1      43.094 136.290  16.598  1.00  0.00    -0.008 A 
ATOM      3  C   UNL     1      42.639 136.740  15.337  1.00  0.00     0.009 A 
ATOM      4  C   UNL     1      42.614 138.103  15.033  1.00  0.00     0.001 A 
ATOM      5  C   UNL     1      43.025 139.040  15.978  1.00  0.00     0.001 A 
ATOM      6  C   UNL     1      43.461 138.620  17.235  1.00  0.00     0.009 A 
ATOM      7  C   UNL     1      43.497 137.253  17.555  1.00  0.00    -0.017 A 
ATOM      8  C   UNL     1      43.928 136.849  18.822  1.00  0.00     0.018 A 
ATOM      9  C   UNL     1      43.984 135.488  19.168  1.00  0.00    -0.008 A 
ATOM     10  C   UNL     1      44.429 135.090  20.452  1.00  0.00     0.045 A 
ATOM     11  C   UNL     1      44.498 133.723  20.767  1.00  0.00     0.011 A 
ATOM     12  C   UNL     1      44.140 132.761  19.826  1.00  0.00     0.001 A 
ATOM     13  C   UNL     1      43.700 133.144  18.562  1.00  0.00     0.009 A 
ATOM     14  C   UNL     1      43.600 134.508  18.213  1.00  0.00    -0.008 A 
ENDROOT
BRANCH   1  15
ATOM     15  C   UNL     1      42.744 133.895  15.922  1.00  0.00     0.142 A 
ATOM     16  N   UNL     1      43.585 133.102  15.234  1.00  0.00    -0.103 N 
ATOM     17  N   UNL     1      42.853 132.360  14.418  1.00  0.00    -0.012 N 
ATOM     18  C   UNL     1      41.472 133.626  15.454  1.00  0.00     0.137 A 
ATOM     19  N   UNL     1      41.564 132.648  14.528  1.00  0.00     0.020 NA
ATOM     20  H   UNL     1      43.225 131.606  13.800  1.00  0.00     0.527 HD
ATOM     21  C   UNL     1      40.190 134.234  15.916  1.00  0.00     0.076 C 
BRANCH  16  22
ATOM     22  C   UNL     1      45.005 133.007  15.413  1.00  0.00     0.171 C 
BRANCH  22  23
ATOM     23  C   UNL     1      45.621 131.836  15.608  1.00  0.00     0.063 C 
ATOM     24  C   UNL     1      46.651 131.288  14.758  1.00  0.00     0.336 C 
ATOM     25  C   UNL     1      45.274 130.789  16.618  1.00  0.00     0.090 C 
ATOM     26  O   UNL     1      46.939 129.990  15.111  1.00  0.00    -0.459 OA
ATOM     27  C   UNL     1      46.117 129.554  16.192  1.00  0.00     0.178 C 
ATOM     28  O   UNL     1      47.212 131.891  13.806  1.00  0.00    -0.247 OA
ATOM     29  C   UNL     1      45.236 128.393  15.732  1.00  0.00     0.053 C 
ENDBRANCH  22  23
ENDBRANCH  16  22
ENDBRANCH   1  15
BRANCH  10  30
ATOM     30  N   UNL     1      44.809 136.083  21.422  1.00  0.00    -0.060 NA
BRANCH  30  31
ATOM     31  N   UNL     1      45.968 136.484  21.542  1.00  0.00     0.005 N 
ATOM     32  N   UNL     1      47.125 136.885  21.663  1.00  0.00    -0.003 NA
ENDBRANCH  30  31
ENDBRANCH  10  30
TORSDOF 5
ENDMDL


