REMARK SMILES [N-]=[N+]=Nc1ccc2c3c(cc(/C(O)=N/[NH+]=[N-])c(OC(=O)[C@]4(N)C[C@H](CO)C4)c13)C=C2
REMARK SMILES IDX 18 1 17 2 11 3 10 4 9 5 28 6 8 7 29 8 4 9 7 10 30 11 5 12
REMARK SMILES IDX 6 13 12 14 13 15 14 17 15 18 16 20 3 21 2 22 1 23 19 24
REMARK SMILES IDX 20 25 21 26 27 27 23 28 24 29 22 30 25 33 26 34
REMARK H PARENT 13 16 15 19 22 31 22 32 26 35
ROOT
ATOM      1  O   UNL     1      -0.047   0.377   0.546  1.00  0.00    -0.424 OA
ENDROOT
BRANCH   1   2
ATOM      2  C   UNL     1      -1.299   0.009   1.058  1.00  0.00     0.150 A 
ATOM      3  C   UNL     1      -2.188   0.990   1.625  1.00  0.00     0.062 A 
ATOM      4  C   UNL     1      -3.416   0.579   2.208  1.00  0.00     0.024 A 
ATOM      5  C   UNL     1      -3.747  -0.770   2.175  1.00  0.00    -0.016 A 
ATOM      6  C   UNL     1      -1.692  -1.356   1.023  1.00  0.00     0.036 A 
ATOM      7  C   UNL     1      -2.915  -1.669   1.596  1.00  0.00     0.000 A 
ATOM      8  C   UNL     1      -4.918  -1.513   2.654  1.00  0.00     0.009 C 
ATOM      9  C   UNL     1      -0.946  -2.439   0.481  1.00  0.00     0.049 A 
ATOM     10  C   UNL     1      -3.439  -2.919   1.665  1.00  0.00    -0.017 A 
ATOM     11  C   UNL     1      -4.732  -2.807   2.348  1.00  0.00     0.009 C 
ATOM     12  C   UNL     1      -1.489  -3.760   0.545  1.00  0.00     0.011 A 
ATOM     13  C   UNL     1      -2.745  -4.005   1.141  1.00  0.00     0.009 A 
BRANCH   3  14
ATOM     14  C   UNL     1      -1.889   2.440   1.586  1.00  0.00     0.172 C 
BRANCH  14  15
ATOM     15  O   UNL     1      -2.374   3.247   2.621  1.00  0.00    -0.506 OA
ATOM     16  H   UNL     1      -2.329   4.256   2.622  1.00  0.00     0.293 HD
ENDBRANCH  14  15
BRANCH  14  17
ATOM     17  N   UNL     1      -1.225   2.933   0.579  1.00  0.00    -0.151 NA
BRANCH  17  18
ATOM     18  N   UNL     1      -0.833   4.275   0.453  1.00  0.00    -0.169 N 
ATOM     19  H   UNL     1      -0.830   4.926   1.267  1.00  0.00     0.475 HD
ATOM     20  N   UNL     1      -0.325   4.675  -0.639  1.00  0.00    -0.151 NA
ENDBRANCH  17  18
ENDBRANCH  14  17
ENDBRANCH   3  14
BRANCH   9  21
ATOM     21  N   UNL     1       0.335  -2.201  -0.120  1.00  0.00    -0.060 NA
BRANCH  21  22
ATOM     22  N   UNL     1       1.017  -3.104  -0.607  1.00  0.00     0.005 N 
ATOM     23  N   UNL     1       1.700  -4.003  -1.094  1.00  0.00    -0.003 NA
ENDBRANCH  21  22
ENDBRANCH   9  21
ENDBRANCH   1   2
BRANCH   1  24
ATOM     24  C   UNL     1       0.947   0.990   1.321  1.00  0.00     0.331 C 
ATOM     25  O   UNL     1       0.813   1.069   2.573  1.00  0.00    -0.250 OA
BRANCH  24  26
ATOM     26  C   UNL     1       2.215   1.497   0.662  1.00  0.00     0.116 C 
ATOM     27  C   UNL     1       2.015   2.080  -0.742  1.00  0.00     0.040 C 
ATOM     28  C   UNL     1       3.086   0.382   0.075  1.00  0.00     0.040 C 
ATOM     29  C   UNL     1       2.905   0.980  -1.322  1.00  0.00     0.019 C 
BRANCH  26  30
ATOM     30  N   UNL     1       2.990   2.406   1.513  1.00  0.00    -0.316 NA
ATOM     31  H   UNL     1       2.373   3.200   1.802  1.00  0.00     0.119 HD
ATOM     32  H   UNL     1       3.277   1.897   2.380  1.00  0.00     0.119 HD
ENDBRANCH  26  30
BRANCH  29  33
ATOM     33  C   UNL     1       2.182   0.048  -2.307  1.00  0.00     0.159 C 
BRANCH  33  34
ATOM     34  O   UNL     1       1.934   0.716  -3.513  1.00  0.00    -0.396 OA
ATOM     35  H   UNL     1       2.802   0.769  -3.992  1.00  0.00     0.210 HD
ENDBRANCH  33  34
ENDBRANCH  29  33
ENDBRANCH  24  26
ENDBRANCH   1  24
TORSDOF 12


