REMARK SMILES C#C[C@](O)(c1cc(N)cc(SC(C)(C)C[NH2+]C[C@](C)(O)C=C)ccc2cc1CC2)C(C)(C)C
REMARK SMILES IDX 12 1 13 2 14 3 11 4 10 5 5 6 6 7 27 8 7 9 26 10 28 11 9 12
REMARK SMILES IDX 25 13 29 14 24 15 23 16 3 17 2 18 1 19 4 20 30 22 31 23
REMARK SMILES IDX 32 24 33 25 8 26 15 29 16 30 17 33 18 34 19 35 20 36 21 38
REMARK SMILES IDX 22 39
REMARK H PARENT 4 21 8 27 8 28 16 31 16 32 20 37
ROOT
ATOM      1  C   UNL     1       0.494   0.297  -1.938  1.00  0.00     0.064 C 
ATOM      2  C   UNL     1       1.070  -1.135  -1.977  1.00  0.00     0.029 C 
ATOM      3  C   UNL     1      -0.880   0.259  -1.241  1.00  0.00     0.029 C 
ENDROOT
BRANCH   1   4
ATOM      4  S   UNL     1       1.659   1.452  -1.067  1.00  0.00    -0.114 SA
BRANCH   4   5
ATOM      5  C   UNL     1       1.987   0.568   0.480  1.00  0.00     0.010 A 
ATOM      6  C   UNL     1      -0.513  -0.199   3.802  1.00  0.00     0.002 A 
ATOM      7  C   UNL     1      -0.696   0.927   2.924  1.00  0.00     0.033 A 
ATOM      8  C   UNL     1       0.424  -1.238   3.537  1.00  0.00    -0.040 A 
ATOM      9  C   UNL     1       0.134   1.427   1.886  1.00  0.00     0.033 A 
ATOM     10  C   UNL     1       0.839  -1.595   2.276  1.00  0.00     0.007 A 
ATOM     11  C   UNL     1       1.399  -1.780   4.545  1.00  0.00     0.041 C 
ATOM     12  C   UNL     1       1.464   1.018   1.716  1.00  0.00     0.040 A 
ATOM     13  C   UNL     1       2.173  -1.925   2.314  1.00  0.00    -0.047 A 
ATOM     14  C   UNL     1       2.567  -2.300   3.700  1.00  0.00     0.040 C 
ATOM     15  C   UNL     1       3.127  -1.501   1.370  1.00  0.00     0.005 A 
ATOM     16  C   UNL     1       2.967  -0.449   0.441  1.00  0.00     0.015 A 
BRANCH   6  17
ATOM     17  C   UNL     1      -1.497  -0.363   4.996  1.00  0.00     0.155 C 
BRANCH  17  18
ATOM     18  C   UNL     1      -1.854   0.973   5.555  1.00  0.00    -0.066 C 
ATOM     19  C   UNL     1      -2.135   2.050   6.018  1.00  0.00     0.007 C 
ENDBRANCH  17  18
BRANCH  17  20
ATOM     20  O   UNL     1      -0.890  -1.094   6.040  1.00  0.00    -0.373 OA
ATOM     21  H   UNL     1      -0.159  -0.546   6.431  1.00  0.00     0.213 HD
ENDBRANCH  17  20
BRANCH  17  22
ATOM     22  C   UNL     1      -2.814  -1.142   4.566  1.00  0.00     0.006 C 
ATOM     23  C   UNL     1      -3.740  -1.346   5.794  1.00  0.00     0.015 C 
ATOM     24  C   UNL     1      -2.468  -2.546   4.009  1.00  0.00     0.015 C 
ATOM     25  C   UNL     1      -3.624  -0.386   3.485  1.00  0.00     0.015 C 
ENDBRANCH  17  22
ENDBRANCH   6  17
BRANCH   9  26
ATOM     26  N   UNL     1      -0.388   2.473   1.060  1.00  0.00    -0.399 N 
ATOM     27  H   UNL     1       0.253   3.128   0.562  1.00  0.00     0.156 HD
ATOM     28  H   UNL     1      -1.402   2.723   1.085  1.00  0.00     0.156 HD
ENDBRANCH   9  26
ENDBRANCH   4   5
ENDBRANCH   1   4
BRANCH   1  29
ATOM     29  C   UNL     1       0.350   0.777  -3.416  1.00  0.00     0.278 C 
BRANCH  29  30
ATOM     30  N   UNL     1      -0.160   2.158  -3.554  1.00  0.00    -0.342 N 
ATOM     31  H   UNL     1      -1.050   2.247  -3.015  1.00  0.00     0.346 HD
ATOM     32  H   UNL     1       0.510   2.847  -3.148  1.00  0.00     0.346 HD
BRANCH  30  33
ATOM     33  C   UNL     1      -0.499   2.518  -4.950  1.00  0.00     0.300 C 
BRANCH  33  34
ATOM     34  C   UNL     1       0.711   2.804  -5.904  1.00  0.00     0.128 C 
ATOM     35  C   UNL     1       1.709   3.805  -5.281  1.00  0.00     0.053 C 
BRANCH  34  36
ATOM     36  O   UNL     1       0.221   3.358  -7.105  1.00  0.00    -0.380 OA
ATOM     37  H   UNL     1      -0.231   4.220  -6.894  1.00  0.00     0.212 HD
ENDBRANCH  34  36
BRANCH  34  38
ATOM     38  C   UNL     1       1.447   1.530  -6.274  1.00  0.00     0.005 C 
ATOM     39  C   UNL     1       0.865   0.548  -6.974  1.00  0.00     0.007 C 
ENDBRANCH  34  38
ENDBRANCH  33  34
ENDBRANCH  30  33
ENDBRANCH  29  30
ENDBRANCH   1  29
TORSDOF 13


