REMARK SMILES C#C/C(C#N)=N\[C@H](c1c(C)nnn1-c1c2ccccc2c(C(=O)N=[N+]=[N-])c2ccccc12)C(C)C
REMARK SMILES IDX 8 1 9 2 10 3 11 4 12 5 13 6 7 7 6 8 3 9 2 10 1 11 4 12 5 13
REMARK SMILES IDX 33 14 34 15 35 16 14 17 15 18 32 19 16 20 20 21 31 22 27 23
REMARK SMILES IDX 17 24 19 25 21 26 30 27 28 28 18 29 29 30 22 31 23 32 24 33
REMARK SMILES IDX 25 34 26 35
REMARK H PARENT
ROOT
ATOM      1  C   UNL     1       1.327   1.315  -1.261  1.00  0.00     0.092 A 
ATOM      2  C   UNL     1       1.683   2.374  -2.083  1.00  0.00     0.086 A 
ATOM      3  C   UNL     1       3.056   2.798  -2.498  1.00  0.00     0.071 C 
ATOM      4  N   UNL     1       0.558   2.972  -2.520  1.00  0.00    -0.135 NA
ATOM      5  N   UNL     1      -0.460   2.326  -1.972  1.00  0.00    -0.062 NA
ATOM      6  N   UNL     1      -0.028   1.330  -1.215  1.00  0.00    -0.214 N 
ENDROOT
BRANCH   1   7
ATOM      7  C   UNL     1       2.282   0.356  -0.559  1.00  0.00     0.161 C 
BRANCH   7   8
ATOM      8  N   UNL     1       1.580  -0.448   0.449  1.00  0.00    -0.256 NA
BRANCH   8   9
ATOM      9  C   UNL     1       1.984  -0.721   1.656  1.00  0.00     0.186 C 
BRANCH   9  10
ATOM     10  C   UNL     1       3.227  -0.220   2.189  1.00  0.00    -0.039 C 
ATOM     11  C   UNL     1       4.266   0.199   2.634  1.00  0.00     0.012 C 
ENDBRANCH   9  10
BRANCH   9  12
ATOM     12  C   UNL     1       1.158  -1.539   2.497  1.00  0.00     0.129 C 
ATOM     13  N   UNL     1       0.490  -2.199   3.174  1.00  0.00    -0.190 NA
ENDBRANCH   9  12
ENDBRANCH   8   9
ENDBRANCH   7   8
BRANCH   7  14
ATOM     14  C   UNL     1       3.016  -0.567  -1.572  1.00  0.00     0.014 C 
ATOM     15  C   UNL     1       2.053  -1.492  -2.332  1.00  0.00     0.010 C 
ATOM     16  C   UNL     1       4.115  -1.393  -0.889  1.00  0.00     0.010 C 
ENDBRANCH   7  14
ENDBRANCH   1   7
BRANCH   6  17
ATOM     17  C   UNL     1      -0.916   0.505  -0.440  1.00  0.00     0.082 A 
ATOM     18  C   UNL     1      -1.121   0.783   0.929  1.00  0.00     0.009 A 
ATOM     19  C   UNL     1      -1.582  -0.579  -1.049  1.00  0.00     0.009 A 
ATOM     20  C   UNL     1      -0.503   1.897   1.538  1.00  0.00     0.011 A 
ATOM     21  C   UNL     1      -1.946  -0.068   1.712  1.00  0.00    -0.005 A 
ATOM     22  C   UNL     1      -1.446  -0.823  -2.432  1.00  0.00     0.011 A 
ATOM     23  C   UNL     1      -2.395  -1.444  -0.268  1.00  0.00    -0.005 A 
ATOM     24  C   UNL     1      -0.688   2.163   2.893  1.00  0.00     0.001 A 
ATOM     25  C   UNL     1      -2.124   0.232   3.083  1.00  0.00     0.009 A 
ATOM     26  C   UNL     1      -2.573  -1.189   1.115  1.00  0.00     0.040 A 
ATOM     27  C   UNL     1      -2.069  -1.917  -3.028  1.00  0.00     0.001 A 
ATOM     28  C   UNL     1      -3.006  -2.554  -0.896  1.00  0.00     0.009 A 
ATOM     29  C   UNL     1      -1.496   1.333   3.663  1.00  0.00     0.001 A 
ATOM     30  C   UNL     1      -2.840  -2.784  -2.262  1.00  0.00     0.001 A 
BRANCH  26  31
ATOM     31  C   UNL     1      -3.424  -2.088   1.935  1.00  0.00     0.250 C 
ATOM     32  O   UNL     1      -2.880  -2.889   2.740  1.00  0.00    -0.287 OA
BRANCH  31  33
ATOM     33  N   UNL     1      -4.851  -2.057   1.836  1.00  0.00    -0.017 NA
BRANCH  33  34
ATOM     34  N   UNL     1      -5.429  -1.262   1.093  1.00  0.00     0.009 N 
ATOM     35  N   UNL     1      -6.005  -0.469   0.350  1.00  0.00    -0.003 NA
ENDBRANCH  33  34
ENDBRANCH  31  33
ENDBRANCH  26  31
ENDBRANCH   6  17
TORSDOF 10


