MODEL 1
REMARK VINA RESULT:      -6.5      0.000      0.000
REMARK SMILES CC/C=C(\O)N(C)C(=O)C1(C)CC1
REMARK SMILES IDX 4 1 5 2 3 4 2 5 1 6 6 7 7 8 8 9 9 10 10 11 12 12 13 13 11 14
REMARK H PARENT 5 3
ROOT
ATOM      1  C   UNL     1      45.539 129.925  14.773  1.00  0.00     0.189 C 
ENDROOT
BRANCH   1   2
ATOM      2  O   UNL     1      45.768 128.564  14.968  1.00  0.00    -0.495 OA
ATOM      3  H   UNL     1      45.372 127.869  14.348  1.00  0.00     0.295 HD
ENDBRANCH   1   2
BRANCH   1   4
ATOM      4  C   UNL     1      45.398 130.405  13.528  1.00  0.00     0.039 C 
BRANCH   4   5
ATOM      5  C   UNL     1      46.555 130.556  12.580  1.00  0.00     0.029 C 
ATOM      6  C   UNL     1      47.762 131.180  13.274  1.00  0.00     0.008 C 
ENDBRANCH   4   5
ENDBRANCH   1   4
BRANCH   1   7
ATOM      7  N   UNL     1      45.447 130.804  15.912  1.00  0.00    -0.286 N 
ATOM      8  C   UNL     1      46.000 130.370  17.201  1.00  0.00     0.156 C 
BRANCH   7   9
ATOM      9  C   UNL     1      44.903 132.133  15.739  1.00  0.00     0.234 C 
ATOM     10  O   UNL     1      45.667 133.086  15.420  1.00  0.00    -0.274 OA
BRANCH   9  11
ATOM     11  C   UNL     1      43.430 132.416  15.883  1.00  0.00     0.047 C 
ATOM     12  C   UNL     1      42.733 131.867  17.122  1.00  0.00     0.018 C 
ATOM     13  C   UNL     1      43.059 133.351  17.032  1.00  0.00     0.018 C 
ATOM     14  C   UNL     1      42.598 132.597  14.611  1.00  0.00     0.022 C 
ENDBRANCH   9  11
ENDBRANCH   7   9
ENDBRANCH   1   7
TORSDOF 6
ENDMDL
MODEL 2
REMARK VINA RESULT:      -6.4      1.203      2.181
REMARK SMILES CC/C=C(\O)N(C)C(=O)C1(C)CC1
REMARK SMILES IDX 4 1 5 2 3 4 2 5 1 6 6 7 7 8 8 9 9 10 10 11 12 12 13 13 11 14
REMARK H PARENT 5 3
ROOT
ATOM      1  C   UNL     1      45.979 129.617  14.944  1.00  0.00     0.189 C 
ENDROOT
BRANCH   1   2
ATOM      2  O   UNL     1      45.465 128.371  15.302  1.00  0.00    -0.495 OA
ATOM      3  H   UNL     1      44.653 127.984  14.838  1.00  0.00     0.295 HD
ENDBRANCH   1   2
BRANCH   1   4
ATOM      4  C   UNL     1      47.281 129.740  14.645  1.00  0.00     0.039 C 
BRANCH   4   5
ATOM      5  C   UNL     1      47.820 129.524  13.259  1.00  0.00     0.029 C 
ATOM      6  C   UNL     1      47.316 130.595  12.296  1.00  0.00     0.008 C 
ENDBRANCH   4   5
ENDBRANCH   1   4
BRANCH   1   7
ATOM      7  N   UNL     1      45.104 130.761  14.888  1.00  0.00    -0.286 N 
ATOM      8  C   UNL     1      43.972 130.755  13.952  1.00  0.00     0.156 C 
BRANCH   7   9
ATOM      9  C   UNL     1      45.296 131.847  15.824  1.00  0.00     0.234 C 
ATOM     10  O   UNL     1      45.849 132.914  15.441  1.00  0.00    -0.274 OA
BRANCH   9  11
ATOM     11  C   UNL     1      44.809 131.766  17.249  1.00  0.00     0.047 C 
ATOM     12  C   UNL     1      44.191 133.025  17.846  1.00  0.00     0.018 C 
ATOM     13  C   UNL     1      43.296 131.869  17.422  1.00  0.00     0.018 C 
ATOM     14  C   UNL     1      45.502 130.786  18.197  1.00  0.00     0.022 C 
ENDBRANCH   9  11
ENDBRANCH   7   9
ENDBRANCH   1   7
TORSDOF 6
ENDMDL
MODEL 3
REMARK VINA RESULT:      -6.3      0.738      1.451
REMARK SMILES CC/C=C(\O)N(C)C(=O)C1(C)CC1
REMARK SMILES IDX 4 1 5 2 3 4 2 5 1 6 6 7 7 8 8 9 9 10 10 11 12 12 13 13 11 14
REMARK H PARENT 5 3
ROOT
ATOM      1  C   UNL     1      45.415 129.549  15.252  1.00  0.00     0.189 C 
ENDROOT
BRANCH   1   2
ATOM      2  O   UNL     1      45.136 128.235  15.628  1.00  0.00    -0.495 OA
ATOM      3  H   UNL     1      44.749 128.019  16.538  1.00  0.00     0.295 HD
ENDBRANCH   1   2
BRANCH   1   4
ATOM      4  C   UNL     1      45.722 129.827  13.976  1.00  0.00     0.039 C 
BRANCH   4   5
ATOM      5  C   UNL     1      47.137 129.864  13.472  1.00  0.00     0.029 C 
ATOM      6  C   UNL     1      47.253 130.707  12.206  1.00  0.00     0.008 C 
ENDBRANCH   4   5
ENDBRANCH   1   4
BRANCH   1   7
ATOM      7  N   UNL     1      45.360 130.600  16.238  1.00  0.00    -0.286 N 
ATOM      8  C   UNL     1      45.827 130.329  17.603  1.00  0.00     0.156 C 
BRANCH   7   9
ATOM      9  C   UNL     1      44.943 131.926  15.838  1.00  0.00     0.234 C 
ATOM     10  O   UNL     1      45.802 132.760  15.440  1.00  0.00    -0.274 OA
BRANCH   9  11
ATOM     11  C   UNL     1      43.493 132.338  15.836  1.00  0.00     0.047 C 
ATOM     12  C   UNL     1      43.125 133.586  15.042  1.00  0.00     0.018 C 
ATOM     13  C   UNL     1      42.786 132.209  14.489  1.00  0.00     0.018 C 
ATOM     14  C   UNL     1      42.635 131.980  17.052  1.00  0.00     0.022 C 
ENDBRANCH   9  11
ENDBRANCH   7   9
ENDBRANCH   1   7
TORSDOF 6
ENDMDL
MODEL 4
REMARK VINA RESULT:      -6.0      1.422      1.952
REMARK SMILES CC/C=C(\O)N(C)C(=O)C1(C)CC1
REMARK SMILES IDX 4 1 5 2 3 4 2 5 1 6 6 7 7 8 8 9 9 10 10 11 12 12 13 13 11 14
REMARK H PARENT 5 3
ROOT
ATOM      1  C   UNL     1      44.942 130.641  13.882  1.00  0.00     0.189 C 
ENDROOT
BRANCH   1   2
ATOM      2  O   UNL     1      43.653 130.874  13.403  1.00  0.00    -0.495 OA
ATOM      3  H   UNL     1      43.497 131.353  12.525  1.00  0.00     0.295 HD
ENDBRANCH   1   2
BRANCH   1   4
ATOM      4  C   UNL     1      45.938 130.388  13.020  1.00  0.00     0.039 C 
BRANCH   4   5
ATOM      5  C   UNL     1      47.338 130.895  13.225  1.00  0.00     0.029 C 
ATOM      6  C   UNL     1      48.312 129.749  13.476  1.00  0.00     0.008 C 
ENDBRANCH   4   5
ENDBRANCH   1   4
BRANCH   1   7
ATOM      7  N   UNL     1      45.194 130.684  15.301  1.00  0.00    -0.286 N 
ATOM      8  C   UNL     1      45.610 129.458  15.994  1.00  0.00     0.156 C 
BRANCH   7   9
ATOM      9  C   UNL     1      45.132 131.951  15.994  1.00  0.00     0.234 C 
ATOM     10  O   UNL     1      45.780 132.940  15.552  1.00  0.00    -0.274 OA
BRANCH   9  11
ATOM     11  C   UNL     1      44.271 132.150  17.216  1.00  0.00     0.047 C 
ATOM     12  C   UNL     1      43.361 133.371  17.235  1.00  0.00     0.018 C 
ATOM     13  C   UNL     1      42.771 131.991  16.982  1.00  0.00     0.018 C 
ATOM     14  C   UNL     1      44.776 131.608  18.555  1.00  0.00     0.022 C 
ENDBRANCH   9  11
ENDBRANCH   7   9
ENDBRANCH   1   7
TORSDOF 6
ENDMDL
MODEL 5
REMARK VINA RESULT:      -6.0      1.049      1.137
REMARK SMILES CC/C=C(\O)N(C)C(=O)C1(C)CC1
REMARK SMILES IDX 4 1 5 2 3 4 2 5 1 6 6 7 7 8 8 9 9 10 10 11 12 12 13 13 11 14
REMARK H PARENT 5 3
ROOT
ATOM      1  C   UNL     1      46.341 130.152  15.928  1.00  0.00     0.189 C 
ENDROOT
BRANCH   1   2
ATOM      2  O   UNL     1      47.520 129.672  16.497  1.00  0.00    -0.495 OA
ATOM      3  H   UNL     1      47.701 128.679  16.573  1.00  0.00     0.295 HD
ENDBRANCH   1   2
BRANCH   1   4
ATOM      4  C   UNL     1      45.976 129.741  14.704  1.00  0.00     0.039 C 
BRANCH   4   5
ATOM      5  C   UNL     1      46.961 129.546  13.586  1.00  0.00     0.029 C 
ATOM      6  C   UNL     1      47.133 130.823  12.770  1.00  0.00     0.008 C 
ENDBRANCH   4   5
ENDBRANCH   1   4
BRANCH   1   7
ATOM      7  N   UNL     1      45.519 131.080  16.664  1.00  0.00    -0.286 N 
ATOM      8  C   UNL     1      45.379 130.919  18.117  1.00  0.00     0.156 C 
BRANCH   7   9
ATOM      9  C   UNL     1      44.932 132.208  15.976  1.00  0.00     0.234 C 
ATOM     10  O   UNL     1      45.677 133.105  15.493  1.00  0.00    -0.274 OA
BRANCH   9  11
ATOM     11  C   UNL     1      43.443 132.329  15.771  1.00  0.00     0.047 C 
ATOM     12  C   UNL     1      42.547 131.981  16.953  1.00  0.00     0.018 C 
ATOM     13  C   UNL     1      42.768 133.439  16.573  1.00  0.00     0.018 C 
ATOM     14  C   UNL     1      42.886 132.123  14.361  1.00  0.00     0.022 C 
ENDBRANCH   9  11
ENDBRANCH   7   9
ENDBRANCH   1   7
TORSDOF 6
ENDMDL
MODEL 6
REMARK VINA RESULT:      -6.0      0.863      1.316
REMARK SMILES CC/C=C(\O)N(C)C(=O)C1(C)CC1
REMARK SMILES IDX 4 1 5 2 3 4 2 5 1 6 6 7 7 8 8 9 9 10 10 11 12 12 13 13 11 14
REMARK H PARENT 5 3
ROOT
ATOM      1  C   UNL     1      45.483 129.572  15.214  1.00  0.00     0.189 C 
ENDROOT
BRANCH   1   2
ATOM      2  O   UNL     1      45.174 128.283  15.646  1.00  0.00    -0.495 OA
ATOM      3  H   UNL     1      44.473 128.120  16.358  1.00  0.00     0.295 HD
ENDBRANCH   1   2
BRANCH   1   4
ATOM      4  C   UNL     1      45.744 129.796  13.918  1.00  0.00     0.039 C 
BRANCH   4   5
ATOM      5  C   UNL     1      47.128 129.700  13.340  1.00  0.00     0.029 C 
ATOM      6  C   UNL     1      47.320 130.689  12.194  1.00  0.00     0.008 C 
ENDBRANCH   4   5
ENDBRANCH   1   4
BRANCH   1   7
ATOM      7  N   UNL     1      45.511 130.656  16.165  1.00  0.00    -0.286 N 
ATOM      8  C   UNL     1      45.767 130.363  17.581  1.00  0.00     0.156 C 
BRANCH   7   9
ATOM      9  C   UNL     1      45.387 132.017  15.692  1.00  0.00     0.234 C 
ATOM     10  O   UNL     1      46.358 132.568  15.105  1.00  0.00    -0.274 OA
BRANCH   9  11
ATOM     11  C   UNL     1      44.104 132.796  15.835  1.00  0.00     0.047 C 
ATOM     12  C   UNL     1      42.942 132.397  14.933  1.00  0.00     0.018 C 
ATOM     13  C   UNL     1      42.928 132.006  16.404  1.00  0.00     0.018 C 
ATOM     14  C   UNL     1      44.187 134.252  16.298  1.00  0.00     0.022 C 
ENDBRANCH   9  11
ENDBRANCH   7   9
ENDBRANCH   1   7
TORSDOF 6
ENDMDL
MODEL 7
REMARK VINA RESULT:      -5.9      1.543      1.833
REMARK SMILES CC/C=C(\O)N(C)C(=O)C1(C)CC1
REMARK SMILES IDX 4 1 5 2 3 4 2 5 1 6 6 7 7 8 8 9 9 10 10 11 12 12 13 13 11 14
REMARK H PARENT 5 3
ROOT
ATOM      1  C   UNL     1      46.820 130.405  15.219  1.00  0.00     0.189 C 
ENDROOT
BRANCH   1   2
ATOM      2  O   UNL     1      47.920 129.636  15.597  1.00  0.00    -0.495 OA
ATOM      3  H   UNL     1      48.757 129.600  15.029  1.00  0.00     0.295 HD
ENDBRANCH   1   2
BRANCH   1   4
ATOM      4  C   UNL     1      46.977 131.410  14.344  1.00  0.00     0.039 C 
BRANCH   4   5
ATOM      5  C   UNL     1      47.799 131.275  13.093  1.00  0.00     0.029 C 
ATOM      6  C   UNL     1      47.054 130.484  12.023  1.00  0.00     0.008 C 
ENDBRANCH   4   5
ENDBRANCH   1   4
BRANCH   1   7
ATOM      7  N   UNL     1      45.519 130.107  15.766  1.00  0.00    -0.286 N 
ATOM      8  C   UNL     1      44.920 128.789  15.516  1.00  0.00     0.156 C 
BRANCH   7   9
ATOM      9  C   UNL     1      44.876 131.070  16.631  1.00  0.00     0.234 C 
ATOM     10  O   UNL     1      45.051 131.007  17.879  1.00  0.00    -0.274 OA
BRANCH   9  11
ATOM     11  C   UNL     1      44.029 132.191  16.085  1.00  0.00     0.047 C 
ATOM     12  C   UNL     1      43.437 133.171  17.091  1.00  0.00     0.018 C 
ATOM     13  C   UNL     1      44.627 133.587  16.238  1.00  0.00     0.018 C 
ATOM     14  C   UNL     1      43.269 131.956  14.778  1.00  0.00     0.022 C 
ENDBRANCH   9  11
ENDBRANCH   7   9
ENDBRANCH   1   7
TORSDOF 6
ENDMDL
MODEL 8
REMARK VINA RESULT:      -5.9      1.678      2.194
REMARK SMILES CC/C=C(\O)N(C)C(=O)C1(C)CC1
REMARK SMILES IDX 4 1 5 2 3 4 2 5 1 6 6 7 7 8 8 9 9 10 10 11 12 12 13 13 11 14
REMARK H PARENT 5 3
ROOT
ATOM      1  C   UNL     1      46.893 129.703  15.281  1.00  0.00     0.189 C 
ENDROOT
BRANCH   1   2
ATOM      2  O   UNL     1      47.457 129.837  16.550  1.00  0.00    -0.495 OA
ATOM      3  H   UNL     1      47.402 130.710  17.060  1.00  0.00     0.295 HD
ENDBRANCH   1   2
BRANCH   1   4
ATOM      4  C   UNL     1      47.681 129.723  14.196  1.00  0.00     0.039 C 
BRANCH   4   5
ATOM      5  C   UNL     1      47.765 130.908  13.275  1.00  0.00     0.029 C 
ATOM      6  C   UNL     1      47.086 130.622  11.940  1.00  0.00     0.008 C 
ENDBRANCH   4   5
ENDBRANCH   1   4
BRANCH   1   7
ATOM      7  N   UNL     1      45.468 129.533  15.148  1.00  0.00    -0.286 N 
ATOM      8  C   UNL     1      44.860 128.247  15.516  1.00  0.00     0.156 C 
BRANCH   7   9
ATOM      9  C   UNL     1      44.653 130.660  14.753  1.00  0.00     0.234 C 
ATOM     10  O   UNL     1      44.011 130.620  13.667  1.00  0.00    -0.274 OA
BRANCH   9  11
ATOM     11  C   UNL     1      44.503 131.880  15.626  1.00  0.00     0.047 C 
ATOM     12  C   UNL     1      43.087 132.296  16.005  1.00  0.00     0.018 C 
ATOM     13  C   UNL     1      43.975 131.608  17.032  1.00  0.00     0.018 C 
ATOM     14  C   UNL     1      45.574 132.970  15.539  1.00  0.00     0.022 C 
ENDBRANCH   9  11
ENDBRANCH   7   9
ENDBRANCH   1   7
TORSDOF 6
ENDMDL
MODEL 9
REMARK VINA RESULT:      -5.9      1.350      1.781
REMARK SMILES CC/C=C(\O)N(C)C(=O)C1(C)CC1
REMARK SMILES IDX 4 1 5 2 3 4 2 5 1 6 6 7 7 8 8 9 9 10 10 11 12 12 13 13 11 14
REMARK H PARENT 5 3
ROOT
ATOM      1  C   UNL     1      46.519 130.422  15.537  1.00  0.00     0.189 C 
ENDROOT
BRANCH   1   2
ATOM      2  O   UNL     1      46.863 130.129  16.856  1.00  0.00    -0.495 OA
ATOM      3  H   UNL     1      46.162 129.870  17.538  1.00  0.00     0.295 HD
ENDBRANCH   1   2
BRANCH   1   4
ATOM      4  C   UNL     1      47.361 130.106  14.542  1.00  0.00     0.039 C 
BRANCH   4   5
ATOM      5  C   UNL     1      47.701 131.060  13.433  1.00  0.00     0.029 C 
ATOM      6  C   UNL     1      47.174 130.561  12.091  1.00  0.00     0.008 C 
ENDBRANCH   4   5
ENDBRANCH   1   4
BRANCH   1   7
ATOM      7  N   UNL     1      45.255 131.055  15.254  1.00  0.00    -0.286 N 
ATOM      8  C   UNL     1      44.270 130.352  14.422  1.00  0.00     0.156 C 
BRANCH   7   9
ATOM      9  C   UNL     1      44.941 132.322  15.876  1.00  0.00     0.234 C 
ATOM     10  O   UNL     1      45.527 133.371  15.491  1.00  0.00    -0.274 OA
BRANCH   9  11
ATOM     11  C   UNL     1      43.890 132.444  16.950  1.00  0.00     0.047 C 
ATOM     12  C   UNL     1      44.046 131.559  18.180  1.00  0.00     0.018 C 
ATOM     13  C   UNL     1      44.378 133.042  18.267  1.00  0.00     0.018 C 
ATOM     14  C   UNL     1      42.477 132.861  16.538  1.00  0.00     0.022 C 
ENDBRANCH   9  11
ENDBRANCH   7   9
ENDBRANCH   1   7
TORSDOF 6
ENDMDL


