MODEL 1
REMARK VINA RESULT:      -5.9      0.000      0.000
REMARK SMILES C#C[C@@](O)(c1cc(N=[N+]=[N-])cc(SC(C)(C)C[NH2+]C[C@](C)(O)C=C)ccc2cc1CC2)C(C)(C)C
REMARK SMILES IDX 14 1 15 2 16 3 13 4 12 5 5 6 6 7 29 8 7 9 28 10 30 11 11 12
REMARK SMILES IDX 27 13 31 14 26 15 25 16 3 17 2 18 1 19 4 20 32 22 33 23
REMARK SMILES IDX 34 24 35 25 8 26 9 27 10 28 17 29 18 30 19 33 20 34 21 35
REMARK SMILES IDX 22 36 23 38 24 39
REMARK H PARENT 4 21 18 31 18 32 22 37
ROOT
ATOM      1  C   UNL     1      42.802 133.404  15.782  1.00  0.00     0.064 C 
ATOM      2  C   UNL     1      41.651 133.142  16.773  1.00  0.00     0.029 C 
ATOM      3  C   UNL     1      42.705 132.449  14.574  1.00  0.00     0.029 C 
ENDROOT
BRANCH   1   4
ATOM      4  S   UNL     1      42.739 135.158  15.185  1.00  0.00    -0.114 SA
BRANCH   4   5
ATOM      5  C   UNL     1      42.961 136.064  16.733  1.00  0.00     0.008 A 
ATOM      6  C   UNL     1      45.230 135.982  20.604  1.00  0.00    -0.000 A 
ATOM      7  C   UNL     1      44.241 135.137  20.031  1.00  0.00     0.018 A 
ATOM      8  C   UNL     1      45.480 137.245  20.007  1.00  0.00    -0.040 A 
ATOM      9  C   UNL     1      43.221 135.643  19.211  1.00  0.00     0.039 A 
ATOM     10  C   UNL     1      45.305 137.403  18.643  1.00  0.00     0.007 A 
ATOM     11  C   UNL     1      45.117 138.524  20.702  1.00  0.00     0.041 C 
ATOM     12  C   UNL     1      43.231 135.259  17.864  1.00  0.00     0.025 A 
ATOM     13  C   UNL     1      44.459 138.454  18.424  1.00  0.00    -0.047 A 
ATOM     14  C   UNL     1      44.449 139.364  19.606  1.00  0.00     0.040 C 
ATOM     15  C   UNL     1      43.478 138.516  17.426  1.00  0.00     0.005 A 
ATOM     16  C   UNL     1      42.972 137.482  16.607  1.00  0.00     0.015 A 
BRANCH   6  17
ATOM     17  C   UNL     1      46.139 135.443  21.724  1.00  0.00     0.155 C 
BRANCH  17  18
ATOM     18  C   UNL     1      46.284 133.971  21.586  1.00  0.00    -0.066 C 
ATOM     19  C   UNL     1      46.405 132.777  21.462  1.00  0.00     0.007 C 
ENDBRANCH  17  18
BRANCH  17  20
ATOM     20  O   UNL     1      47.430 136.002  21.588  1.00  0.00    -0.373 OA
ATOM     21  H   UNL     1      47.977 135.398  21.017  1.00  0.00     0.213 HD
ENDBRANCH  17  20
BRANCH  17  22
ATOM     22  C   UNL     1      45.594 135.803  23.169  1.00  0.00     0.006 C 
ATOM     23  C   UNL     1      46.238 137.110  23.690  1.00  0.00     0.015 C 
ATOM     24  C   UNL     1      45.949 134.675  24.172  1.00  0.00     0.015 C 
ATOM     25  C   UNL     1      44.054 135.988  23.190  1.00  0.00     0.015 C 
ENDBRANCH  17  22
ENDBRANCH   6  17
BRANCH   9  26
ATOM     26  N   UNL     1      42.420 136.728  19.701  1.00  0.00    -0.061 NA
BRANCH  26  27
ATOM     27  N   UNL     1      41.576 136.576  20.587  1.00  0.00     0.005 N 
ATOM     28  N   UNL     1      40.741 136.424  21.476  1.00  0.00    -0.003 NA
ENDBRANCH  26  27
ENDBRANCH   9  26
ENDBRANCH   4   5
ENDBRANCH   1   4
BRANCH   1  29
ATOM     29  C   UNL     1      44.186 133.255  16.486  1.00  0.00     0.278 C 
BRANCH  29  30
ATOM     30  N   UNL     1      45.258 132.648  15.655  1.00  0.00    -0.342 N 
ATOM     31  H   UNL     1      44.920 132.439  14.690  1.00  0.00     0.346 HD
ATOM     32  H   UNL     1      46.021 133.353  15.530  1.00  0.00     0.346 HD
BRANCH  30  33
ATOM     33  C   UNL     1      45.807 131.400  16.233  1.00  0.00     0.300 C 
BRANCH  33  34
ATOM     34  C   UNL     1      46.349 130.411  15.162  1.00  0.00     0.128 C 
ATOM     35  C   UNL     1      45.267 129.357  14.847  1.00  0.00     0.053 C 
BRANCH  34  36
ATOM     36  O   UNL     1      47.479 129.757  15.688  1.00  0.00    -0.380 OA
ATOM     37  H   UNL     1      47.190 128.873  16.041  1.00  0.00     0.212 HD
ENDBRANCH  34  36
BRANCH  34  38
ATOM     38  C   UNL     1      46.743 131.151  13.889  1.00  0.00     0.005 C 
ATOM     39  C   UNL     1      47.276 130.544  12.821  1.00  0.00     0.007 C 
ENDBRANCH  34  38
ENDBRANCH  33  34
ENDBRANCH  30  33
ENDBRANCH  29  30
ENDBRANCH   1  29
TORSDOF 14
ENDMDL
MODEL 2
REMARK VINA RESULT:      -5.8      3.622      5.005
REMARK SMILES C#C[C@@](O)(c1cc(N=[N+]=[N-])cc(SC(C)(C)C[NH2+]C[C@](C)(O)C=C)ccc2cc1CC2)C(C)(C)C
REMARK SMILES IDX 14 1 15 2 16 3 13 4 12 5 5 6 6 7 29 8 7 9 28 10 30 11 11 12
REMARK SMILES IDX 27 13 31 14 26 15 25 16 3 17 2 18 1 19 4 20 32 22 33 23
REMARK SMILES IDX 34 24 35 25 8 26 9 27 10 28 17 29 18 30 19 33 20 34 21 35
REMARK SMILES IDX 22 36 23 38 24 39
REMARK H PARENT 4 21 18 31 18 32 22 37
ROOT
ATOM      1  C   UNL     1      44.060 132.563  16.871  1.00  0.00     0.064 C 
ATOM      2  C   UNL     1      43.816 133.739  17.838  1.00  0.00     0.029 C 
ATOM      3  C   UNL     1      44.305 131.257  17.656  1.00  0.00     0.029 C 
ENDROOT
BRANCH   1   4
ATOM      4  S   UNL     1      42.594 132.343  15.757  1.00  0.00    -0.114 SA
BRANCH   4   5
ATOM      5  C   UNL     1      41.797 133.959  15.903  1.00  0.00     0.008 A 
ATOM      6  C   UNL     1      39.665 136.619  18.820  1.00  0.00    -0.000 A 
ATOM      7  C   UNL     1      39.355 135.361  18.236  1.00  0.00     0.018 A 
ATOM      8  C   UNL     1      40.747 137.370  18.293  1.00  0.00    -0.040 A 
ATOM      9  C   UNL     1      39.754 135.033  16.931  1.00  0.00     0.039 A 
ATOM     10  C   UNL     1      41.828 136.712  17.735  1.00  0.00     0.007 A 
ATOM     11  C   UNL     1      40.520 138.658  17.557  1.00  0.00     0.041 C 
ATOM     12  C   UNL     1      40.695 134.006  16.787  1.00  0.00     0.025 A 
ATOM     13  C   UNL     1      42.033 137.190  16.470  1.00  0.00    -0.047 A 
ATOM     14  C   UNL     1      41.428 138.546  16.327  1.00  0.00     0.040 C 
ATOM     15  C   UNL     1      42.421 136.425  15.363  1.00  0.00     0.005 A 
ATOM     16  C   UNL     1      42.454 135.020  15.216  1.00  0.00     0.015 A 
BRANCH   6  17
ATOM     17  C   UNL     1      38.960 137.050  20.121  1.00  0.00     0.155 C 
BRANCH  17  18
ATOM     18  C   UNL     1      38.138 138.261  19.867  1.00  0.00    -0.066 C 
ATOM     19  C   UNL     1      37.478 139.251  19.668  1.00  0.00     0.007 C 
ENDBRANCH  17  18
BRANCH  17  20
ATOM     20  O   UNL     1      38.078 136.027  20.535  1.00  0.00    -0.373 OA
ATOM     21  H   UNL     1      37.198 136.438  20.754  1.00  0.00     0.213 HD
ENDBRANCH  17  20
BRANCH  17  22
ATOM     22  C   UNL     1      39.986 137.326  21.298  1.00  0.00     0.006 C 
ATOM     23  C   UNL     1      41.043 136.199  21.382  1.00  0.00     0.015 C 
ATOM     24  C   UNL     1      39.241 137.368  22.658  1.00  0.00     0.015 C 
ATOM     25  C   UNL     1      40.736 138.672  21.127  1.00  0.00     0.015 C 
ENDBRANCH  17  22
ENDBRANCH   6  17
BRANCH   9  26
ATOM     26  N   UNL     1      39.421 135.933  15.864  1.00  0.00    -0.061 NA
BRANCH  26  27
ATOM     27  N   UNL     1      38.261 136.279  15.633  1.00  0.00     0.005 N 
ATOM     28  N   UNL     1      37.105 136.631  15.409  1.00  0.00    -0.003 NA
ENDBRANCH  26  27
ENDBRANCH   9  26
ENDBRANCH   4   5
ENDBRANCH   1   4
BRANCH   1  29
ATOM     29  C   UNL     1      45.260 132.863  15.922  1.00  0.00     0.278 C 
BRANCH  29  30
ATOM     30  N   UNL     1      45.385 131.956  14.752  1.00  0.00    -0.342 N 
ATOM     31  H   UNL     1      44.720 131.155  14.818  1.00  0.00     0.346 HD
ATOM     32  H   UNL     1      45.098 132.479  13.892  1.00  0.00     0.346 HD
BRANCH  30  33
ATOM     33  C   UNL     1      46.752 131.410  14.583  1.00  0.00     0.300 C 
BRANCH  33  34
ATOM     34  C   UNL     1      46.871 129.912  14.987  1.00  0.00     0.128 C 
ATOM     35  C   UNL     1      45.532 129.201  14.703  1.00  0.00     0.053 C 
BRANCH  34  36
ATOM     36  O   UNL     1      47.138 129.841  16.367  1.00  0.00    -0.380 OA
ATOM     37  H   UNL     1      48.022 129.403  16.491  1.00  0.00     0.212 HD
ENDBRANCH  34  36
BRANCH  34  38
ATOM     38  C   UNL     1      47.998 129.230  14.221  1.00  0.00     0.005 C 
ATOM     39  C   UNL     1      48.168 129.353  12.898  1.00  0.00     0.007 C 
ENDBRANCH  34  38
ENDBRANCH  33  34
ENDBRANCH  30  33
ENDBRANCH  29  30
ENDBRANCH   1  29
TORSDOF 14
ENDMDL
MODEL 3
REMARK VINA RESULT:      -5.8      4.052      7.714
REMARK SMILES C#C[C@@](O)(c1cc(N=[N+]=[N-])cc(SC(C)(C)C[NH2+]C[C@](C)(O)C=C)ccc2cc1CC2)C(C)(C)C
REMARK SMILES IDX 14 1 15 2 16 3 13 4 12 5 5 6 6 7 29 8 7 9 28 10 30 11 11 12
REMARK SMILES IDX 27 13 31 14 26 15 25 16 3 17 2 18 1 19 4 20 32 22 33 23
REMARK SMILES IDX 34 24 35 25 8 26 9 27 10 28 17 29 18 30 19 33 20 34 21 35
REMARK SMILES IDX 22 36 23 38 24 39
REMARK H PARENT 4 21 18 31 18 32 22 37
ROOT
ATOM      1  C   UNL     1      40.577 136.672  15.250  1.00  0.00     0.064 C 
ATOM      2  C   UNL     1      39.554 136.220  16.312  1.00  0.00     0.029 C 
ATOM      3  C   UNL     1      40.141 138.008  14.613  1.00  0.00     0.029 C 
ENDROOT
BRANCH   1   4
ATOM      4  S   UNL     1      42.248 136.876  16.025  1.00  0.00    -0.114 SA
BRANCH   4   5
ATOM      5  C   UNL     1      42.549 135.209  16.656  1.00  0.00     0.008 A 
ATOM      6  C   UNL     1      44.418 131.280  15.561  1.00  0.00    -0.000 A 
ATOM      7  C   UNL     1      43.308 132.010  15.055  1.00  0.00     0.018 A 
ATOM      8  C   UNL     1      45.002 131.685  16.788  1.00  0.00    -0.040 A 
ATOM      9  C   UNL     1      42.503 132.803  15.888  1.00  0.00     0.039 A 
ATOM     10  C   UNL     1      44.979 133.021  17.148  1.00  0.00     0.007 A 
ATOM     11  C   UNL     1      44.892 130.840  18.023  1.00  0.00     0.041 C 
ATOM     12  C   UNL     1      42.532 134.188  15.679  1.00  0.00     0.025 A 
ATOM     13  C   UNL     1      44.421 133.136  18.391  1.00  0.00    -0.047 A 
ATOM     14  C   UNL     1      44.528 131.842  19.126  1.00  0.00     0.040 C 
ATOM     15  C   UNL     1      43.565 134.163  18.808  1.00  0.00     0.005 A 
ATOM     16  C   UNL     1      42.900 135.140  18.034  1.00  0.00     0.015 A 
BRANCH   6  17
ATOM     17  C   UNL     1      45.083 130.200  14.686  1.00  0.00     0.155 C 
BRANCH  17  18
ATOM     18  C   UNL     1      44.908 128.866  15.316  1.00  0.00    -0.066 C 
ATOM     19  C   UNL     1      44.756 127.788  15.834  1.00  0.00     0.007 C 
ENDBRANCH  17  18
BRANCH  17  20
ATOM     20  O   UNL     1      44.437 130.154  13.430  1.00  0.00    -0.373 OA
ATOM     21  H   UNL     1      43.454 130.159  13.579  1.00  0.00     0.213 HD
ENDBRANCH  17  20
BRANCH  17  22
ATOM     22  C   UNL     1      46.623 130.489  14.440  1.00  0.00     0.006 C 
ATOM     23  C   UNL     1      47.097 129.853  13.111  1.00  0.00     0.015 C 
ATOM     24  C   UNL     1      47.472 129.872  15.581  1.00  0.00     0.015 C 
ATOM     25  C   UNL     1      46.938 132.006  14.383  1.00  0.00     0.015 C 
ENDBRANCH  17  22
ENDBRANCH   6  17
BRANCH   9  26
ATOM     26  N   UNL     1      41.940 132.209  17.066  1.00  0.00    -0.061 NA
BRANCH  26  27
ATOM     27  N   UNL     1      40.785 132.437  17.430  1.00  0.00     0.005 N 
ATOM     28  N   UNL     1      39.631 132.655  17.794  1.00  0.00    -0.003 NA
ENDBRANCH  26  27
ENDBRANCH   9  26
ENDBRANCH   4   5
ENDBRANCH   1   4
BRANCH   1  29
ATOM     29  C   UNL     1      40.759 135.577  14.153  1.00  0.00     0.278 C 
BRANCH  29  30
ATOM     30  N   UNL     1      39.559 134.744  13.885  1.00  0.00    -0.342 N 
ATOM     31  H   UNL     1      39.786 133.726  13.914  1.00  0.00     0.346 HD
ATOM     32  H   UNL     1      38.870 134.892  14.659  1.00  0.00     0.346 HD
BRANCH  30  33
ATOM     33  C   UNL     1      38.926 135.039  12.578  1.00  0.00     0.300 C 
BRANCH  33  34
ATOM     34  C   UNL     1      37.436 135.471  12.699  1.00  0.00     0.128 C 
ATOM     35  C   UNL     1      37.353 137.012  12.713  1.00  0.00     0.053 C 
BRANCH  34  36
ATOM     36  O   UNL     1      36.925 134.979  13.915  1.00  0.00    -0.380 OA
ATOM     37  H   UNL     1      36.090 135.475  14.124  1.00  0.00     0.212 HD
ENDBRANCH  34  36
BRANCH  34  38
ATOM     38  C   UNL     1      36.613 134.914  11.544  1.00  0.00     0.005 C 
ATOM     39  C   UNL     1      36.381 135.591  10.412  1.00  0.00     0.007 C 
ENDBRANCH  34  38
ENDBRANCH  33  34
ENDBRANCH  30  33
ENDBRANCH  29  30
ENDBRANCH   1  29
TORSDOF 14
ENDMDL
MODEL 4
REMARK VINA RESULT:      -5.8      1.902      2.278
REMARK SMILES C#C[C@@](O)(c1cc(N=[N+]=[N-])cc(SC(C)(C)C[NH2+]C[C@](C)(O)C=C)ccc2cc1CC2)C(C)(C)C
REMARK SMILES IDX 14 1 15 2 16 3 13 4 12 5 5 6 6 7 29 8 7 9 28 10 30 11 11 12
REMARK SMILES IDX 27 13 31 14 26 15 25 16 3 17 2 18 1 19 4 20 32 22 33 23
REMARK SMILES IDX 34 24 35 25 8 26 9 27 10 28 17 29 18 30 19 33 20 34 21 35
REMARK SMILES IDX 22 36 23 38 24 39
REMARK H PARENT 4 21 18 31 18 32 22 37
ROOT
ATOM      1  C   UNL     1      43.108 132.538  15.270  1.00  0.00     0.064 C 
ATOM      2  C   UNL     1      42.616 131.737  16.493  1.00  0.00     0.029 C 
ATOM      3  C   UNL     1      43.160 131.638  14.018  1.00  0.00     0.029 C 
ENDROOT
BRANCH   1   4
ATOM      4  S   UNL     1      41.975 133.970  14.952  1.00  0.00    -0.114 SA
BRANCH   4   5
ATOM      5  C   UNL     1      42.138 134.897  16.494  1.00  0.00     0.008 A 
ATOM      6  C   UNL     1      43.003 134.392  20.868  1.00  0.00    -0.000 A 
ATOM      7  C   UNL     1      41.941 133.964  20.025  1.00  0.00     0.018 A 
ATOM      8  C   UNL     1      43.926 135.349  20.374  1.00  0.00    -0.040 A 
ATOM      9  C   UNL     1      41.507 134.735  18.936  1.00  0.00     0.039 A 
ATOM     10  C   UNL     1      44.215 135.386  19.021  1.00  0.00     0.007 A 
ATOM     11  C   UNL     1      43.980 136.743  20.928  1.00  0.00     0.041 C 
ATOM     12  C   UNL     1      41.715 134.209  17.654  1.00  0.00     0.025 A 
ATOM     13  C   UNL     1      44.002 136.654  18.557  1.00  0.00    -0.047 A 
ATOM     14  C   UNL     1      44.066 137.632  19.681  1.00  0.00     0.040 C 
ATOM     15  C   UNL     1      43.457 136.984  17.311  1.00  0.00     0.005 A 
ATOM     16  C   UNL     1      42.797 136.154  16.377  1.00  0.00     0.015 A 
BRANCH   6  17
ATOM     17  C   UNL     1      43.246 133.676  22.211  1.00  0.00     0.155 C 
BRANCH  17  18
ATOM     18  C   UNL     1      43.024 132.217  22.047  1.00  0.00    -0.066 C 
ATOM     19  C   UNL     1      42.838 131.034  21.904  1.00  0.00     0.007 C 
ENDBRANCH  17  18
BRANCH  17  20
ATOM     20  O   UNL     1      44.594 133.851  22.595  1.00  0.00    -0.373 OA
ATOM     21  H   UNL     1      44.841 134.805  22.456  1.00  0.00     0.213 HD
ENDBRANCH  17  20
BRANCH  17  22
ATOM     22  C   UNL     1      42.323 134.241  23.370  1.00  0.00     0.006 C 
ATOM     23  C   UNL     1      43.015 135.418  24.099  1.00  0.00     0.015 C 
ATOM     24  C   UNL     1      42.050 133.136  24.423  1.00  0.00     0.015 C 
ATOM     25  C   UNL     1      40.954 134.743  22.845  1.00  0.00     0.015 C 
ENDBRANCH  17  22
ENDBRANCH   6  17
BRANCH   9  26
ATOM     26  N   UNL     1      41.155 136.107  19.161  1.00  0.00    -0.061 NA
BRANCH  26  27
ATOM     27  N   UNL     1      40.139 136.433  19.776  1.00  0.00     0.005 N 
ATOM     28  N   UNL     1      39.120 136.761  20.382  1.00  0.00    -0.003 NA
ENDBRANCH  26  27
ENDBRANCH   9  26
ENDBRANCH   4   5
ENDBRANCH   1   4
BRANCH   1  29
ATOM     29  C   UNL     1      44.508 133.169  15.547  1.00  0.00     0.278 C 
BRANCH  29  30
ATOM     30  N   UNL     1      45.666 132.386  15.046  1.00  0.00    -0.342 N 
ATOM     31  H   UNL     1      45.460 131.950  14.121  1.00  0.00     0.346 HD
ATOM     32  H   UNL     1      46.460 133.043  14.867  1.00  0.00     0.346 HD
BRANCH  30  33
ATOM     33  C   UNL     1      46.091 131.315  15.977  1.00  0.00     0.300 C 
BRANCH  33  34
ATOM     34  C   UNL     1      46.404 129.968  15.265  1.00  0.00     0.128 C 
ATOM     35  C   UNL     1      45.269 128.964  15.553  1.00  0.00     0.053 C 
BRANCH  34  36
ATOM     36  O   UNL     1      47.606 129.454  15.788  1.00  0.00    -0.380 OA
ATOM     37  H   UNL     1      48.347 130.058  15.515  1.00  0.00     0.212 HD
ENDBRANCH  34  36
BRANCH  34  38
ATOM     38  C   UNL     1      46.555 130.170  13.762  1.00  0.00     0.005 C 
ATOM     39  C   UNL     1      47.735 130.365  13.161  1.00  0.00     0.007 C 
ENDBRANCH  34  38
ENDBRANCH  33  34
ENDBRANCH  30  33
ENDBRANCH  29  30
ENDBRANCH   1  29
TORSDOF 14
ENDMDL
MODEL 5
REMARK VINA RESULT:      -5.8      3.734      5.212
REMARK SMILES C#C[C@@](O)(c1cc(N=[N+]=[N-])cc(SC(C)(C)C[NH2+]C[C@](C)(O)C=C)ccc2cc1CC2)C(C)(C)C
REMARK SMILES IDX 14 1 15 2 16 3 13 4 12 5 5 6 6 7 29 8 7 9 28 10 30 11 11 12
REMARK SMILES IDX 27 13 31 14 26 15 25 16 3 17 2 18 1 19 4 20 32 22 33 23
REMARK SMILES IDX 34 24 35 25 8 26 9 27 10 28 17 29 18 30 19 33 20 34 21 35
REMARK SMILES IDX 22 36 23 38 24 39
REMARK H PARENT 4 21 18 31 18 32 22 37
ROOT
ATOM      1  C   UNL     1      43.510 132.635  15.835  1.00  0.00     0.064 C 
ATOM      2  C   UNL     1      42.183 133.299  15.415  1.00  0.00     0.029 C 
ATOM      3  C   UNL     1      44.615 133.697  16.013  1.00  0.00     0.029 C 
ENDROOT
BRANCH   1   4
ATOM      4  S   UNL     1      43.282 131.713  17.427  1.00  0.00    -0.114 SA
BRANCH   4   5
ATOM      5  C   UNL     1      42.900 133.064  18.565  1.00  0.00     0.008 A 
ATOM      6  C   UNL     1      39.713 134.585  21.332  1.00  0.00    -0.000 A 
ATOM      7  C   UNL     1      39.782 134.406  19.924  1.00  0.00     0.018 A 
ATOM      8  C   UNL     1      40.905 134.484  22.094  1.00  0.00    -0.040 A 
ATOM      9  C   UNL     1      40.981 134.574  19.215  1.00  0.00     0.039 A 
ATOM     10  C   UNL     1      41.920 133.644  21.669  1.00  0.00     0.007 A 
ATOM     11  C   UNL     1      41.508 135.683  22.766  1.00  0.00     0.041 C 
ATOM     12  C   UNL     1      41.538 133.436  18.617  1.00  0.00     0.025 A 
ATOM     13  C   UNL     1      43.081 134.360  21.582  1.00  0.00    -0.047 A 
ATOM     14  C   UNL     1      43.003 135.576  22.442  1.00  0.00     0.040 C 
ATOM     15  C   UNL     1      44.060 134.208  20.592  1.00  0.00     0.005 A 
ATOM     16  C   UNL     1      43.991 133.502  19.369  1.00  0.00     0.015 A 
BRANCH   6  17
ATOM     17  C   UNL     1      38.339 134.687  22.022  1.00  0.00     0.155 C 
BRANCH  17  18
ATOM     18  C   UNL     1      37.308 134.022  21.185  1.00  0.00    -0.066 C 
ATOM     19  C   UNL     1      36.468 133.493  20.500  1.00  0.00     0.007 C 
ENDBRANCH  17  18
BRANCH  17  20
ATOM     20  O   UNL     1      38.383 133.998  23.254  1.00  0.00    -0.373 OA
ATOM     21  H   UNL     1      38.916 133.166  23.132  1.00  0.00     0.213 HD
ENDBRANCH  17  20
BRANCH  17  22
ATOM     22  C   UNL     1      37.921 136.189  22.311  1.00  0.00     0.006 C 
ATOM     23  C   UNL     1      36.382 136.349  22.273  1.00  0.00     0.015 C 
ATOM     24  C   UNL     1      38.513 137.128  21.227  1.00  0.00     0.015 C 
ATOM     25  C   UNL     1      38.420 136.687  23.692  1.00  0.00     0.015 C 
ENDBRANCH  17  22
ENDBRANCH   6  17
BRANCH   9  26
ATOM     26  N   UNL     1      41.713 135.796  19.383  1.00  0.00    -0.061 NA
BRANCH  26  27
ATOM     27  N   UNL     1      41.800 136.639  18.488  1.00  0.00     0.005 N 
ATOM     28  N   UNL     1      41.891 137.474  17.590  1.00  0.00    -0.003 NA
ENDBRANCH  26  27
ENDBRANCH   9  26
ENDBRANCH   4   5
ENDBRANCH   1   4
BRANCH   1  29
ATOM     29  C   UNL     1      43.948 131.560  14.792  1.00  0.00     0.278 C 
BRANCH  29  30
ATOM     30  N   UNL     1      44.489 130.303  15.368  1.00  0.00    -0.342 N 
ATOM     31  H   UNL     1      45.012 130.482  16.253  1.00  0.00     0.346 HD
ATOM     32  H   UNL     1      43.686 129.691  15.646  1.00  0.00     0.346 HD
BRANCH  30  33
ATOM     33  C   UNL     1      45.386 129.576  14.440  1.00  0.00     0.300 C 
BRANCH  33  34
ATOM     34  C   UNL     1      46.891 129.908  14.652  1.00  0.00     0.128 C 
ATOM     35  C   UNL     1      47.752 128.841  13.943  1.00  0.00     0.053 C 
BRANCH  34  36
ATOM     36  O   UNL     1      47.167 129.869  16.032  1.00  0.00    -0.380 OA
ATOM     37  H   UNL     1      48.075 130.244  16.178  1.00  0.00     0.212 HD
ENDBRANCH  34  36
BRANCH  34  38
ATOM     38  C   UNL     1      47.224 131.293  14.111  1.00  0.00     0.005 C 
ATOM     39  C   UNL     1      47.885 131.494  12.964  1.00  0.00     0.007 C 
ENDBRANCH  34  38
ENDBRANCH  33  34
ENDBRANCH  30  33
ENDBRANCH  29  30
ENDBRANCH   1  29
TORSDOF 14
ENDMDL
MODEL 6
REMARK VINA RESULT:      -5.8      3.280      6.353
REMARK SMILES C#C[C@@](O)(c1cc(N=[N+]=[N-])cc(SC(C)(C)C[NH2+]C[C@](C)(O)C=C)ccc2cc1CC2)C(C)(C)C
REMARK SMILES IDX 14 1 15 2 16 3 13 4 12 5 5 6 6 7 29 8 7 9 28 10 30 11 11 12
REMARK SMILES IDX 27 13 31 14 26 15 25 16 3 17 2 18 1 19 4 20 32 22 33 23
REMARK SMILES IDX 34 24 35 25 8 26 9 27 10 28 17 29 18 30 19 33 20 34 21 35
REMARK SMILES IDX 22 36 23 38 24 39
REMARK H PARENT 4 21 18 31 18 32 22 37
ROOT
ATOM      1  C   UNL     1      44.473 132.079  20.696  1.00  0.00     0.064 C 
ATOM      2  C   UNL     1      44.884 131.182  21.881  1.00  0.00     0.029 C 
ATOM      3  C   UNL     1      42.994 131.846  20.327  1.00  0.00     0.029 C 
ENDROOT
BRANCH   1   4
ATOM      4  S   UNL     1      44.724 133.863  21.134  1.00  0.00    -0.114 SA
BRANCH   4   5
ATOM      5  C   UNL     1      43.176 134.589  20.549  1.00  0.00     0.008 A 
ATOM      6  C   UNL     1      40.447 134.750  16.991  1.00  0.00    -0.000 A 
ATOM      7  C   UNL     1      41.777 135.196  17.226  1.00  0.00     0.018 A 
ATOM      8  C   UNL     1      39.659 134.337  18.095  1.00  0.00    -0.040 A 
ATOM      9  C   UNL     1      42.189 135.660  18.484  1.00  0.00     0.039 A 
ATOM     10  C   UNL     1      40.272 133.768  19.198  1.00  0.00     0.007 A 
ATOM     11  C   UNL     1      38.469 135.132  18.548  1.00  0.00     0.041 C 
ATOM     12  C   UNL     1      43.142 134.894  19.170  1.00  0.00     0.025 A 
ATOM     13  C   UNL     1      39.898 134.458  20.318  1.00  0.00    -0.047 A 
ATOM     14  C   UNL     1      38.618 135.183  20.074  1.00  0.00     0.040 C 
ATOM     15  C   UNL     1      40.727 134.753  21.408  1.00  0.00     0.005 A 
ATOM     16  C   UNL     1      42.132 134.643  21.516  1.00  0.00     0.015 A 
BRANCH   6  17
ATOM     17  C   UNL     1      39.958 134.537  15.546  1.00  0.00     0.155 C 
BRANCH  17  18
ATOM     18  C   UNL     1      41.010 133.844  14.758  1.00  0.00    -0.066 C 
ATOM     19  C   UNL     1      41.869 133.293  14.116  1.00  0.00     0.007 C 
ENDBRANCH  17  18
BRANCH  17  20
ATOM     20  O   UNL     1      38.824 133.695  15.556  1.00  0.00    -0.373 OA
ATOM     21  H   UNL     1      39.129 132.752  15.463  1.00  0.00     0.213 HD
ENDBRANCH  17  20
BRANCH  17  22
ATOM     22  C   UNL     1      39.557 135.899  14.839  1.00  0.00     0.006 C 
ATOM     23  C   UNL     1      38.519 136.673  15.686  1.00  0.00     0.015 C 
ATOM     24  C   UNL     1      38.913 135.615  13.457  1.00  0.00     0.015 C 
ATOM     25  C   UNL     1      40.777 136.828  14.611  1.00  0.00     0.015 C 
ENDBRANCH  17  22
ENDBRANCH   6  17
BRANCH   9  26
ATOM     26  N   UNL     1      41.425 136.694  19.120  1.00  0.00    -0.061 NA
BRANCH  26  27
ATOM     27  N   UNL     1      41.415 137.854  18.704  1.00  0.00     0.005 N 
ATOM     28  N   UNL     1      41.414 139.013  18.292  1.00  0.00    -0.003 NA
ENDBRANCH  26  27
ENDBRANCH   9  26
ENDBRANCH   4   5
ENDBRANCH   1   4
BRANCH   1  29
ATOM     29  C   UNL     1      45.392 131.822  19.461  1.00  0.00     0.278 C 
BRANCH  29  30
ATOM     30  N   UNL     1      44.787 130.997  18.383  1.00  0.00    -0.342 N 
ATOM     31  H   UNL     1      44.319 130.149  18.769  1.00  0.00     0.346 HD
ATOM     32  H   UNL     1      44.021 131.549  17.931  1.00  0.00     0.346 HD
BRANCH  30  33
ATOM     33  C   UNL     1      45.770 130.560  17.364  1.00  0.00     0.300 C 
BRANCH  33  34
ATOM     34  C   UNL     1      45.283 130.785  15.904  1.00  0.00     0.128 C 
ATOM     35  C   UNL     1      43.869 131.400  15.927  1.00  0.00     0.053 C 
BRANCH  34  36
ATOM     36  O   UNL     1      45.223 129.537  15.256  1.00  0.00    -0.380 OA
ATOM     37  H   UNL     1      45.925 128.950  15.645  1.00  0.00     0.212 HD
ENDBRANCH  34  36
BRANCH  34  38
ATOM     38  C   UNL     1      46.239 131.700  15.147  1.00  0.00     0.005 C 
ATOM     39  C   UNL     1      47.001 131.285  14.127  1.00  0.00     0.007 C 
ENDBRANCH  34  38
ENDBRANCH  33  34
ENDBRANCH  30  33
ENDBRANCH  29  30
ENDBRANCH   1  29
TORSDOF 14
ENDMDL
MODEL 7
REMARK VINA RESULT:      -5.7      1.638      2.483
REMARK SMILES C#C[C@@](O)(c1cc(N=[N+]=[N-])cc(SC(C)(C)C[NH2+]C[C@](C)(O)C=C)ccc2cc1CC2)C(C)(C)C
REMARK SMILES IDX 14 1 15 2 16 3 13 4 12 5 5 6 6 7 29 8 7 9 28 10 30 11 11 12
REMARK SMILES IDX 27 13 31 14 26 15 25 16 3 17 2 18 1 19 4 20 32 22 33 23
REMARK SMILES IDX 34 24 35 25 8 26 9 27 10 28 17 29 18 30 19 33 20 34 21 35
REMARK SMILES IDX 22 36 23 38 24 39
REMARK H PARENT 4 21 18 31 18 32 22 37
ROOT
ATOM      1  C   UNL     1      42.959 133.453  15.886  1.00  0.00     0.064 C 
ATOM      2  C   UNL     1      42.295 134.653  15.180  1.00  0.00     0.029 C 
ATOM      3  C   UNL     1      44.329 133.858  16.467  1.00  0.00     0.029 C 
ENDROOT
BRANCH   1   4
ATOM      4  S   UNL     1      41.869 132.837  17.253  1.00  0.00    -0.114 SA
BRANCH   4   5
ATOM      5  C   UNL     1      42.069 134.149  18.480  1.00  0.00     0.008 A 
ATOM      6  C   UNL     1      44.659 135.443  21.908  1.00  0.00    -0.000 A 
ATOM      7  C   UNL     1      43.785 134.341  21.703  1.00  0.00     0.018 A 
ATOM      8  C   UNL     1      44.630 136.520  20.985  1.00  0.00    -0.040 A 
ATOM      9  C   UNL     1      42.622 134.454  20.926  1.00  0.00     0.039 A 
ATOM     10  C   UNL     1      44.307 136.278  19.661  1.00  0.00     0.007 A 
ATOM     11  C   UNL     1      44.114 137.873  21.378  1.00  0.00     0.041 C 
ATOM     12  C   UNL     1      42.576 133.727  19.730  1.00  0.00     0.025 A 
ATOM     13  C   UNL     1      43.274 137.097  19.300  1.00  0.00    -0.047 A 
ATOM     14  C   UNL     1      43.213 138.280  20.206  1.00  0.00     0.040 C 
ATOM     15  C   UNL     1      42.211 136.745  18.459  1.00  0.00     0.005 A 
ATOM     16  C   UNL     1      41.821 135.467  18.000  1.00  0.00     0.015 A 
BRANCH   6  17
ATOM     17  C   UNL     1      45.747 135.362  22.996  1.00  0.00     0.155 C 
BRANCH  17  18
ATOM     18  C   UNL     1      45.727 136.601  23.816  1.00  0.00    -0.066 C 
ATOM     19  C   UNL     1      45.704 137.612  24.473  1.00  0.00     0.007 C 
ENDBRANCH  17  18
BRANCH  17  20
ATOM     20  O   UNL     1      45.460 134.284  23.863  1.00  0.00    -0.373 OA
ATOM     21  H   UNL     1      44.472 134.171  23.911  1.00  0.00     0.213 HD
ENDBRANCH  17  20
BRANCH  17  22
ATOM     22  C   UNL     1      47.193 135.135  22.386  1.00  0.00     0.006 C 
ATOM     23  C   UNL     1      47.230 133.853  21.521  1.00  0.00     0.015 C 
ATOM     24  C   UNL     1      48.232 134.960  23.524  1.00  0.00     0.015 C 
ATOM     25  C   UNL     1      47.655 136.322  21.503  1.00  0.00     0.015 C 
ENDBRANCH  17  22
ENDBRANCH   6  17
BRANCH   9  26
ATOM     26  N   UNL     1      41.692 135.503  21.230  1.00  0.00    -0.061 NA
BRANCH  26  27
ATOM     27  N   UNL     1      40.503 135.281  21.468  1.00  0.00     0.005 N 
ATOM     28  N   UNL     1      39.316 135.067  21.703  1.00  0.00    -0.003 NA
ENDBRANCH  26  27
ENDBRANCH   9  26
ENDBRANCH   4   5
ENDBRANCH   1   4
BRANCH   1  29
ATOM     29  C   UNL     1      43.115 132.249  14.906  1.00  0.00     0.278 C 
BRANCH  29  30
ATOM     30  N   UNL     1      43.912 131.109  15.426  1.00  0.00    -0.342 N 
ATOM     31  H   UNL     1      44.538 131.405  16.206  1.00  0.00     0.346 HD
ATOM     32  H   UNL     1      43.257 130.412  15.852  1.00  0.00     0.346 HD
BRANCH  30  33
ATOM     33  C   UNL     1      44.743 130.458  14.387  1.00  0.00     0.300 C 
BRANCH  33  34
ATOM     34  C   UNL     1      46.270 130.666  14.601  1.00  0.00     0.128 C 
ATOM     35  C   UNL     1      46.684 130.048  15.953  1.00  0.00     0.053 C 
BRANCH  34  36
ATOM     36  O   UNL     1      46.532 132.049  14.635  1.00  0.00    -0.380 OA
ATOM     37  H   UNL     1      45.941 132.494  13.972  1.00  0.00     0.212 HD
ENDBRANCH  34  36
BRANCH  34  38
ATOM     38  C   UNL     1      47.070 130.030  13.470  1.00  0.00     0.005 C 
ATOM     39  C   UNL     1      47.161 130.562  12.244  1.00  0.00     0.007 C 
ENDBRANCH  34  38
ENDBRANCH  33  34
ENDBRANCH  30  33
ENDBRANCH  29  30
ENDBRANCH   1  29
TORSDOF 14
ENDMDL
MODEL 8
REMARK VINA RESULT:      -5.7      1.625      2.304
REMARK SMILES C#C[C@@](O)(c1cc(N=[N+]=[N-])cc(SC(C)(C)C[NH2+]C[C@](C)(O)C=C)ccc2cc1CC2)C(C)(C)C
REMARK SMILES IDX 14 1 15 2 16 3 13 4 12 5 5 6 6 7 29 8 7 9 28 10 30 11 11 12
REMARK SMILES IDX 27 13 31 14 26 15 25 16 3 17 2 18 1 19 4 20 32 22 33 23
REMARK SMILES IDX 34 24 35 25 8 26 9 27 10 28 17 29 18 30 19 33 20 34 21 35
REMARK SMILES IDX 22 36 23 38 24 39
REMARK H PARENT 4 21 18 31 18 32 22 37
ROOT
ATOM      1  C   UNL     1      42.908 132.919  16.778  1.00  0.00     0.064 C 
ATOM      2  C   UNL     1      43.531 132.030  17.874  1.00  0.00     0.029 C 
ATOM      3  C   UNL     1      41.649 133.634  17.311  1.00  0.00     0.029 C 
ENDROOT
BRANCH   1   4
ATOM      4  S   UNL     1      44.139 134.184  16.211  1.00  0.00    -0.114 SA
BRANCH   4   5
ATOM      5  C   UNL     1      43.982 135.433  17.507  1.00  0.00     0.008 A 
ATOM      6  C   UNL     1      46.045 137.054  21.147  1.00  0.00    -0.000 A 
ATOM      7  C   UNL     1      45.446 135.802  20.838  1.00  0.00     0.018 A 
ATOM      8  C   UNL     1      45.826 138.152  20.276  1.00  0.00    -0.040 A 
ATOM      9  C   UNL     1      44.328 135.706  19.995  1.00  0.00     0.039 A 
ATOM     10  C   UNL     1      45.632 137.924  18.924  1.00  0.00     0.007 A 
ATOM     11  C   UNL     1      45.005 139.335  20.698  1.00  0.00     0.041 C 
ATOM     12  C   UNL     1      44.505 135.058  18.766  1.00  0.00     0.025 A 
ATOM     13  C   UNL     1      44.464 138.519  18.537  1.00  0.00    -0.047 A 
ATOM     14  C   UNL     1      44.097 139.605  19.492  1.00  0.00     0.040 C 
ATOM     15  C   UNL     1      43.549 137.995  17.616  1.00  0.00     0.005 A 
ATOM     16  C   UNL     1      43.474 136.691  17.075  1.00  0.00     0.015 A 
BRANCH   6  17
ATOM     17  C   UNL     1      47.066 137.148  22.297  1.00  0.00     0.155 C 
BRANCH  17  18
ATOM     18  C   UNL     1      48.036 138.238  22.018  1.00  0.00    -0.066 C 
ATOM     19  C   UNL     1      48.828 139.122  21.803  1.00  0.00     0.007 C 
ENDBRANCH  17  18
BRANCH  17  20
ATOM     20  O   UNL     1      46.394 137.486  23.492  1.00  0.00    -0.373 OA
ATOM     21  H   UNL     1      45.687 138.154  23.280  1.00  0.00     0.213 HD
ENDBRANCH  17  20
BRANCH  17  22
ATOM     22  C   UNL     1      47.835 135.781  22.532  1.00  0.00     0.006 C 
ATOM     23  C   UNL     1      48.790 135.888  23.744  1.00  0.00     0.015 C 
ATOM     24  C   UNL     1      48.696 135.431  21.290  1.00  0.00     0.015 C 
ATOM     25  C   UNL     1      46.869 134.595  22.787  1.00  0.00     0.015 C 
ENDBRANCH  17  22
ENDBRANCH   6  17
BRANCH   9  26
ATOM     26  N   UNL     1      43.176 136.508  20.289  1.00  0.00    -0.061 NA
BRANCH  26  27
ATOM     27  N   UNL     1      42.618 136.482  21.387  1.00  0.00     0.005 N 
ATOM     28  N   UNL     1      42.063 136.465  22.484  1.00  0.00    -0.003 NA
ENDBRANCH  26  27
ENDBRANCH   9  26
ENDBRANCH   4   5
ENDBRANCH   1   4
BRANCH   1  29
ATOM     29  C   UNL     1      42.563 132.078  15.510  1.00  0.00     0.278 C 
BRANCH  29  30
ATOM     30  N   UNL     1      43.683 131.888  14.553  1.00  0.00    -0.342 N 
ATOM     31  H   UNL     1      43.355 131.950  13.564  1.00  0.00     0.346 HD
ATOM     32  H   UNL     1      44.356 132.681  14.666  1.00  0.00     0.346 HD
BRANCH  30  33
ATOM     33  C   UNL     1      44.385 130.595  14.727  1.00  0.00     0.300 C 
BRANCH  33  34
ATOM     34  C   UNL     1      45.880 130.644  14.300  1.00  0.00     0.128 C 
ATOM     35  C   UNL     1      46.625 129.441  14.916  1.00  0.00     0.053 C 
BRANCH  34  36
ATOM     36  O   UNL     1      46.449 131.832  14.798  1.00  0.00    -0.380 OA
ATOM     37  H   UNL     1      47.431 131.790  14.656  1.00  0.00     0.212 HD
ENDBRANCH  34  36
BRANCH  34  38
ATOM     38  C   UNL     1      46.014 130.620  12.782  1.00  0.00     0.005 C 
ATOM     39  C   UNL     1      47.185 130.476  12.149  1.00  0.00     0.007 C 
ENDBRANCH  34  38
ENDBRANCH  33  34
ENDBRANCH  30  33
ENDBRANCH  29  30
ENDBRANCH   1  29
TORSDOF 14
ENDMDL
MODEL 9
REMARK VINA RESULT:      -5.5      2.879      5.703
REMARK SMILES C#C[C@@](O)(c1cc(N=[N+]=[N-])cc(SC(C)(C)C[NH2+]C[C@](C)(O)C=C)ccc2cc1CC2)C(C)(C)C
REMARK SMILES IDX 14 1 15 2 16 3 13 4 12 5 5 6 6 7 29 8 7 9 28 10 30 11 11 12
REMARK SMILES IDX 27 13 31 14 26 15 25 16 3 17 2 18 1 19 4 20 32 22 33 23
REMARK SMILES IDX 34 24 35 25 8 26 9 27 10 28 17 29 18 30 19 33 20 34 21 35
REMARK SMILES IDX 22 36 23 38 24 39
REMARK H PARENT 4 21 18 31 18 32 22 37
ROOT
ATOM      1  C   UNL     1      45.388 131.697  15.807  1.00  0.00     0.064 C 
ATOM      2  C   UNL     1      46.523 131.424  14.799  1.00  0.00     0.029 C 
ATOM      3  C   UNL     1      45.135 133.213  15.941  1.00  0.00     0.029 C 
ENDROOT
BRANCH   1   4
ATOM      4  S   UNL     1      43.830 130.861  15.248  1.00  0.00    -0.114 SA
BRANCH   4   5
ATOM      5  C   UNL     1      42.637 132.211  15.391  1.00  0.00     0.008 A 
ATOM      6  C   UNL     1      41.660 135.847  17.833  1.00  0.00    -0.000 A 
ATOM      7  C   UNL     1      41.687 134.454  18.118  1.00  0.00     0.018 A 
ATOM      8  C   UNL     1      41.747 136.270  16.482  1.00  0.00    -0.040 A 
ATOM      9  C   UNL     1      41.355 133.495  17.150  1.00  0.00     0.039 A 
ATOM     10  C   UNL     1      42.458 135.508  15.571  1.00  0.00     0.007 A 
ATOM     11  C   UNL     1      40.581 136.909  15.785  1.00  0.00     0.041 C 
ATOM     12  C   UNL     1      42.379 132.645  16.711  1.00  0.00     0.025 A 
ATOM     13  C   UNL     1      41.650 135.221  14.506  1.00  0.00    -0.047 A 
ATOM     14  C   UNL     1      40.539 136.213  14.420  1.00  0.00     0.040 C 
ATOM     15  C   UNL     1      41.623 134.008  13.808  1.00  0.00     0.005 A 
ATOM     16  C   UNL     1      42.202 132.766  14.153  1.00  0.00     0.015 A 
BRANCH   6  17
ATOM     17  C   UNL     1      41.736 136.864  18.987  1.00  0.00     0.155 C 
BRANCH  17  18
ATOM     18  C   UNL     1      40.624 137.842  18.867  1.00  0.00    -0.066 C 
ATOM     19  C   UNL     1      39.713 138.627  18.774  1.00  0.00     0.007 C 
ENDBRANCH  17  18
BRANCH  17  20
ATOM     20  O   UNL     1      41.564 136.188  20.216  1.00  0.00    -0.373 OA
ATOM     21  H   UNL     1      42.462 135.962  20.580  1.00  0.00     0.213 HD
ENDBRANCH  17  20
BRANCH  17  22
ATOM     22  C   UNL     1      43.127 137.623  19.030  1.00  0.00     0.006 C 
ATOM     23  C   UNL     1      43.296 138.387  20.365  1.00  0.00     0.015 C 
ATOM     24  C   UNL     1      43.204 138.665  17.884  1.00  0.00     0.015 C 
ATOM     25  C   UNL     1      44.332 136.660  18.875  1.00  0.00     0.015 C 
ENDBRANCH  17  22
ENDBRANCH   6  17
BRANCH   9  26
ATOM     26  N   UNL     1      40.104 133.620  16.459  1.00  0.00    -0.061 NA
BRANCH  26  27
ATOM     27  N   UNL     1      39.029 133.715  17.056  1.00  0.00     0.005 N 
ATOM     28  N   UNL     1      37.954 133.816  17.644  1.00  0.00    -0.003 NA
ENDBRANCH  26  27
ENDBRANCH   9  26
ENDBRANCH   4   5
ENDBRANCH   1   4
BRANCH   1  29
ATOM     29  C   UNL     1      45.717 131.073  17.198  1.00  0.00     0.278 C 
BRANCH  29  30
ATOM     30  N   UNL     1      44.697 131.302  18.252  1.00  0.00    -0.342 N 
ATOM     31  H   UNL     1      43.747 131.436  17.842  1.00  0.00     0.346 HD
ATOM     32  H   UNL     1      44.622 130.438  18.837  1.00  0.00     0.346 HD
BRANCH  30  33
ATOM     33  C   UNL     1      44.999 132.473  19.109  1.00  0.00     0.300 C 
BRANCH  33  34
ATOM     34  C   UNL     1      44.522 132.298  20.580  1.00  0.00     0.128 C 
ATOM     35  C   UNL     1      45.750 132.098  21.493  1.00  0.00     0.053 C 
BRANCH  34  36
ATOM     36  O   UNL     1      43.710 131.151  20.653  1.00  0.00    -0.380 OA
ATOM     37  H   UNL     1      43.046 131.191  19.915  1.00  0.00     0.212 HD
ENDBRANCH  34  36
BRANCH  34  38
ATOM     38  C   UNL     1      43.722 133.511  21.040  1.00  0.00     0.005 C 
ATOM     39  C   UNL     1      43.670 133.918  22.315  1.00  0.00     0.007 C 
ENDBRANCH  34  38
ENDBRANCH  33  34
ENDBRANCH  30  33
ENDBRANCH  29  30
ENDBRANCH   1  29
TORSDOF 14
ENDMDL


