REMARK SMILES Cc1[nH+]nn([C@@H]2O[C@@]2(C#N)[NH2+]c2cccc(C#N)c2C)c1-c1cc2ccccc2c2ccccc12
REMARK SMILES IDX 11 1 8 4 6 5 7 6 5 7 2 8 3 9 21 10 4 11 1 12 22 14 23 15
REMARK SMILES IDX 35 16 24 17 34 18 30 19 25 20 29 21 33 22 31 23 26 24 28 25
REMARK SMILES IDX 32 26 27 27 9 28 10 29 12 30 13 31 19 32 14 33 16 34 15 35
REMARK SMILES IDX 20 36 17 37 18 38
REMARK H PARENT 11 2 11 3 3 13
ROOT
ATOM      1  N   UNL     1       2.148   2.795  -0.555  1.00  0.00    -0.267 N 
ATOM      2  H   UNL     1       3.069   2.588  -0.108  1.00  0.00     0.356 HD
ATOM      3  H   UNL     1       2.308   3.634  -1.161  1.00  0.00     0.356 HD
ENDROOT
BRANCH   1   4
ATOM      4  C   UNL     1       1.135   3.143   0.457  1.00  0.00     0.368 C 
ATOM      5  C   UNL     1       1.345   2.692   1.861  1.00  0.00     0.455 C 
ATOM      6  O   UNL     1       1.672   3.998   1.442  1.00  0.00    -0.253 OA
BRANCH   5   7
ATOM      7  N   UNL     1       0.144   2.682   2.690  1.00  0.00    -0.089 N 
ATOM      8  C   UNL     1      -1.794   2.187   3.577  1.00  0.00     0.170 A 
ATOM      9  N   UNL     1      -1.326   3.313   4.149  1.00  0.00    -0.147 N 
ATOM     10  C   UNL     1      -0.857   1.781   2.650  1.00  0.00     0.204 A 
ATOM     11  N   UNL     1      -0.151   3.594   3.604  1.00  0.00     0.091 NA
ATOM     12  C   UNL     1      -3.127   1.572   3.853  1.00  0.00     0.100 C 
ATOM     13  H   UNL     1      -1.794   3.889   4.883  1.00  0.00     0.342 HD
BRANCH  10  14
ATOM     14  C   UNL     1      -0.941   0.636   1.719  1.00  0.00     0.036 A 
ATOM     15  C   UNL     1      -1.850   0.720   0.666  1.00  0.00     0.022 A 
ATOM     16  C   UNL     1      -0.111  -0.501   1.848  1.00  0.00    -0.006 A 
ATOM     17  C   UNL     1      -1.940  -0.292  -0.290  1.00  0.00    -0.017 A 
ATOM     18  C   UNL     1       0.802  -0.606   2.920  1.00  0.00     0.009 A 
ATOM     19  C   UNL     1      -0.205  -1.563   0.898  1.00  0.00    -0.010 A 
ATOM     20  C   UNL     1      -2.839  -0.145  -1.359  1.00  0.00     0.009 A 
ATOM     21  C   UNL     1      -1.127  -1.454  -0.188  1.00  0.00    -0.010 A 
ATOM     22  C   UNL     1       1.620  -1.723   3.053  1.00  0.00     0.001 A 
ATOM     23  C   UNL     1       0.636  -2.691   1.072  1.00  0.00     0.009 A 
ATOM     24  C   UNL     1      -2.949  -1.135  -2.331  1.00  0.00     0.001 A 
ATOM     25  C   UNL     1      -1.270  -2.450  -1.188  1.00  0.00     0.009 A 
ATOM     26  C   UNL     1       1.537  -2.761   2.134  1.00  0.00     0.001 A 
ATOM     27  C   UNL     1      -2.169  -2.284  -2.243  1.00  0.00     0.001 A 
ENDBRANCH  10  14
ENDBRANCH   5   7
BRANCH   4  28
ATOM     28  C   UNL     1      -0.162   3.676  -0.002  1.00  0.00     0.170 C 
ATOM     29  N   UNL     1      -1.180   4.094  -0.361  1.00  0.00    -0.188 NA
ENDBRANCH   4  28
ENDBRANCH   1   4
BRANCH   1  30
ATOM     30  C   UNL     1       1.699   1.692  -1.385  1.00  0.00     0.137 A 
ATOM     31  C   UNL     1       0.808   1.963  -2.442  1.00  0.00     0.068 A 
ATOM     32  C   UNL     1       2.144   0.351  -1.185  1.00  0.00     0.028 A 
ATOM     33  C   UNL     1       0.350   0.949  -3.276  1.00  0.00     0.008 A 
ATOM     34  C   UNL     1       1.698  -0.663  -2.075  1.00  0.00     0.061 A 
ATOM     35  C   UNL     1       0.796  -0.355  -3.099  1.00  0.00     0.020 A 
ATOM     36  C   UNL     1       3.122   0.024  -0.078  1.00  0.00     0.052 C 
BRANCH  34  37
ATOM     37  C   UNL     1       2.156  -2.029  -1.975  1.00  0.00     0.100 C 
ATOM     38  N   UNL     1       2.522  -3.124  -1.896  1.00  0.00    -0.192 NA
ENDBRANCH  34  37
ENDBRANCH   1  30
TORSDOF 6


