MODEL 1
REMARK VINA RESULT:      -6.0      0.000      0.000
REMARK SMILES C#C/C(N=[N+]=[N-])=N/[C@H](c1c(C)nnn1-c1c2ccccc2c(C=O)c2ccccc12)C(C)C
REMARK SMILES IDX 7 1 3 2 2 3 1 4 4 5 5 6 6 7 8 8 9 9 10 10 14 11 12 12 13 13
REMARK SMILES IDX 11 14 15 15 16 16 30 17 17 18 21 19 29 20 25 21 18 22 20 23
REMARK SMILES IDX 22 24 28 25 26 26 19 27 27 28 23 29 24 30 31 31 32 32 33 33
REMARK H PARENT
ROOT
ATOM      1  N   UNL     1      41.751 132.631  18.427  1.00  0.00    -0.265 NA
ENDROOT
BRANCH   1   2
ATOM      2  C   UNL     1      40.689 133.338  18.178  1.00  0.00     0.172 C 
BRANCH   2   3
ATOM      3  C   UNL     1      40.609 134.671  18.719  1.00  0.00    -0.049 C 
ATOM      4  C   UNL     1      40.545 135.785  19.174  1.00  0.00     0.011 C 
ENDBRANCH   2   3
BRANCH   2   5
ATOM      5  N   UNL     1      39.619 132.799  17.391  1.00  0.00    -0.032 NA
BRANCH   5   6
ATOM      6  N   UNL     1      38.744 133.518  16.908  1.00  0.00     0.008 N 
ATOM      7  N   UNL     1      37.870 134.236  16.425  1.00  0.00    -0.003 NA
ENDBRANCH   5   6
ENDBRANCH   2   5
ENDBRANCH   1   2
BRANCH   1   8
ATOM      8  C   UNL     1      43.073 133.183  18.724  1.00  0.00     0.160 C 
BRANCH   8   9
ATOM      9  C   UNL     1      43.964 133.112  17.494  1.00  0.00     0.092 A 
ATOM     10  C   UNL     1      44.892 132.129  17.199  1.00  0.00     0.086 A 
ATOM     11  N   UNL     1      43.986 133.965  16.444  1.00  0.00    -0.214 N 
ATOM     12  N   UNL     1      45.447 132.412  16.004  1.00  0.00    -0.135 NA
ATOM     13  N   UNL     1      44.880 133.529  15.571  1.00  0.00    -0.062 NA
ATOM     14  C   UNL     1      45.264 130.950  18.038  1.00  0.00     0.071 C 
BRANCH  11  15
ATOM     15  C   UNL     1      43.245 135.184  16.269  1.00  0.00     0.082 A 
ATOM     16  C   UNL     1      43.605 136.338  16.994  1.00  0.00     0.009 A 
ATOM     17  C   UNL     1      42.137 135.214  15.398  1.00  0.00     0.009 A 
ATOM     18  C   UNL     1      44.631 136.286  17.962  1.00  0.00     0.011 A 
ATOM     19  C   UNL     1      42.926 137.565  16.763  1.00  0.00    -0.005 A 
ATOM     20  C   UNL     1      41.695 134.034  14.760  1.00  0.00     0.011 A 
ATOM     21  C   UNL     1      41.457 136.438  15.150  1.00  0.00    -0.005 A 
ATOM     22  C   UNL     1      45.005 137.426  18.668  1.00  0.00     0.001 A 
ATOM     23  C   UNL     1      43.322 138.706  17.503  1.00  0.00     0.009 A 
ATOM     24  C   UNL     1      41.854 137.619  15.832  1.00  0.00     0.030 A 
ATOM     25  C   UNL     1      40.633 134.065  13.861  1.00  0.00     0.001 A 
ATOM     26  C   UNL     1      40.409 136.445  14.198  1.00  0.00     0.009 A 
ATOM     27  C   UNL     1      44.355 138.633  18.437  1.00  0.00     0.001 A 
ATOM     28  C   UNL     1      40.001 135.268  13.570  1.00  0.00     0.001 A 
BRANCH  24  29
ATOM     29  C   UNL     1      41.146 138.902  15.604  1.00  0.00     0.261 C 
ATOM     30  O   UNL     1      41.418 139.620  14.607  1.00  0.00    -0.298 OA
ENDBRANCH  24  29
ENDBRANCH  11  15
ENDBRANCH   8   9
BRANCH   8  31
ATOM     31  C   UNL     1      43.686 132.445  19.943  1.00  0.00     0.014 C 
ATOM     32  C   UNL     1      44.352 133.420  20.929  1.00  0.00     0.010 C 
ATOM     33  C   UNL     1      42.616 131.629  20.686  1.00  0.00     0.010 C 
ENDBRANCH   8  31
ENDBRANCH   1   8
TORSDOF 9
ENDMDL
MODEL 2
REMARK VINA RESULT:      -5.5      2.654      6.565
REMARK SMILES C#C/C(N=[N+]=[N-])=N/[C@H](c1c(C)nnn1-c1c2ccccc2c(C=O)c2ccccc12)C(C)C
REMARK SMILES IDX 7 1 3 2 2 3 1 4 4 5 5 6 6 7 8 8 9 9 10 10 14 11 12 12 13 13
REMARK SMILES IDX 11 14 15 15 16 16 30 17 17 18 21 19 29 20 25 21 18 22 20 23
REMARK SMILES IDX 22 24 28 25 26 26 19 27 27 28 23 29 24 30 31 31 32 32 33 33
REMARK H PARENT
ROOT
ATOM      1  N   UNL     1      44.526 132.837  15.189  1.00  0.00    -0.265 NA
ENDROOT
BRANCH   1   2
ATOM      2  C   UNL     1      45.448 131.920  15.159  1.00  0.00     0.172 C 
BRANCH   2   3
ATOM      3  C   UNL     1      45.137 130.615  15.683  1.00  0.00    -0.049 C 
ATOM      4  C   UNL     1      44.879 129.524  16.126  1.00  0.00     0.011 C 
ENDBRANCH   2   3
BRANCH   2   5
ATOM      5  N   UNL     1      46.746 132.206  14.622  1.00  0.00    -0.032 NA
BRANCH   5   6
ATOM      6  N   UNL     1      47.311 131.434  13.847  1.00  0.00     0.008 N 
ATOM      7  N   UNL     1      47.874 130.662  13.072  1.00  0.00    -0.003 NA
ENDBRANCH   5   6
ENDBRANCH   2   5
ENDBRANCH   1   2
BRANCH   1   8
ATOM      8  C   UNL     1      44.220 133.676  16.349  1.00  0.00     0.160 C 
BRANCH   8   9
ATOM      9  C   UNL     1      42.833 133.353  16.882  1.00  0.00     0.092 A 
ATOM     10  C   UNL     1      41.730 132.969  16.141  1.00  0.00     0.086 A 
ATOM     11  N   UNL     1      42.432 133.338  18.174  1.00  0.00    -0.214 N 
ATOM     12  N   UNL     1      40.706 132.744  16.988  1.00  0.00    -0.135 NA
ATOM     13  N   UNL     1      41.159 132.976  18.211  1.00  0.00    -0.062 NA
ATOM     14  C   UNL     1      41.634 132.835  14.656  1.00  0.00     0.071 C 
BRANCH  11  15
ATOM     15  C   UNL     1      43.181 133.702  19.345  1.00  0.00     0.082 A 
ATOM     16  C   UNL     1      44.223 132.871  19.803  1.00  0.00     0.009 A 
ATOM     17  C   UNL     1      42.849 134.875  20.054  1.00  0.00     0.009 A 
ATOM     18  C   UNL     1      44.481 131.634  19.176  1.00  0.00     0.011 A 
ATOM     19  C   UNL     1      45.018 133.269  20.912  1.00  0.00    -0.005 A 
ATOM     20  C   UNL     1      41.731 135.650  19.674  1.00  0.00     0.011 A 
ATOM     21  C   UNL     1      43.643 135.290  21.158  1.00  0.00    -0.005 A 
ATOM     22  C   UNL     1      45.520 130.816  19.611  1.00  0.00     0.001 A 
ATOM     23  C   UNL     1      46.062 132.413  21.337  1.00  0.00     0.009 A 
ATOM     24  C   UNL     1      44.733 134.487  21.587  1.00  0.00     0.030 A 
ATOM     25  C   UNL     1      41.426 136.835  20.339  1.00  0.00     0.001 A 
ATOM     26  C   UNL     1      43.333 136.521  21.785  1.00  0.00     0.009 A 
ATOM     27  C   UNL     1      46.311 131.206  20.686  1.00  0.00     0.001 A 
ATOM     28  C   UNL     1      42.232 137.276  21.381  1.00  0.00     0.001 A 
BRANCH  24  29
ATOM     29  C   UNL     1      45.562 134.891  22.749  1.00  0.00     0.261 C 
ATOM     30  O   UNL     1      46.589 135.602  22.592  1.00  0.00    -0.298 OA
ENDBRANCH  24  29
ENDBRANCH  11  15
ENDBRANCH   8   9
BRANCH   8  31
ATOM     31  C   UNL     1      44.375 135.172  15.967  1.00  0.00     0.014 C 
ATOM     32  C   UNL     1      43.246 135.647  15.037  1.00  0.00     0.010 C 
ATOM     33  C   UNL     1      44.401 136.059  17.222  1.00  0.00     0.010 C 
ENDBRANCH   8  31
ENDBRANCH   1   8
TORSDOF 9
ENDMDL
MODEL 3
REMARK VINA RESULT:      -5.5      2.259      5.365
REMARK SMILES C#C/C(N=[N+]=[N-])=N/[C@H](c1c(C)nnn1-c1c2ccccc2c(C=O)c2ccccc12)C(C)C
REMARK SMILES IDX 7 1 3 2 2 3 1 4 4 5 5 6 6 7 8 8 9 9 10 10 14 11 12 12 13 13
REMARK SMILES IDX 11 14 15 15 16 16 30 17 17 18 21 19 29 20 25 21 18 22 20 23
REMARK SMILES IDX 22 24 28 25 26 26 19 27 27 28 23 29 24 30 31 31 32 32 33 33
REMARK H PARENT
ROOT
ATOM      1  N   UNL     1      44.257 133.260  16.514  1.00  0.00    -0.265 NA
ENDROOT
BRANCH   1   2
ATOM      2  C   UNL     1      45.213 132.408  16.293  1.00  0.00     0.172 C 
BRANCH   2   3
ATOM      3  C   UNL     1      45.430 131.354  17.252  1.00  0.00    -0.049 C 
ATOM      4  C   UNL     1      45.608 130.473  18.054  1.00  0.00     0.011 C 
ENDBRANCH   2   3
BRANCH   2   5
ATOM      5  N   UNL     1      46.037 132.520  15.125  1.00  0.00    -0.032 NA
BRANCH   5   6
ATOM      6  N   UNL     1      46.673 131.561  14.687  1.00  0.00     0.008 N 
ATOM      7  N   UNL     1      47.309 130.604  14.248  1.00  0.00    -0.003 NA
ENDBRANCH   5   6
ENDBRANCH   2   5
ENDBRANCH   1   2
BRANCH   1   8
ATOM      8  C   UNL     1      42.868 132.901  16.806  1.00  0.00     0.160 C 
BRANCH   8   9
ATOM      9  C   UNL     1      41.957 133.359  15.677  1.00  0.00     0.092 A 
ATOM     10  C   UNL     1      41.903 132.841  14.395  1.00  0.00     0.086 A 
ATOM     11  N   UNL     1      41.005 134.319  15.727  1.00  0.00    -0.214 N 
ATOM     12  N   UNL     1      40.943 133.495  13.712  1.00  0.00    -0.135 NA
ATOM     13  N   UNL     1      40.418 134.385  14.542  1.00  0.00    -0.062 NA
ATOM     14  C   UNL     1      42.755 131.759  13.816  1.00  0.00     0.071 C 
BRANCH  11  15
ATOM     15  C   UNL     1      40.679 135.197  16.817  1.00  0.00     0.082 A 
ATOM     16  C   UNL     1      39.630 134.867  17.699  1.00  0.00     0.009 A 
ATOM     17  C   UNL     1      41.387 136.404  16.981  1.00  0.00     0.009 A 
ATOM     18  C   UNL     1      38.832 133.726  17.469  1.00  0.00     0.011 A 
ATOM     19  C   UNL     1      39.359 135.692  18.823  1.00  0.00    -0.005 A 
ATOM     20  C   UNL     1      42.357 136.801  16.035  1.00  0.00     0.011 A 
ATOM     21  C   UNL     1      41.134 137.232  18.109  1.00  0.00    -0.005 A 
ATOM     22  C   UNL     1      37.806 133.383  18.346  1.00  0.00     0.001 A 
ATOM     23  C   UNL     1      38.303 135.323  19.693  1.00  0.00     0.009 A 
ATOM     24  C   UNL     1      40.118 136.874  19.035  1.00  0.00     0.030 A 
ATOM     25  C   UNL     1      43.096 137.967  16.217  1.00  0.00     0.001 A 
ATOM     26  C   UNL     1      41.931 138.389  18.289  1.00  0.00     0.009 A 
ATOM     27  C   UNL     1      37.546 134.178  19.456  1.00  0.00     0.001 A 
ATOM     28  C   UNL     1      42.894 138.751  17.347  1.00  0.00     0.001 A 
BRANCH  24  29
ATOM     29  C   UNL     1      39.823 137.733  20.208  1.00  0.00     0.261 C 
ATOM     30  O   UNL     1      40.406 137.547  21.308  1.00  0.00    -0.298 OA
ENDBRANCH  24  29
ENDBRANCH  11  15
ENDBRANCH   8   9
BRANCH   8  31
ATOM     31  C   UNL     1      42.453 133.492  18.179  1.00  0.00     0.014 C 
ATOM     32  C   UNL     1      41.973 132.402  19.152  1.00  0.00     0.010 C 
ATOM     33  C   UNL     1      43.618 134.263  18.820  1.00  0.00     0.010 C 
ENDBRANCH   8  31
ENDBRANCH   1   8
TORSDOF 9
ENDMDL
MODEL 4
REMARK VINA RESULT:      -5.5      2.178      4.554
REMARK SMILES C#C/C(N=[N+]=[N-])=N/[C@H](c1c(C)nnn1-c1c2ccccc2c(C=O)c2ccccc12)C(C)C
REMARK SMILES IDX 7 1 3 2 2 3 1 4 4 5 5 6 6 7 8 8 9 9 10 10 14 11 12 12 13 13
REMARK SMILES IDX 11 14 15 15 16 16 30 17 17 18 21 19 29 20 25 21 18 22 20 23
REMARK SMILES IDX 22 24 28 25 26 26 19 27 27 28 23 29 24 30 31 31 32 32 33 33
REMARK H PARENT
ROOT
ATOM      1  N   UNL     1      44.187 131.843  16.212  1.00  0.00    -0.265 NA
ENDROOT
BRANCH   1   2
ATOM      2  C   UNL     1      45.162 131.269  15.573  1.00  0.00     0.172 C 
BRANCH   2   3
ATOM      3  C   UNL     1      45.172 129.831  15.481  1.00  0.00    -0.049 C 
ATOM      4  C   UNL     1      45.184 128.628  15.403  1.00  0.00     0.011 C 
ENDBRANCH   2   3
BRANCH   2   5
ATOM      5  N   UNL     1      46.208 132.050  14.980  1.00  0.00    -0.032 NA
BRANCH   5   6
ATOM      6  N   UNL     1      46.973 131.576  14.140  1.00  0.00     0.008 N 
ATOM      7  N   UNL     1      47.739 131.103  13.301  1.00  0.00    -0.003 NA
ENDBRANCH   5   6
ENDBRANCH   2   5
ENDBRANCH   1   2
BRANCH   1   8
ATOM      8  C   UNL     1      44.252 133.174  16.816  1.00  0.00     0.160 C 
BRANCH   8   9
ATOM      9  C   UNL     1      43.849 133.110  18.281  1.00  0.00     0.092 A 
ATOM     10  C   UNL     1      44.315 132.216  19.229  1.00  0.00     0.086 A 
ATOM     11  N   UNL     1      43.000 133.934  18.938  1.00  0.00    -0.214 N 
ATOM     12  N   UNL     1      43.740 132.512  20.412  1.00  0.00    -0.135 NA
ATOM     13  N   UNL     1      42.948 133.555  20.205  1.00  0.00    -0.062 NA
ATOM     14  C   UNL     1      45.272 131.088  19.022  1.00  0.00     0.071 C 
BRANCH  11  15
ATOM     15  C   UNL     1      42.210 135.009  18.405  1.00  0.00     0.082 A 
ATOM     16  C   UNL     1      42.750 136.308  18.321  1.00  0.00     0.009 A 
ATOM     17  C   UNL     1      40.881 134.768  17.998  1.00  0.00     0.009 A 
ATOM     18  C   UNL     1      44.031 136.586  18.842  1.00  0.00     0.011 A 
ATOM     19  C   UNL     1      42.000 137.354  17.720  1.00  0.00    -0.005 A 
ATOM     20  C   UNL     1      40.292 133.499  18.189  1.00  0.00     0.011 A 
ATOM     21  C   UNL     1      40.124 135.804  17.384  1.00  0.00    -0.005 A 
ATOM     22  C   UNL     1      44.580 137.862  18.747  1.00  0.00     0.001 A 
ATOM     23  C   UNL     1      42.579 138.645  17.646  1.00  0.00     0.009 A 
ATOM     24  C   UNL     1      40.686 137.101  17.242  1.00  0.00     0.030 A 
ATOM     25  C   UNL     1      38.998 133.240  17.745  1.00  0.00     0.001 A 
ATOM     26  C   UNL     1      38.828 135.497  16.905  1.00  0.00     0.009 A 
ATOM     27  C   UNL     1      43.857 138.887  18.147  1.00  0.00     0.001 A 
ATOM     28  C   UNL     1      38.274 134.231  17.092  1.00  0.00     0.001 A 
BRANCH  24  29
ATOM     29  C   UNL     1      39.907 138.202  16.624  1.00  0.00     0.261 C 
ATOM     30  O   UNL     1      39.956 138.408  15.383  1.00  0.00    -0.298 OA
ENDBRANCH  24  29
ENDBRANCH  11  15
ENDBRANCH   8   9
BRANCH   8  31
ATOM     31  C   UNL     1      43.373 134.161  16.003  1.00  0.00     0.014 C 
ATOM     32  C   UNL     1      44.218 135.241  15.305  1.00  0.00     0.010 C 
ATOM     33  C   UNL     1      42.539 133.414  14.949  1.00  0.00     0.010 C 
ENDBRANCH   8  31
ENDBRANCH   1   8
TORSDOF 9
ENDMDL
MODEL 5
REMARK VINA RESULT:      -5.4      2.393      4.466
REMARK SMILES C#C/C(N=[N+]=[N-])=N/[C@H](c1c(C)nnn1-c1c2ccccc2c(C=O)c2ccccc12)C(C)C
REMARK SMILES IDX 7 1 3 2 2 3 1 4 4 5 5 6 6 7 8 8 9 9 10 10 14 11 12 12 13 13
REMARK SMILES IDX 11 14 15 15 16 16 30 17 17 18 21 19 29 20 25 21 18 22 20 23
REMARK SMILES IDX 22 24 28 25 26 26 19 27 27 28 23 29 24 30 31 31 32 32 33 33
REMARK H PARENT
ROOT
ATOM      1  N   UNL     1      43.151 132.046  17.627  1.00  0.00    -0.265 NA
ENDROOT
BRANCH   1   2
ATOM      2  C   UNL     1      44.208 131.731  18.315  1.00  0.00     0.172 C 
BRANCH   2   3
ATOM      3  C   UNL     1      45.258 130.991  17.662  1.00  0.00    -0.049 C 
ATOM      4  C   UNL     1      46.134 130.372  17.113  1.00  0.00     0.011 C 
ENDBRANCH   2   3
BRANCH   2   5
ATOM      5  N   UNL     1      44.321 132.105  19.695  1.00  0.00    -0.032 NA
BRANCH   5   6
ATOM      6  N   UNL     1      43.532 131.692  20.545  1.00  0.00     0.008 N 
ATOM      7  N   UNL     1      42.744 131.279  21.395  1.00  0.00    -0.003 NA
ENDBRANCH   5   6
ENDBRANCH   2   5
ENDBRANCH   1   2
BRANCH   1   8
ATOM      8  C   UNL     1      42.824 133.397  17.168  1.00  0.00     0.160 C 
BRANCH   8   9
ATOM      9  C   UNL     1      42.128 133.341  15.817  1.00  0.00     0.092 A 
ATOM     10  C   UNL     1      42.421 132.485  14.770  1.00  0.00     0.086 A 
ATOM     11  N   UNL     1      41.074 134.081  15.404  1.00  0.00    -0.214 N 
ATOM     12  N   UNL     1      41.556 132.731  13.766  1.00  0.00    -0.135 NA
ATOM     13  N   UNL     1      40.754 133.702  14.177  1.00  0.00    -0.062 NA
ATOM     14  C   UNL     1      43.509 131.464  14.708  1.00  0.00     0.071 C 
BRANCH  11  15
ATOM     15  C   UNL     1      40.410 135.152  16.095  1.00  0.00     0.082 A 
ATOM     16  C   UNL     1      40.822 136.485  15.894  1.00  0.00     0.009 A 
ATOM     17  C   UNL     1      39.369 134.864  17.001  1.00  0.00     0.009 A 
ATOM     18  C   UNL     1      41.944 136.774  15.089  1.00  0.00     0.011 A 
ATOM     19  C   UNL     1      40.115 137.551  16.513  1.00  0.00    -0.005 A 
ATOM     20  C   UNL     1      39.029 133.526  17.301  1.00  0.00     0.011 A 
ATOM     21  C   UNL     1      38.646 135.921  17.618  1.00  0.00    -0.005 A 
ATOM     22  C   UNL     1      42.346 138.089  14.870  1.00  0.00     0.001 A 
ATOM     23  C   UNL     1      40.553 138.877  16.280  1.00  0.00     0.009 A 
ATOM     24  C   UNL     1      39.018 137.270  17.372  1.00  0.00     0.030 A 
ATOM     25  C   UNL     1      37.970 133.233  18.156  1.00  0.00     0.001 A 
ATOM     26  C   UNL     1      37.547 135.592  18.449  1.00  0.00     0.009 A 
ATOM     27  C   UNL     1      41.650 139.137  15.461  1.00  0.00     0.001 A 
ATOM     28  C   UNL     1      37.223 134.262  18.716  1.00  0.00     0.001 A 
BRANCH  24  29
ATOM     29  C   UNL     1      38.292 138.388  18.021  1.00  0.00     0.261 C 
ATOM     30  O   UNL     1      37.290 138.914  17.467  1.00  0.00    -0.298 OA
ENDBRANCH  24  29
ENDBRANCH  11  15
ENDBRANCH   8   9
BRANCH   8  31
ATOM     31  C   UNL     1      44.110 134.265  17.137  1.00  0.00     0.014 C 
ATOM     32  C   UNL     1      44.511 134.647  15.703  1.00  0.00     0.010 C 
ATOM     33  C   UNL     1      43.928 135.546  17.968  1.00  0.00     0.010 C 
ENDBRANCH   8  31
ENDBRANCH   1   8
TORSDOF 9
ENDMDL
MODEL 6
REMARK VINA RESULT:      -5.4      2.467      5.895
REMARK SMILES C#C/C(N=[N+]=[N-])=N/[C@H](c1c(C)nnn1-c1c2ccccc2c(C=O)c2ccccc12)C(C)C
REMARK SMILES IDX 7 1 3 2 2 3 1 4 4 5 5 6 6 7 8 8 9 9 10 10 14 11 12 12 13 13
REMARK SMILES IDX 11 14 15 15 16 16 30 17 17 18 21 19 29 20 25 21 18 22 20 23
REMARK SMILES IDX 22 24 28 25 26 26 19 27 27 28 23 29 24 30 31 31 32 32 33 33
REMARK H PARENT
ROOT
ATOM      1  N   UNL     1      44.271 132.860  15.485  1.00  0.00    -0.265 NA
ENDROOT
BRANCH   1   2
ATOM      2  C   UNL     1      45.312 132.127  15.745  1.00  0.00     0.172 C 
BRANCH   2   3
ATOM      3  C   UNL     1      45.365 131.431  17.006  1.00  0.00    -0.049 C 
ATOM      4  C   UNL     1      45.411 130.853  18.062  1.00  0.00     0.011 C 
ENDBRANCH   2   3
BRANCH   2   5
ATOM      5  N   UNL     1      46.386 132.021  14.801  1.00  0.00    -0.032 NA
BRANCH   5   6
ATOM      6  N   UNL     1      46.336 131.244  13.847  1.00  0.00     0.008 N 
ATOM      7  N   UNL     1      46.287 130.469  12.894  1.00  0.00    -0.003 NA
ENDBRANCH   5   6
ENDBRANCH   2   5
ENDBRANCH   1   2
BRANCH   1   8
ATOM      8  C   UNL     1      43.657 133.804  16.420  1.00  0.00     0.160 C 
BRANCH   8   9
ATOM      9  C   UNL     1      42.141 133.749  16.308  1.00  0.00     0.092 A 
ATOM     10  C   UNL     1      41.407 133.364  15.200  1.00  0.00     0.086 A 
ATOM     11  N   UNL     1      41.234 134.020  17.274  1.00  0.00    -0.214 N 
ATOM     12  N   UNL     1      40.098 133.420  15.517  1.00  0.00    -0.135 NA
ATOM     13  N   UNL     1      40.024 133.821  16.778  1.00  0.00    -0.062 NA
ATOM     14  C   UNL     1      41.928 132.968  13.857  1.00  0.00     0.071 C 
BRANCH  11  15
ATOM     15  C   UNL     1      41.469 134.506  18.606  1.00  0.00     0.082 A 
ATOM     16  C   UNL     1      41.279 135.871  18.902  1.00  0.00     0.009 A 
ATOM     17  C   UNL     1      41.922 133.622  19.607  1.00  0.00     0.009 A 
ATOM     18  C   UNL     1      40.950 136.787  17.881  1.00  0.00     0.011 A 
ATOM     19  C   UNL     1      41.432 136.339  20.235  1.00  0.00    -0.005 A 
ATOM     20  C   UNL     1      42.230 132.281  19.292  1.00  0.00     0.011 A 
ATOM     21  C   UNL     1      42.067 134.075  20.947  1.00  0.00    -0.005 A 
ATOM     22  C   UNL     1      40.743 138.134  18.169  1.00  0.00     0.001 A 
ATOM     23  C   UNL     1      41.224 137.716  20.497  1.00  0.00     0.009 A 
ATOM     24  C   UNL     1      41.819 135.438  21.263  1.00  0.00     0.030 A 
ATOM     25  C   UNL     1      42.629 131.389  20.284  1.00  0.00     0.001 A 
ATOM     26  C   UNL     1      42.433 133.135  21.940  1.00  0.00     0.009 A 
ATOM     27  C   UNL     1      40.876 138.595  19.473  1.00  0.00     0.001 A 
ATOM     28  C   UNL     1      42.717 131.811  21.605  1.00  0.00     0.001 A 
BRANCH  24  29
ATOM     29  C   UNL     1      41.984 135.936  22.651  1.00  0.00     0.261 C 
ATOM     30  O   UNL     1      41.020 135.921  23.460  1.00  0.00    -0.298 OA
ENDBRANCH  24  29
ENDBRANCH  11  15
ENDBRANCH   8   9
BRANCH   8  31
ATOM     31  C   UNL     1      44.219 135.228  16.169  1.00  0.00     0.014 C 
ATOM     32  C   UNL     1      43.305 136.052  15.246  1.00  0.00     0.010 C 
ATOM     33  C   UNL     1      44.410 135.984  17.494  1.00  0.00     0.010 C 
ENDBRANCH   8  31
ENDBRANCH   1   8
TORSDOF 9
ENDMDL
MODEL 7
REMARK VINA RESULT:      -5.3      2.250      5.416
REMARK SMILES C#C/C(N=[N+]=[N-])=N/[C@H](c1c(C)nnn1-c1c2ccccc2c(C=O)c2ccccc12)C(C)C
REMARK SMILES IDX 7 1 3 2 2 3 1 4 4 5 5 6 6 7 8 8 9 9 10 10 14 11 12 12 13 13
REMARK SMILES IDX 11 14 15 15 16 16 30 17 17 18 21 19 29 20 25 21 18 22 20 23
REMARK SMILES IDX 22 24 28 25 26 26 19 27 27 28 23 29 24 30 31 31 32 32 33 33
REMARK H PARENT
ROOT
ATOM      1  N   UNL     1      44.164 131.848  16.239  1.00  0.00    -0.265 NA
ENDROOT
BRANCH   1   2
ATOM      2  C   UNL     1      45.153 131.281  15.614  1.00  0.00     0.172 C 
BRANCH   2   3
ATOM      3  C   UNL     1      45.167 129.843  15.511  1.00  0.00    -0.049 C 
ATOM      4  C   UNL     1      45.179 128.641  15.429  1.00  0.00     0.011 C 
ENDBRANCH   2   3
BRANCH   2   5
ATOM      5  N   UNL     1      46.208 132.068  15.047  1.00  0.00    -0.032 NA
BRANCH   5   6
ATOM      6  N   UNL     1      46.934 131.632  14.153  1.00  0.00     0.008 N 
ATOM      7  N   UNL     1      47.659 131.196  13.260  1.00  0.00    -0.003 NA
ENDBRANCH   5   6
ENDBRANCH   2   5
ENDBRANCH   1   2
BRANCH   1   8
ATOM      8  C   UNL     1      44.214 133.177  16.850  1.00  0.00     0.160 C 
BRANCH   8   9
ATOM      9  C   UNL     1      43.848 133.093  18.325  1.00  0.00     0.092 A 
ATOM     10  C   UNL     1      44.334 132.183  19.247  1.00  0.00     0.086 A 
ATOM     11  N   UNL     1      43.022 133.912  19.015  1.00  0.00    -0.214 N 
ATOM     12  N   UNL     1      43.791 132.465  20.448  1.00  0.00    -0.135 NA
ATOM     13  N   UNL     1      43.001 133.515  20.277  1.00  0.00    -0.062 NA
ATOM     14  C   UNL     1      45.279 131.053  18.999  1.00  0.00     0.071 C 
BRANCH  11  15
ATOM     15  C   UNL     1      42.224 134.999  18.518  1.00  0.00     0.082 A 
ATOM     16  C   UNL     1      40.893 134.770  18.114  1.00  0.00     0.009 A 
ATOM     17  C   UNL     1      42.786 136.287  18.403  1.00  0.00     0.009 A 
ATOM     18  C   UNL     1      40.362 133.463  18.105  1.00  0.00     0.011 A 
ATOM     19  C   UNL     1      40.077 135.857  17.699  1.00  0.00    -0.005 A 
ATOM     20  C   UNL     1      44.152 136.501  18.691  1.00  0.00     0.011 A 
ATOM     21  C   UNL     1      41.977 137.385  18.001  1.00  0.00    -0.005 A 
ATOM     22  C   UNL     1      39.042 133.231  17.725  1.00  0.00     0.001 A 
ATOM     23  C   UNL     1      38.742 135.590  17.309  1.00  0.00     0.009 A 
ATOM     24  C   UNL     1      40.617 137.170  17.650  1.00  0.00     0.030 A 
ATOM     25  C   UNL     1      44.702 137.779  18.628  1.00  0.00     0.001 A 
ATOM     26  C   UNL     1      42.554 138.678  17.988  1.00  0.00     0.009 A 
ATOM     27  C   UNL     1      38.234 134.292  17.332  1.00  0.00     0.001 A 
ATOM     28  C   UNL     1      43.903 138.865  18.292  1.00  0.00     0.001 A 
BRANCH  24  29
ATOM     29  C   UNL     1      39.761 138.298  17.208  1.00  0.00     0.261 C 
ATOM     30  O   UNL     1      39.730 138.649  15.999  1.00  0.00    -0.298 OA
ENDBRANCH  24  29
ENDBRANCH  11  15
ENDBRANCH   8   9
BRANCH   8  31
ATOM     31  C   UNL     1      43.293 134.148  16.066  1.00  0.00     0.014 C 
ATOM     32  C   UNL     1      44.098 135.218  15.310  1.00  0.00     0.010 C 
ATOM     33  C   UNL     1      42.410 133.382  15.068  1.00  0.00     0.010 C 
ENDBRANCH   8  31
ENDBRANCH   1   8
TORSDOF 9
ENDMDL
MODEL 8
REMARK VINA RESULT:      -5.3      2.447      6.032
REMARK SMILES C#C/C(N=[N+]=[N-])=N/[C@H](c1c(C)nnn1-c1c2ccccc2c(C=O)c2ccccc12)C(C)C
REMARK SMILES IDX 7 1 3 2 2 3 1 4 4 5 5 6 6 7 8 8 9 9 10 10 14 11 12 12 13 13
REMARK SMILES IDX 11 14 15 15 16 16 30 17 17 18 21 19 29 20 25 21 18 22 20 23
REMARK SMILES IDX 22 24 28 25 26 26 19 27 27 28 23 29 24 30 31 31 32 32 33 33
REMARK H PARENT
ROOT
ATOM      1  N   UNL     1      44.270 133.245  15.669  1.00  0.00    -0.265 NA
ENDROOT
BRANCH   1   2
ATOM      2  C   UNL     1      45.224 132.390  15.886  1.00  0.00     0.172 C 
BRANCH   2   3
ATOM      3  C   UNL     1      45.228 131.665  17.131  1.00  0.00    -0.049 C 
ATOM      4  C   UNL     1      45.236 131.058  18.172  1.00  0.00     0.011 C 
ENDBRANCH   2   3
BRANCH   2   5
ATOM      5  N   UNL     1      46.253 132.179  14.910  1.00  0.00    -0.032 NA
BRANCH   5   6
ATOM      6  N   UNL     1      46.152 131.315  14.038  1.00  0.00     0.008 N 
ATOM      7  N   UNL     1      46.051 130.454  13.166  1.00  0.00    -0.003 NA
ENDBRANCH   5   6
ENDBRANCH   2   5
ENDBRANCH   1   2
BRANCH   1   8
ATOM      8  C   UNL     1      43.659 134.094  16.694  1.00  0.00     0.160 C 
BRANCH   8   9
ATOM      9  C   UNL     1      42.147 133.927  16.684  1.00  0.00     0.092 A 
ATOM     10  C   UNL     1      41.366 133.525  15.615  1.00  0.00     0.086 A 
ATOM     11  N   UNL     1      41.295 134.097  17.720  1.00  0.00    -0.214 N 
ATOM     12  N   UNL     1      40.083 133.471  16.024  1.00  0.00    -0.135 NA
ATOM     13  N   UNL     1      40.070 133.823  17.301  1.00  0.00    -0.062 NA
ATOM     14  C   UNL     1      41.817 133.214  14.226  1.00  0.00     0.071 C 
BRANCH  11  15
ATOM     15  C   UNL     1      41.588 134.555  19.051  1.00  0.00     0.082 A 
ATOM     16  C   UNL     1      42.072 133.652  20.018  1.00  0.00     0.009 A 
ATOM     17  C   UNL     1      41.357 135.903  19.395  1.00  0.00     0.009 A 
ATOM     18  C   UNL     1      42.186 132.277  19.721  1.00  0.00     0.011 A 
ATOM     19  C   UNL     1      42.438 134.118  21.309  1.00  0.00    -0.005 A 
ATOM     20  C   UNL     1      40.759 136.787  18.470  1.00  0.00     0.011 A 
ATOM     21  C   UNL     1      41.730 136.385  20.680  1.00  0.00    -0.005 A 
ATOM     22  C   UNL     1      42.681 131.381  20.664  1.00  0.00     0.001 A 
ATOM     23  C   UNL     1      42.930 133.183  22.251  1.00  0.00     0.009 A 
ATOM     24  C   UNL     1      42.276 135.491  21.639  1.00  0.00     0.030 A 
ATOM     25  C   UNL     1      40.574 138.131  18.786  1.00  0.00     0.001 A 
ATOM     26  C   UNL     1      41.569 137.764  20.955  1.00  0.00     0.009 A 
ATOM     27  C   UNL     1      43.055 131.834  21.925  1.00  0.00     0.001 A 
ATOM     28  C   UNL     1      40.990 138.621  20.018  1.00  0.00     0.001 A 
BRANCH  24  29
ATOM     29  C   UNL     1      42.653 135.968  22.992  1.00  0.00     0.261 C 
ATOM     30  O   UNL     1      43.845 136.272  23.260  1.00  0.00    -0.298 OA
ENDBRANCH  24  29
ENDBRANCH  11  15
ENDBRANCH   8   9
BRANCH   8  31
ATOM     31  C   UNL     1      44.095 135.567  16.481  1.00  0.00     0.014 C 
ATOM     32  C   UNL     1      42.995 136.398  15.799  1.00  0.00     0.010 C 
ATOM     33  C   UNL     1      44.470 136.228  17.818  1.00  0.00     0.010 C 
ENDBRANCH   8  31
ENDBRANCH   1   8
TORSDOF 9
ENDMDL
MODEL 9
REMARK VINA RESULT:      -5.2      2.311      4.539
REMARK SMILES C#C/C(N=[N+]=[N-])=N/[C@H](c1c(C)nnn1-c1c2ccccc2c(C=O)c2ccccc12)C(C)C
REMARK SMILES IDX 7 1 3 2 2 3 1 4 4 5 5 6 6 7 8 8 9 9 10 10 14 11 12 12 13 13
REMARK SMILES IDX 11 14 15 15 16 16 30 17 17 18 21 19 29 20 25 21 18 22 20 23
REMARK SMILES IDX 22 24 28 25 26 26 19 27 27 28 23 29 24 30 31 31 32 32 33 33
REMARK H PARENT
ROOT
ATOM      1  N   UNL     1      45.822 132.205  16.509  1.00  0.00    -0.265 NA
ENDROOT
BRANCH   1   2
ATOM      2  C   UNL     1      46.036 131.446  15.476  1.00  0.00     0.172 C 
BRANCH   2   3
ATOM      3  C   UNL     1      45.524 130.099  15.494  1.00  0.00    -0.049 C 
ATOM      4  C   UNL     1      45.091 128.975  15.509  1.00  0.00     0.011 C 
ENDBRANCH   2   3
BRANCH   2   5
ATOM      5  N   UNL     1      46.773 131.937  14.348  1.00  0.00    -0.032 NA
BRANCH   5   6
ATOM      6  N   UNL     1      46.955 131.248  13.344  1.00  0.00     0.008 N 
ATOM      7  N   UNL     1      47.138 130.560  12.341  1.00  0.00    -0.003 NA
ENDBRANCH   5   6
ENDBRANCH   2   5
ENDBRANCH   1   2
BRANCH   1   8
ATOM      8  C   UNL     1      44.610 132.996  16.729  1.00  0.00     0.160 C 
BRANCH   8   9
ATOM      9  C   UNL     1      44.223 132.972  18.200  1.00  0.00     0.092 A 
ATOM     10  C   UNL     1      44.574 132.012  19.132  1.00  0.00     0.086 A 
ATOM     11  N   UNL     1      43.507 133.899  18.877  1.00  0.00    -0.214 N 
ATOM     12  N   UNL     1      44.063 132.372  20.326  1.00  0.00    -0.135 NA
ATOM     13  N   UNL     1      43.422 133.517  20.141  1.00  0.00    -0.062 NA
ATOM     14  C   UNL     1      45.362 130.764  18.900  1.00  0.00     0.071 C 
BRANCH  11  15
ATOM     15  C   UNL     1      42.866 135.079  18.366  1.00  0.00     0.082 A 
ATOM     16  C   UNL     1      43.566 136.303  18.331  1.00  0.00     0.009 A 
ATOM     17  C   UNL     1      41.526 135.019  17.932  1.00  0.00     0.009 A 
ATOM     18  C   UNL     1      44.862 136.403  18.879  1.00  0.00     0.011 A 
ATOM     19  C   UNL     1      42.963 137.452  17.752  1.00  0.00    -0.005 A 
ATOM     20  C   UNL     1      40.780 133.828  18.075  1.00  0.00     0.011 A 
ATOM     21  C   UNL     1      40.916 136.158  17.340  1.00  0.00    -0.005 A 
ATOM     22  C   UNL     1      45.567 137.603  18.831  1.00  0.00     0.001 A 
ATOM     23  C   UNL     1      43.700 138.661  17.725  1.00  0.00     0.009 A 
ATOM     24  C   UNL     1      41.637 137.379  17.247  1.00  0.00     0.030 A 
ATOM     25  C   UNL     1      39.472 133.746  17.604  1.00  0.00     0.001 A 
ATOM     26  C   UNL     1      39.600 136.030  16.832  1.00  0.00     0.009 A 
ATOM     27  C   UNL     1      44.988 138.728  18.253  1.00  0.00     0.001 A 
ATOM     28  C   UNL     1      38.889 134.838  16.972  1.00  0.00     0.001 A 
BRANCH  24  29
ATOM     29  C   UNL     1      41.012 138.585  16.652  1.00  0.00     0.261 C 
ATOM     30  O   UNL     1      40.295 139.351  17.348  1.00  0.00    -0.298 OA
ENDBRANCH  24  29
ENDBRANCH  11  15
ENDBRANCH   8   9
BRANCH   8  31
ATOM     31  C   UNL     1      43.473 132.478  15.809  1.00  0.00     0.014 C 
ATOM     32  C   UNL     1      42.391 131.725  16.601  1.00  0.00     0.010 C 
ATOM     33  C   UNL     1      42.819 133.636  15.037  1.00  0.00     0.010 C 
ENDBRANCH   8  31
ENDBRANCH   1   8
TORSDOF 9
ENDMDL


