REMARK SMILES Cc1[nH+]nn(C/C(O)=N\c2cccc(C#N)c2C)c1-c1cc2ccccc2c2ccccc12
REMARK SMILES IDX 7 1 8 2 9 4 10 5 11 6 17 7 12 8 14 9 13 10 18 11 15 12 16 13
REMARK SMILES IDX 6 14 5 15 4 16 19 17 3 18 2 19 1 21 20 22 21 23 33 24 22 25
REMARK SMILES IDX 32 26 28 27 23 28 27 29 31 30 29 31 24 32 26 33 30 34 25 35
REMARK H PARENT 8 3 3 20
ROOT
ATOM      1  C   UNL     1      -1.077   1.889   1.022  1.00  0.00     0.231 C 
ENDROOT
BRANCH   1   2
ATOM      2  O   UNL     1      -2.214   2.692   0.997  1.00  0.00    -0.493 OA
ATOM      3  H   UNL     1      -2.156   3.675   0.762  1.00  0.00     0.295 HD
ENDBRANCH   1   2
BRANCH   1   4
ATOM      4  N   UNL     1       0.073   2.424   0.716  1.00  0.00    -0.214 NA
BRANCH   4   5
ATOM      5  C   UNL     1       1.374   1.811   0.718  1.00  0.00     0.071 A 
ATOM      6  C   UNL     1       1.849   1.153   1.865  1.00  0.00     0.029 A 
ATOM      7  C   UNL     1       2.238   1.997  -0.387  1.00  0.00    -0.007 A 
ATOM      8  C   UNL     1       3.128   0.599   1.885  1.00  0.00     0.004 A 
ATOM      9  C   UNL     1       3.548   1.461  -0.340  1.00  0.00     0.057 A 
ATOM     10  C   UNL     1       3.972   0.746   0.786  1.00  0.00     0.020 A 
ATOM     11  C   UNL     1       1.785   2.834  -1.561  1.00  0.00     0.048 C 
BRANCH   9  12
ATOM     12  C   UNL     1       4.478   1.635  -1.430  1.00  0.00     0.099 C 
ATOM     13  N   UNL     1       5.223   1.772  -2.305  1.00  0.00    -0.192 NA
ENDBRANCH   9  12
ENDBRANCH   4   5
ENDBRANCH   1   4
BRANCH   1  14
ATOM     14  C   UNL     1      -1.264   0.430   1.354  1.00  0.00     0.366 C 
BRANCH  14  15
ATOM     15  N   UNL     1      -2.019  -0.234   0.294  1.00  0.00    -0.120 N 
ATOM     16  N   UNL     1      -3.342  -0.288   0.257  1.00  0.00     0.089 NA
ATOM     17  C   UNL     1      -1.540  -0.832  -0.820  1.00  0.00     0.201 A 
ATOM     18  N   UNL     1      -3.736  -0.924  -0.836  1.00  0.00    -0.147 N 
ATOM     19  C   UNL     1      -2.640  -1.293  -1.523  1.00  0.00     0.169 A 
ATOM     20  H   UNL     1      -4.732  -1.100  -1.095  1.00  0.00     0.342 HD
ATOM     21  C   UNL     1      -2.659  -2.031  -2.824  1.00  0.00     0.100 C 
BRANCH  17  22
ATOM     22  C   UNL     1      -0.111  -1.008  -1.173  1.00  0.00     0.036 A 
ATOM     23  C   UNL     1       0.672  -1.797  -0.331  1.00  0.00     0.022 A 
ATOM     24  C   UNL     1       0.457  -0.447  -2.341  1.00  0.00    -0.006 A 
ATOM     25  C   UNL     1       2.019  -2.033  -0.608  1.00  0.00    -0.017 A 
ATOM     26  C   UNL     1      -0.304   0.397  -3.179  1.00  0.00     0.009 A 
ATOM     27  C   UNL     1       1.822  -0.714  -2.671  1.00  0.00    -0.010 A 
ATOM     28  C   UNL     1       2.778  -2.797   0.294  1.00  0.00     0.009 A 
ATOM     29  C   UNL     1       2.615  -1.505  -1.784  1.00  0.00    -0.010 A 
ATOM     30  C   UNL     1       0.241   0.926  -4.345  1.00  0.00     0.001 A 
ATOM     31  C   UNL     1       2.340  -0.167  -3.871  1.00  0.00     0.009 A 
ATOM     32  C   UNL     1       4.127  -3.042   0.051  1.00  0.00     0.001 A 
ATOM     33  C   UNL     1       3.990  -1.776  -2.006  1.00  0.00     0.009 A 
ATOM     34  C   UNL     1       1.553   0.637  -4.694  1.00  0.00     0.001 A 
ATOM     35  C   UNL     1       4.730  -2.533  -1.095  1.00  0.00     0.001 A 
ENDBRANCH  17  22
ENDBRANCH  14  15
ENDBRANCH   1  14
TORSDOF 7


