REMARK SMILES C#CCO/C([O-])=C\[C@H]1CC[C@@H]2C(=O)Nc3c(N=[N+]=[N-])cc(Cl)c1c32
REMARK SMILES IDX 5 1 6 2 4 3 3 4 2 5 1 6 7 7 8 8 23 9 9 10 21 11 24 12 10 13
REMARK SMILES IDX 20 14 15 15 11 16 16 17 14 18 12 19 22 20 13 22 17 23 18 24
REMARK SMILES IDX 19 25
REMARK H PARENT 14 21
ROOT
ATOM      1  C   UNL     1      -1.996   3.080   1.218  1.00  0.00     0.049 C 
ATOM      2  O   UNL     1      -2.578   4.295   1.568  1.00  0.00    -0.547 OA
ENDROOT
BRANCH   1   3
ATOM      3  O   UNL     1      -2.626   2.239   0.297  1.00  0.00    -0.601 OA
BRANCH   3   4
ATOM      4  C   UNL     1      -3.853   2.576  -0.335  1.00  0.00     0.160 C 
BRANCH   4   5
ATOM      5  C   UNL     1      -4.214   1.511  -1.271  1.00  0.00    -0.095 C 
ATOM      6  C   UNL     1      -4.506   0.631  -2.041  1.00  0.00     0.005 C 
ENDBRANCH   4   5
ENDBRANCH   3   4
ENDBRANCH   1   3
BRANCH   1   7
ATOM      7  C   UNL     1      -0.827   2.731   1.766  1.00  0.00     0.005 C 
BRANCH   7   8
ATOM      8  C   UNL     1      -0.112   1.436   1.449  1.00  0.00     0.045 C 
ATOM      9  C   UNL     1       0.158   1.302  -0.048  1.00  0.00    -0.016 A 
ATOM     10  C   UNL     1      -0.862   0.220   2.090  1.00  0.00     0.014 C 
ATOM     11  C   UNL     1       1.077   2.130  -0.740  1.00  0.00     0.045 A 
ATOM     12  C   UNL     1      -0.370   0.209  -0.738  1.00  0.00    -0.006 A 
ATOM     13  C   UNL     1      -0.710  -1.097   1.300  1.00  0.00     0.019 C 
ATOM     14  C   UNL     1       1.488   1.793  -2.049  1.00  0.00     0.033 A 
ATOM     15  C   UNL     1       0.116  -0.180  -1.966  1.00  0.00     0.055 A 
ATOM     16  C   UNL     1      -1.202  -0.859  -0.127  1.00  0.00     0.111 C 
ATOM     17  C   UNL     1       1.041   0.600  -2.660  1.00  0.00     0.063 A 
ATOM     18  N   UNL     1      -0.240  -1.523  -2.259  1.00  0.00    -0.325 N 
ATOM     19  C   UNL     1      -0.954  -1.966  -1.107  1.00  0.00     0.232 C 
ATOM     20  Cl  UNL     1       1.801   3.540   0.023  1.00  0.00    -0.084 Cl
ATOM     21  H   UNL     1       0.104  -2.112  -3.050  1.00  0.00     0.169 HD
ATOM     22  O   UNL     1      -1.360  -3.150  -0.965  1.00  0.00    -0.274 OA
BRANCH  17  23
ATOM     23  N   UNL     1       1.536   0.159  -3.931  1.00  0.00    -0.059 NA
BRANCH  23  24
ATOM     24  N   UNL     1       2.364   0.806  -4.574  1.00  0.00     0.005 N 
ATOM     25  N   UNL     1       3.190   1.452  -5.217  1.00  0.00    -0.003 NA
ENDBRANCH  23  24
ENDBRANCH  17  23
ENDBRANCH   7   8
ENDBRANCH   1   7
TORSDOF 7


