MODEL 1
REMARK VINA RESULT:      -6.7      0.000      0.000
REMARK SMILES Cc1n[nH+]n([C@@H]2O[C@@]2(C#N)[NH2+]c2cccc(C#N)c2C)c1-c1cc2ccccc2c2ccccc12
REMARK SMILES IDX 11 1 8 4 6 5 7 6 5 7 2 8 3 9 21 10 4 11 1 12 22 14 23 15
REMARK SMILES IDX 35 16 24 17 34 18 30 19 25 20 29 21 33 22 31 23 26 24 28 25
REMARK SMILES IDX 32 26 27 27 9 28 10 29 12 30 13 31 19 32 14 33 16 34 15 35
REMARK SMILES IDX 20 36 17 37 18 38
REMARK H PARENT 11 2 11 3 4 13
ROOT
ATOM      1  N   UNL     1      39.947 133.635  19.873  1.00  0.00    -0.269 N 
ATOM      2  H   UNL     1      39.745 134.262  20.682  1.00  0.00     0.356 HD
ATOM      3  H   UNL     1      39.507 132.720  20.135  1.00  0.00     0.356 HD
ENDROOT
BRANCH   1   4
ATOM      4  C   UNL     1      39.325 134.153  18.642  1.00  0.00     0.349 C 
ATOM      5  C   UNL     1      39.208 133.240  17.471  1.00  0.00     0.395 C 
ATOM      6  O   UNL     1      38.125 133.471  18.343  1.00  0.00    -0.270 OA
BRANCH   5   7
ATOM      7  N   UNL     1      39.014 133.902  16.184  1.00  0.00    -0.088 N 
ATOM      8  C   UNL     1      39.314 134.804  14.214  1.00  0.00     0.137 A 
ATOM      9  N   UNL     1      37.991 134.826  14.486  1.00  0.00     0.020 NA
ATOM     10  C   UNL     1      39.964 134.229  15.292  1.00  0.00     0.140 A 
ATOM     11  N   UNL     1      37.846 134.266  15.678  1.00  0.00    -0.014 N 
ATOM     12  C   UNL     1      39.928 135.353  12.969  1.00  0.00     0.076 C 
ATOM     13  H   UNL     1      36.924 134.131  16.151  1.00  0.00     0.526 HD
BRANCH  10  14
ATOM     14  C   UNL     1      41.408 133.941  15.429  1.00  0.00     0.015 A 
ATOM     15  C   UNL     1      41.878 132.742  14.899  1.00  0.00     0.020 A 
ATOM     16  C   UNL     1      42.303 134.833  16.064  1.00  0.00    -0.008 A 
ATOM     17  C   UNL     1      43.235 132.421  14.936  1.00  0.00    -0.017 A 
ATOM     18  C   UNL     1      41.832 136.021  16.663  1.00  0.00     0.009 A 
ATOM     19  C   UNL     1      43.696 134.520  16.125  1.00  0.00    -0.010 A 
ATOM     20  C   UNL     1      43.667 131.210  14.369  1.00  0.00     0.009 A 
ATOM     21  C   UNL     1      44.169 133.306  15.536  1.00  0.00    -0.010 A 
ATOM     22  C   UNL     1      42.706 136.892  17.304  1.00  0.00     0.001 A 
ATOM     23  C   UNL     1      44.557 135.431  16.786  1.00  0.00     0.009 A 
ATOM     24  C   UNL     1      45.015 130.863  14.384  1.00  0.00     0.001 A 
ATOM     25  C   UNL     1      45.537 132.931  15.528  1.00  0.00     0.009 A 
ATOM     26  C   UNL     1      44.062 136.599  17.365  1.00  0.00     0.001 A 
ATOM     27  C   UNL     1      45.946 131.723  14.959  1.00  0.00     0.001 A 
ENDBRANCH  10  14
ENDBRANCH   5   7
BRANCH   4  28
ATOM     28  C   UNL     1      39.121 135.606  18.517  1.00  0.00     0.168 C 
ATOM     29  N   UNL     1      38.963 136.747  18.418  1.00  0.00    -0.188 NA
ENDBRANCH   4  28
ENDBRANCH   1   4
BRANCH   1  30
ATOM     30  C   UNL     1      41.375 133.451  19.699  1.00  0.00     0.137 A 
ATOM     31  C   UNL     1      41.819 132.341  18.954  1.00  0.00     0.068 A 
ATOM     32  C   UNL     1      42.345 134.340  20.257  1.00  0.00     0.028 A 
ATOM     33  C   UNL     1      43.175 132.090  18.771  1.00  0.00     0.008 A 
ATOM     34  C   UNL     1      43.723 134.078  20.036  1.00  0.00     0.061 A 
ATOM     35  C   UNL     1      44.122 132.950  19.312  1.00  0.00     0.020 A 
ATOM     36  C   UNL     1      41.944 135.592  21.011  1.00  0.00     0.052 C 
BRANCH  34  37
ATOM     37  C   UNL     1      44.757 134.957  20.532  1.00  0.00     0.100 C 
ATOM     38  N   UNL     1      45.586 135.661  20.931  1.00  0.00    -0.192 NA
ENDBRANCH  34  37
ENDBRANCH   1  30
TORSDOF 6
ENDMDL
MODEL 2
REMARK VINA RESULT:      -5.8      2.618      6.154
REMARK SMILES Cc1n[nH+]n([C@@H]2O[C@@]2(C#N)[NH2+]c2cccc(C#N)c2C)c1-c1cc2ccccc2c2ccccc12
REMARK SMILES IDX 11 1 8 4 6 5 7 6 5 7 2 8 3 9 21 10 4 11 1 12 22 14 23 15
REMARK SMILES IDX 35 16 24 17 34 18 30 19 25 20 29 21 33 22 31 23 26 24 28 25
REMARK SMILES IDX 32 26 27 27 9 28 10 29 12 30 13 31 19 32 14 33 16 34 15 35
REMARK SMILES IDX 20 36 17 37 18 38
REMARK H PARENT 11 2 11 3 4 13
ROOT
ATOM      1  N   UNL     1      43.008 134.041  16.119  1.00  0.00    -0.269 N 
ATOM      2  H   UNL     1      42.575 133.862  15.187  1.00  0.00     0.356 HD
ATOM      3  H   UNL     1      43.636 134.866  15.962  1.00  0.00     0.356 HD
ENDROOT
BRANCH   1   4
ATOM      4  C   UNL     1      41.978 134.380  17.117  1.00  0.00     0.349 C 
ATOM      5  C   UNL     1      42.133 135.644  17.890  1.00  0.00     0.395 C 
ATOM      6  O   UNL     1      41.288 135.561  16.765  1.00  0.00    -0.270 OA
BRANCH   5   7
ATOM      7  N   UNL     1      41.370 135.709  19.133  1.00  0.00    -0.088 N 
ATOM      8  C   UNL     1      40.756 135.652  21.231  1.00  0.00     0.137 A 
ATOM      9  N   UNL     1      39.700 136.068  20.500  1.00  0.00     0.020 NA
ATOM     10  C   UNL     1      41.811 135.413  20.368  1.00  0.00     0.140 A 
ATOM     11  N   UNL     1      40.109 136.099  19.240  1.00  0.00    -0.014 N 
ATOM     12  C   UNL     1      40.731 135.458  22.712  1.00  0.00     0.076 C 
ATOM     13  H   UNL     1      39.509 136.396  18.438  1.00  0.00     0.526 HD
BRANCH  10  14
ATOM     14  C   UNL     1      43.186 134.997  20.713  1.00  0.00     0.015 A 
ATOM     15  C   UNL     1      44.190 135.960  20.631  1.00  0.00     0.020 A 
ATOM     16  C   UNL     1      43.502 133.680  21.121  1.00  0.00    -0.008 A 
ATOM     17  C   UNL     1      45.504 135.664  20.993  1.00  0.00    -0.017 A 
ATOM     18  C   UNL     1      42.509 132.677  21.148  1.00  0.00     0.009 A 
ATOM     19  C   UNL     1      44.843 133.350  21.487  1.00  0.00    -0.010 A 
ATOM     20  C   UNL     1      46.479 136.673  20.914  1.00  0.00     0.009 A 
ATOM     21  C   UNL     1      45.852 134.362  21.439  1.00  0.00    -0.010 A 
ATOM     22  C   UNL     1      42.818 131.377  21.531  1.00  0.00     0.001 A 
ATOM     23  C   UNL     1      45.121 132.015  21.872  1.00  0.00     0.009 A 
ATOM     24  C   UNL     1      47.797 136.411  21.276  1.00  0.00     0.001 A 
ATOM     25  C   UNL     1      47.202 134.128  21.810  1.00  0.00     0.009 A 
ATOM     26  C   UNL     1      44.118 131.047  21.892  1.00  0.00     0.001 A 
ATOM     27  C   UNL     1      48.156 135.144  21.725  1.00  0.00     0.001 A 
ENDBRANCH  10  14
ENDBRANCH   5   7
BRANCH   4  28
ATOM     28  C   UNL     1      41.020 133.337  17.516  1.00  0.00     0.168 C 
ATOM     29  N   UNL     1      40.267 132.516  17.828  1.00  0.00    -0.188 NA
ENDBRANCH   4  28
ENDBRANCH   1   4
BRANCH   1  30
ATOM     30  C   UNL     1      43.802 132.907  16.552  1.00  0.00     0.137 A 
ATOM     31  C   UNL     1      44.335 132.926  17.856  1.00  0.00     0.068 A 
ATOM     32  C   UNL     1      44.071 131.783  15.712  1.00  0.00     0.028 A 
ATOM     33  C   UNL     1      45.127 131.883  18.327  1.00  0.00     0.008 A 
ATOM     34  C   UNL     1      44.861 130.718  16.222  1.00  0.00     0.061 A 
ATOM     35  C   UNL     1      45.393 130.788  17.514  1.00  0.00     0.020 A 
ATOM     36  C   UNL     1      43.476 131.659  14.324  1.00  0.00     0.052 C 
BRANCH  34  37
ATOM     37  C   UNL     1      45.137 129.531  15.446  1.00  0.00     0.100 C 
ATOM     38  N   UNL     1      45.357 128.579  14.825  1.00  0.00    -0.192 NA
ENDBRANCH  34  37
ENDBRANCH   1  30
TORSDOF 6
ENDMDL
MODEL 3
REMARK VINA RESULT:      -5.7      2.753      6.101
REMARK SMILES Cc1n[nH+]n([C@@H]2O[C@@]2(C#N)[NH2+]c2cccc(C#N)c2C)c1-c1cc2ccccc2c2ccccc12
REMARK SMILES IDX 11 1 8 4 6 5 7 6 5 7 2 8 3 9 21 10 4 11 1 12 22 14 23 15
REMARK SMILES IDX 35 16 24 17 34 18 30 19 25 20 29 21 33 22 31 23 26 24 28 25
REMARK SMILES IDX 32 26 27 27 9 28 10 29 12 30 13 31 19 32 14 33 16 34 15 35
REMARK SMILES IDX 20 36 17 37 18 38
REMARK H PARENT 11 2 11 3 4 13
ROOT
ATOM      1  N   UNL     1      43.081 131.770  17.079  1.00  0.00    -0.269 N 
ATOM      2  H   UNL     1      43.244 131.107  17.867  1.00  0.00     0.356 HD
ATOM      3  H   UNL     1      42.055 131.694  16.880  1.00  0.00     0.356 HD
ENDROOT
BRANCH   1   4
ATOM      4  C   UNL     1      43.410 133.150  17.481  1.00  0.00     0.349 C 
ATOM      5  C   UNL     1      42.778 133.696  18.714  1.00  0.00     0.395 C 
ATOM      6  O   UNL     1      44.088 133.178  18.719  1.00  0.00    -0.270 OA
BRANCH   5   7
ATOM      7  N   UNL     1      42.773 135.152  18.817  1.00  0.00    -0.088 N 
ATOM      8  C   UNL     1      42.254 137.271  18.668  1.00  0.00     0.137 A 
ATOM      9  N   UNL     1      43.378 137.169  19.409  1.00  0.00     0.020 NA
ATOM     10  C   UNL     1      41.875 135.998  18.283  1.00  0.00     0.140 A 
ATOM     11  N   UNL     1      43.658 135.876  19.485  1.00  0.00    -0.014 N 
ATOM     12  C   UNL     1      41.591 138.563  18.316  1.00  0.00     0.076 C 
ATOM     13  H   UNL     1      44.472 135.485  20.009  1.00  0.00     0.526 HD
BRANCH  10  14
ATOM     14  C   UNL     1      40.678 135.604  17.510  1.00  0.00     0.015 A 
ATOM     15  C   UNL     1      40.754 135.679  16.121  1.00  0.00     0.020 A 
ATOM     16  C   UNL     1      39.487 135.156  18.129  1.00  0.00    -0.008 A 
ATOM     17  C   UNL     1      39.690 135.273  15.317  1.00  0.00    -0.017 A 
ATOM     18  C   UNL     1      39.372 135.136  19.535  1.00  0.00     0.009 A 
ATOM     19  C   UNL     1      38.379 134.745  17.326  1.00  0.00    -0.010 A 
ATOM     20  C   UNL     1      39.820 135.347  13.920  1.00  0.00     0.009 A 
ATOM     21  C   UNL     1      38.490 134.787  15.902  1.00  0.00    -0.010 A 
ATOM     22  C   UNL     1      38.197 134.714  20.148  1.00  0.00     0.001 A 
ATOM     23  C   UNL     1      37.199 134.321  17.986  1.00  0.00     0.009 A 
ATOM     24  C   UNL     1      38.778 134.942  13.090  1.00  0.00     0.001 A 
ATOM     25  C   UNL     1      37.450 134.373  15.031  1.00  0.00     0.009 A 
ATOM     26  C   UNL     1      37.116 134.308  19.377  1.00  0.00     0.001 A 
ATOM     27  C   UNL     1      37.599 134.454  13.645  1.00  0.00     0.001 A 
ENDBRANCH  10  14
ENDBRANCH   5   7
BRANCH   4  28
ATOM     28  C   UNL     1      44.098 134.017  16.511  1.00  0.00     0.168 C 
ATOM     29  N   UNL     1      44.639 134.701  15.751  1.00  0.00    -0.188 NA
ENDBRANCH   4  28
ENDBRANCH   1   4
BRANCH   1  30
ATOM     30  C   UNL     1      43.830 131.377  15.901  1.00  0.00     0.137 A 
ATOM     31  C   UNL     1      43.211 131.509  14.642  1.00  0.00     0.068 A 
ATOM     32  C   UNL     1      45.159 130.856  15.966  1.00  0.00     0.028 A 
ATOM     33  C   UNL     1      43.863 131.125  13.474  1.00  0.00     0.008 A 
ATOM     34  C   UNL     1      45.815 130.495  14.758  1.00  0.00     0.061 A 
ATOM     35  C   UNL     1      45.155 130.617  13.531  1.00  0.00     0.020 A 
ATOM     36  C   UNL     1      45.916 130.750  17.274  1.00  0.00     0.052 C 
BRANCH  34  37
ATOM     37  C   UNL     1      47.173 130.003  14.743  1.00  0.00     0.100 C 
ATOM     38  N   UNL     1      48.263 129.611  14.730  1.00  0.00    -0.192 NA
ENDBRANCH  34  37
ENDBRANCH   1  30
TORSDOF 6
ENDMDL
MODEL 4
REMARK VINA RESULT:      -5.6      2.455      5.019
REMARK SMILES Cc1n[nH+]n([C@@H]2O[C@@]2(C#N)[NH2+]c2cccc(C#N)c2C)c1-c1cc2ccccc2c2ccccc12
REMARK SMILES IDX 11 1 8 4 6 5 7 6 5 7 2 8 3 9 21 10 4 11 1 12 22 14 23 15
REMARK SMILES IDX 35 16 24 17 34 18 30 19 25 20 29 21 33 22 31 23 26 24 28 25
REMARK SMILES IDX 32 26 27 27 9 28 10 29 12 30 13 31 19 32 14 33 16 34 15 35
REMARK SMILES IDX 20 36 17 37 18 38
REMARK H PARENT 11 2 11 3 4 13
ROOT
ATOM      1  N   UNL     1      39.840 135.489  16.758  1.00  0.00    -0.269 N 
ATOM      2  H   UNL     1      39.283 136.064  16.089  1.00  0.00     0.356 HD
ATOM      3  H   UNL     1      39.146 134.823  17.173  1.00  0.00     0.356 HD
ENDROOT
BRANCH   1   4
ATOM      4  C   UNL     1      40.891 134.736  16.049  1.00  0.00     0.349 C 
ATOM      5  C   UNL     1      41.076 133.297  16.384  1.00  0.00     0.395 C 
ATOM      6  O   UNL     1      40.342 133.707  15.253  1.00  0.00    -0.270 OA
BRANCH   5   7
ATOM      7  N   UNL     1      42.370 132.733  16.010  1.00  0.00    -0.088 N 
ATOM      8  C   UNL     1      44.422 131.979  16.031  1.00  0.00     0.137 A 
ATOM      9  N   UNL     1      43.923 131.792  14.790  1.00  0.00     0.020 NA
ATOM     10  C   UNL     1      43.445 132.583  16.802  1.00  0.00     0.140 A 
ATOM     11  N   UNL     1      42.680 132.251  14.816  1.00  0.00    -0.014 N 
ATOM     12  C   UNL     1      45.811 131.615  16.444  1.00  0.00     0.076 C 
ATOM     13  H   UNL     1      42.033 132.231  13.996  1.00  0.00     0.526 HD
BRANCH  10  14
ATOM     14  C   UNL     1      43.511 132.931  18.237  1.00  0.00     0.015 A 
ATOM     15  C   UNL     1      43.120 131.957  19.154  1.00  0.00     0.020 A 
ATOM     16  C   UNL     1      43.955 134.193  18.694  1.00  0.00    -0.008 A 
ATOM     17  C   UNL     1      43.206 132.184  20.527  1.00  0.00    -0.017 A 
ATOM     18  C   UNL     1      44.293 135.212  17.777  1.00  0.00     0.009 A 
ATOM     19  C   UNL     1      44.040 134.454  20.096  1.00  0.00    -0.010 A 
ATOM     20  C   UNL     1      42.821 131.165  21.415  1.00  0.00     0.009 A 
ATOM     21  C   UNL     1      43.678 133.428  21.023  1.00  0.00    -0.010 A 
ATOM     22  C   UNL     1      44.713 136.461  18.221  1.00  0.00     0.001 A 
ATOM     23  C   UNL     1      44.473 135.738  20.511  1.00  0.00     0.009 A 
ATOM     24  C   UNL     1      42.901 131.358  22.791  1.00  0.00     0.001 A 
ATOM     25  C   UNL     1      43.758 133.593  22.430  1.00  0.00     0.009 A 
ATOM     26  C   UNL     1      44.803 136.723  19.582  1.00  0.00     0.001 A 
ATOM     27  C   UNL     1      43.371 132.567  23.296  1.00  0.00     0.001 A 
ENDBRANCH  10  14
ENDBRANCH   5   7
BRANCH   4  28
ATOM     28  C   UNL     1      41.893 135.489  15.277  1.00  0.00     0.168 C 
ATOM     29  N   UNL     1      42.682 136.078  14.670  1.00  0.00    -0.188 NA
ENDBRANCH   4  28
ENDBRANCH   1   4
BRANCH   1  30
ATOM     30  C   UNL     1      40.406 136.313  17.809  1.00  0.00     0.137 A 
ATOM     31  C   UNL     1      40.895 137.589  17.465  1.00  0.00     0.068 A 
ATOM     32  C   UNL     1      40.496 135.882  19.168  1.00  0.00     0.028 A 
ATOM     33  C   UNL     1      41.475 138.421  18.418  1.00  0.00     0.008 A 
ATOM     34  C   UNL     1      41.069 136.758  20.129  1.00  0.00     0.061 A 
ATOM     35  C   UNL     1      41.566 138.006  19.741  1.00  0.00     0.020 A 
ATOM     36  C   UNL     1      39.930 134.554  19.627  1.00  0.00     0.052 C 
BRANCH  34  37
ATOM     37  C   UNL     1      41.152 136.408  21.528  1.00  0.00     0.100 C 
ATOM     38  N   UNL     1      41.220 136.129  22.650  1.00  0.00    -0.192 NA
ENDBRANCH  34  37
ENDBRANCH   1  30
TORSDOF 6
ENDMDL
MODEL 5
REMARK VINA RESULT:      -5.6      2.705      5.498
REMARK SMILES Cc1n[nH+]n([C@@H]2O[C@@]2(C#N)[NH2+]c2cccc(C#N)c2C)c1-c1cc2ccccc2c2ccccc12
REMARK SMILES IDX 11 1 8 4 6 5 7 6 5 7 2 8 3 9 21 10 4 11 1 12 22 14 23 15
REMARK SMILES IDX 35 16 24 17 34 18 30 19 25 20 29 21 33 22 31 23 26 24 28 25
REMARK SMILES IDX 32 26 27 27 9 28 10 29 12 30 13 31 19 32 14 33 16 34 15 35
REMARK SMILES IDX 20 36 17 37 18 38
REMARK H PARENT 11 2 11 3 4 13
ROOT
ATOM      1  N   UNL     1      43.603 134.012  15.240  1.00  0.00    -0.269 N 
ATOM      2  H   UNL     1      43.382 133.711  14.267  1.00  0.00     0.356 HD
ATOM      3  H   UNL     1      44.348 134.741  15.127  1.00  0.00     0.356 HD
ENDROOT
BRANCH   1   4
ATOM      4  C   UNL     1      42.418 134.606  15.885  1.00  0.00     0.349 C 
ATOM      5  C   UNL     1      42.431 136.066  16.177  1.00  0.00     0.395 C 
ATOM      6  O   UNL     1      41.786 135.544  15.039  1.00  0.00    -0.270 OA
BRANCH   5   7
ATOM      7  N   UNL     1      41.470 136.507  17.185  1.00  0.00    -0.088 N 
ATOM      8  C   UNL     1      40.516 137.142  19.047  1.00  0.00     0.137 A 
ATOM      9  N   UNL     1      39.591 137.200  18.065  1.00  0.00     0.020 NA
ATOM     10  C   UNL     1      41.703 136.694  18.496  1.00  0.00     0.140 A 
ATOM     11  N   UNL     1      40.204 136.817  16.954  1.00  0.00    -0.014 N 
ATOM     12  C   UNL     1      40.248 137.477  20.478  1.00  0.00     0.076 C 
ATOM     13  H   UNL     1      39.742 136.771  16.018  1.00  0.00     0.526 HD
BRANCH  10  14
ATOM     14  C   UNL     1      43.008 136.525  19.170  1.00  0.00     0.015 A 
ATOM     15  C   UNL     1      43.196 135.373  19.931  1.00  0.00     0.020 A 
ATOM     16  C   UNL     1      44.048 137.476  19.059  1.00  0.00    -0.008 A 
ATOM     17  C   UNL     1      44.416 135.111  20.552  1.00  0.00    -0.017 A 
ATOM     18  C   UNL     1      43.852 138.678  18.345  1.00  0.00     0.009 A 
ATOM     19  C   UNL     1      45.304 137.235  19.696  1.00  0.00    -0.010 A 
ATOM     20  C   UNL     1      44.566 133.925  21.291  1.00  0.00     0.009 A 
ATOM     21  C   UNL     1      45.495 136.027  20.436  1.00  0.00    -0.010 A 
ATOM     22  C   UNL     1      44.866 139.625  18.249  1.00  0.00     0.001 A 
ATOM     23  C   UNL     1      46.314 138.222  19.576  1.00  0.00     0.009 A 
ATOM     24  C   UNL     1      45.775 133.631  21.917  1.00  0.00     0.001 A 
ATOM     25  C   UNL     1      46.716 135.696  21.077  1.00  0.00     0.009 A 
ATOM     26  C   UNL     1      46.091 139.398  18.861  1.00  0.00     0.001 A 
ATOM     27  C   UNL     1      46.846 134.513  21.807  1.00  0.00     0.001 A 
ENDBRANCH  10  14
ENDBRANCH   5   7
BRANCH   4  28
ATOM     28  C   UNL     1      41.415 133.705  16.474  1.00  0.00     0.168 C 
ATOM     29  N   UNL     1      40.627 132.998  16.940  1.00  0.00    -0.188 NA
ENDBRANCH   4  28
ENDBRANCH   1   4
BRANCH   1  30
ATOM     30  C   UNL     1      44.124 132.907  16.023  1.00  0.00     0.137 A 
ATOM     31  C   UNL     1      44.422 133.135  17.381  1.00  0.00     0.068 A 
ATOM     32  C   UNL     1      44.354 131.609  15.473  1.00  0.00     0.028 A 
ATOM     33  C   UNL     1      44.950 132.127  18.183  1.00  0.00     0.008 A 
ATOM     34  C   UNL     1      44.869 130.588  16.317  1.00  0.00     0.061 A 
ATOM     35  C   UNL     1      45.176 130.863  17.653  1.00  0.00     0.020 A 
ATOM     36  C   UNL     1      43.994 131.269  14.042  1.00  0.00     0.052 C 
BRANCH  34  37
ATOM     37  C   UNL     1      45.086 129.241  15.842  1.00  0.00     0.100 C 
ATOM     38  N   UNL     1      45.260 128.162  15.459  1.00  0.00    -0.192 NA
ENDBRANCH  34  37
ENDBRANCH   1  30
TORSDOF 6
ENDMDL
MODEL 6
REMARK VINA RESULT:      -5.5      3.152      6.074
REMARK SMILES Cc1n[nH+]n([C@@H]2O[C@@]2(C#N)[NH2+]c2cccc(C#N)c2C)c1-c1cc2ccccc2c2ccccc12
REMARK SMILES IDX 11 1 8 4 6 5 7 6 5 7 2 8 3 9 21 10 4 11 1 12 22 14 23 15
REMARK SMILES IDX 35 16 24 17 34 18 30 19 25 20 29 21 33 22 31 23 26 24 28 25
REMARK SMILES IDX 32 26 27 27 9 28 10 29 12 30 13 31 19 32 14 33 16 34 15 35
REMARK SMILES IDX 20 36 17 37 18 38
REMARK H PARENT 11 2 11 3 4 13
ROOT
ATOM      1  N   UNL     1      44.266 130.949  19.033  1.00  0.00    -0.269 N 
ATOM      2  H   UNL     1      45.010 130.242  19.215  1.00  0.00     0.356 HD
ATOM      3  H   UNL     1      43.407 130.382  18.836  1.00  0.00     0.356 HD
ENDROOT
BRANCH   1   4
ATOM      4  C   UNL     1      44.044 131.792  20.221  1.00  0.00     0.349 C 
ATOM      5  C   UNL     1      42.652 131.946  20.728  1.00  0.00     0.395 C 
ATOM      6  O   UNL     1      43.556 131.034  21.308  1.00  0.00    -0.270 OA
BRANCH   5   7
ATOM      7  N   UNL     1      42.428 133.104  21.589  1.00  0.00    -0.088 N 
ATOM      8  C   UNL     1      41.878 135.071  22.369  1.00  0.00     0.137 A 
ATOM      9  N   UNL     1      42.331 134.326  23.400  1.00  0.00     0.020 NA
ATOM     10  C   UNL     1      41.948 134.304  21.220  1.00  0.00     0.140 A 
ATOM     11  N   UNL     1      42.646 133.143  22.894  1.00  0.00    -0.014 N 
ATOM     12  C   UNL     1      41.426 136.490  22.489  1.00  0.00     0.076 C 
ATOM     13  H   UNL     1      43.017 132.346  23.459  1.00  0.00     0.526 HD
BRANCH  10  14
ATOM     14  C   UNL     1      41.511 134.673  19.857  1.00  0.00     0.015 A 
ATOM     15  C   UNL     1      40.374 134.044  19.353  1.00  0.00     0.020 A 
ATOM     16  C   UNL     1      42.195 135.630  19.073  1.00  0.00    -0.008 A 
ATOM     17  C   UNL     1      39.863 134.376  18.099  1.00  0.00    -0.017 A 
ATOM     18  C   UNL     1      43.384 136.229  19.543  1.00  0.00     0.009 A 
ATOM     19  C   UNL     1      41.697 135.979  17.780  1.00  0.00    -0.010 A 
ATOM     20  C   UNL     1      38.702 133.730  17.641  1.00  0.00     0.009 A 
ATOM     21  C   UNL     1      40.505 135.356  17.297  1.00  0.00    -0.010 A 
ATOM     22  C   UNL     1      44.070 137.157  18.768  1.00  0.00     0.001 A 
ATOM     23  C   UNL     1      42.422 136.929  17.019  1.00  0.00     0.009 A 
ATOM     24  C   UNL     1      38.163 134.045  16.397  1.00  0.00     0.001 A 
ATOM     25  C   UNL     1      39.926 135.663  16.038  1.00  0.00     0.009 A 
ATOM     26  C   UNL     1      43.591 137.506  17.512  1.00  0.00     0.001 A 
ATOM     27  C   UNL     1      38.772 135.010  15.600  1.00  0.00     0.001 A 
ENDBRANCH  10  14
ENDBRANCH   5   7
BRANCH   4  28
ATOM     28  C   UNL     1      45.135 132.671  20.670  1.00  0.00     0.168 C 
ATOM     29  N   UNL     1      45.995 133.360  21.024  1.00  0.00    -0.188 NA
ENDBRANCH   4  28
ENDBRANCH   1   4
BRANCH   1  30
ATOM     30  C   UNL     1      44.587 131.757  17.872  1.00  0.00     0.137 A 
ATOM     31  C   UNL     1      44.040 133.053  17.789  1.00  0.00     0.068 A 
ATOM     32  C   UNL     1      45.424 131.292  16.811  1.00  0.00     0.028 A 
ATOM     33  C   UNL     1      44.286 133.871  16.691  1.00  0.00     0.008 A 
ATOM     34  C   UNL     1      45.681 132.154  15.712  1.00  0.00     0.061 A 
ATOM     35  C   UNL     1      45.097 133.423  15.656  1.00  0.00     0.020 A 
ATOM     36  C   UNL     1      46.104 129.939  16.861  1.00  0.00     0.052 C 
BRANCH  34  37
ATOM     37  C   UNL     1      46.552 131.768  14.626  1.00  0.00     0.100 C 
ATOM     38  N   UNL     1      47.251 131.460  13.755  1.00  0.00    -0.192 NA
ENDBRANCH  34  37
ENDBRANCH   1  30
TORSDOF 6
ENDMDL
MODEL 7
REMARK VINA RESULT:      -5.5      2.461      6.477
REMARK SMILES Cc1n[nH+]n([C@@H]2O[C@@]2(C#N)[NH2+]c2cccc(C#N)c2C)c1-c1cc2ccccc2c2ccccc12
REMARK SMILES IDX 11 1 8 4 6 5 7 6 5 7 2 8 3 9 21 10 4 11 1 12 22 14 23 15
REMARK SMILES IDX 35 16 24 17 34 18 30 19 25 20 29 21 33 22 31 23 26 24 28 25
REMARK SMILES IDX 32 26 27 27 9 28 10 29 12 30 13 31 19 32 14 33 16 34 15 35
REMARK SMILES IDX 20 36 17 37 18 38
REMARK H PARENT 11 2 11 3 4 13
ROOT
ATOM      1  N   UNL     1      41.963 133.196  15.496  1.00  0.00    -0.269 N 
ATOM      2  H   UNL     1      42.207 132.967  14.509  1.00  0.00     0.356 HD
ATOM      3  H   UNL     1      41.068 132.680  15.672  1.00  0.00     0.356 HD
ENDROOT
BRANCH   1   4
ATOM      4  C   UNL     1      43.007 132.712  16.418  1.00  0.00     0.349 C 
ATOM      5  C   UNL     1      42.610 132.353  17.807  1.00  0.00     0.395 C 
ATOM      6  O   UNL     1      42.772 131.375  16.807  1.00  0.00    -0.270 OA
BRANCH   5   7
ATOM      7  N   UNL     1      43.703 132.318  18.776  1.00  0.00    -0.088 N 
ATOM      8  C   UNL     1      45.167 132.833  20.316  1.00  0.00     0.137 A 
ATOM      9  N   UNL     1      45.328 131.528  20.008  1.00  0.00     0.020 NA
ATOM     10  C   UNL     1      44.147 133.339  19.530  1.00  0.00     0.140 A 
ATOM     11  N   UNL     1      44.422 131.250  19.082  1.00  0.00    -0.014 N 
ATOM     12  C   UNL     1      45.999 133.573  21.313  1.00  0.00     0.076 C 
ATOM     13  H   UNL     1      44.297 130.305  18.653  1.00  0.00     0.526 HD
BRANCH  10  14
ATOM     14  C   UNL     1      43.578 134.702  19.552  1.00  0.00     0.015 A 
ATOM     15  C   UNL     1      44.269 135.700  18.868  1.00  0.00     0.020 A 
ATOM     16  C   UNL     1      42.374 135.012  20.227  1.00  0.00    -0.008 A 
ATOM     17  C   UNL     1      43.771 137.001  18.793  1.00  0.00    -0.017 A 
ATOM     18  C   UNL     1      41.696 134.028  20.978  1.00  0.00     0.009 A 
ATOM     19  C   UNL     1      41.850 136.340  20.174  1.00  0.00    -0.010 A 
ATOM     20  C   UNL     1      44.492 137.969  18.074  1.00  0.00     0.009 A 
ATOM     21  C   UNL     1      42.549 137.341  19.431  1.00  0.00    -0.010 A 
ATOM     22  C   UNL     1      40.523 134.332  21.658  1.00  0.00     0.001 A 
ATOM     23  C   UNL     1      40.651 136.613  20.879  1.00  0.00     0.009 A 
ATOM     24  C   UNL     1      44.017 139.274  17.974  1.00  0.00     0.001 A 
ATOM     25  C   UNL     1      42.085 138.676  19.303  1.00  0.00     0.009 A 
ATOM     26  C   UNL     1      40.002 135.619  21.609  1.00  0.00     0.001 A 
ATOM     27  C   UNL     1      42.816 139.624  18.584  1.00  0.00     0.001 A 
ENDBRANCH  10  14
ENDBRANCH   5   7
BRANCH   4  28
ATOM     28  C   UNL     1      44.416 132.883  16.031  1.00  0.00     0.168 C 
ATOM     29  N   UNL     1      45.524 133.020  15.726  1.00  0.00    -0.188 NA
ENDBRANCH   4  28
ENDBRANCH   1   4
BRANCH   1  30
ATOM     30  C   UNL     1      41.739 134.620  15.662  1.00  0.00     0.137 A 
ATOM     31  C   UNL     1      42.610 135.512  15.005  1.00  0.00     0.068 A 
ATOM     32  C   UNL     1      40.685 135.151  16.467  1.00  0.00     0.028 A 
ATOM     33  C   UNL     1      42.469 136.890  15.142  1.00  0.00     0.008 A 
ATOM     34  C   UNL     1      40.545 136.560  16.572  1.00  0.00     0.061 A 
ATOM     35  C   UNL     1      41.446 137.411  15.924  1.00  0.00     0.020 A 
ATOM     36  C   UNL     1      39.668 134.257  17.147  1.00  0.00     0.052 C 
BRANCH  34  37
ATOM     37  C   UNL     1      39.476 137.168  17.332  1.00  0.00     0.100 C 
ATOM     38  N   UNL     1      38.621 137.655  17.942  1.00  0.00    -0.192 NA
ENDBRANCH  34  37
ENDBRANCH   1  30
TORSDOF 6
ENDMDL
MODEL 8
REMARK VINA RESULT:      -5.5      2.350      5.015
REMARK SMILES Cc1n[nH+]n([C@@H]2O[C@@]2(C#N)[NH2+]c2cccc(C#N)c2C)c1-c1cc2ccccc2c2ccccc12
REMARK SMILES IDX 11 1 8 4 6 5 7 6 5 7 2 8 3 9 21 10 4 11 1 12 22 14 23 15
REMARK SMILES IDX 35 16 24 17 34 18 30 19 25 20 29 21 33 22 31 23 26 24 28 25
REMARK SMILES IDX 32 26 27 27 9 28 10 29 12 30 13 31 19 32 14 33 16 34 15 35
REMARK SMILES IDX 20 36 17 37 18 38
REMARK H PARENT 11 2 11 3 4 13
ROOT
ATOM      1  N   UNL     1      42.587 132.267  15.709  1.00  0.00    -0.269 N 
ATOM      2  H   UNL     1      41.938 131.567  15.287  1.00  0.00     0.356 HD
ATOM      3  H   UNL     1      43.500 132.105  15.221  1.00  0.00     0.356 HD
ENDROOT
BRANCH   1   4
ATOM      4  C   UNL     1      42.118 133.639  15.447  1.00  0.00     0.349 C 
ATOM      5  C   UNL     1      43.106 134.750  15.526  1.00  0.00     0.395 C 
ATOM      6  O   UNL     1      42.727 134.181  14.294  1.00  0.00    -0.270 OA
BRANCH   5   7
ATOM      7  N   UNL     1      42.531 136.081  15.704  1.00  0.00    -0.088 N 
ATOM      8  C   UNL     1      41.717 137.926  16.549  1.00  0.00     0.137 A 
ATOM      9  N   UNL     1      41.779 138.074  15.208  1.00  0.00     0.020 NA
ATOM     10  C   UNL     1      42.182 136.662  16.864  1.00  0.00     0.140 A 
ATOM     11  N   UNL     1      42.283 136.945  14.732  1.00  0.00    -0.014 N 
ATOM     12  C   UNL     1      41.191 138.962  17.488  1.00  0.00     0.076 C 
ATOM     13  H   UNL     1      42.461 136.767  13.718  1.00  0.00     0.526 HD
BRANCH  10  14
ATOM     14  C   UNL     1      42.353 136.069  18.208  1.00  0.00     0.015 A 
ATOM     15  C   UNL     1      43.652 135.941  18.694  1.00  0.00     0.020 A 
ATOM     16  C   UNL     1      41.258 135.647  18.997  1.00  0.00    -0.008 A 
ATOM     17  C   UNL     1      43.897 135.444  19.974  1.00  0.00    -0.017 A 
ATOM     18  C   UNL     1      39.941 135.711  18.493  1.00  0.00     0.009 A 
ATOM     19  C   UNL     1      41.484 135.124  20.307  1.00  0.00    -0.010 A 
ATOM     20  C   UNL     1      45.223 135.352  20.430  1.00  0.00     0.009 A 
ATOM     21  C   UNL     1      42.820 135.040  20.807  1.00  0.00    -0.010 A 
ATOM     22  C   UNL     1      38.863 135.279  19.258  1.00  0.00     0.001 A 
ATOM     23  C   UNL     1      40.361 134.695  21.057  1.00  0.00     0.009 A 
ATOM     24  C   UNL     1      45.499 134.868  21.706  1.00  0.00     0.001 A 
ATOM     25  C   UNL     1      43.133 134.560  22.105  1.00  0.00     0.009 A 
ATOM     26  C   UNL     1      39.072 134.774  20.534  1.00  0.00     0.001 A 
ATOM     27  C   UNL     1      44.457 134.476  22.541  1.00  0.00     0.001 A 
ENDBRANCH  10  14
ENDBRANCH   5   7
BRANCH   4  28
ATOM     28  C   UNL     1      40.668 133.889  15.414  1.00  0.00     0.168 C 
ATOM     29  N   UNL     1      39.528 134.086  15.385  1.00  0.00    -0.188 NA
ENDBRANCH   4  28
ENDBRANCH   1   4
BRANCH   1  30
ATOM     30  C   UNL     1      42.752 132.034  17.131  1.00  0.00     0.137 A 
ATOM     31  C   UNL     1      41.597 131.975  17.936  1.00  0.00     0.068 A 
ATOM     32  C   UNL     1      44.031 131.873  17.747  1.00  0.00     0.028 A 
ATOM     33  C   UNL     1      41.684 131.781  19.311  1.00  0.00     0.008 A 
ATOM     34  C   UNL     1      44.095 131.651  19.149  1.00  0.00     0.061 A 
ATOM     35  C   UNL     1      42.925 131.625  19.915  1.00  0.00     0.020 A 
ATOM     36  C   UNL     1      45.313 131.854  16.940  1.00  0.00     0.052 C 
BRANCH  34  37
ATOM     37  C   UNL     1      45.349 131.435  19.832  1.00  0.00     0.100 C 
ATOM     38  N   UNL     1      46.355 131.261  20.379  1.00  0.00    -0.192 NA
ENDBRANCH  34  37
ENDBRANCH   1  30
TORSDOF 6
ENDMDL
MODEL 9
REMARK VINA RESULT:      -5.4      2.370      6.011
REMARK SMILES Cc1n[nH+]n([C@@H]2O[C@@]2(C#N)[NH2+]c2cccc(C#N)c2C)c1-c1cc2ccccc2c2ccccc12
REMARK SMILES IDX 11 1 8 4 6 5 7 6 5 7 2 8 3 9 21 10 4 11 1 12 22 14 23 15
REMARK SMILES IDX 35 16 24 17 34 18 30 19 25 20 29 21 33 22 31 23 26 24 28 25
REMARK SMILES IDX 32 26 27 27 9 28 10 29 12 30 13 31 19 32 14 33 16 34 15 35
REMARK SMILES IDX 20 36 17 37 18 38
REMARK H PARENT 11 2 11 3 4 13
ROOT
ATOM      1  N   UNL     1      44.575 132.840  18.532  1.00  0.00    -0.269 N 
ATOM      2  H   UNL     1      45.606 132.994  18.567  1.00  0.00     0.356 HD
ATOM      3  H   UNL     1      44.470 131.821  18.308  1.00  0.00     0.356 HD
ENDROOT
BRANCH   1   4
ATOM      4  C   UNL     1      43.959 133.130  19.838  1.00  0.00     0.349 C 
ATOM      5  C   UNL     1      42.651 132.495  20.159  1.00  0.00     0.395 C 
ATOM      6  O   UNL     1      43.867 131.968  20.635  1.00  0.00    -0.270 OA
BRANCH   5   7
ATOM      7  N   UNL     1      41.890 133.142  21.224  1.00  0.00    -0.088 N 
ATOM      8  C   UNL     1      40.513 134.410  22.356  1.00  0.00     0.137 A 
ATOM      9  N   UNL     1      41.119 133.572  23.225  1.00  0.00     0.020 NA
ATOM     10  C   UNL     1      41.007 134.148  21.090  1.00  0.00     0.140 A 
ATOM     11  N   UNL     1      41.936 132.817  22.506  1.00  0.00    -0.014 N 
ATOM     12  C   UNL     1      39.517 135.452  22.745  1.00  0.00     0.076 C 
ATOM     13  H   UNL     1      42.536 132.061  22.906  1.00  0.00     0.526 HD
BRANCH  10  14
ATOM     14  C   UNL     1      40.602 134.772  19.813  1.00  0.00     0.015 A 
ATOM     15  C   UNL     1      39.689 134.082  19.019  1.00  0.00     0.020 A 
ATOM     16  C   UNL     1      41.101 136.026  19.389  1.00  0.00    -0.008 A 
ATOM     17  C   UNL     1      39.213 134.627  17.828  1.00  0.00    -0.017 A 
ATOM     18  C   UNL     1      42.075 136.708  20.150  1.00  0.00     0.009 A 
ATOM     19  C   UNL     1      40.636 136.600  18.166  1.00  0.00    -0.010 A 
ATOM     20  C   UNL     1      38.276 133.904  17.071  1.00  0.00     0.009 A 
ATOM     21  C   UNL     1      39.666 135.898  17.386  1.00  0.00    -0.010 A 
ATOM     22  C   UNL     1      42.581 137.932  19.728  1.00  0.00     0.001 A 
ATOM     23  C   UNL     1      41.175 137.849  17.768  1.00  0.00     0.009 A 
ATOM     24  C   UNL     1      37.776 134.424  15.880  1.00  0.00     0.001 A 
ATOM     25  C   UNL     1      39.131 136.407  16.174  1.00  0.00     0.009 A 
ATOM     26  C   UNL     1      42.133 138.500  18.543  1.00  0.00     0.001 A 
ATOM     27  C   UNL     1      38.201 135.673  15.436  1.00  0.00     0.001 A 
ENDBRANCH  10  14
ENDBRANCH   5   7
BRANCH   4  28
ATOM     28  C   UNL     1      44.497 134.245  20.635  1.00  0.00     0.168 C 
ATOM     29  N   UNL     1      44.921 135.119  21.262  1.00  0.00    -0.188 NA
ENDBRANCH   4  28
ENDBRANCH   1   4
BRANCH   1  30
ATOM     30  C   UNL     1      43.966 133.630  17.479  1.00  0.00     0.137 A 
ATOM     31  C   UNL     1      44.414 134.953  17.294  1.00  0.00     0.068 A 
ATOM     32  C   UNL     1      42.929 133.128  16.634  1.00  0.00     0.028 A 
ATOM     33  C   UNL     1      43.854 135.775  16.321  1.00  0.00     0.008 A 
ATOM     34  C   UNL     1      42.390 133.977  15.630  1.00  0.00     0.061 A 
ATOM     35  C   UNL     1      42.846 135.292  15.497  1.00  0.00     0.020 A 
ATOM     36  C   UNL     1      42.444 131.696  16.726  1.00  0.00     0.052 C 
BRANCH  34  37
ATOM     37  C   UNL     1      41.372 133.523  14.711  1.00  0.00     0.100 C 
ATOM     38  N   UNL     1      40.555 133.160  13.974  1.00  0.00    -0.192 NA
ENDBRANCH  34  37
ENDBRANCH   1  30
TORSDOF 6
ENDMDL


