MODEL 1
REMARK VINA RESULT:      -6.8      0.000      0.000
REMARK SMILES C#CCO/C(O)=C\[C@@H]1c2c(N=[N+]=[N-])ccc3c2[C@@H](C[C@H]1C(=O)N=[N+]=[N-])C(=O)N(O)C3=O
REMARK SMILES IDX 7 1 5 2 4 3 3 4 2 5 1 6 6 7 8 9 9 10 20 11 10 12 17 13 19 14
REMARK SMILES IDX 14 15 16 16 18 17 15 18 30 19 26 20 28 21 31 22 27 23 21 24
REMARK SMILES IDX 22 25 23 26 24 27 25 28 11 29 12 30 13 31 29 32
REMARK H PARENT 6 8 29 33
ROOT
ATOM      1  C   UNL     1      45.704 131.153  17.651  1.00  0.00     0.070 C 
ENDROOT
BRANCH   1   2
ATOM      2  C   UNL     1      45.756 130.532  16.463  1.00  0.00     0.274 C 
BRANCH   2   3
ATOM      3  O   UNL     1      46.804 130.774  15.572  1.00  0.00    -0.453 OA
BRANCH   3   4
ATOM      4  C   UNL     1      47.326 129.766  14.716  1.00  0.00     0.322 C 
BRANCH   4   5
ATOM      5  C   UNL     1      47.231 130.215  13.328  1.00  0.00    -0.065 C 
ATOM      6  C   UNL     1      47.155 130.584  12.183  1.00  0.00     0.007 C 
ENDBRANCH   4   5
ENDBRANCH   3   4
ENDBRANCH   2   3
BRANCH   2   7
ATOM      7  O   UNL     1      44.745 129.638  16.103  1.00  0.00    -0.481 OA
ATOM      8  H   UNL     1      44.748 129.151  15.214  1.00  0.00     0.296 HD
ENDBRANCH   2   7
ENDBRANCH   1   2
BRANCH   1   9
ATOM      9  C   UNL     1      44.455 131.739  18.291  1.00  0.00     0.060 C 
ATOM     10  C   UNL     1      44.203 133.185  17.863  1.00  0.00    -0.026 A 
ATOM     11  C   UNL     1      44.464 131.519  19.828  1.00  0.00     0.076 C 
ATOM     12  C   UNL     1      43.866 133.450  16.514  1.00  0.00     0.042 A 
ATOM     13  C   UNL     1      44.385 134.269  18.769  1.00  0.00    -0.018 A 
ATOM     14  C   UNL     1      45.197 132.652  20.558  1.00  0.00     0.031 C 
ATOM     15  C   UNL     1      43.718 134.776  16.081  1.00  0.00     0.011 A 
ATOM     16  C   UNL     1      44.256 135.596  18.296  1.00  0.00     0.047 A 
ATOM     17  C   UNL     1      44.559 134.021  20.263  1.00  0.00     0.113 C 
ATOM     18  C   UNL     1      43.920 135.835  16.958  1.00  0.00     0.015 A 
ATOM     19  C   UNL     1      44.538 136.731  19.202  1.00  0.00     0.284 C 
ATOM     20  C   UNL     1      45.317 135.144  20.934  1.00  0.00     0.261 C 
ATOM     21  N   UNL     1      45.141 136.488  20.476  1.00  0.00    -0.151 N 
ATOM     22  O   UNL     1      44.291 137.915  18.845  1.00  0.00    -0.266 OA
ATOM     23  O   UNL     1      46.020 134.924  21.959  1.00  0.00    -0.271 OA
BRANCH  11  24
ATOM     24  C   UNL     1      43.071 131.329  20.388  1.00  0.00     0.222 C 
ATOM     25  O   UNL     1      42.073 131.531  19.643  1.00  0.00    -0.292 OA
BRANCH  24  26
ATOM     26  N   UNL     1      42.881 130.879  21.735  1.00  0.00    -0.022 NA
BRANCH  26  27
ATOM     27  N   UNL     1      42.535 131.655  22.626  1.00  0.00     0.008 N 
ATOM     28  N   UNL     1      42.190 132.430  23.516  1.00  0.00    -0.003 NA
ENDBRANCH  26  27
ENDBRANCH  24  26
ENDBRANCH  11  24
BRANCH  12  29
ATOM     29  N   UNL     1      43.685 132.356  15.599  1.00  0.00    -0.060 NA
BRANCH  29  30
ATOM     30  N   UNL     1      42.775 132.328  14.770  1.00  0.00     0.005 N 
ATOM     31  N   UNL     1      41.866 132.300  13.941  1.00  0.00    -0.003 NA
ENDBRANCH  29  30
ENDBRANCH  12  29
BRANCH  21  32
ATOM     32  O   UNL     1      45.601 137.524  21.219  1.00  0.00    -0.278 OA
ATOM     33  H   UNL     1      46.113 137.102  21.957  1.00  0.00     0.247 HD
ENDBRANCH  21  32
ENDBRANCH   1   9
TORSDOF 12
ENDMDL
MODEL 2
REMARK VINA RESULT:      -6.8      1.825      2.003
REMARK SMILES C#CCO/C(O)=C\[C@@H]1c2c(N=[N+]=[N-])ccc3c2[C@@H](C[C@H]1C(=O)N=[N+]=[N-])C(=O)N(O)C3=O
REMARK SMILES IDX 7 1 5 2 4 3 3 4 2 5 1 6 6 7 8 9 9 10 20 11 10 12 17 13 19 14
REMARK SMILES IDX 14 15 16 16 18 17 15 18 30 19 26 20 28 21 31 22 27 23 21 24
REMARK SMILES IDX 22 25 23 26 24 27 25 28 11 29 12 30 13 31 29 32
REMARK H PARENT 6 8 29 33
ROOT
ATOM      1  C   UNL     1      45.130 132.315  16.196  1.00  0.00     0.070 C 
ENDROOT
BRANCH   1   2
ATOM      2  C   UNL     1      45.431 131.062  15.819  1.00  0.00     0.274 C 
BRANCH   2   3
ATOM      3  O   UNL     1      46.650 130.771  15.202  1.00  0.00    -0.453 OA
BRANCH   3   4
ATOM      4  C   UNL     1      47.231 131.622  14.224  1.00  0.00     0.322 C 
BRANCH   4   5
ATOM      5  C   UNL     1      47.254 130.930  12.936  1.00  0.00    -0.065 C 
ATOM      6  C   UNL     1      47.270 130.360  11.873  1.00  0.00     0.007 C 
ENDBRANCH   4   5
ENDBRANCH   3   4
ENDBRANCH   2   3
BRANCH   2   7
ATOM      7  O   UNL     1      44.510 130.034  16.034  1.00  0.00    -0.481 OA
ATOM      8  H   UNL     1      44.221 129.756  16.965  1.00  0.00     0.296 HD
ENDBRANCH   2   7
ENDBRANCH   1   2
BRANCH   1   9
ATOM      9  C   UNL     1      43.912 132.730  17.006  1.00  0.00     0.060 C 
ATOM     10  C   UNL     1      43.723 134.246  17.041  1.00  0.00    -0.026 A 
ATOM     11  C   UNL     1      43.918 132.052  18.402  1.00  0.00     0.076 C 
ATOM     12  C   UNL     1      43.393 134.923  15.843  1.00  0.00     0.042 A 
ATOM     13  C   UNL     1      43.958 134.994  18.230  1.00  0.00    -0.018 A 
ATOM     14  C   UNL     1      44.704 132.878  19.429  1.00  0.00     0.031 C 
ATOM     15  C   UNL     1      43.302 136.323  15.836  1.00  0.00     0.011 A 
ATOM     16  C   UNL     1      43.886 136.407  18.186  1.00  0.00     0.047 A 
ATOM     17  C   UNL     1      44.127 134.297  19.576  1.00  0.00     0.113 C 
ATOM     18  C   UNL     1      43.557 137.055  16.990  1.00  0.00     0.015 A 
ATOM     19  C   UNL     1      44.223 137.200  19.389  1.00  0.00     0.284 C 
ATOM     20  C   UNL     1      44.938 135.129  20.542  1.00  0.00     0.261 C 
ATOM     21  N   UNL     1      44.820 136.555  20.517  1.00  0.00    -0.151 N 
ATOM     22  O   UNL     1      44.028 138.445  19.412  1.00  0.00    -0.266 OA
ATOM     23  O   UNL     1      45.634 134.579  21.439  1.00  0.00    -0.271 OA
BRANCH  11  24
ATOM     24  C   UNL     1      42.520 131.759  18.903  1.00  0.00     0.222 C 
ATOM     25  O   UNL     1      42.333 131.568  20.136  1.00  0.00    -0.292 OA
BRANCH  24  26
ATOM     26  N   UNL     1      41.409 131.745  17.999  1.00  0.00    -0.022 NA
BRANCH  26  27
ATOM     27  N   UNL     1      40.630 132.696  17.928  1.00  0.00     0.008 N 
ATOM     28  N   UNL     1      39.851 133.645  17.857  1.00  0.00    -0.003 NA
ENDBRANCH  26  27
ENDBRANCH  24  26
ENDBRANCH  11  24
BRANCH  12  29
ATOM     29  N   UNL     1      43.159 134.168  14.642  1.00  0.00    -0.060 NA
BRANCH  29  30
ATOM     30  N   UNL     1      42.074 133.644  14.388  1.00  0.00     0.005 N 
ATOM     31  N   UNL     1      40.989 133.122  14.135  1.00  0.00    -0.003 NA
ENDBRANCH  29  30
ENDBRANCH  12  29
BRANCH  21  32
ATOM     32  O   UNL     1      45.330 137.296  21.532  1.00  0.00    -0.278 OA
ATOM     33  H   UNL     1      44.821 137.013  22.335  1.00  0.00     0.247 HD
ENDBRANCH  21  32
ENDBRANCH   1   9
TORSDOF 12
ENDMDL
MODEL 3
REMARK VINA RESULT:      -6.8      2.351      2.750
REMARK SMILES C#CCO/C(O)=C\[C@@H]1c2c(N=[N+]=[N-])ccc3c2[C@@H](C[C@H]1C(=O)N=[N+]=[N-])C(=O)N(O)C3=O
REMARK SMILES IDX 7 1 5 2 4 3 3 4 2 5 1 6 6 7 8 9 9 10 20 11 10 12 17 13 19 14
REMARK SMILES IDX 14 15 16 16 18 17 15 18 30 19 26 20 28 21 31 22 27 23 21 24
REMARK SMILES IDX 22 25 23 26 24 27 25 28 11 29 12 30 13 31 29 32
REMARK H PARENT 6 8 29 33
ROOT
ATOM      1  C   UNL     1      43.682 132.299  15.094  1.00  0.00     0.070 C 
ENDROOT
BRANCH   1   2
ATOM      2  C   UNL     1      44.965 131.985  15.336  1.00  0.00     0.274 C 
BRANCH   2   3
ATOM      3  O   UNL     1      45.354 130.658  15.532  1.00  0.00    -0.453 OA
BRANCH   3   4
ATOM      4  C   UNL     1      45.385 129.708  14.476  1.00  0.00     0.322 C 
BRANCH   4   5
ATOM      5  C   UNL     1      46.257 130.200  13.410  1.00  0.00    -0.065 C 
ATOM      6  C   UNL     1      46.975 130.607  12.531  1.00  0.00     0.007 C 
ENDBRANCH   4   5
ENDBRANCH   3   4
ENDBRANCH   2   3
BRANCH   2   7
ATOM      7  O   UNL     1      45.925 132.997  15.403  1.00  0.00    -0.481 OA
ATOM      8  H   UNL     1      46.236 133.500  14.580  1.00  0.00     0.296 HD
ENDBRANCH   2   7
ENDBRANCH   1   2
BRANCH   1   9
ATOM      9  C   UNL     1      42.684 132.807  16.122  1.00  0.00     0.060 C 
ATOM     10  C   UNL     1      42.679 134.332  16.227  1.00  0.00    -0.026 A 
ATOM     11  C   UNL     1      42.861 132.072  17.478  1.00  0.00     0.076 C 
ATOM     12  C   UNL     1      42.220 135.092  15.126  1.00  0.00     0.042 A 
ATOM     13  C   UNL     1      43.206 134.997  17.371  1.00  0.00    -0.018 A 
ATOM     14  C   UNL     1      43.907 132.761  18.363  1.00  0.00     0.031 C 
ATOM     15  C   UNL     1      42.290 136.493  15.169  1.00  0.00     0.011 A 
ATOM     16  C   UNL     1      43.290 136.409  17.374  1.00  0.00     0.047 A 
ATOM     17  C   UNL     1      43.532 134.226  18.647  1.00  0.00     0.113 C 
ATOM     18  C   UNL     1      42.828 137.142  16.275  1.00  0.00     0.015 A 
ATOM     19  C   UNL     1      43.924 137.107  18.514  1.00  0.00     0.284 C 
ATOM     20  C   UNL     1      44.592 134.923  19.469  1.00  0.00     0.261 C 
ATOM     21  N   UNL     1      44.635 136.353  19.499  1.00  0.00    -0.151 N 
ATOM     22  O   UNL     1      43.880 138.365  18.603  1.00  0.00    -0.266 OA
ATOM     23  O   UNL     1      45.370 134.261  20.210  1.00  0.00    -0.271 OA
BRANCH  11  24
ATOM     24  C   UNL     1      41.551 131.909  18.218  1.00  0.00     0.222 C 
ATOM     25  O   UNL     1      41.559 131.452  19.394  1.00  0.00    -0.292 OA
BRANCH  24  26
ATOM     26  N   UNL     1      40.317 132.313  17.614  1.00  0.00    -0.022 NA
BRANCH  26  27
ATOM     27  N   UNL     1      39.722 133.325  17.987  1.00  0.00     0.008 N 
ATOM     28  N   UNL     1      39.130 134.336  18.360  1.00  0.00    -0.003 NA
ENDBRANCH  26  27
ENDBRANCH  24  26
ENDBRANCH  11  24
BRANCH  12  29
ATOM     29  N   UNL     1      41.691 134.421  13.970  1.00  0.00    -0.060 NA
BRANCH  29  30
ATOM     30  N   UNL     1      40.561 133.930  13.946  1.00  0.00     0.005 N 
ATOM     31  N   UNL     1      39.434 133.438  13.921  1.00  0.00    -0.003 NA
ENDBRANCH  29  30
ENDBRANCH  12  29
BRANCH  21  32
ATOM     32  O   UNL     1      45.399 136.989  20.422  1.00  0.00    -0.278 OA
ATOM     33  H   UNL     1      45.019 136.719  21.297  1.00  0.00     0.247 HD
ENDBRANCH  21  32
ENDBRANCH   1   9
TORSDOF 12
ENDMDL
MODEL 4
REMARK VINA RESULT:      -6.7      3.270      5.705
REMARK SMILES C#CCO/C(O)=C\[C@@H]1c2c(N=[N+]=[N-])ccc3c2[C@@H](C[C@H]1C(=O)N=[N+]=[N-])C(=O)N(O)C3=O
REMARK SMILES IDX 7 1 5 2 4 3 3 4 2 5 1 6 6 7 8 9 9 10 20 11 10 12 17 13 19 14
REMARK SMILES IDX 14 15 16 16 18 17 15 18 30 19 26 20 28 21 31 22 27 23 21 24
REMARK SMILES IDX 22 25 23 26 24 27 25 28 11 29 12 30 13 31 29 32
REMARK H PARENT 6 8 29 33
ROOT
ATOM      1  C   UNL     1      44.221 131.603  17.303  1.00  0.00     0.070 C 
ENDROOT
BRANCH   1   2
ATOM      2  C   UNL     1      45.364 131.081  16.832  1.00  0.00     0.274 C 
BRANCH   2   3
ATOM      3  O   UNL     1      45.760 131.295  15.509  1.00  0.00    -0.453 OA
BRANCH   3   4
ATOM      4  C   UNL     1      45.283 130.499  14.433  1.00  0.00     0.322 C 
BRANCH   4   5
ATOM      5  C   UNL     1      46.243 130.554  13.331  1.00  0.00    -0.065 C 
ATOM      6  C   UNL     1      47.036 130.596  12.424  1.00  0.00     0.007 C 
ENDBRANCH   4   5
ENDBRANCH   3   4
ENDBRANCH   2   3
BRANCH   2   7
ATOM      7  O   UNL     1      46.167 130.302  17.669  1.00  0.00    -0.481 OA
ATOM      8  H   UNL     1      45.899 129.368  17.957  1.00  0.00     0.296 HD
ENDBRANCH   2   7
ENDBRANCH   1   2
BRANCH   1   9
ATOM      9  C   UNL     1      43.848 133.077  17.293  1.00  0.00     0.060 C 
ATOM     10  C   UNL     1      43.003 133.473  18.503  1.00  0.00    -0.026 A 
ATOM     11  C   UNL     1      43.240 133.486  15.925  1.00  0.00     0.076 C 
ATOM     12  C   UNL     1      43.590 133.435  19.790  1.00  0.00     0.042 A 
ATOM     13  C   UNL     1      41.622 133.793  18.369  1.00  0.00    -0.018 A 
ATOM     14  C   UNL     1      41.725 133.250  15.886  1.00  0.00     0.031 C 
ATOM     15  C   UNL     1      42.807 133.710  20.922  1.00  0.00     0.011 A 
ATOM     16  C   UNL     1      40.851 134.039  19.531  1.00  0.00     0.047 A 
ATOM     17  C   UNL     1      41.001 134.031  16.997  1.00  0.00     0.113 C 
ATOM     18  C   UNL     1      41.453 133.997  20.793  1.00  0.00     0.015 A 
ATOM     19  C   UNL     1      39.395 134.276  19.412  1.00  0.00     0.284 C 
ATOM     20  C   UNL     1      39.515 133.751  16.996  1.00  0.00     0.261 C 
ATOM     21  N   UNL     1      38.740 134.047  18.162  1.00  0.00    -0.151 N 
ATOM     22  O   UNL     1      38.720 134.636  20.414  1.00  0.00    -0.266 OA
ATOM     23  O   UNL     1      38.934 133.359  15.946  1.00  0.00    -0.271 OA
BRANCH  11  24
ATOM     24  C   UNL     1      43.572 134.915  15.554  1.00  0.00     0.222 C 
ATOM     25  O   UNL     1      44.727 135.363  15.795  1.00  0.00    -0.292 OA
BRANCH  24  26
ATOM     26  N   UNL     1      42.607 135.741  14.893  1.00  0.00    -0.022 NA
BRANCH  26  27
ATOM     27  N   UNL     1      42.665 136.970  14.956  1.00  0.00     0.008 N 
ATOM     28  N   UNL     1      42.723 138.196  15.018  1.00  0.00    -0.003 NA
ENDBRANCH  26  27
ENDBRANCH  24  26
ENDBRANCH  11  24
BRANCH  12  29
ATOM     29  N   UNL     1      44.984 133.109  19.926  1.00  0.00    -0.060 NA
BRANCH  29  30
ATOM     30  N   UNL     1      45.379 132.153  20.594  1.00  0.00     0.005 N 
ATOM     31  N   UNL     1      45.774 131.199  21.263  1.00  0.00    -0.003 NA
ENDBRANCH  29  30
ENDBRANCH  12  29
BRANCH  21  32
ATOM     32  O   UNL     1      37.386 134.050  18.094  1.00  0.00    -0.278 OA
ATOM     33  H   UNL     1      37.178 133.828  17.150  1.00  0.00     0.247 HD
ENDBRANCH  21  32
ENDBRANCH   1   9
TORSDOF 12
ENDMDL
MODEL 5
REMARK VINA RESULT:      -6.7      2.403      3.040
REMARK SMILES C#CCO/C(O)=C\[C@@H]1c2c(N=[N+]=[N-])ccc3c2[C@@H](C[C@H]1C(=O)N=[N+]=[N-])C(=O)N(O)C3=O
REMARK SMILES IDX 7 1 5 2 4 3 3 4 2 5 1 6 6 7 8 9 9 10 20 11 10 12 17 13 19 14
REMARK SMILES IDX 14 15 16 16 18 17 15 18 30 19 26 20 28 21 31 22 27 23 21 24
REMARK SMILES IDX 22 25 23 26 24 27 25 28 11 29 12 30 13 31 29 32
REMARK H PARENT 6 8 29 33
ROOT
ATOM      1  C   UNL     1      44.520 132.978  15.839  1.00  0.00     0.070 C 
ENDROOT
BRANCH   1   2
ATOM      2  C   UNL     1      44.608 131.863  15.097  1.00  0.00     0.274 C 
BRANCH   2   3
ATOM      3  O   UNL     1      45.731 131.036  15.174  1.00  0.00    -0.453 OA
BRANCH   3   4
ATOM      4  C   UNL     1      46.969 131.373  14.564  1.00  0.00     0.322 C 
BRANCH   4   5
ATOM      5  C   UNL     1      46.973 130.891  13.183  1.00  0.00    -0.065 C 
ATOM      6  C   UNL     1      46.974 130.492  12.046  1.00  0.00     0.007 C 
ENDBRANCH   4   5
ENDBRANCH   3   4
ENDBRANCH   2   3
BRANCH   2   7
ATOM      7  O   UNL     1      43.568 131.527  14.227  1.00  0.00    -0.481 OA
ATOM      8  H   UNL     1      43.701 130.889  13.450  1.00  0.00     0.296 HD
ENDBRANCH   2   7
ENDBRANCH   1   2
BRANCH   1   9
ATOM      9  C   UNL     1      43.552 133.206  16.989  1.00  0.00     0.060 C 
ATOM     10  C   UNL     1      43.909 134.440  17.817  1.00  0.00    -0.026 A 
ATOM     11  C   UNL     1      43.363 131.909  17.820  1.00  0.00     0.076 C 
ATOM     12  C   UNL     1      43.800 135.719  17.223  1.00  0.00     0.042 A 
ATOM     13  C   UNL     1      44.428 134.320  19.138  1.00  0.00    -0.018 A 
ATOM     14  C   UNL     1      44.420 131.785  18.924  1.00  0.00     0.031 C 
ATOM     15  C   UNL     1      44.207 136.856  17.937  1.00  0.00     0.011 A 
ATOM     16  C   UNL     1      44.856 135.482  19.823  1.00  0.00     0.047 A 
ATOM     17  C   UNL     1      44.384 132.989  19.881  1.00  0.00     0.113 C 
ATOM     18  C   UNL     1      44.738 136.737  19.216  1.00  0.00     0.015 A 
ATOM     19  C   UNL     1      45.487 135.361  21.156  1.00  0.00     0.284 C 
ATOM     20  C   UNL     1      45.465 132.896  20.933  1.00  0.00     0.261 C 
ATOM     21  N   UNL     1      45.855 134.071  21.651  1.00  0.00    -0.151 N 
ATOM     22  O   UNL     1      45.743 136.389  21.841  1.00  0.00    -0.266 OA
ATOM     23  O   UNL     1      45.951 131.778  21.260  1.00  0.00    -0.271 OA
BRANCH  11  24
ATOM     24  C   UNL     1      41.967 131.794  18.395  1.00  0.00     0.222 C 
ATOM     25  O   UNL     1      41.811 131.294  19.542  1.00  0.00    -0.292 OA
BRANCH  24  26
ATOM     26  N   UNL     1      40.836 132.290  17.669  1.00  0.00    -0.022 NA
BRANCH  26  27
ATOM     27  N   UNL     1      40.210 133.278  18.056  1.00  0.00     0.008 N 
ATOM     28  N   UNL     1      39.585 134.263  18.443  1.00  0.00    -0.003 NA
ENDBRANCH  26  27
ENDBRANCH  24  26
ENDBRANCH  11  24
BRANCH  12  29
ATOM     29  N   UNL     1      43.279 135.840  15.888  1.00  0.00    -0.060 NA
BRANCH  29  30
ATOM     30  N   UNL     1      42.939 136.920  15.404  1.00  0.00     0.005 N 
ATOM     31  N   UNL     1      42.598 137.998  14.918  1.00  0.00    -0.003 NA
ENDBRANCH  29  30
ENDBRANCH  12  29
BRANCH  21  32
ATOM     32  O   UNL     1      46.624 133.963  22.763  1.00  0.00    -0.278 OA
ATOM     33  H   UNL     1      47.207 134.765  22.748  1.00  0.00     0.247 HD
ENDBRANCH  21  32
ENDBRANCH   1   9
TORSDOF 12
ENDMDL
MODEL 6
REMARK VINA RESULT:      -6.6      1.903      2.351
REMARK SMILES C#CCO/C(O)=C\[C@@H]1c2c(N=[N+]=[N-])ccc3c2[C@@H](C[C@H]1C(=O)N=[N+]=[N-])C(=O)N(O)C3=O
REMARK SMILES IDX 7 1 5 2 4 3 3 4 2 5 1 6 6 7 8 9 9 10 20 11 10 12 17 13 19 14
REMARK SMILES IDX 14 15 16 16 18 17 15 18 30 19 26 20 28 21 31 22 27 23 21 24
REMARK SMILES IDX 22 25 23 26 24 27 25 28 11 29 12 30 13 31 29 32
REMARK H PARENT 6 8 29 33
ROOT
ATOM      1  C   UNL     1      45.014 132.786  16.342  1.00  0.00     0.070 C 
ENDROOT
BRANCH   1   2
ATOM      2  C   UNL     1      45.172 131.585  15.764  1.00  0.00     0.274 C 
BRANCH   2   3
ATOM      3  O   UNL     1      44.794 131.373  14.436  1.00  0.00    -0.453 OA
BRANCH   3   4
ATOM      4  C   UNL     1      45.379 130.359  13.630  1.00  0.00     0.322 C 
BRANCH   4   5
ATOM      5  C   UNL     1      46.728 130.770  13.242  1.00  0.00    -0.065 C 
ATOM      6  C   UNL     1      47.841 131.106  12.923  1.00  0.00     0.007 C 
ENDBRANCH   4   5
ENDBRANCH   3   4
ENDBRANCH   2   3
BRANCH   2   7
ATOM      7  O   UNL     1      45.712 130.528  16.499  1.00  0.00    -0.481 OA
ATOM      8  H   UNL     1      46.442 130.668  17.188  1.00  0.00     0.296 HD
ENDBRANCH   2   7
ENDBRANCH   1   2
BRANCH   1   9
ATOM      9  C   UNL     1      43.778 133.254  17.093  1.00  0.00     0.060 C 
ATOM     10  C   UNL     1      43.506 134.745  16.899  1.00  0.00    -0.026 A 
ATOM     11  C   UNL     1      43.825 132.799  18.576  1.00  0.00     0.076 C 
ATOM     12  C   UNL     1      43.135 135.212  15.615  1.00  0.00     0.042 A 
ATOM     13  C   UNL     1      43.702 135.678  17.957  1.00  0.00    -0.018 A 
ATOM     14  C   UNL     1      44.567 133.813  19.456  1.00  0.00     0.031 C 
ATOM     15  C   UNL     1      42.968 136.588  15.396  1.00  0.00     0.011 A 
ATOM     16  C   UNL     1      43.553 137.061  17.698  1.00  0.00     0.047 A 
ATOM     17  C   UNL     1      43.913 135.205  19.391  1.00  0.00     0.113 C 
ATOM     18  C   UNL     1      43.184 137.500  16.422  1.00  0.00     0.015 A 
ATOM     19  C   UNL     1      43.849 138.046  18.763  1.00  0.00     0.284 C 
ATOM     20  C   UNL     1      44.680 136.218  20.210  1.00  0.00     0.261 C 
ATOM     21  N   UNL     1      44.484 137.615  19.969  1.00  0.00    -0.151 N 
ATOM     22  O   UNL     1      43.586 139.268  18.598  1.00  0.00    -0.266 OA
ATOM     23  O   UNL     1      45.408 135.849  21.173  1.00  0.00    -0.271 OA
BRANCH  11  24
ATOM     24  C   UNL     1      42.446 132.511  19.132  1.00  0.00     0.222 C 
ATOM     25  O   UNL     1      42.279 131.508  19.879  1.00  0.00    -0.292 OA
BRANCH  24  26
ATOM     26  N   UNL     1      41.349 133.389  18.855  1.00  0.00    -0.022 NA
BRANCH  26  27
ATOM     27  N   UNL     1      40.412 133.037  18.138  1.00  0.00     0.008 N 
ATOM     28  N   UNL     1      39.477 132.685  17.422  1.00  0.00    -0.003 NA
ENDBRANCH  26  27
ENDBRANCH  24  26
ENDBRANCH  11  24
BRANCH  12  29
ATOM     29  N   UNL     1      42.940 134.271  14.546  1.00  0.00    -0.060 NA
BRANCH  29  30
ATOM     30  N   UNL     1      41.855 133.732  14.326  1.00  0.00     0.005 N 
ATOM     31  N   UNL     1      40.772 133.191  14.108  1.00  0.00    -0.003 NA
ENDBRANCH  29  30
ENDBRANCH  12  29
BRANCH  21  32
ATOM     32  O   UNL     1      44.955 138.529  20.854  1.00  0.00    -0.278 OA
ATOM     33  H   UNL     1      44.213 138.667  21.497  1.00  0.00     0.247 HD
ENDBRANCH  21  32
ENDBRANCH   1   9
TORSDOF 12
ENDMDL
MODEL 7
REMARK VINA RESULT:      -6.6      3.058      5.644
REMARK SMILES C#CCO/C(O)=C\[C@@H]1c2c(N=[N+]=[N-])ccc3c2[C@@H](C[C@H]1C(=O)N=[N+]=[N-])C(=O)N(O)C3=O
REMARK SMILES IDX 7 1 5 2 4 3 3 4 2 5 1 6 6 7 8 9 9 10 20 11 10 12 17 13 19 14
REMARK SMILES IDX 14 15 16 16 18 17 15 18 30 19 26 20 28 21 31 22 27 23 21 24
REMARK SMILES IDX 22 25 23 26 24 27 25 28 11 29 12 30 13 31 29 32
REMARK H PARENT 6 8 29 33
ROOT
ATOM      1  C   UNL     1      42.087 132.786  15.601  1.00  0.00     0.070 C 
ENDROOT
BRANCH   1   2
ATOM      2  C   UNL     1      41.956 132.777  14.265  1.00  0.00     0.274 C 
BRANCH   2   3
ATOM      3  O   UNL     1      41.357 133.847  13.595  1.00  0.00    -0.453 OA
BRANCH   3   4
ATOM      4  C   UNL     1      40.405 134.698  14.218  1.00  0.00     0.322 C 
BRANCH   4   5
ATOM      5  C   UNL     1      39.065 134.347  13.749  1.00  0.00    -0.065 C 
ATOM      6  C   UNL     1      37.960 134.060  13.362  1.00  0.00     0.007 C 
ENDBRANCH   4   5
ENDBRANCH   3   4
ENDBRANCH   2   3
BRANCH   2   7
ATOM      7  O   UNL     1      42.416 131.681  13.531  1.00  0.00    -0.481 OA
ATOM      8  H   UNL     1      41.822 131.184  12.876  1.00  0.00     0.296 HD
ENDBRANCH   2   7
ENDBRANCH   1   2
BRANCH   1   9
ATOM      9  C   UNL     1      43.146 133.545  16.384  1.00  0.00     0.060 C 
ATOM     10  C   UNL     1      44.004 132.623  17.250  1.00  0.00    -0.026 A 
ATOM     11  C   UNL     1      42.519 134.742  17.149  1.00  0.00     0.076 C 
ATOM     12  C   UNL     1      44.865 131.696  16.618  1.00  0.00     0.042 A 
ATOM     13  C   UNL     1      43.888 132.621  18.670  1.00  0.00    -0.018 A 
ATOM     14  C   UNL     1      42.002 134.323  18.531  1.00  0.00     0.031 C 
ATOM     15  C   UNL     1      45.594 130.781  17.393  1.00  0.00     0.011 A 
ATOM     16  C   UNL     1      44.615 131.669  19.423  1.00  0.00     0.047 A 
ATOM     17  C   UNL     1      43.123 133.722  19.397  1.00  0.00     0.113 C 
ATOM     18  C   UNL     1      45.462 130.762  18.776  1.00  0.00     0.015 A 
ATOM     19  C   UNL     1      44.430 131.592  20.889  1.00  0.00     0.284 C 
ATOM     20  C   UNL     1      42.601 133.254  20.736  1.00  0.00     0.261 C 
ATOM     21  N   UNL     1      43.370 132.326  21.508  1.00  0.00    -0.151 N 
ATOM     22  O   UNL     1      45.170 130.852  21.592  1.00  0.00    -0.266 OA
ATOM     23  O   UNL     1      41.551 133.751  21.227  1.00  0.00    -0.271 OA
BRANCH  11  24
ATOM     24  C   UNL     1      43.472 135.912  17.262  1.00  0.00     0.222 C 
ATOM     25  O   UNL     1      44.595 135.852  16.689  1.00  0.00    -0.292 OA
BRANCH  24  26
ATOM     26  N   UNL     1      43.091 137.098  17.969  1.00  0.00    -0.022 NA
BRANCH  26  27
ATOM     27  N   UNL     1      43.201 138.212  17.456  1.00  0.00     0.008 N 
ATOM     28  N   UNL     1      43.311 139.325  16.944  1.00  0.00    -0.003 NA
ENDBRANCH  26  27
ENDBRANCH  24  26
ENDBRANCH  11  24
BRANCH  12  29
ATOM     29  N   UNL     1      44.980 131.695  15.185  1.00  0.00    -0.060 NA
BRANCH  29  30
ATOM     30  N   UNL     1      46.064 131.622  14.606  1.00  0.00     0.005 N 
ATOM     31  N   UNL     1      47.147 131.546  14.027  1.00  0.00    -0.003 NA
ENDBRANCH  29  30
ENDBRANCH  12  29
BRANCH  21  32
ATOM     32  O   UNL     1      43.053 132.098  22.807  1.00  0.00    -0.278 OA
ATOM     33  H   UNL     1      42.066 132.000  22.815  1.00  0.00     0.247 HD
ENDBRANCH  21  32
ENDBRANCH   1   9
TORSDOF 12
ENDMDL
MODEL 8
REMARK VINA RESULT:      -6.6      3.137      5.441
REMARK SMILES C#CCO/C(O)=C\[C@@H]1c2c(N=[N+]=[N-])ccc3c2[C@@H](C[C@H]1C(=O)N=[N+]=[N-])C(=O)N(O)C3=O
REMARK SMILES IDX 7 1 5 2 4 3 3 4 2 5 1 6 6 7 8 9 9 10 20 11 10 12 17 13 19 14
REMARK SMILES IDX 14 15 16 16 18 17 15 18 30 19 26 20 28 21 31 22 27 23 21 24
REMARK SMILES IDX 22 25 23 26 24 27 25 28 11 29 12 30 13 31 29 32
REMARK H PARENT 6 8 29 33
ROOT
ATOM      1  C   UNL     1      44.394 131.347  17.551  1.00  0.00     0.070 C 
ENDROOT
BRANCH   1   2
ATOM      2  C   UNL     1      45.193 130.733  16.663  1.00  0.00     0.274 C 
BRANCH   2   3
ATOM      3  O   UNL     1      44.667 130.143  15.512  1.00  0.00    -0.453 OA
BRANCH   3   4
ATOM      4  C   UNL     1      44.587 130.832  14.271  1.00  0.00     0.322 C 
BRANCH   4   5
ATOM      5  C   UNL     1      45.808 130.589  13.505  1.00  0.00    -0.065 C 
ATOM      6  C   UNL     1      46.816 130.392  12.874  1.00  0.00     0.007 C 
ENDBRANCH   4   5
ENDBRANCH   3   4
ENDBRANCH   2   3
BRANCH   2   7
ATOM      7  O   UNL     1      46.569 130.673  16.896  1.00  0.00    -0.481 OA
ATOM      8  H   UNL     1      47.246 130.735  16.144  1.00  0.00     0.296 HD
ENDBRANCH   2   7
ENDBRANCH   1   2
BRANCH   1   9
ATOM      9  C   UNL     1      44.094 132.837  17.593  1.00  0.00     0.060 C 
ATOM     10  C   UNL     1      43.230 133.224  18.793  1.00  0.00    -0.026 A 
ATOM     11  C   UNL     1      43.553 133.333  16.226  1.00  0.00     0.076 C 
ATOM     12  C   UNL     1      43.771 133.103  20.094  1.00  0.00     0.042 A 
ATOM     13  C   UNL     1      41.871 133.619  18.629  1.00  0.00    -0.018 A 
ATOM     14  C   UNL     1      42.030 133.175  16.129  1.00  0.00     0.031 C 
ATOM     15  C   UNL     1      42.964 133.369  21.211  1.00  0.00     0.011 A 
ATOM     16  C   UNL     1      41.075 133.854  19.775  1.00  0.00     0.047 A 
ATOM     17  C   UNL     1      41.308 133.944  17.249  1.00  0.00     0.113 C 
ATOM     18  C   UNL     1      41.631 133.729  21.053  1.00  0.00     0.015 A 
ATOM     19  C   UNL     1      39.637 134.168  19.622  1.00  0.00     0.284 C 
ATOM     20  C   UNL     1      39.812 133.740  17.190  1.00  0.00     0.261 C 
ATOM     21  N   UNL     1      39.013 134.025  18.343  1.00  0.00    -0.151 N 
ATOM     22  O   UNL     1      38.947 134.520  20.617  1.00  0.00    -0.266 OA
ATOM     23  O   UNL     1      39.248 133.422  16.106  1.00  0.00    -0.271 OA
BRANCH  11  24
ATOM     24  C   UNL     1      43.967 134.758  15.928  1.00  0.00     0.222 C 
ATOM     25  O   UNL     1      43.851 135.201  14.752  1.00  0.00    -0.292 OA
BRANCH  24  26
ATOM     26  N   UNL     1      44.440 135.615  16.974  1.00  0.00    -0.022 NA
BRANCH  26  27
ATOM     27  N   UNL     1      43.806 136.612  17.320  1.00  0.00     0.008 N 
ATOM     28  N   UNL     1      43.172 137.607  17.666  1.00  0.00    -0.003 NA
ENDBRANCH  26  27
ENDBRANCH  24  26
ENDBRANCH  11  24
BRANCH  12  29
ATOM     29  N   UNL     1      45.141 132.702  20.260  1.00  0.00    -0.060 NA
BRANCH  29  30
ATOM     30  N   UNL     1      45.904 133.256  21.052  1.00  0.00     0.005 N 
ATOM     31  N   UNL     1      46.664 133.811  21.845  1.00  0.00    -0.003 NA
ENDBRANCH  29  30
ENDBRANCH  12  29
BRANCH  21  32
ATOM     32  O   UNL     1      37.664 134.099  18.232  1.00  0.00    -0.278 OA
ATOM     33  H   UNL     1      37.317 133.540  18.974  1.00  0.00     0.247 HD
ENDBRANCH  21  32
ENDBRANCH   1   9
TORSDOF 12
ENDMDL
MODEL 9
REMARK VINA RESULT:      -6.6      2.394      3.632
REMARK SMILES C#CCO/C(O)=C\[C@@H]1c2c(N=[N+]=[N-])ccc3c2[C@@H](C[C@H]1C(=O)N=[N+]=[N-])C(=O)N(O)C3=O
REMARK SMILES IDX 7 1 5 2 4 3 3 4 2 5 1 6 6 7 8 9 9 10 20 11 10 12 17 13 19 14
REMARK SMILES IDX 14 15 16 16 18 17 15 18 30 19 26 20 28 21 31 22 27 23 21 24
REMARK SMILES IDX 22 25 23 26 24 27 25 28 11 29 12 30 13 31 29 32
REMARK H PARENT 6 8 29 33
ROOT
ATOM      1  C   UNL     1      44.729 133.397  16.045  1.00  0.00     0.070 C 
ENDROOT
BRANCH   1   2
ATOM      2  C   UNL     1      45.161 132.236  15.527  1.00  0.00     0.274 C 
BRANCH   2   3
ATOM      3  O   UNL     1      44.658 131.760  14.315  1.00  0.00    -0.453 OA
BRANCH   3   4
ATOM      4  C   UNL     1      44.958 130.461  13.822  1.00  0.00     0.322 C 
BRANCH   4   5
ATOM      5  C   UNL     1      46.162 130.526  12.995  1.00  0.00    -0.065 C 
ATOM      6  C   UNL     1      47.157 130.580  12.316  1.00  0.00     0.007 C 
ENDBRANCH   4   5
ENDBRANCH   3   4
ENDBRANCH   2   3
BRANCH   2   7
ATOM      7  O   UNL     1      46.121 131.486  16.212  1.00  0.00    -0.481 OA
ATOM      8  H   UNL     1      45.987 130.504  16.422  1.00  0.00     0.296 HD
ENDBRANCH   2   7
ENDBRANCH   1   2
BRANCH   1   9
ATOM      9  C   UNL     1      43.612 133.552  17.064  1.00  0.00     0.060 C 
ATOM     10  C   UNL     1      43.966 134.543  18.173  1.00  0.00    -0.026 A 
ATOM     11  C   UNL     1      43.129 132.168  17.573  1.00  0.00     0.076 C 
ATOM     12  C   UNL     1      44.115 135.911  17.846  1.00  0.00     0.042 A 
ATOM     13  C   UNL     1      44.233 134.104  19.502  1.00  0.00    -0.018 A 
ATOM     14  C   UNL     1      43.958 131.683  18.769  1.00  0.00     0.031 C 
ATOM     15  C   UNL     1      44.526 136.822  18.831  1.00  0.00     0.011 A 
ATOM     16  C   UNL     1      44.672 135.041  20.466  1.00  0.00     0.047 A 
ATOM     17  C   UNL     1      43.902 132.681  19.939  1.00  0.00     0.113 C 
ATOM     18  C   UNL     1      44.811 136.390  20.121  1.00  0.00     0.015 A 
ATOM     19  C   UNL     1      45.046 134.582  21.823  1.00  0.00     0.284 C 
ATOM     20  C   UNL     1      44.766 132.233  21.095  1.00  0.00     0.261 C 
ATOM     21  N   UNL     1      45.166 133.182  22.088  1.00  0.00    -0.151 N 
ATOM     22  O   UNL     1      45.301 135.415  22.735  1.00  0.00    -0.266 OA
ATOM     23  O   UNL     1      45.052 131.013  21.250  1.00  0.00    -0.271 OA
BRANCH  11  24
ATOM     24  C   UNL     1      41.651 132.162  17.903  1.00  0.00     0.222 C 
ATOM     25  O   UNL     1      41.081 131.066  18.162  1.00  0.00    -0.292 OA
BRANCH  24  26
ATOM     26  N   UNL     1      40.914 133.387  17.971  1.00  0.00    -0.022 NA
BRANCH  26  27
ATOM     27  N   UNL     1      40.459 133.917  16.956  1.00  0.00     0.008 N 
ATOM     28  N   UNL     1      40.005 134.446  15.943  1.00  0.00    -0.003 NA
ENDBRANCH  26  27
ENDBRANCH  24  26
ENDBRANCH  11  24
BRANCH  12  29
ATOM     29  N   UNL     1      43.850 136.355  16.504  1.00  0.00    -0.060 NA
BRANCH  29  30
ATOM     30  N   UNL     1      42.811 136.937  16.191  1.00  0.00     0.005 N 
ATOM     31  N   UNL     1      41.771 137.516  15.879  1.00  0.00    -0.003 NA
ENDBRANCH  29  30
ENDBRANCH  12  29
BRANCH  21  32
ATOM     32  O   UNL     1      45.713 132.756  23.253  1.00  0.00    -0.278 OA
ATOM     33  H   UNL     1      45.993 131.821  23.076  1.00  0.00     0.247 HD
ENDBRANCH  21  32
ENDBRANCH   1   9
TORSDOF 12
ENDMDL


