MODEL 1
REMARK VINA RESULT:      -7.0      0.000      0.000
REMARK SMILES C=CC[C@](C)(CC)Oc1cc2nc(Cn3n[nH+]c(C)c3-c3nnc([C@@H]4C[C@@H]4C)o3)[n-]c2cc1C#N
REMARK SMILES IDX 9 1 10 2 11 3 12 4 13 5 30 6 31 7 32 8 33 9 8 10 4 11 5 12
REMARK SMILES IDX 3 13 2 14 1 15 6 16 7 17 34 18 35 19 14 20 15 21 16 22 20 23
REMARK SMILES IDX 17 24 18 25 19 27 21 28 22 29 29 30 23 31 24 32 25 33 26 34
REMARK SMILES IDX 27 35 28 36
REMARK H PARENT 17 26
ROOT
ATOM      1  C   UNL     1      46.026 135.774  21.304  1.00  0.00     0.138 A 
ATOM      2  C   UNL     1      44.882 135.698  20.477  1.00  0.00     0.051 A 
ATOM      3  C   UNL     1      44.420 134.436  20.121  1.00  0.00    -0.035 A 
ATOM      4  N   UNL     1      43.327 134.140  19.409  1.00  0.00    -0.436 NA
ATOM      5  C   UNL     1      43.330 132.782  19.409  1.00  0.00    -0.037 A 
ATOM      6  N   UNL     1      44.363 132.222  20.095  1.00  0.00    -0.436 NA
ATOM      7  C   UNL     1      45.040 133.297  20.526  1.00  0.00    -0.037 A 
ATOM      8  C   UNL     1      46.194 133.322  21.304  1.00  0.00     0.027 A 
ATOM      9  C   UNL     1      46.700 134.582  21.687  1.00  0.00     0.094 A 
ENDROOT
BRANCH   1  10
ATOM     10  O   UNL     1      46.511 137.013  21.748  1.00  0.00    -0.486 OA
BRANCH  10  11
ATOM     11  C   UNL     1      47.280 137.945  20.963  1.00  0.00     0.109 C 
ATOM     12  C   UNL     1      48.251 137.102  20.114  1.00  0.00     0.057 C 
BRANCH  11  13
ATOM     13  C   UNL     1      48.153 138.866  21.871  1.00  0.00     0.075 C 
BRANCH  13  14
ATOM     14  C   UNL     1      49.604 138.983  21.467  1.00  0.00    -0.031 C 
ATOM     15  C   UNL     1      50.524 138.099  21.869  1.00  0.00     0.004 C 
ENDBRANCH  13  14
ENDBRANCH  11  13
BRANCH  11  16
ATOM     16  C   UNL     1      46.372 138.786  20.021  1.00  0.00     0.045 C 
ATOM     17  C   UNL     1      47.126 139.515  18.903  1.00  0.00     0.008 C 
ENDBRANCH  11  16
ENDBRANCH  10  11
ENDBRANCH   1  10
BRANCH   9  18
ATOM     18  C   UNL     1      47.882 134.646  22.508  1.00  0.00     0.103 C 
ATOM     19  N   UNL     1      48.830 134.695  23.168  1.00  0.00    -0.192 NA
ENDBRANCH   9  18
BRANCH   5  20
ATOM     20  C   UNL     1      42.209 131.977  18.830  1.00  0.00     0.297 C 
BRANCH  20  21
ATOM     21  N   UNL     1      41.631 132.686  17.690  1.00  0.00    -0.120 N 
ATOM     22  N   UNL     1      40.416 133.213  17.713  1.00  0.00     0.089 NA
ATOM     23  C   UNL     1      42.251 133.112  16.562  1.00  0.00     0.257 A 
ATOM     24  N   UNL     1      40.218 133.945  16.628  1.00  0.00    -0.147 N 
ATOM     25  C   UNL     1      41.342 133.908  15.889  1.00  0.00     0.175 A 
ATOM     26  H   UNL     1      39.346 134.482  16.424  1.00  0.00     0.342 HD
ATOM     27  C   UNL     1      41.564 134.692  14.637  1.00  0.00     0.100 C 
BRANCH  23  28
ATOM     28  C   UNL     1      43.654 132.864  16.180  1.00  0.00     0.294 A 
ATOM     29  N   UNL     1      44.580 133.822  15.994  1.00  0.00    -0.103 NA
ATOM     30  O   UNL     1      44.159 131.673  15.965  1.00  0.00    -0.417 OA
ATOM     31  N   UNL     1      45.696 133.203  15.645  1.00  0.00    -0.112 NA
ATOM     32  C   UNL     1      45.406 131.890  15.625  1.00  0.00     0.220 A 
BRANCH  32  33
ATOM     33  C   UNL     1      46.395 130.816  15.284  1.00  0.00     0.081 C 
ATOM     34  C   UNL     1      47.299 131.164  14.103  1.00  0.00     0.017 C 
ATOM     35  C   UNL     1      46.239 130.088  13.945  1.00  0.00    -0.001 C 
ATOM     36  C   UNL     1      45.049 130.461  13.055  1.00  0.00     0.008 C 
ENDBRANCH  32  33
ENDBRANCH  23  28
ENDBRANCH  20  21
ENDBRANCH   5  20
TORSDOF 10
ENDMDL
MODEL 2
REMARK VINA RESULT:      -7.0      3.216      7.862
REMARK SMILES C=CC[C@](C)(CC)Oc1cc2nc(Cn3n[nH+]c(C)c3-c3nnc([C@@H]4C[C@@H]4C)o3)[n-]c2cc1C#N
REMARK SMILES IDX 9 1 10 2 11 3 12 4 13 5 30 6 31 7 32 8 33 9 8 10 4 11 5 12
REMARK SMILES IDX 3 13 2 14 1 15 6 16 7 17 34 18 35 19 14 20 15 21 16 22 20 23
REMARK SMILES IDX 17 24 18 25 19 27 21 28 22 29 29 30 23 31 24 32 25 33 26 34
REMARK SMILES IDX 27 35 28 36
REMARK H PARENT 17 26
ROOT
ATOM      1  C   UNL     1      43.659 132.905  16.608  1.00  0.00     0.138 A 
ATOM      2  C   UNL     1      44.247 133.660  17.649  1.00  0.00     0.051 A 
ATOM      3  C   UNL     1      43.850 134.984  17.796  1.00  0.00    -0.035 A 
ATOM      4  N   UNL     1      44.226 135.845  18.748  1.00  0.00    -0.436 NA
ATOM      5  C   UNL     1      43.507 136.957  18.443  1.00  0.00    -0.037 A 
ATOM      6  N   UNL     1      42.696 136.823  17.360  1.00  0.00    -0.436 NA
ATOM      7  C   UNL     1      42.943 135.564  16.968  1.00  0.00    -0.037 A 
ATOM      8  C   UNL     1      42.372 134.876  15.902  1.00  0.00     0.027 A 
ATOM      9  C   UNL     1      42.747 133.529  15.713  1.00  0.00     0.094 A 
ENDROOT
BRANCH   1  10
ATOM     10  O   UNL     1      43.971 131.548  16.440  1.00  0.00    -0.486 OA
BRANCH  10  11
ATOM     11  C   UNL     1      45.195 131.028  15.884  1.00  0.00     0.109 C 
ATOM     12  C   UNL     1      46.015 132.248  15.422  1.00  0.00     0.057 C 
BRANCH  11  13
ATOM     13  C   UNL     1      44.919 130.160  14.618  1.00  0.00     0.075 C 
BRANCH  13  14
ATOM     14  C   UNL     1      45.563 130.653  13.344  1.00  0.00    -0.031 C 
ATOM     15  C   UNL     1      46.760 130.212  12.939  1.00  0.00     0.004 C 
ENDBRANCH  13  14
ENDBRANCH  11  13
BRANCH  11  16
ATOM     16  C   UNL     1      46.011 130.233  16.942  1.00  0.00     0.045 C 
ATOM     17  C   UNL     1      45.696 130.607  18.395  1.00  0.00     0.008 C 
ENDBRANCH  11  16
ENDBRANCH  10  11
ENDBRANCH   1  10
BRANCH   9  18
ATOM     18  C   UNL     1      42.161 132.780  14.632  1.00  0.00     0.103 C 
ATOM     19  N   UNL     1      41.690 132.177  13.764  1.00  0.00    -0.192 NA
ENDBRANCH   9  18
BRANCH   5  20
ATOM     20  C   UNL     1      43.500 138.171  19.318  1.00  0.00     0.297 C 
BRANCH  20  21
ATOM     21  N   UNL     1      42.190 138.315  19.951  1.00  0.00    -0.120 N 
ATOM     22  N   UNL     1      41.228 139.073  19.445  1.00  0.00     0.089 NA
ATOM     23  C   UNL     1      41.661 137.587  20.965  1.00  0.00     0.257 A 
ATOM     24  N   UNL     1      40.100 138.880  20.112  1.00  0.00    -0.147 N 
ATOM     25  C   UNL     1      40.332 137.957  21.065  1.00  0.00     0.175 A 
ATOM     26  H   UNL     1      39.193 139.344  19.892  1.00  0.00     0.342 HD
ATOM     27  C   UNL     1      39.288 137.383  21.965  1.00  0.00     0.100 C 
BRANCH  23  28
ATOM     28  C   UNL     1      42.340 136.532  21.739  1.00  0.00     0.294 A 
ATOM     29  N   UNL     1      42.968 136.724  22.914  1.00  0.00    -0.103 NA
ATOM     30  O   UNL     1      42.419 135.278  21.362  1.00  0.00    -0.417 OA
ATOM     31  N   UNL     1      43.459 135.550  23.273  1.00  0.00    -0.112 NA
ATOM     32  C   UNL     1      43.117 134.686  22.300  1.00  0.00     0.220 A 
BRANCH  32  33
ATOM     33  C   UNL     1      43.469 133.229  22.309  1.00  0.00     0.081 C 
ATOM     34  C   UNL     1      44.598 132.873  23.274  1.00  0.00     0.017 C 
ATOM     35  C   UNL     1      44.845 132.814  21.777  1.00  0.00    -0.001 C 
ATOM     36  C   UNL     1      45.761 133.906  21.217  1.00  0.00     0.008 C 
ENDBRANCH  32  33
ENDBRANCH  23  28
ENDBRANCH  20  21
ENDBRANCH   5  20
TORSDOF 10
ENDMDL
MODEL 3
REMARK VINA RESULT:      -6.6      3.206      8.717
REMARK SMILES C=CC[C@](C)(CC)Oc1cc2nc(Cn3n[nH+]c(C)c3-c3nnc([C@@H]4C[C@@H]4C)o3)[n-]c2cc1C#N
REMARK SMILES IDX 9 1 10 2 11 3 12 4 13 5 30 6 31 7 32 8 33 9 8 10 4 11 5 12
REMARK SMILES IDX 3 13 2 14 1 15 6 16 7 17 34 18 35 19 14 20 15 21 16 22 20 23
REMARK SMILES IDX 17 24 18 25 19 27 21 28 22 29 29 30 23 31 24 32 25 33 26 34
REMARK SMILES IDX 27 35 28 36
REMARK H PARENT 17 26
ROOT
ATOM      1  C   UNL     1      44.491 131.842  16.236  1.00  0.00     0.138 A 
ATOM      2  C   UNL     1      45.066 131.673  17.517  1.00  0.00     0.051 A 
ATOM      3  C   UNL     1      44.227 131.744  18.622  1.00  0.00    -0.035 A 
ATOM      4  N   UNL     1      44.551 131.546  19.905  1.00  0.00    -0.436 NA
ATOM      5  C   UNL     1      43.357 131.685  20.538  1.00  0.00    -0.037 A 
ATOM      6  N   UNL     1      42.309 131.946  19.711  1.00  0.00    -0.436 NA
ATOM      7  C   UNL     1      42.895 131.985  18.505  1.00  0.00    -0.037 A 
ATOM      8  C   UNL     1      42.290 132.203  17.271  1.00  0.00     0.027 A 
ATOM      9  C   UNL     1      43.105 132.143  16.121  1.00  0.00     0.094 A 
ENDROOT
BRANCH   1  10
ATOM     10  O   UNL     1      45.270 131.725  15.077  1.00  0.00    -0.486 OA
BRANCH  10  11
ATOM     11  C   UNL     1      45.750 130.492  14.506  1.00  0.00     0.109 C 
ATOM     12  C   UNL     1      45.753 130.692  12.979  1.00  0.00     0.057 C 
BRANCH  11  13
ATOM     13  C   UNL     1      44.777 129.311  14.808  1.00  0.00     0.075 C 
BRANCH  13  14
ATOM     14  C   UNL     1      45.224 128.368  15.900  1.00  0.00    -0.031 C 
ATOM     15  C   UNL     1      44.807 127.098  15.953  1.00  0.00     0.004 C 
ENDBRANCH  13  14
ENDBRANCH  11  13
BRANCH  11  16
ATOM     16  C   UNL     1      47.194 130.164  14.984  1.00  0.00     0.045 C 
ATOM     17  C   UNL     1      48.103 129.587  13.894  1.00  0.00     0.008 C 
ENDBRANCH  11  16
ENDBRANCH  10  11
ENDBRANCH   1  10
BRANCH   9  18
ATOM     18  C   UNL     1      42.510 132.344  14.825  1.00  0.00     0.103 C 
ATOM     19  N   UNL     1      42.033 132.507  13.784  1.00  0.00    -0.192 NA
ENDBRANCH   9  18
BRANCH   5  20
ATOM     20  C   UNL     1      43.191 131.424  22.002  1.00  0.00     0.297 C 
BRANCH  20  21
ATOM     21  N   UNL     1      44.063 132.316  22.764  1.00  0.00    -0.120 N 
ATOM     22  N   UNL     1      45.144 131.890  23.402  1.00  0.00     0.089 NA
ATOM     23  C   UNL     1      44.074 133.671  22.779  1.00  0.00     0.257 A 
ATOM     24  N   UNL     1      45.841 132.922  23.852  1.00  0.00    -0.147 N 
ATOM     25  C   UNL     1      45.206 134.049  23.479  1.00  0.00     0.175 A 
ATOM     26  H   UNL     1      46.745 132.849  24.368  1.00  0.00     0.342 HD
ATOM     27  C   UNL     1      45.726 135.431  23.700  1.00  0.00     0.100 C 
BRANCH  23  28
ATOM     28  C   UNL     1      43.125 134.568  22.094  1.00  0.00     0.294 A 
ATOM     29  N   UNL     1      43.394 135.255  20.969  1.00  0.00    -0.103 NA
ATOM     30  O   UNL     1      41.906 134.808  22.512  1.00  0.00    -0.417 OA
ATOM     31  N   UNL     1      42.305 135.951  20.685  1.00  0.00    -0.112 NA
ATOM     32  C   UNL     1      41.415 135.665  21.652  1.00  0.00     0.220 A 
BRANCH  32  33
ATOM     33  C   UNL     1      40.031 136.238  21.715  1.00  0.00     0.081 C 
ATOM     34  C   UNL     1      39.893 137.595  21.027  1.00  0.00     0.017 C 
ATOM     35  C   UNL     1      39.811 137.509  22.540  1.00  0.00    -0.001 C 
ATOM     36  C   UNL     1      41.006 138.093  23.300  1.00  0.00     0.008 C 
ENDBRANCH  32  33
ENDBRANCH  23  28
ENDBRANCH  20  21
ENDBRANCH   5  20
TORSDOF 10
ENDMDL
MODEL 4
REMARK VINA RESULT:      -6.4      3.189      8.543
REMARK SMILES C=CC[C@](C)(CC)Oc1cc2nc(Cn3n[nH+]c(C)c3-c3nnc([C@@H]4C[C@@H]4C)o3)[n-]c2cc1C#N
REMARK SMILES IDX 9 1 10 2 11 3 12 4 13 5 30 6 31 7 32 8 33 9 8 10 4 11 5 12
REMARK SMILES IDX 3 13 2 14 1 15 6 16 7 17 34 18 35 19 14 20 15 21 16 22 20 23
REMARK SMILES IDX 17 24 18 25 19 27 21 28 22 29 29 30 23 31 24 32 25 33 26 34
REMARK SMILES IDX 27 35 28 36
REMARK H PARENT 17 26
ROOT
ATOM      1  C   UNL     1      44.112 132.095  17.229  1.00  0.00     0.138 A 
ATOM      2  C   UNL     1      44.527 131.478  18.432  1.00  0.00     0.051 A 
ATOM      3  C   UNL     1      44.744 132.291  19.538  1.00  0.00    -0.035 A 
ATOM      4  N   UNL     1      45.070 131.909  20.778  1.00  0.00    -0.436 NA
ATOM      5  C   UNL     1      45.104 133.087  21.453  1.00  0.00    -0.037 A 
ATOM      6  N   UNL     1      44.803 134.177  20.698  1.00  0.00    -0.436 NA
ATOM      7  C   UNL     1      44.588 133.640  19.487  1.00  0.00    -0.037 A 
ATOM      8  C   UNL     1      44.226 134.297  18.315  1.00  0.00     0.027 A 
ATOM      9  C   UNL     1      43.998 133.511  17.166  1.00  0.00     0.094 A 
ENDROOT
BRANCH   1  10
ATOM     10  O   UNL     1      43.820 131.328  16.092  1.00  0.00    -0.486 OA
BRANCH  10  11
ATOM     11  C   UNL     1      44.788 130.772  15.181  1.00  0.00     0.109 C 
ATOM     12  C   UNL     1      45.117 129.361  15.704  1.00  0.00     0.057 C 
BRANCH  11  13
ATOM     13  C   UNL     1      46.120 131.585  15.202  1.00  0.00     0.075 C 
BRANCH  13  14
ATOM     14  C   UNL     1      47.281 130.941  14.483  1.00  0.00    -0.031 C 
ATOM     15  C   UNL     1      47.584 131.242  13.215  1.00  0.00     0.004 C 
ENDBRANCH  13  14
ENDBRANCH  11  13
BRANCH  11  16
ATOM     16  C   UNL     1      44.220 130.665  13.737  1.00  0.00     0.045 C 
ATOM     17  C   UNL     1      42.871 131.364  13.536  1.00  0.00     0.008 C 
ENDBRANCH  11  16
ENDBRANCH  10  11
ENDBRANCH   1  10
BRANCH   9  18
ATOM     18  C   UNL     1      43.602 134.155  15.940  1.00  0.00     0.103 C 
ATOM     19  N   UNL     1      43.285 134.671  14.955  1.00  0.00    -0.192 NA
ENDBRANCH   9  18
BRANCH   5  20
ATOM     20  C   UNL     1      45.308 133.157  22.934  1.00  0.00     0.297 C 
BRANCH  20  21
ATOM     21  N   UNL     1      45.304 134.554  23.367  1.00  0.00    -0.120 N 
ATOM     22  N   UNL     1      46.393 135.309  23.364  1.00  0.00     0.089 NA
ATOM     23  C   UNL     1      44.239 135.354  23.615  1.00  0.00     0.257 A 
ATOM     24  N   UNL     1      46.073 136.567  23.626  1.00  0.00    -0.147 N 
ATOM     25  C   UNL     1      44.738 136.633  23.785  1.00  0.00     0.175 A 
ATOM     26  H   UNL     1      46.752 137.358  23.658  1.00  0.00     0.342 HD
ATOM     27  C   UNL     1      43.968 137.896  23.990  1.00  0.00     0.100 C 
BRANCH  23  28
ATOM     28  C   UNL     1      42.818 134.960  23.602  1.00  0.00     0.294 A 
ATOM     29  N   UNL     1      42.192 134.310  24.599  1.00  0.00    -0.103 NA
ATOM     30  O   UNL     1      42.000 135.191  22.603  1.00  0.00    -0.417 OA
ATOM     31  N   UNL     1      40.944 134.124  24.202  1.00  0.00    -0.112 NA
ATOM     32  C   UNL     1      40.858 134.665  22.973  1.00  0.00     0.220 A 
BRANCH  32  33
ATOM     33  C   UNL     1      39.605 134.683  22.149  1.00  0.00     0.081 C 
ATOM     34  C   UNL     1      39.604 135.744  21.051  1.00  0.00     0.017 C 
ATOM     35  C   UNL     1      38.690 135.906  22.252  1.00  0.00    -0.001 C 
ATOM     36  C   UNL     1      39.078 137.019  23.231  1.00  0.00     0.008 C 
ENDBRANCH  32  33
ENDBRANCH  23  28
ENDBRANCH  20  21
ENDBRANCH   5  20
TORSDOF 10
ENDMDL
MODEL 5
REMARK VINA RESULT:      -6.3      3.887      6.973
REMARK SMILES C=CC[C@](C)(CC)Oc1cc2nc(Cn3n[nH+]c(C)c3-c3nnc([C@@H]4C[C@@H]4C)o3)[n-]c2cc1C#N
REMARK SMILES IDX 9 1 10 2 11 3 12 4 13 5 30 6 31 7 32 8 33 9 8 10 4 11 5 12
REMARK SMILES IDX 3 13 2 14 1 15 6 16 7 17 34 18 35 19 14 20 15 21 16 22 20 23
REMARK SMILES IDX 17 24 18 25 19 27 21 28 22 29 29 30 23 31 24 32 25 33 26 34
REMARK SMILES IDX 27 35 28 36
REMARK H PARENT 17 26
ROOT
ATOM      1  C   UNL     1      44.616 132.587  17.977  1.00  0.00     0.138 A 
ATOM      2  C   UNL     1      43.820 133.469  17.210  1.00  0.00     0.051 A 
ATOM      3  C   UNL     1      43.091 134.441  17.886  1.00  0.00    -0.035 A 
ATOM      4  N   UNL     1      42.336 135.409  17.354  1.00  0.00    -0.436 NA
ATOM      5  C   UNL     1      41.908 136.088  18.450  1.00  0.00    -0.037 A 
ATOM      6  N   UNL     1      42.370 135.597  19.631  1.00  0.00    -0.436 NA
ATOM      7  C   UNL     1      43.109 134.549  19.240  1.00  0.00    -0.037 A 
ATOM      8  C   UNL     1      43.840 133.676  20.040  1.00  0.00     0.027 A 
ATOM      9  C   UNL     1      44.594 132.672  19.396  1.00  0.00     0.094 A 
ENDROOT
BRANCH   1  10
ATOM     10  O   UNL     1      45.420 131.621  17.356  1.00  0.00    -0.486 OA
BRANCH  10  11
ATOM     11  C   UNL     1      45.211 131.071  16.040  1.00  0.00     0.109 C 
ATOM     12  C   UNL     1      45.819 129.655  16.059  1.00  0.00     0.057 C 
BRANCH  11  13
ATOM     13  C   UNL     1      45.986 131.883  14.956  1.00  0.00     0.075 C 
BRANCH  13  14
ATOM     14  C   UNL     1      46.369 131.107  13.719  1.00  0.00    -0.031 C 
ATOM     15  C   UNL     1      47.645 130.866  13.401  1.00  0.00     0.004 C 
ENDBRANCH  13  14
ENDBRANCH  11  13
BRANCH  11  16
ATOM     16  C   UNL     1      43.698 130.976  15.694  1.00  0.00     0.045 C 
ATOM     17  C   UNL     1      43.293 131.730  14.423  1.00  0.00     0.008 C 
ENDBRANCH  11  16
ENDBRANCH  10  11
ENDBRANCH   1  10
BRANCH   9  18
ATOM     18  C   UNL     1      45.379 131.762  20.192  1.00  0.00     0.103 C 
ATOM     19  N   UNL     1      46.007 131.032  20.831  1.00  0.00    -0.192 NA
ENDBRANCH   9  18
BRANCH   5  20
ATOM     20  C   UNL     1      41.119 137.356  18.350  1.00  0.00     0.297 C 
BRANCH  20  21
ATOM     21  N   UNL     1      39.865 137.215  19.088  1.00  0.00    -0.120 N 
ATOM     22  N   UNL     1      39.460 138.099  19.988  1.00  0.00     0.089 NA
ATOM     23  C   UNL     1      38.845 136.354  18.856  1.00  0.00     0.257 A 
ATOM     24  N   UNL     1      38.220 137.825  20.366  1.00  0.00    -0.147 N 
ATOM     25  C   UNL     1      37.803 136.746  19.678  1.00  0.00     0.175 A 
ATOM     26  H   UNL     1      37.670 138.389  21.050  1.00  0.00     0.342 HD
ATOM     27  C   UNL     1      36.422 136.181  19.738  1.00  0.00     0.100 C 
BRANCH  23  28
ATOM     28  C   UNL     1      38.811 135.277  17.849  1.00  0.00     0.294 A 
ATOM     29  N   UNL     1      38.755 133.963  18.132  1.00  0.00    -0.103 NA
ATOM     30  O   UNL     1      38.844 135.479  16.554  1.00  0.00    -0.417 OA
ATOM     31  N   UNL     1      38.761 133.328  16.972  1.00  0.00    -0.112 NA
ATOM     32  C   UNL     1      38.826 134.281  16.024  1.00  0.00     0.220 A 
BRANCH  32  33
ATOM     33  C   UNL     1      38.848 134.000  14.551  1.00  0.00     0.081 C 
ATOM     34  C   UNL     1      38.938 135.255  13.685  1.00  0.00     0.017 C 
ATOM     35  C   UNL     1      37.650 134.453  13.711  1.00  0.00    -0.001 C 
ATOM     36  C   UNL     1      36.473 135.118  14.431  1.00  0.00     0.008 C 
ENDBRANCH  32  33
ENDBRANCH  23  28
ENDBRANCH  20  21
ENDBRANCH   5  20
TORSDOF 10
ENDMDL
MODEL 6
REMARK VINA RESULT:      -6.2      3.218      7.157
REMARK SMILES C=CC[C@](C)(CC)Oc1cc2nc(Cn3n[nH+]c(C)c3-c3nnc([C@@H]4C[C@@H]4C)o3)[n-]c2cc1C#N
REMARK SMILES IDX 9 1 10 2 11 3 12 4 13 5 30 6 31 7 32 8 33 9 8 10 4 11 5 12
REMARK SMILES IDX 3 13 2 14 1 15 6 16 7 17 34 18 35 19 14 20 15 21 16 22 20 23
REMARK SMILES IDX 17 24 18 25 19 27 21 28 22 29 29 30 23 31 24 32 25 33 26 34
REMARK SMILES IDX 27 35 28 36
REMARK H PARENT 17 26
ROOT
ATOM      1  C   UNL     1      43.505 132.153  18.313  1.00  0.00     0.138 A 
ATOM      2  C   UNL     1      42.257 132.793  18.135  1.00  0.00     0.051 A 
ATOM      3  C   UNL     1      41.616 133.292  19.263  1.00  0.00    -0.035 A 
ATOM      4  N   UNL     1      40.472 133.985  19.309  1.00  0.00    -0.436 NA
ATOM      5  C   UNL     1      40.344 134.259  20.633  1.00  0.00    -0.037 A 
ATOM      6  N   UNL     1      41.356 133.783  21.407  1.00  0.00    -0.436 NA
ATOM      7  C   UNL     1      42.141 133.168  20.509  1.00  0.00    -0.037 A 
ATOM      8  C   UNL     1      43.344 132.508  20.740  1.00  0.00     0.027 A 
ATOM      9  C   UNL     1      44.029 131.982  19.624  1.00  0.00     0.094 A 
ENDROOT
BRANCH   1  10
ATOM     10  O   UNL     1      44.232 131.678  17.213  1.00  0.00    -0.486 OA
BRANCH  10  11
ATOM     11  C   UNL     1      44.558 132.433  16.029  1.00  0.00     0.109 C 
ATOM     12  C   UNL     1      43.431 132.159  15.015  1.00  0.00     0.057 C 
BRANCH  11  13
ATOM     13  C   UNL     1      45.885 131.928  15.381  1.00  0.00     0.075 C 
BRANCH  13  14
ATOM     14  C   UNL     1      45.715 131.015  14.191  1.00  0.00    -0.031 C 
ATOM     15  C   UNL     1      46.713 130.778  13.333  1.00  0.00     0.004 C 
ENDBRANCH  13  14
ENDBRANCH  11  13
BRANCH  11  16
ATOM     16  C   UNL     1      44.624 133.959  16.324  1.00  0.00     0.045 C 
ATOM     17  C   UNL     1      43.541 134.785  15.621  1.00  0.00     0.008 C 
ENDBRANCH  11  16
ENDBRANCH  10  11
ENDBRANCH   1  10
BRANCH   9  18
ATOM     18  C   UNL     1      45.287 131.310  19.823  1.00  0.00     0.103 C 
ATOM     19  N   UNL     1      46.296 130.768  19.983  1.00  0.00    -0.192 NA
ENDBRANCH   9  18
BRANCH   5  20
ATOM     20  C   UNL     1      39.258 135.138  21.168  1.00  0.00     0.297 C 
BRANCH  20  21
ATOM     21  N   UNL     1      39.800 136.015  22.205  1.00  0.00    -0.120 N 
ATOM     22  N   UNL     1      39.603 135.804  23.498  1.00  0.00     0.089 NA
ATOM     23  C   UNL     1      40.722 137.000  22.076  1.00  0.00     0.257 A 
ATOM     24  N   UNL     1      40.348 136.634  24.212  1.00  0.00    -0.147 N 
ATOM     25  C   UNL     1      41.062 137.392  23.358  1.00  0.00     0.175 A 
ATOM     26  H   UNL     1      40.388 136.650  25.254  1.00  0.00     0.342 HD
ATOM     27  C   UNL     1      42.103 138.382  23.767  1.00  0.00     0.100 C 
BRANCH  23  28
ATOM     28  C   UNL     1      41.326 137.484  20.821  1.00  0.00     0.294 A 
ATOM     29  N   UNL     1      40.817 138.465  20.053  1.00  0.00    -0.103 NA
ATOM     30  O   UNL     1      42.428 137.001  20.300  1.00  0.00    -0.417 OA
ATOM     31  N   UNL     1      41.630 138.590  19.016  1.00  0.00    -0.112 NA
ATOM     32  C   UNL     1      42.601 137.674  19.189  1.00  0.00     0.220 A 
BRANCH  32  33
ATOM     33  C   UNL     1      43.744 137.475  18.240  1.00  0.00     0.081 C 
ATOM     34  C   UNL     1      44.874 136.617  18.808  1.00  0.00     0.017 C 
ATOM     35  C   UNL     1      45.096 138.104  18.594  1.00  0.00    -0.001 C 
ATOM     36  C   UNL     1      45.188 138.947  19.870  1.00  0.00     0.008 C 
ENDBRANCH  32  33
ENDBRANCH  23  28
ENDBRANCH  20  21
ENDBRANCH   5  20
TORSDOF 10
ENDMDL
MODEL 7
REMARK VINA RESULT:      -6.1      2.779      4.925
REMARK SMILES C=CC[C@](C)(CC)Oc1cc2nc(Cn3n[nH+]c(C)c3-c3nnc([C@@H]4C[C@@H]4C)o3)[n-]c2cc1C#N
REMARK SMILES IDX 9 1 10 2 11 3 12 4 13 5 30 6 31 7 32 8 33 9 8 10 4 11 5 12
REMARK SMILES IDX 3 13 2 14 1 15 6 16 7 17 34 18 35 19 14 20 15 21 16 22 20 23
REMARK SMILES IDX 17 24 18 25 19 27 21 28 22 29 29 30 23 31 24 32 25 33 26 34
REMARK SMILES IDX 27 35 28 36
REMARK H PARENT 17 26
ROOT
ATOM      1  C   UNL     1      43.830 134.913  21.871  1.00  0.00     0.138 A 
ATOM      2  C   UNL     1      42.786 135.066  20.930  1.00  0.00     0.051 A 
ATOM      3  C   UNL     1      43.103 135.607  19.690  1.00  0.00    -0.035 A 
ATOM      4  N   UNL     1      42.288 135.773  18.642  1.00  0.00    -0.436 NA
ATOM      5  C   UNL     1      43.119 136.285  17.697  1.00  0.00    -0.037 A 
ATOM      6  N   UNL     1      44.409 136.433  18.103  1.00  0.00    -0.436 NA
ATOM      7  C   UNL     1      44.363 136.003  19.373  1.00  0.00    -0.037 A 
ATOM      8  C   UNL     1      45.414 135.914  20.281  1.00  0.00     0.027 A 
ATOM      9  C   UNL     1      45.138 135.373  21.554  1.00  0.00     0.094 A 
ENDROOT
BRANCH   1  10
ATOM     10  O   UNL     1      43.591 134.321  23.120  1.00  0.00    -0.486 OA
BRANCH  10  11
ATOM     11  C   UNL     1      43.445 132.908  23.367  1.00  0.00     0.109 C 
ATOM     12  C   UNL     1      44.428 132.561  24.501  1.00  0.00     0.057 C 
BRANCH  11  13
ATOM     13  C   UNL     1      43.872 132.068  22.123  1.00  0.00     0.075 C 
BRANCH  13  14
ATOM     14  C   UNL     1      42.744 131.390  21.383  1.00  0.00    -0.031 C 
ATOM     15  C   UNL     1      42.484 131.650  20.097  1.00  0.00     0.004 C 
ENDBRANCH  13  14
ENDBRANCH  11  13
BRANCH  11  16
ATOM     16  C   UNL     1      41.999 132.552  23.814  1.00  0.00     0.045 C 
ATOM     17  C   UNL     1      41.882 131.228  24.576  1.00  0.00     0.008 C 
ENDBRANCH  11  16
ENDBRANCH  10  11
ENDBRANCH   1  10
BRANCH   9  18
ATOM     18  C   UNL     1      46.206 135.248  22.513  1.00  0.00     0.103 C 
ATOM     19  N   UNL     1      47.062 135.149  23.284  1.00  0.00    -0.192 NA
ENDBRANCH   9  18
BRANCH   5  20
ATOM     20  C   UNL     1      42.680 136.524  16.287  1.00  0.00     0.297 C 
BRANCH  20  21
ATOM     21  N   UNL     1      41.297 136.079  16.119  1.00  0.00    -0.120 N 
ATOM     22  N   UNL     1      40.268 136.913  16.133  1.00  0.00     0.089 NA
ATOM     23  C   UNL     1      40.847 134.864  15.719  1.00  0.00     0.257 A 
ATOM     24  N   UNL     1      39.162 136.275  15.780  1.00  0.00    -0.147 N 
ATOM     25  C   UNL     1      39.486 134.996  15.511  1.00  0.00     0.175 A 
ATOM     26  H   UNL     1      38.222 136.719  15.693  1.00  0.00     0.342 HD
ATOM     27  C   UNL     1      38.539 133.973  14.977  1.00  0.00     0.100 C 
BRANCH  23  28
ATOM     28  C   UNL     1      41.664 133.665  15.455  1.00  0.00     0.294 A 
ATOM     29  N   UNL     1      41.679 132.987  14.292  1.00  0.00    -0.103 NA
ATOM     30  O   UNL     1      42.466 133.112  16.332  1.00  0.00    -0.417 OA
ATOM     31  N   UNL     1      42.514 131.975  14.458  1.00  0.00    -0.112 NA
ATOM     32  C   UNL     1      42.973 132.071  15.720  1.00  0.00     0.220 A 
BRANCH  32  33
ATOM     33  C   UNL     1      43.959 131.120  16.329  1.00  0.00     0.081 C 
ATOM     34  C   UNL     1      44.784 131.727  17.462  1.00  0.00     0.017 C 
ATOM     35  C   UNL     1      45.452 131.404  16.137  1.00  0.00    -0.001 C 
ATOM     36  C   UNL     1      45.854 132.614  15.289  1.00  0.00     0.008 C 
ENDBRANCH  32  33
ENDBRANCH  23  28
ENDBRANCH  20  21
ENDBRANCH   5  20
TORSDOF 10
ENDMDL
MODEL 8
REMARK VINA RESULT:      -6.1      2.226      4.264
REMARK SMILES C=CC[C@](C)(CC)Oc1cc2nc(Cn3n[nH+]c(C)c3-c3nnc([C@@H]4C[C@@H]4C)o3)[n-]c2cc1C#N
REMARK SMILES IDX 9 1 10 2 11 3 12 4 13 5 30 6 31 7 32 8 33 9 8 10 4 11 5 12
REMARK SMILES IDX 3 13 2 14 1 15 6 16 7 17 34 18 35 19 14 20 15 21 16 22 20 23
REMARK SMILES IDX 17 24 18 25 19 27 21 28 22 29 29 30 23 31 24 32 25 33 26 34
REMARK SMILES IDX 27 35 28 36
REMARK H PARENT 17 26
ROOT
ATOM      1  C   UNL     1      45.910 134.431  22.835  1.00  0.00     0.138 A 
ATOM      2  C   UNL     1      46.134 133.349  21.952  1.00  0.00     0.051 A 
ATOM      3  C   UNL     1      45.098 132.977  21.103  1.00  0.00    -0.035 A 
ATOM      4  N   UNL     1      45.122 132.035  20.153  1.00  0.00    -0.436 NA
ATOM      5  C   UNL     1      43.882 132.131  19.609  1.00  0.00    -0.037 A 
ATOM      6  N   UNL     1      43.095 133.091  20.165  1.00  0.00    -0.436 NA
ATOM      7  C   UNL     1      43.893 133.604  21.114  1.00  0.00    -0.037 A 
ATOM      8  C   UNL     1      43.610 134.643  21.995  1.00  0.00     0.027 A 
ATOM      9  C   UNL     1      44.632 135.052  22.877  1.00  0.00     0.094 A 
ENDROOT
BRANCH   1  10
ATOM     10  O   UNL     1      46.931 134.895  23.676  1.00  0.00    -0.486 OA
BRANCH  10  11
ATOM     11  C   UNL     1      48.095 135.635  23.258  1.00  0.00     0.109 C 
ATOM     12  C   UNL     1      48.161 136.885  24.157  1.00  0.00     0.057 C 
BRANCH  11  13
ATOM     13  C   UNL     1      47.948 136.141  21.789  1.00  0.00     0.075 C 
BRANCH  13  14
ATOM     14  C   UNL     1      49.242 136.289  21.025  1.00  0.00    -0.031 C 
ATOM     15  C   UNL     1      49.345 137.088  19.956  1.00  0.00     0.004 C 
ENDBRANCH  13  14
ENDBRANCH  11  13
BRANCH  11  16
ATOM     16  C   UNL     1      49.397 134.804  23.437  1.00  0.00     0.045 C 
ATOM     17  C   UNL     1      50.265 135.237  24.623  1.00  0.00     0.008 C 
ENDBRANCH  11  16
ENDBRANCH  10  11
ENDBRANCH   1  10
BRANCH   9  18
ATOM     18  C   UNL     1      44.381 136.138  23.790  1.00  0.00     0.103 C 
ATOM     19  N   UNL     1      44.178 137.009  24.523  1.00  0.00    -0.192 NA
ENDBRANCH   9  18
BRANCH   5  20
ATOM     20  C   UNL     1      43.473 131.345  18.402  1.00  0.00     0.297 C 
BRANCH  20  21
ATOM     21  N   UNL     1      44.608 131.218  17.489  1.00  0.00    -0.120 N 
ATOM     22  N   UNL     1      45.338 130.116  17.401  1.00  0.00     0.089 NA
ATOM     23  C   UNL     1      44.967 132.042  16.475  1.00  0.00     0.257 A 
ATOM     24  N   UNL     1      46.175 130.207  16.379  1.00  0.00    -0.147 N 
ATOM     25  C   UNL     1      45.970 131.393  15.776  1.00  0.00     0.175 A 
ATOM     26  H   UNL     1      46.840 129.458  16.087  1.00  0.00     0.342 HD
ATOM     27  C   UNL     1      46.642 131.836  14.518  1.00  0.00     0.100 C 
BRANCH  23  28
ATOM     28  C   UNL     1      44.341 133.329  16.120  1.00  0.00     0.294 A 
ATOM     29  N   UNL     1      45.007 134.411  15.677  1.00  0.00    -0.103 NA
ATOM     30  O   UNL     1      43.055 133.571  16.208  1.00  0.00    -0.417 OA
ATOM     31  N   UNL     1      44.103 135.358  15.491  1.00  0.00    -0.112 NA
ATOM     32  C   UNL     1      42.918 134.819  15.833  1.00  0.00     0.220 A 
BRANCH  32  33
ATOM     33  C   UNL     1      41.612 135.551  15.766  1.00  0.00     0.081 C 
ATOM     34  C   UNL     1      40.391 134.651  15.947  1.00  0.00     0.017 C 
ATOM     35  C   UNL     1      40.679 135.259  14.586  1.00  0.00    -0.001 C 
ATOM     36  C   UNL     1      41.158 134.277  13.513  1.00  0.00     0.008 C 
ENDBRANCH  32  33
ENDBRANCH  23  28
ENDBRANCH  20  21
ENDBRANCH   5  20
TORSDOF 10
ENDMDL
MODEL 9
REMARK VINA RESULT:      -6.1      2.095      8.271
REMARK SMILES C=CC[C@](C)(CC)Oc1cc2nc(Cn3n[nH+]c(C)c3-c3nnc([C@@H]4C[C@@H]4C)o3)[n-]c2cc1C#N
REMARK SMILES IDX 9 1 10 2 11 3 12 4 13 5 30 6 31 7 32 8 33 9 8 10 4 11 5 12
REMARK SMILES IDX 3 13 2 14 1 15 6 16 7 17 34 18 35 19 14 20 15 21 16 22 20 23
REMARK SMILES IDX 17 24 18 25 19 27 21 28 22 29 29 30 23 31 24 32 25 33 26 34
REMARK SMILES IDX 27 35 28 36
REMARK H PARENT 17 26
ROOT
ATOM      1  C   UNL     1      44.255 131.263  17.358  1.00  0.00     0.138 A 
ATOM      2  C   UNL     1      45.129 131.023  18.443  1.00  0.00     0.051 A 
ATOM      3  C   UNL     1      44.950 131.770  19.601  1.00  0.00    -0.035 A 
ATOM      4  N   UNL     1      45.615 131.654  20.756  1.00  0.00    -0.436 NA
ATOM      5  C   UNL     1      45.006 132.577  21.544  1.00  0.00    -0.037 A 
ATOM      6  N   UNL     1      43.989 133.249  20.940  1.00  0.00    -0.436 NA
ATOM      7  C   UNL     1      43.984 132.720  19.707  1.00  0.00    -0.037 A 
ATOM      8  C   UNL     1      43.130 133.024  18.652  1.00  0.00     0.027 A 
ATOM      9  C   UNL     1      43.279 132.292  17.455  1.00  0.00     0.094 A 
ENDROOT
BRANCH   1  10
ATOM     10  O   UNL     1      44.344 130.506  16.182  1.00  0.00    -0.486 OA
BRANCH  10  11
ATOM     11  C   UNL     1      45.363 130.638  15.170  1.00  0.00     0.109 C 
ATOM     12  C   UNL     1      44.640 130.557  13.812  1.00  0.00     0.057 C 
BRANCH  11  13
ATOM     13  C   UNL     1      46.370 129.448  15.221  1.00  0.00     0.075 C 
BRANCH  13  14
ATOM     14  C   UNL     1      46.993 129.072  13.897  1.00  0.00    -0.031 C 
ATOM     15  C   UNL     1      48.299 129.233  13.658  1.00  0.00     0.004 C 
ENDBRANCH  13  14
ENDBRANCH  11  13
BRANCH  11  16
ATOM     16  C   UNL     1      46.102 132.002  15.278  1.00  0.00     0.045 C 
ATOM     17  C   UNL     1      47.153 132.238  14.187  1.00  0.00     0.008 C 
ENDBRANCH  11  16
ENDBRANCH  10  11
ENDBRANCH   1  10
BRANCH   9  18
ATOM     18  C   UNL     1      42.399 132.567  16.348  1.00  0.00     0.103 C 
ATOM     19  N   UNL     1      41.693 132.787  15.459  1.00  0.00    -0.192 NA
ENDBRANCH   9  18
BRANCH   5  20
ATOM     20  C   UNL     1      45.330 132.732  22.996  1.00  0.00     0.297 C 
BRANCH  20  21
ATOM     21  N   UNL     1      44.872 134.038  23.468  1.00  0.00    -0.120 N 
ATOM     22  N   UNL     1      43.748 134.201  24.150  1.00  0.00     0.089 NA
ATOM     23  C   UNL     1      45.557 135.207  23.502  1.00  0.00     0.257 A 
ATOM     24  N   UNL     1      43.669 135.442  24.604  1.00  0.00    -0.147 N 
ATOM     25  C   UNL     1      44.781 136.097  24.222  1.00  0.00     0.175 A 
ATOM     26  H   UNL     1      42.888 135.812  25.190  1.00  0.00     0.342 HD
ATOM     27  C   UNL     1      45.125 137.494  24.625  1.00  0.00     0.100 C 
BRANCH  23  28
ATOM     28  C   UNL     1      46.910 135.453  22.969  1.00  0.00     0.294 A 
ATOM     29  N   UNL     1      48.054 135.174  23.621  1.00  0.00    -0.103 NA
ATOM     30  O   UNL     1      47.153 135.984  21.796  1.00  0.00    -0.417 OA
ATOM     31  N   UNL     1      49.041 135.553  22.826  1.00  0.00    -0.112 NA
ATOM     32  C   UNL     1      48.460 136.055  21.720  1.00  0.00     0.220 A 
BRANCH  32  33
ATOM     33  C   UNL     1      49.218 136.598  20.546  1.00  0.00     0.081 C 
ATOM     34  C   UNL     1      49.960 137.900  20.840  1.00  0.00     0.017 C 
ATOM     35  C   UNL     1      48.746 137.918  19.929  1.00  0.00    -0.001 C 
ATOM     36  C   UNL     1      47.494 138.581  20.511  1.00  0.00     0.008 C 
ENDBRANCH  32  33
ENDBRANCH  23  28
ENDBRANCH  20  21
ENDBRANCH   5  20
TORSDOF 10
ENDMDL


