REMARK SMILES C[C@@H](C#N)N(C)CCCCc1cn(-c2cc(N)c3c4c(cccc24)C(=O)[N-]3)nn1
REMARK SMILES IDX 8 1 7 2 5 3 6 4 2 5 1 6 3 7 4 8 9 9 10 10 11 11 12 12 29 13
REMARK SMILES IDX 13 14 28 15 14 16 15 17 24 18 16 19 23 20 19 21 18 22 22 23
REMARK SMILES IDX 20 24 27 25 21 26 25 27 26 28 17 29
REMARK H PARENT 17 30 17 31
ROOT
ATOM      1  C   UNL     1      -0.559   4.465   2.520  1.00  0.00     0.016 C 
ENDROOT
BRANCH   1   2
ATOM      2  C   UNL     1      -0.578   3.383   3.615  1.00  0.00     0.085 C 
BRANCH   2   3
ATOM      3  N   UNL     1       0.604   2.490   3.518  1.00  0.00    -0.291 NA
ATOM      4  C   UNL     1       1.793   3.092   4.150  1.00  0.00     0.106 C 
BRANCH   3   5
ATOM      5  C   UNL     1       0.362   1.108   4.008  1.00  0.00     0.157 C 
ATOM      6  C   UNL     1      -0.236   1.043   5.425  1.00  0.00     0.041 C 
BRANCH   5   7
ATOM      7  C   UNL     1      -0.498   0.381   3.060  1.00  0.00     0.081 C 
ATOM      8  N   UNL     1      -1.174  -0.193   2.316  1.00  0.00    -0.197 NA
ENDBRANCH   5   7
ENDBRANCH   3   5
ENDBRANCH   2   3
ENDBRANCH   1   2
BRANCH   1   9
ATOM      9  C   UNL     1      -0.434   3.899   1.095  1.00  0.00     0.008 C 
BRANCH   9  10
ATOM     10  C   UNL     1      -1.717   3.200   0.625  1.00  0.00     0.060 C 
BRANCH  10  11
ATOM     11  C   UNL     1      -1.530   2.630  -0.745  1.00  0.00     0.083 A 
ATOM     12  C   UNL     1      -0.856   1.472  -1.064  1.00  0.00     0.140 A 
ATOM     13  N   UNL     1      -1.921   3.227  -1.888  1.00  0.00    -0.135 NA
ATOM     14  N   UNL     1      -0.886   1.383  -2.406  1.00  0.00    -0.220 N 
ATOM     15  N   UNL     1      -1.512   2.449  -2.881  1.00  0.00    -0.062 NA
BRANCH  14  16
ATOM     16  C   UNL     1      -0.235   0.398  -3.223  1.00  0.00     0.076 A 
ATOM     17  C   UNL     1       0.525   0.827  -4.348  1.00  0.00     0.053 A 
ATOM     18  C   UNL     1      -0.315  -0.992  -2.934  1.00  0.00     0.007 A 
ATOM     19  C   UNL     1       1.230  -0.097  -5.159  1.00  0.00     0.019 A 
ATOM     20  C   UNL     1      -1.096  -1.597  -1.921  1.00  0.00     0.011 A 
ATOM     21  C   UNL     1       0.407  -1.847  -3.753  1.00  0.00    -0.020 A 
ATOM     22  C   UNL     1       1.156  -1.451  -4.822  1.00  0.00    -0.102 A 
ATOM     23  C   UNL     1      -1.089  -3.008  -1.766  1.00  0.00     0.001 A 
ATOM     24  C   UNL     1       0.421  -3.198  -3.622  1.00  0.00     0.006 A 
ATOM     25  N   UNL     1       1.750  -2.568  -5.494  1.00  0.00    -0.620 NA
ATOM     26  C   UNL     1      -0.321  -3.827  -2.625  1.00  0.00     0.011 A 
ATOM     27  C   UNL     1       1.269  -3.672  -4.710  1.00  0.00     0.086 C 
ATOM     28  O   UNL     1       1.546  -4.876  -4.951  1.00  0.00    -0.315 OA
BRANCH  19  29
ATOM     29  N   UNL     1       1.993   0.346  -6.284  1.00  0.00    -0.400 N 
ATOM     30  H   UNL     1       2.513  -0.335  -6.881  1.00  0.00     0.156 HD
ATOM     31  H   UNL     1       2.042   1.360  -6.527  1.00  0.00     0.156 HD
ENDBRANCH  19  29
ENDBRANCH  14  16
ENDBRANCH  10  11
ENDBRANCH   9  10
ENDBRANCH   1   9
TORSDOF 9


