MODEL 1
REMARK VINA RESULT:      -4.3      0.000      0.000
REMARK SMILES [N-]=[N+]=Nc1cc(Cl)cc2c(CNO)c(OCCc3cn(C[C@H](N=[N+]=[N-])C(=O)[O-])n[nH+]3)ccc12
REMARK SMILES IDX 16 1 15 2 14 3 10 4 9 5 31 6 8 7 33 8 32 9 6 10 4 11 5 12
REMARK SMILES IDX 7 13 11 14 12 15 13 17 3 19 2 20 1 21 17 22 18 23 19 24
REMARK SMILES IDX 30 25 20 26 29 27 21 29 22 30 23 31 24 32 25 33 26 34 27 35
REMARK SMILES IDX 28 36
REMARK H PARENT 12 16 13 18 30 28
ROOT
ATOM      1  C   UNL     1      44.595 132.160  15.192  1.00  0.00     0.238 C 
ENDROOT
BRANCH   1   2
ATOM      2  O   UNL     1      44.122 133.462  15.532  1.00  0.00    -0.493 OA
BRANCH   2   3
ATOM      3  C   UNL     1      42.933 134.040  15.056  1.00  0.00     0.124 A 
ATOM      4  C   UNL     1      42.597 135.349  15.469  1.00  0.00     0.018 A 
ATOM      5  C   UNL     1      41.432 135.978  14.932  1.00  0.00    -0.008 A 
ATOM      6  C   UNL     1      42.083 133.342  14.190  1.00  0.00     0.047 A 
ATOM      7  C   UNL     1      41.062 137.295  15.286  1.00  0.00     0.029 A 
ATOM      8  C   UNL     1      40.605 135.264  14.012  1.00  0.00    -0.008 A 
ATOM      9  C   UNL     1      40.929 133.935  13.694  1.00  0.00     0.013 A 
ATOM     10  C   UNL     1      39.896 137.873  14.787  1.00  0.00     0.042 A 
ATOM     11  C   UNL     1      39.452 135.892  13.466  1.00  0.00     0.047 A 
ATOM     12  C   UNL     1      39.093 137.172  13.894  1.00  0.00     0.031 A 
ATOM     13  Cl  UNL     1      39.449 139.501  15.266  1.00  0.00    -0.084 Cl
BRANCH   4  14
ATOM     14  C   UNL     1      43.537 136.043  16.444  1.00  0.00     0.151 C 
BRANCH  14  15
ATOM     15  N   UNL     1      43.249 135.626  17.816  1.00  0.00    -0.201 NA
ATOM     16  H   UNL     1      43.228 136.487  18.411  1.00  0.00     0.155 HD
BRANCH  15  17
ATOM     17  O   UNL     1      44.286 134.876  18.260  1.00  0.00    -0.316 OA
ATOM     18  H   UNL     1      44.197 134.014  17.779  1.00  0.00     0.238 HD
ENDBRANCH  15  17
ENDBRANCH  14  15
ENDBRANCH   4  14
BRANCH  11  19
ATOM     19  N   UNL     1      38.621 135.276  12.472  1.00  0.00    -0.060 NA
BRANCH  19  20
ATOM     20  N   UNL     1      38.381 135.821  11.394  1.00  0.00     0.005 N 
ATOM     21  N   UNL     1      38.140 136.365  10.317  1.00  0.00    -0.003 NA
ENDBRANCH  19  20
ENDBRANCH  11  19
ENDBRANCH   2   3
ENDBRANCH   1   2
BRANCH   1  22
ATOM     22  C   UNL     1      43.993 131.131  16.145  1.00  0.00     0.128 C 
BRANCH  22  23
ATOM     23  C   UNL     1      44.184 131.549  17.571  1.00  0.00     0.168 A 
ATOM     24  C   UNL     1      45.216 131.186  18.410  1.00  0.00     0.274 A 
ATOM     25  N   UNL     1      43.297 132.258  18.295  1.00  0.00    -0.148 N 
ATOM     26  N   UNL     1      44.917 131.703  19.617  1.00  0.00    -0.137 N 
ATOM     27  N   UNL     1      43.764 132.349  19.531  1.00  0.00     0.088 NA
ATOM     28  H   UNL     1      42.392 132.662  17.968  1.00  0.00     0.342 HD
BRANCH  26  29
ATOM     29  C   UNL     1      45.729 131.617  20.828  1.00  0.00     0.285 C 
BRANCH  29  30
ATOM     30  C   UNL     1      45.238 132.615  21.885  1.00  0.00     0.163 C 
BRANCH  30  31
ATOM     31  N   UNL     1      46.282 133.603  22.136  1.00  0.00    -0.080 NA
BRANCH  31  32
ATOM     32  N   UNL     1      46.107 134.794  21.874  1.00  0.00     0.002 N 
ATOM     33  N   UNL     1      45.932 135.984  21.614  1.00  0.00    -0.003 NA
ENDBRANCH  31  32
ENDBRANCH  30  31
BRANCH  30  34
ATOM     34  C   UNL     1      44.878 131.905  23.161  1.00  0.00     0.054 C 
ATOM     35  O   UNL     1      44.875 132.525  24.259  1.00  0.00    -0.550 OA
ATOM     36  O   UNL     1      44.576 130.549  23.139  1.00  0.00    -0.550 OA
ENDBRANCH  30  34
ENDBRANCH  29  30
ENDBRANCH  26  29
ENDBRANCH  22  23
ENDBRANCH   1  22
TORSDOF 14
ENDMDL
MODEL 2
REMARK VINA RESULT:      -4.3      3.582      8.356
REMARK SMILES [N-]=[N+]=Nc1cc(Cl)cc2c(CNO)c(OCCc3cn(C[C@H](N=[N+]=[N-])C(=O)[O-])n[nH+]3)ccc12
REMARK SMILES IDX 16 1 15 2 14 3 10 4 9 5 31 6 8 7 33 8 32 9 6 10 4 11 5 12
REMARK SMILES IDX 7 13 11 14 12 15 13 17 3 19 2 20 1 21 17 22 18 23 19 24
REMARK SMILES IDX 30 25 20 26 29 27 21 29 22 30 23 31 24 32 25 33 26 34 27 35
REMARK SMILES IDX 28 36
REMARK H PARENT 12 16 13 18 30 28
ROOT
ATOM      1  C   UNL     1      44.132 131.837  15.423  1.00  0.00     0.238 C 
ENDROOT
BRANCH   1   2
ATOM      2  O   UNL     1      44.216 132.849  16.424  1.00  0.00    -0.493 OA
BRANCH   2   3
ATOM      3  C   UNL     1      44.400 132.615  17.798  1.00  0.00     0.124 A 
ATOM      4  C   UNL     1      43.914 133.566  18.723  1.00  0.00     0.018 A 
ATOM      5  C   UNL     1      44.023 133.302  20.123  1.00  0.00    -0.008 A 
ATOM      6  C   UNL     1      45.054 131.465  18.256  1.00  0.00     0.047 A 
ATOM      7  C   UNL     1      43.530 134.203  21.095  1.00  0.00     0.029 A 
ATOM      8  C   UNL     1      44.652 132.100  20.568  1.00  0.00    -0.008 A 
ATOM      9  C   UNL     1      45.196 131.222  19.616  1.00  0.00     0.013 A 
ATOM     10  C   UNL     1      43.689 133.949  22.456  1.00  0.00     0.042 A 
ATOM     11  C   UNL     1      44.750 131.829  21.961  1.00  0.00     0.047 A 
ATOM     12  C   UNL     1      44.304 132.777  22.883  1.00  0.00     0.031 A 
ATOM     13  Cl  UNL     1      43.090 135.099  23.638  1.00  0.00    -0.084 Cl
BRANCH   4  14
ATOM     14  C   UNL     1      43.249 134.816  18.166  1.00  0.00     0.151 C 
BRANCH  14  15
ATOM     15  N   UNL     1      44.185 135.559  17.322  1.00  0.00    -0.201 NA
ATOM     16  H   UNL     1      45.008 135.817  17.914  1.00  0.00     0.155 HD
BRANCH  15  17
ATOM     17  O   UNL     1      43.595 136.722  16.953  1.00  0.00    -0.316 OA
ATOM     18  H   UNL     1      43.383 136.602  15.992  1.00  0.00     0.238 HD
ENDBRANCH  15  17
ENDBRANCH  14  15
ENDBRANCH   4  14
BRANCH  11  19
ATOM     19  N   UNL     1      45.287 130.606  22.485  1.00  0.00    -0.060 NA
BRANCH  19  20
ATOM     20  N   UNL     1      44.852 130.092  23.517  1.00  0.00     0.005 N 
ATOM     21  N   UNL     1      44.419 129.578  24.547  1.00  0.00    -0.003 NA
ENDBRANCH  19  20
ENDBRANCH  11  19
ENDBRANCH   2   3
ENDBRANCH   1   2
BRANCH   1  22
ATOM     22  C   UNL     1      42.902 132.078  14.552  1.00  0.00     0.128 C 
BRANCH  22  23
ATOM     23  C   UNL     1      42.309 133.425  14.829  1.00  0.00     0.168 A 
ATOM     24  C   UNL     1      41.018 133.697  15.232  1.00  0.00     0.274 A 
ATOM     25  N   UNL     1      42.924 134.603  14.607  1.00  0.00    -0.148 N 
ATOM     26  N   UNL     1      40.905 135.038  15.249  1.00  0.00    -0.137 N 
ATOM     27  N   UNL     1      42.060 135.569  14.876  1.00  0.00     0.088 NA
ATOM     28  H   UNL     1      43.901 134.752  14.270  1.00  0.00     0.342 HD
BRANCH  26  29
ATOM     29  C   UNL     1      39.730 135.810  15.646  1.00  0.00     0.285 C 
BRANCH  29  30
ATOM     30  C   UNL     1      39.742 136.083  17.156  1.00  0.00     0.163 C 
BRANCH  30  31
ATOM     31  N   UNL     1      38.730 135.253  17.802  1.00  0.00    -0.080 NA
BRANCH  31  32
ATOM     32  N   UNL     1      37.558 135.270  17.425  1.00  0.00     0.002 N 
ATOM     33  N   UNL     1      36.386 135.289  17.050  1.00  0.00    -0.003 NA
ENDBRANCH  31  32
ENDBRANCH  30  31
BRANCH  30  34
ATOM     34  C   UNL     1      39.479 137.536  17.437  1.00  0.00     0.054 C 
ATOM     35  O   UNL     1      39.298 137.936  18.619  1.00  0.00    -0.550 OA
ATOM     36  O   UNL     1      39.403 138.443  16.388  1.00  0.00    -0.550 OA
ENDBRANCH  30  34
ENDBRANCH  29  30
ENDBRANCH  26  29
ENDBRANCH  22  23
ENDBRANCH   1  22
TORSDOF 14
ENDMDL
MODEL 3
REMARK VINA RESULT:      -4.2      2.928      4.343
REMARK SMILES [N-]=[N+]=Nc1cc(Cl)cc2c(CNO)c(OCCc3cn(C[C@H](N=[N+]=[N-])C(=O)[O-])n[nH+]3)ccc12
REMARK SMILES IDX 16 1 15 2 14 3 10 4 9 5 31 6 8 7 33 8 32 9 6 10 4 11 5 12
REMARK SMILES IDX 7 13 11 14 12 15 13 17 3 19 2 20 1 21 17 22 18 23 19 24
REMARK SMILES IDX 30 25 20 26 29 27 21 29 22 30 23 31 24 32 25 33 26 34 27 35
REMARK SMILES IDX 28 36
REMARK H PARENT 12 16 13 18 30 28
ROOT
ATOM      1  C   UNL     1      45.378 132.222  16.061  1.00  0.00     0.238 C 
ENDROOT
BRANCH   1   2
ATOM      2  O   UNL     1      44.506 133.091  15.341  1.00  0.00    -0.493 OA
BRANCH   2   3
ATOM      3  C   UNL     1      43.782 134.157  15.901  1.00  0.00     0.124 A 
ATOM      4  C   UNL     1      42.381 134.035  16.032  1.00  0.00     0.018 A 
ATOM      5  C   UNL     1      41.642 135.078  16.672  1.00  0.00    -0.008 A 
ATOM      6  C   UNL     1      44.424 135.327  16.322  1.00  0.00     0.047 A 
ATOM      7  C   UNL     1      40.243 134.999  16.858  1.00  0.00     0.029 A 
ATOM      8  C   UNL     1      42.324 136.243  17.138  1.00  0.00    -0.008 A 
ATOM      9  C   UNL     1      43.706 136.360  16.911  1.00  0.00     0.013 A 
ATOM     10  C   UNL     1      39.536 136.048  17.442  1.00  0.00     0.042 A 
ATOM     11  C   UNL     1      41.594 137.277  17.786  1.00  0.00     0.047 A 
ATOM     12  C   UNL     1      40.206 137.181  17.891  1.00  0.00     0.031 A 
ATOM     13  Cl  UNL     1      37.795 135.932  17.634  1.00  0.00    -0.084 Cl
BRANCH   4  14
ATOM     14  C   UNL     1      41.732 132.757  15.519  1.00  0.00     0.151 C 
BRANCH  14  15
ATOM     15  N   UNL     1      41.596 132.804  14.063  1.00  0.00    -0.201 NA
ATOM     16  H   UNL     1      40.604 132.565  13.831  1.00  0.00     0.155 HD
BRANCH  15  17
ATOM     17  O   UNL     1      42.364 131.822  13.532  1.00  0.00    -0.316 OA
ATOM     18  H   UNL     1      42.235 131.048  14.138  1.00  0.00     0.238 HD
ENDBRANCH  15  17
ENDBRANCH  14  15
ENDBRANCH   4  14
BRANCH  11  19
ATOM     19  N   UNL     1      42.217 138.435  18.359  1.00  0.00    -0.060 NA
BRANCH  19  20
ATOM     20  N   UNL     1      41.998 138.787  19.519  1.00  0.00     0.005 N 
ATOM     21  N   UNL     1      41.778 139.137  20.678  1.00  0.00    -0.003 NA
ENDBRANCH  19  20
ENDBRANCH  11  19
ENDBRANCH   2   3
ENDBRANCH   1   2
BRANCH   1  22
ATOM     22  C   UNL     1      44.558 131.312  16.971  1.00  0.00     0.128 C 
BRANCH  22  23
ATOM     23  C   UNL     1      44.837 131.608  18.412  1.00  0.00     0.168 A 
ATOM     24  C   UNL     1      44.473 132.739  19.113  1.00  0.00     0.274 A 
ATOM     25  N   UNL     1      45.602 130.853  19.224  1.00  0.00    -0.148 N 
ATOM     26  N   UNL     1      45.027 132.619  20.334  1.00  0.00    -0.137 N 
ATOM     27  N   UNL     1      45.698 131.478  20.387  1.00  0.00     0.088 NA
ATOM     28  H   UNL     1      46.060 129.943  18.996  1.00  0.00     0.342 HD
BRANCH  26  29
ATOM     29  C   UNL     1      44.895 133.553  21.448  1.00  0.00     0.285 C 
BRANCH  29  30
ATOM     30  C   UNL     1      46.145 133.524  22.337  1.00  0.00     0.163 C 
BRANCH  30  31
ATOM     31  N   UNL     1      45.781 133.922  23.693  1.00  0.00    -0.080 NA
BRANCH  31  32
ATOM     32  N   UNL     1      44.664 133.676  24.150  1.00  0.00     0.002 N 
ATOM     33  N   UNL     1      43.548 133.430  24.608  1.00  0.00    -0.003 NA
ENDBRANCH  31  32
ENDBRANCH  30  31
BRANCH  30  34
ATOM     34  C   UNL     1      47.207 134.438  21.794  1.00  0.00     0.054 C 
ATOM     35  O   UNL     1      48.349 133.991  21.504  1.00  0.00    -0.550 OA
ATOM     36  O   UNL     1      46.943 135.793  21.639  1.00  0.00    -0.550 OA
ENDBRANCH  30  34
ENDBRANCH  29  30
ENDBRANCH  26  29
ENDBRANCH  22  23
ENDBRANCH   1  22
TORSDOF 14
ENDMDL
MODEL 4
REMARK VINA RESULT:      -4.1      3.722      5.873
REMARK SMILES [N-]=[N+]=Nc1cc(Cl)cc2c(CNO)c(OCCc3cn(C[C@H](N=[N+]=[N-])C(=O)[O-])n[nH+]3)ccc12
REMARK SMILES IDX 16 1 15 2 14 3 10 4 9 5 31 6 8 7 33 8 32 9 6 10 4 11 5 12
REMARK SMILES IDX 7 13 11 14 12 15 13 17 3 19 2 20 1 21 17 22 18 23 19 24
REMARK SMILES IDX 30 25 20 26 29 27 21 29 22 30 23 31 24 32 25 33 26 34 27 35
REMARK SMILES IDX 28 36
REMARK H PARENT 12 16 13 18 30 28
ROOT
ATOM      1  C   UNL     1      43.217 132.161  22.962  1.00  0.00     0.238 C 
ENDROOT
BRANCH   1   2
ATOM      2  O   UNL     1      42.621 133.041  22.011  1.00  0.00    -0.493 OA
BRANCH   2   3
ATOM      3  C   UNL     1      42.648 132.865  20.617  1.00  0.00     0.124 A 
ATOM      4  C   UNL     1      41.834 133.690  19.809  1.00  0.00     0.018 A 
ATOM      5  C   UNL     1      41.910 133.574  18.387  1.00  0.00    -0.008 A 
ATOM      6  C   UNL     1      43.458 131.889  20.025  1.00  0.00     0.047 A 
ATOM      7  C   UNL     1      41.142 134.392  17.527  1.00  0.00     0.029 A 
ATOM      8  C   UNL     1      42.780 132.605  17.803  1.00  0.00    -0.008 A 
ATOM      9  C   UNL     1      43.508 131.747  18.644  1.00  0.00     0.013 A 
ATOM     10  C   UNL     1      41.196 134.231  16.144  1.00  0.00     0.042 A 
ATOM     11  C   UNL     1      42.868 132.496  16.387  1.00  0.00     0.047 A 
ATOM     12  C   UNL     1      42.044 133.283  15.581  1.00  0.00     0.031 A 
ATOM     13  Cl  UNL     1      40.209 135.243  15.104  1.00  0.00    -0.084 Cl
BRANCH   4  14
ATOM     14  C   UNL     1      40.942 134.704  20.510  1.00  0.00     0.151 C 
BRANCH  14  15
ATOM     15  N   UNL     1      39.758 134.046  21.064  1.00  0.00    -0.201 NA
ATOM     16  H   UNL     1      38.935 134.661  20.870  1.00  0.00     0.155 HD
BRANCH  15  17
ATOM     17  O   UNL     1      39.892 133.994  22.411  1.00  0.00    -0.316 OA
ATOM     18  H   UNL     1      39.046 133.587  22.731  1.00  0.00     0.238 HD
ENDBRANCH  15  17
ENDBRANCH  14  15
ENDBRANCH   4  14
BRANCH  11  19
ATOM     19  N   UNL     1      43.781 131.610  15.724  1.00  0.00    -0.060 NA
BRANCH  19  20
ATOM     20  N   UNL     1      44.937 131.944  15.459  1.00  0.00     0.005 N 
ATOM     21  N   UNL     1      46.091 132.276  15.194  1.00  0.00    -0.003 NA
ENDBRANCH  19  20
ENDBRANCH  11  19
ENDBRANCH   2   3
ENDBRANCH   1   2
BRANCH   1  22
ATOM     22  C   UNL     1      44.229 132.928  23.808  1.00  0.00     0.128 C 
BRANCH  22  23
ATOM     23  C   UNL     1      45.408 133.342  22.982  1.00  0.00     0.168 A 
ATOM     24  C   UNL     1      46.012 134.582  22.959  1.00  0.00     0.274 A 
ATOM     25  N   UNL     1      45.993 132.585  22.033  1.00  0.00    -0.148 N 
ATOM     26  N   UNL     1      46.952 134.524  21.997  1.00  0.00    -0.137 N 
ATOM     27  N   UNL     1      46.932 133.317  21.453  1.00  0.00     0.088 NA
ATOM     28  H   UNL     1      45.755 131.603  21.773  1.00  0.00     0.342 HD
BRANCH  26  29
ATOM     29  C   UNL     1      47.882 135.585  21.621  1.00  0.00     0.285 C 
BRANCH  29  30
ATOM     30  C   UNL     1      47.217 136.962  21.743  1.00  0.00     0.163 C 
BRANCH  30  31
ATOM     31  N   UNL     1      47.227 137.618  20.439  1.00  0.00    -0.080 NA
BRANCH  31  32
ATOM     32  N   UNL     1      46.277 137.506  19.663  1.00  0.00     0.002 N 
ATOM     33  N   UNL     1      45.327 137.395  18.889  1.00  0.00    -0.003 NA
ENDBRANCH  31  32
ENDBRANCH  30  31
BRANCH  30  34
ATOM     34  C   UNL     1      47.930 137.812  22.758  1.00  0.00     0.054 C 
ATOM     35  O   UNL     1      48.811 137.310  23.506  1.00  0.00    -0.550 OA
ATOM     36  O   UNL     1      47.596 139.153  22.897  1.00  0.00    -0.550 OA
ENDBRANCH  30  34
ENDBRANCH  29  30
ENDBRANCH  26  29
ENDBRANCH  22  23
ENDBRANCH   1  22
TORSDOF 14
ENDMDL
MODEL 5
REMARK VINA RESULT:      -4.1      4.049      8.884
REMARK SMILES [N-]=[N+]=Nc1cc(Cl)cc2c(CNO)c(OCCc3cn(C[C@H](N=[N+]=[N-])C(=O)[O-])n[nH+]3)ccc12
REMARK SMILES IDX 16 1 15 2 14 3 10 4 9 5 31 6 8 7 33 8 32 9 6 10 4 11 5 12
REMARK SMILES IDX 7 13 11 14 12 15 13 17 3 19 2 20 1 21 17 22 18 23 19 24
REMARK SMILES IDX 30 25 20 26 29 27 21 29 22 30 23 31 24 32 25 33 26 34 27 35
REMARK SMILES IDX 28 36
REMARK H PARENT 12 16 13 18 30 28
ROOT
ATOM      1  C   UNL     1      44.961 133.166  15.906  1.00  0.00     0.238 C 
ENDROOT
BRANCH   1   2
ATOM      2  O   UNL     1      44.477 132.060  16.665  1.00  0.00    -0.493 OA
BRANCH   2   3
ATOM      3  C   UNL     1      44.001 132.130  17.985  1.00  0.00     0.124 A 
ATOM      4  C   UNL     1      44.723 131.476  19.008  1.00  0.00     0.018 A 
ATOM      5  C   UNL     1      44.294 131.605  20.364  1.00  0.00    -0.008 A 
ATOM      6  C   UNL     1      42.829 132.831  18.297  1.00  0.00     0.047 A 
ATOM      7  C   UNL     1      44.993 130.998  21.432  1.00  0.00     0.029 A 
ATOM      8  C   UNL     1      43.122 132.365  20.665  1.00  0.00    -0.008 A 
ATOM      9  C   UNL     1      42.386 132.929  19.610  1.00  0.00     0.013 A 
ATOM     10  C   UNL     1      44.530 131.097  22.743  1.00  0.00     0.042 A 
ATOM     11  C   UNL     1      42.700 132.506  22.016  1.00  0.00     0.047 A 
ATOM     12  C   UNL     1      43.387 131.836  23.029  1.00  0.00     0.031 A 
ATOM     13  Cl  UNL     1      45.405 130.309  24.044  1.00  0.00    -0.084 Cl
BRANCH   4  14
ATOM     14  C   UNL     1      45.966 130.695  18.604  1.00  0.00     0.151 C 
BRANCH  14  15
ATOM     15  N   UNL     1      45.704 129.905  17.402  1.00  0.00    -0.201 NA
ATOM     16  H   UNL     1      45.500 128.925  17.706  1.00  0.00     0.155 HD
BRANCH  15  17
ATOM     17  O   UNL     1      46.842 129.853  16.670  1.00  0.00    -0.316 OA
ATOM     18  H   UNL     1      47.573 129.904  17.338  1.00  0.00     0.238 HD
ENDBRANCH  15  17
ENDBRANCH  14  15
ENDBRANCH   4  14
BRANCH  11  19
ATOM     19  N   UNL     1      41.587 133.324  22.407  1.00  0.00    -0.060 NA
BRANCH  19  20
ATOM     20  N   UNL     1      41.063 133.223  23.517  1.00  0.00     0.005 N 
ATOM     21  N   UNL     1      40.538 133.123  24.625  1.00  0.00    -0.003 NA
ENDBRANCH  19  20
ENDBRANCH  11  19
ENDBRANCH   2   3
ENDBRANCH   1   2
BRANCH   1  22
ATOM     22  C   UNL     1      44.436 134.468  16.506  1.00  0.00     0.128 C 
BRANCH  22  23
ATOM     23  C   UNL     1      43.241 134.960  15.749  1.00  0.00     0.168 A 
ATOM     24  C   UNL     1      42.380 134.208  14.977  1.00  0.00     0.274 A 
ATOM     25  N   UNL     1      42.892 136.253  15.609  1.00  0.00    -0.148 N 
ATOM     26  N   UNL     1      41.530 135.081  14.405  1.00  0.00    -0.137 N 
ATOM     27  N   UNL     1      41.847 136.305  14.798  1.00  0.00     0.088 NA
ATOM     28  H   UNL     1      43.355 137.083  16.041  1.00  0.00     0.342 HD
BRANCH  26  29
ATOM     29  C   UNL     1      40.410 134.759  13.525  1.00  0.00     0.285 C 
BRANCH  29  30
ATOM     30  C   UNL     1      39.087 134.765  14.301  1.00  0.00     0.163 C 
BRANCH  30  31
ATOM     31  N   UNL     1      39.075 133.648  15.240  1.00  0.00    -0.080 NA
BRANCH  31  32
ATOM     32  N   UNL     1      39.023 133.839  16.456  1.00  0.00     0.002 N 
ATOM     33  N   UNL     1      38.972 134.031  17.670  1.00  0.00    -0.003 NA
ENDBRANCH  31  32
ENDBRANCH  30  31
BRANCH  30  34
ATOM     34  C   UNL     1      37.917 134.668  13.362  1.00  0.00     0.054 C 
ATOM     35  O   UNL     1      37.796 133.678  12.590  1.00  0.00    -0.550 OA
ATOM     36  O   UNL     1      36.976 135.689  13.318  1.00  0.00    -0.550 OA
ENDBRANCH  30  34
ENDBRANCH  29  30
ENDBRANCH  26  29
ENDBRANCH  22  23
ENDBRANCH   1  22
TORSDOF 14
ENDMDL
MODEL 6
REMARK VINA RESULT:      -4.1      2.310      2.899
REMARK SMILES [N-]=[N+]=Nc1cc(Cl)cc2c(CNO)c(OCCc3cn(C[C@H](N=[N+]=[N-])C(=O)[O-])n[nH+]3)ccc12
REMARK SMILES IDX 16 1 15 2 14 3 10 4 9 5 31 6 8 7 33 8 32 9 6 10 4 11 5 12
REMARK SMILES IDX 7 13 11 14 12 15 13 17 3 19 2 20 1 21 17 22 18 23 19 24
REMARK SMILES IDX 30 25 20 26 29 27 21 29 22 30 23 31 24 32 25 33 26 34 27 35
REMARK SMILES IDX 28 36
REMARK H PARENT 12 16 13 18 30 28
ROOT
ATOM      1  C   UNL     1      43.654 132.263  14.955  1.00  0.00     0.238 C 
ENDROOT
BRANCH   1   2
ATOM      2  O   UNL     1      42.472 132.629  15.664  1.00  0.00    -0.493 OA
BRANCH   2   3
ATOM      3  C   UNL     1      41.509 133.547  15.212  1.00  0.00     0.124 A 
ATOM      4  C   UNL     1      40.613 134.112  16.147  1.00  0.00     0.018 A 
ATOM      5  C   UNL     1      39.681 135.104  15.714  1.00  0.00    -0.008 A 
ATOM      6  C   UNL     1      41.424 133.902  13.861  1.00  0.00     0.047 A 
ATOM      7  C   UNL     1      38.780 135.726  16.609  1.00  0.00     0.029 A 
ATOM      8  C   UNL     1      39.644 135.488  14.339  1.00  0.00    -0.008 A 
ATOM      9  C   UNL     1      40.495 134.840  13.428  1.00  0.00     0.013 A 
ATOM     10  C   UNL     1      37.847 136.657  16.158  1.00  0.00     0.042 A 
ATOM     11  C   UNL     1      38.726 136.485  13.908  1.00  0.00     0.047 A 
ATOM     12  C   UNL     1      37.814 137.024  14.817  1.00  0.00     0.031 A 
ATOM     13  Cl  UNL     1      36.723 137.391  17.289  1.00  0.00    -0.084 Cl
BRANCH   4  14
ATOM     14  C   UNL     1      40.724 133.657  17.595  1.00  0.00     0.151 C 
BRANCH  14  15
ATOM     15  N   UNL     1      40.560 132.206  17.688  1.00  0.00    -0.201 NA
ATOM     16  H   UNL     1      39.681 132.021  18.224  1.00  0.00     0.155 HD
BRANCH  15  17
ATOM     17  O   UNL     1      41.577 131.709  18.433  1.00  0.00    -0.316 OA
ATOM     18  H   UNL     1      41.762 132.414  19.106  1.00  0.00     0.238 HD
ENDBRANCH  15  17
ENDBRANCH  14  15
ENDBRANCH   4  14
BRANCH  11  19
ATOM     19  N   UNL     1      38.688 136.986  12.564  1.00  0.00    -0.060 NA
BRANCH  19  20
ATOM     20  N   UNL     1      37.707 136.828  11.837  1.00  0.00     0.005 N 
ATOM     21  N   UNL     1      36.727 136.670  11.109  1.00  0.00    -0.003 NA
ENDBRANCH  19  20
ENDBRANCH  11  19
ENDBRANCH   2   3
ENDBRANCH   1   2
BRANCH   1  22
ATOM     22  C   UNL     1      44.879 132.534  15.824  1.00  0.00     0.128 C 
BRANCH  22  23
ATOM     23  C   UNL     1      44.562 133.534  16.893  1.00  0.00     0.168 A 
ATOM     24  C   UNL     1      44.382 133.283  18.237  1.00  0.00     0.274 A 
ATOM     25  N   UNL     1      44.285 134.835  16.679  1.00  0.00    -0.148 N 
ATOM     26  N   UNL     1      44.010 134.453  18.791  1.00  0.00    -0.137 N 
ATOM     27  N   UNL     1      43.961 135.377  17.843  1.00  0.00     0.088 NA
ATOM     28  H   UNL     1      44.301 135.343  15.768  1.00  0.00     0.342 HD
BRANCH  26  29
ATOM     29  C   UNL     1      43.738 134.702  20.204  1.00  0.00     0.285 C 
BRANCH  29  30
ATOM     30  C   UNL     1      43.995 133.442  21.039  1.00  0.00     0.163 C 
BRANCH  30  31
ATOM     31  N   UNL     1      42.720 132.801  21.348  1.00  0.00    -0.080 NA
BRANCH  31  32
ATOM     32  N   UNL     1      42.674 131.638  21.752  1.00  0.00     0.002 N 
ATOM     33  N   UNL     1      42.626 130.477  22.156  1.00  0.00    -0.003 NA
ENDBRANCH  31  32
ENDBRANCH  30  31
BRANCH  30  34
ATOM     34  C   UNL     1      44.725 133.783  22.308  1.00  0.00     0.054 C 
ATOM     35  O   UNL     1      45.971 133.613  22.395  1.00  0.00    -0.550 OA
ATOM     36  O   UNL     1      44.021 134.258  23.408  1.00  0.00    -0.550 OA
ENDBRANCH  30  34
ENDBRANCH  29  30
ENDBRANCH  26  29
ENDBRANCH  22  23
ENDBRANCH   1  22
TORSDOF 14
ENDMDL
MODEL 7
REMARK VINA RESULT:      -4.0      3.528      7.732
REMARK SMILES [N-]=[N+]=Nc1cc(Cl)cc2c(CNO)c(OCCc3cn(C[C@H](N=[N+]=[N-])C(=O)[O-])n[nH+]3)ccc12
REMARK SMILES IDX 16 1 15 2 14 3 10 4 9 5 31 6 8 7 33 8 32 9 6 10 4 11 5 12
REMARK SMILES IDX 7 13 11 14 12 15 13 17 3 19 2 20 1 21 17 22 18 23 19 24
REMARK SMILES IDX 30 25 20 26 29 27 21 29 22 30 23 31 24 32 25 33 26 34 27 35
REMARK SMILES IDX 28 36
REMARK H PARENT 12 16 13 18 30 28
ROOT
ATOM      1  C   UNL     1      45.509 132.117  16.154  1.00  0.00     0.238 C 
ENDROOT
BRANCH   1   2
ATOM      2  O   UNL     1      45.117 131.818  17.492  1.00  0.00    -0.493 OA
BRANCH   2   3
ATOM      3  C   UNL     1      44.500 132.720  18.375  1.00  0.00     0.124 A 
ATOM      4  C   UNL     1      44.389 132.371  19.740  1.00  0.00     0.018 A 
ATOM      5  C   UNL     1      43.835 133.311  20.662  1.00  0.00    -0.008 A 
ATOM      6  C   UNL     1      43.995 133.945  17.925  1.00  0.00     0.047 A 
ATOM      7  C   UNL     1      43.725 133.029  22.043  1.00  0.00     0.029 A 
ATOM      8  C   UNL     1      43.370 134.575  20.188  1.00  0.00    -0.008 A 
ATOM      9  C   UNL     1      43.421 134.848  18.811  1.00  0.00     0.013 A 
ATOM     10  C   UNL     1      43.139 133.941  22.918  1.00  0.00     0.042 A 
ATOM     11  C   UNL     1      42.830 135.518  21.106  1.00  0.00     0.047 A 
ATOM     12  C   UNL     1      42.685 135.170  22.450  1.00  0.00     0.031 A 
ATOM     13  Cl  UNL     1      42.992 133.552  24.623  1.00  0.00    -0.084 Cl
BRANCH   4  14
ATOM     14  C   UNL     1      44.918 131.008  20.165  1.00  0.00     0.151 C 
BRANCH  14  15
ATOM     15  N   UNL     1      46.381 131.016  20.198  1.00  0.00    -0.201 NA
ATOM     16  H   UNL     1      46.700 130.025  20.293  1.00  0.00     0.155 HD
BRANCH  15  17
ATOM     17  O   UNL     1      46.778 131.659  21.322  1.00  0.00    -0.316 OA
ATOM     18  H   UNL     1      46.089 131.430  21.998  1.00  0.00     0.238 HD
ENDBRANCH  15  17
ENDBRANCH  14  15
ENDBRANCH   4  14
BRANCH  11  19
ATOM     19  N   UNL     1      42.423 136.840  20.723  1.00  0.00    -0.060 NA
BRANCH  19  20
ATOM     20  N   UNL     1      43.219 137.778  20.675  1.00  0.00     0.005 N 
ATOM     21  N   UNL     1      44.014 138.716  20.628  1.00  0.00    -0.003 NA
ENDBRANCH  19  20
ENDBRANCH  11  19
ENDBRANCH   2   3
ENDBRANCH   1   2
BRANCH   1  22
ATOM     22  C   UNL     1      44.719 131.246  15.181  1.00  0.00     0.128 C 
BRANCH  22  23
ATOM     23  C   UNL     1      43.486 131.954  14.712  1.00  0.00     0.168 A 
ATOM     24  C   UNL     1      42.964 133.130  15.209  1.00  0.00     0.274 A 
ATOM     25  N   UNL     1      42.620 131.477  13.797  1.00  0.00    -0.148 N 
ATOM     26  N   UNL     1      41.800 133.327  14.562  1.00  0.00    -0.137 N 
ATOM     27  N   UNL     1      41.609 132.328  13.714  1.00  0.00     0.088 NA
ATOM     28  H   UNL     1      42.702 130.592  13.250  1.00  0.00     0.342 HD
BRANCH  26  29
ATOM     29  C   UNL     1      40.895 134.463  14.719  1.00  0.00     0.285 C 
BRANCH  29  30
ATOM     30  C   UNL     1      40.193 134.417  16.082  1.00  0.00     0.163 C 
BRANCH  30  31
ATOM     31  N   UNL     1      38.883 133.792  15.927  1.00  0.00    -0.080 NA
BRANCH  31  32
ATOM     32  N   UNL     1      38.134 134.106  15.000  1.00  0.00     0.002 N 
ATOM     33  N   UNL     1      37.385 134.420  14.075  1.00  0.00    -0.003 NA
ENDBRANCH  31  32
ENDBRANCH  30  31
BRANCH  30  34
ATOM     34  C   UNL     1      40.044 135.800  16.653  1.00  0.00     0.054 C 
ATOM     35  O   UNL     1      39.191 136.033  17.551  1.00  0.00    -0.550 OA
ATOM     36  O   UNL     1      40.829 136.838  16.167  1.00  0.00    -0.550 OA
ENDBRANCH  30  34
ENDBRANCH  29  30
ENDBRANCH  26  29
ENDBRANCH  22  23
ENDBRANCH   1  22
TORSDOF 14
ENDMDL
MODEL 8
REMARK VINA RESULT:      -3.9      1.912      2.190
REMARK SMILES [N-]=[N+]=Nc1cc(Cl)cc2c(CNO)c(OCCc3cn(C[C@H](N=[N+]=[N-])C(=O)[O-])n[nH+]3)ccc12
REMARK SMILES IDX 16 1 15 2 14 3 10 4 9 5 31 6 8 7 33 8 32 9 6 10 4 11 5 12
REMARK SMILES IDX 7 13 11 14 12 15 13 17 3 19 2 20 1 21 17 22 18 23 19 24
REMARK SMILES IDX 30 25 20 26 29 27 21 29 22 30 23 31 24 32 25 33 26 34 27 35
REMARK SMILES IDX 28 36
REMARK H PARENT 12 16 13 18 30 28
ROOT
ATOM      1  C   UNL     1      45.891 131.489  15.652  1.00  0.00     0.238 C 
ENDROOT
BRANCH   1   2
ATOM      2  O   UNL     1      45.235 132.693  16.045  1.00  0.00    -0.493 OA
BRANCH   2   3
ATOM      3  C   UNL     1      43.893 133.009  15.773  1.00  0.00     0.124 A 
ATOM      4  C   UNL     1      43.268 134.031  16.521  1.00  0.00     0.018 A 
ATOM      5  C   UNL     1      41.929 134.416  16.202  1.00  0.00    -0.008 A 
ATOM      6  C   UNL     1      43.174 132.328  14.783  1.00  0.00     0.047 A 
ATOM      7  C   UNL     1      41.262 135.451  16.896  1.00  0.00     0.029 A 
ATOM      8  C   UNL     1      41.231 133.740  15.156  1.00  0.00    -0.008 A 
ATOM      9  C   UNL     1      41.860 132.673  14.494  1.00  0.00     0.013 A 
ATOM     10  C   UNL     1      39.940 135.778  16.600  1.00  0.00     0.042 A 
ATOM     11  C   UNL     1      39.903 134.130  14.827  1.00  0.00     0.047 A 
ATOM     12  C   UNL     1      39.264 135.115  15.582  1.00  0.00     0.031 A 
ATOM     13  Cl  UNL     1      39.130 137.050  17.498  1.00  0.00    -0.084 Cl
BRANCH   4  14
ATOM     14  C   UNL     1      44.085 134.707  17.612  1.00  0.00     0.151 C 
BRANCH  14  15
ATOM     15  N   UNL     1      44.345 136.104  17.263  1.00  0.00    -0.201 NA
ATOM     16  H   UNL     1      45.339 136.169  16.942  1.00  0.00     0.155 HD
BRANCH  15  17
ATOM     17  O   UNL     1      44.254 136.849  18.391  1.00  0.00    -0.316 OA
ATOM     18  H   UNL     1      44.445 136.213  19.127  1.00  0.00     0.238 HD
ENDBRANCH  15  17
ENDBRANCH  14  15
ENDBRANCH   4  14
BRANCH  11  19
ATOM     19  N   UNL     1      39.167 133.561  13.734  1.00  0.00    -0.060 NA
BRANCH  19  20
ATOM     20  N   UNL     1      38.141 134.083  13.297  1.00  0.00     0.005 N 
ATOM     21  N   UNL     1      37.116 134.606  12.861  1.00  0.00    -0.003 NA
ENDBRANCH  19  20
ENDBRANCH  11  19
ENDBRANCH   2   3
ENDBRANCH   1   2
BRANCH   1  22
ATOM     22  C   UNL     1      45.858 130.487  16.803  1.00  0.00     0.128 C 
BRANCH  22  23
ATOM     23  C   UNL     1      45.232 131.095  18.021  1.00  0.00     0.168 A 
ATOM     24  C   UNL     1      45.874 131.483  19.178  1.00  0.00     0.274 A 
ATOM     25  N   UNL     1      43.908 131.248  18.216  1.00  0.00    -0.148 N 
ATOM     26  N   UNL     1      44.907 131.868  20.032  1.00  0.00    -0.137 N 
ATOM     27  N   UNL     1      43.732 131.726  19.439  1.00  0.00     0.088 NA
ATOM     28  H   UNL     1      43.140 131.023  17.547  1.00  0.00     0.342 HD
BRANCH  26  29
ATOM     29  C   UNL     1      45.094 132.397  21.381  1.00  0.00     0.285 C 
BRANCH  29  30
ATOM     30  C   UNL     1      45.565 133.856  21.334  1.00  0.00     0.163 C 
BRANCH  30  31
ATOM     31  N   UNL     1      46.781 133.995  22.129  1.00  0.00    -0.080 NA
BRANCH  31  32
ATOM     32  N   UNL     1      47.216 135.105  22.438  1.00  0.00     0.002 N 
ATOM     33  N   UNL     1      47.650 136.215  22.746  1.00  0.00    -0.003 NA
ENDBRANCH  31  32
ENDBRANCH  30  31
BRANCH  30  34
ATOM     34  C   UNL     1      44.497 134.778  21.853  1.00  0.00     0.054 C 
ATOM     35  O   UNL     1      44.134 135.780  21.180  1.00  0.00    -0.550 OA
ATOM     36  O   UNL     1      43.927 134.547  23.099  1.00  0.00    -0.550 OA
ENDBRANCH  30  34
ENDBRANCH  29  30
ENDBRANCH  26  29
ENDBRANCH  22  23
ENDBRANCH   1  22
TORSDOF 14
ENDMDL
MODEL 9
REMARK VINA RESULT:      -3.9      3.638      7.826
REMARK SMILES [N-]=[N+]=Nc1cc(Cl)cc2c(CNO)c(OCCc3cn(C[C@H](N=[N+]=[N-])C(=O)[O-])n[nH+]3)ccc12
REMARK SMILES IDX 16 1 15 2 14 3 10 4 9 5 31 6 8 7 33 8 32 9 6 10 4 11 5 12
REMARK SMILES IDX 7 13 11 14 12 15 13 17 3 19 2 20 1 21 17 22 18 23 19 24
REMARK SMILES IDX 30 25 20 26 29 27 21 29 22 30 23 31 24 32 25 33 26 34 27 35
REMARK SMILES IDX 28 36
REMARK H PARENT 12 16 13 18 30 28
ROOT
ATOM      1  C   UNL     1      42.598 132.867  14.600  1.00  0.00     0.238 C 
ENDROOT
BRANCH   1   2
ATOM      2  O   UNL     1      43.766 133.281  15.306  1.00  0.00    -0.493 OA
BRANCH   2   3
ATOM      3  C   UNL     1      43.816 133.592  16.676  1.00  0.00     0.124 A 
ATOM      4  C   UNL     1      44.239 132.598  17.586  1.00  0.00     0.018 A 
ATOM      5  C   UNL     1      44.370 132.925  18.971  1.00  0.00    -0.008 A 
ATOM      6  C   UNL     1      43.451 134.859  17.145  1.00  0.00     0.047 A 
ATOM      7  C   UNL     1      44.817 131.981  19.924  1.00  0.00     0.029 A 
ATOM      8  C   UNL     1      44.039 134.239  19.421  1.00  0.00    -0.008 A 
ATOM      9  C   UNL     1      43.541 135.171  18.496  1.00  0.00     0.013 A 
ATOM     10  C   UNL     1      44.893 132.306  21.277  1.00  0.00     0.042 A 
ATOM     11  C   UNL     1      44.180 134.570  20.797  1.00  0.00     0.047 A 
ATOM     12  C   UNL     1      44.566 133.587  21.709  1.00  0.00     0.031 A 
ATOM     13  Cl  UNL     1      45.426 131.104  22.439  1.00  0.00    -0.084 Cl
BRANCH   4  14
ATOM     14  C   UNL     1      44.583 131.227  17.024  1.00  0.00     0.151 C 
BRANCH  14  15
ATOM     15  N   UNL     1      45.869 131.269  16.326  1.00  0.00    -0.201 NA
ATOM     16  H   UNL     1      45.685 131.082  15.314  1.00  0.00     0.155 HD
BRANCH  15  17
ATOM     17  O   UNL     1      46.631 130.243  16.776  1.00  0.00    -0.316 OA
ATOM     18  H   UNL     1      47.398 130.680  17.228  1.00  0.00     0.238 HD
ENDBRANCH  15  17
ENDBRANCH  14  15
ENDBRANCH   4  14
BRANCH  11  19
ATOM     19  N   UNL     1      43.952 135.890  21.313  1.00  0.00    -0.060 NA
BRANCH  19  20
ATOM     20  N   UNL     1      44.880 136.636  21.627  1.00  0.00     0.005 N 
ATOM     21  N   UNL     1      45.807 137.382  21.942  1.00  0.00    -0.003 NA
ENDBRANCH  19  20
ENDBRANCH  11  19
ENDBRANCH   2   3
ENDBRANCH   1   2
BRANCH   1  22
ATOM     22  C   UNL     1      42.116 133.999  13.697  1.00  0.00     0.128 C 
BRANCH  22  23
ATOM     23  C   UNL     1      40.905 134.664  14.275  1.00  0.00     0.168 A 
ATOM     24  C   UNL     1      39.991 134.110  15.146  1.00  0.00     0.274 A 
ATOM     25  N   UNL     1      40.454 135.885  13.931  1.00  0.00    -0.148 N 
ATOM     26  N   UNL     1      39.020 135.029  15.306  1.00  0.00    -0.137 N 
ATOM     27  N   UNL     1      39.314 136.092  14.573  1.00  0.00     0.088 NA
ATOM     28  H   UNL     1      40.896 136.560  13.269  1.00  0.00     0.342 HD
BRANCH  26  29
ATOM     29  C   UNL     1      37.845 134.917  16.167  1.00  0.00     0.285 C 
BRANCH  29  30
ATOM     30  C   UNL     1      38.242 135.019  17.646  1.00  0.00     0.163 C 
BRANCH  30  31
ATOM     31  N   UNL     1      39.109 136.178  17.832  1.00  0.00    -0.080 NA
BRANCH  31  32
ATOM     32  N   UNL     1      38.680 137.220  18.330  1.00  0.00     0.002 N 
ATOM     33  N   UNL     1      38.251 138.261  18.828  1.00  0.00    -0.003 NA
ENDBRANCH  31  32
ENDBRANCH  30  31
BRANCH  30  34
ATOM     34  C   UNL     1      38.943 133.768  18.098  1.00  0.00     0.054 C 
ATOM     35  O   UNL     1      38.513 132.634  17.754  1.00  0.00    -0.550 OA
ATOM     36  O   UNL     1      40.053 133.857  18.927  1.00  0.00    -0.550 OA
ENDBRANCH  30  34
ENDBRANCH  29  30
ENDBRANCH  26  29
ENDBRANCH  22  23
ENDBRANCH   1  22
TORSDOF 14
ENDMDL


