MODEL 1
REMARK VINA RESULT:      -6.1      0.000      0.000
REMARK SMILES C#C[C@@](O)(c1cc(N=[N+]=[N-])cc(SC(C)(C)CNC[C@](C)(O)C=C)ccc2cc1CC2)C(C)(C)C
REMARK SMILES IDX 14 1 15 2 16 3 13 4 12 5 5 6 6 7 29 8 7 9 28 10 30 11 11 12
REMARK SMILES IDX 27 13 31 14 26 15 25 16 3 17 2 18 1 19 4 20 32 22 33 23
REMARK SMILES IDX 34 24 35 25 8 26 9 27 10 28 17 29 18 30 19 32 20 33 21 34
REMARK SMILES IDX 22 35 23 37 24 38
REMARK H PARENT 4 21 18 31 22 36
ROOT
ATOM      1  C   UNL     1      44.489 132.510  17.272  1.00  0.00     0.027 C 
ATOM      2  C   UNL     1      43.332 131.566  16.892  1.00  0.00     0.024 C 
ATOM      3  C   UNL     1      44.804 133.394  16.051  1.00  0.00     0.024 C 
ENDROOT
BRANCH   1   4
ATOM      4  S   UNL     1      43.883 133.573  18.671  1.00  0.00    -0.119 SA
BRANCH   4   5
ATOM      5  C   UNL     1      43.362 135.033  17.739  1.00  0.00     0.008 A 
ATOM      6  C   UNL     1      39.811 136.245  15.708  1.00  0.00    -0.000 A 
ATOM      7  C   UNL     1      39.869 135.088  16.544  1.00  0.00     0.018 A 
ATOM      8  C   UNL     1      40.685 137.354  15.952  1.00  0.00    -0.040 A 
ATOM      9  C   UNL     1      41.014 134.560  17.201  1.00  0.00     0.039 A 
ATOM     10  C   UNL     1      41.418 137.503  17.116  1.00  0.00     0.007 A 
ATOM     11  C   UNL     1      41.282 138.244  14.896  1.00  0.00     0.041 C 
ATOM     12  C   UNL     1      42.319 134.920  16.812  1.00  0.00     0.025 A 
ATOM     13  C   UNL     1      42.666 137.981  16.800  1.00  0.00    -0.047 A 
ATOM     14  C   UNL     1      42.645 138.653  15.472  1.00  0.00     0.040 C 
ATOM     15  C   UNL     1      43.861 137.510  17.372  1.00  0.00     0.005 A 
ATOM     16  C   UNL     1      44.089 136.235  17.943  1.00  0.00     0.015 A 
BRANCH   6  17
ATOM     17  C   UNL     1      38.707 136.324  14.616  1.00  0.00     0.155 C 
BRANCH  17  18
ATOM     18  C   UNL     1      37.431 135.870  15.230  1.00  0.00    -0.066 C 
ATOM     19  C   UNL     1      36.392 135.493  15.713  1.00  0.00     0.007 C 
ENDBRANCH  17  18
BRANCH  17  20
ATOM     20  O   UNL     1      38.538 137.678  14.248  1.00  0.00    -0.373 OA
ATOM     21  H   UNL     1      37.651 138.003  14.553  1.00  0.00     0.213 HD
ENDBRANCH  17  20
BRANCH  17  22
ATOM     22  C   UNL     1      39.054 135.464  13.314  1.00  0.00     0.006 C 
ATOM     23  C   UNL     1      40.518 134.941  13.365  1.00  0.00     0.015 C 
ATOM     24  C   UNL     1      38.889 136.271  11.997  1.00  0.00     0.015 C 
ATOM     25  C   UNL     1      38.130 134.226  13.221  1.00  0.00     0.015 C 
ENDBRANCH  17  22
ENDBRANCH   6  17
BRANCH   9  26
ATOM     26  N   UNL     1      40.831 133.727  18.364  1.00  0.00    -0.061 NA
BRANCH  26  27
ATOM     27  N   UNL     1      40.646 132.514  18.272  1.00  0.00     0.005 N 
ATOM     28  N   UNL     1      40.469 131.301  18.182  1.00  0.00    -0.003 NA
ENDBRANCH  26  27
ENDBRANCH   9  26
ENDBRANCH   4   5
ENDBRANCH   1   4
BRANCH   1  29
ATOM     29  C   UNL     1      45.746 131.671  17.638  1.00  0.00     0.098 C 
BRANCH  29  30
ATOM     30  N   UNL     1      45.629 130.286  17.143  1.00  0.00    -0.312 NA
ATOM     31  H   UNL     1      45.691 129.646  17.971  1.00  0.00     0.122 HD
BRANCH  30  32
ATOM     32  C   UNL     1      46.731 129.928  16.236  1.00  0.00     0.120 C 
BRANCH  32  33
ATOM     33  C   UNL     1      46.277 129.857  14.748  1.00  0.00     0.092 C 
ATOM     34  C   UNL     1      44.765 129.582  14.630  1.00  0.00     0.048 C 
BRANCH  33  35
ATOM     35  O   UNL     1      46.930 128.767  14.136  1.00  0.00    -0.385 OA
ATOM     36  H   UNL     1      46.421 127.939  14.343  1.00  0.00     0.211 HD
ENDBRANCH  33  35
BRANCH  33  37
ATOM     37  C   UNL     1      46.650 131.129  13.993  1.00  0.00     0.001 C 
ATOM     38  C   UNL     1      47.638 131.196  13.084  1.00  0.00     0.007 C 
ENDBRANCH  33  37
ENDBRANCH  32  33
ENDBRANCH  30  32
ENDBRANCH  29  30
ENDBRANCH   1  29
TORSDOF 14
ENDMDL
MODEL 2
REMARK VINA RESULT:      -5.7      4.018      5.581
REMARK SMILES C#C[C@@](O)(c1cc(N=[N+]=[N-])cc(SC(C)(C)CNC[C@](C)(O)C=C)ccc2cc1CC2)C(C)(C)C
REMARK SMILES IDX 14 1 15 2 16 3 13 4 12 5 5 6 6 7 29 8 7 9 28 10 30 11 11 12
REMARK SMILES IDX 27 13 31 14 26 15 25 16 3 17 2 18 1 19 4 20 32 22 33 23
REMARK SMILES IDX 34 24 35 25 8 26 9 27 10 28 17 29 18 30 19 32 20 33 21 34
REMARK SMILES IDX 22 35 23 37 24 38
REMARK H PARENT 4 21 18 31 22 36
ROOT
ATOM      1  C   UNL     1      43.626 132.780  16.414  1.00  0.00     0.027 C 
ATOM      2  C   UNL     1      42.925 131.961  17.516  1.00  0.00     0.024 C 
ATOM      3  C   UNL     1      42.936 132.464  15.075  1.00  0.00     0.024 C 
ENDROOT
BRANCH   1   4
ATOM      4  S   UNL     1      43.381 134.574  16.833  1.00  0.00    -0.119 SA
BRANCH   4   5
ATOM      5  C   UNL     1      43.256 134.451  18.633  1.00  0.00     0.008 A 
ATOM      6  C   UNL     1      40.078 134.547  21.479  1.00  0.00    -0.000 A 
ATOM      7  C   UNL     1      39.854 134.470  20.070  1.00  0.00     0.018 A 
ATOM      8  C   UNL     1      41.281 134.014  22.048  1.00  0.00    -0.040 A 
ATOM      9  C   UNL     1      40.836 134.507  19.042  1.00  0.00     0.039 A 
ATOM     10  C   UNL     1      42.144 133.182  21.358  1.00  0.00     0.007 A 
ATOM     11  C   UNL     1      42.013 134.582  23.233  1.00  0.00     0.041 C 
ATOM     12  C   UNL     1      42.137 134.989  19.282  1.00  0.00     0.025 A 
ATOM     13  C   UNL     1      43.437 133.528  21.661  1.00  0.00    -0.047 A 
ATOM     14  C   UNL     1      43.489 134.265  22.954  1.00  0.00     0.040 C 
ATOM     15  C   UNL     1      44.474 133.619  20.717  1.00  0.00     0.005 A 
ATOM     16  C   UNL     1      44.345 133.864  19.329  1.00  0.00     0.015 A 
BRANCH   6  17
ATOM     17  C   UNL     1      38.946 135.105  22.387  1.00  0.00     0.155 C 
BRANCH  17  18
ATOM     18  C   UNL     1      37.689 134.396  22.030  1.00  0.00    -0.066 C 
ATOM     19  C   UNL     1      36.676 133.816  21.725  1.00  0.00     0.007 C 
ENDBRANCH  17  18
BRANCH  17  20
ATOM     20  O   UNL     1      39.246 134.778  23.728  1.00  0.00    -0.373 OA
ATOM     21  H   UNL     1      39.628 135.570  24.192  1.00  0.00     0.213 HD
ENDBRANCH  17  20
BRANCH  17  22
ATOM     22  C   UNL     1      38.766 136.689  22.258  1.00  0.00     0.006 C 
ATOM     23  C   UNL     1      37.825 137.049  21.074  1.00  0.00     0.015 C 
ATOM     24  C   UNL     1      40.113 137.430  22.031  1.00  0.00     0.015 C 
ATOM     25  C   UNL     1      38.127 137.268  23.543  1.00  0.00     0.015 C 
ENDBRANCH  17  22
ENDBRANCH   6  17
BRANCH   9  26
ATOM     26  N   UNL     1      40.522 133.934  17.756  1.00  0.00    -0.061 NA
BRANCH  26  27
ATOM     27  N   UNL     1      39.372 133.900  17.322  1.00  0.00     0.005 N 
ATOM     28  N   UNL     1      38.220 133.866  16.895  1.00  0.00    -0.003 NA
ENDBRANCH  26  27
ENDBRANCH   9  26
ENDBRANCH   4   5
ENDBRANCH   1   4
BRANCH   1  29
ATOM     29  C   UNL     1      45.123 132.367  16.332  1.00  0.00     0.098 C 
BRANCH  29  30
ATOM     30  N   UNL     1      45.619 132.424  14.944  1.00  0.00    -0.312 NA
ATOM     31  H   UNL     1      44.847 132.096  14.316  1.00  0.00     0.122 HD
BRANCH  30  32
ATOM     32  C   UNL     1      46.763 131.523  14.729  1.00  0.00     0.120 C 
BRANCH  32  33
ATOM     33  C   UNL     1      46.369 130.242  13.936  1.00  0.00     0.092 C 
ATOM     34  C   UNL     1      47.541 129.244  13.853  1.00  0.00     0.048 C 
BRANCH  33  35
ATOM     35  O   UNL     1      46.068 130.615  12.610  1.00  0.00    -0.385 OA
ATOM     36  H   UNL     1      45.650 129.839  12.151  1.00  0.00     0.211 HD
ENDBRANCH  33  35
BRANCH  33  37
ATOM     37  C   UNL     1      45.138 129.572  14.540  1.00  0.00     0.001 C 
ATOM     38  C   UNL     1      45.189 128.699  15.561  1.00  0.00     0.007 C 
ENDBRANCH  33  37
ENDBRANCH  32  33
ENDBRANCH  30  32
ENDBRANCH  29  30
ENDBRANCH   1  29
TORSDOF 14
ENDMDL
MODEL 3
REMARK VINA RESULT:      -5.5      2.484      3.604
REMARK SMILES C#C[C@@](O)(c1cc(N=[N+]=[N-])cc(SC(C)(C)CNC[C@](C)(O)C=C)ccc2cc1CC2)C(C)(C)C
REMARK SMILES IDX 14 1 15 2 16 3 13 4 12 5 5 6 6 7 29 8 7 9 28 10 30 11 11 12
REMARK SMILES IDX 27 13 31 14 26 15 25 16 3 17 2 18 1 19 4 20 32 22 33 23
REMARK SMILES IDX 34 24 35 25 8 26 9 27 10 28 17 29 18 30 19 32 20 33 21 34
REMARK SMILES IDX 22 35 23 37 24 38
REMARK H PARENT 4 21 18 31 22 36
ROOT
ATOM      1  C   UNL     1      43.784 132.889  20.113  1.00  0.00     0.027 C 
ATOM      2  C   UNL     1      44.022 133.073  21.625  1.00  0.00     0.024 C 
ATOM      3  C   UNL     1      42.429 132.183  19.926  1.00  0.00     0.024 C 
ENDROOT
BRANCH   1   4
ATOM      4  S   UNL     1      43.707 134.590  19.367  1.00  0.00    -0.119 SA
BRANCH   4   5
ATOM      5  C   UNL     1      41.929 134.896  19.490  1.00  0.00     0.008 A 
ATOM      6  C   UNL     1      38.655 134.981  16.755  1.00  0.00    -0.000 A 
ATOM      7  C   UNL     1      39.954 134.506  16.395  1.00  0.00     0.018 A 
ATOM      8  C   UNL     1      38.207 134.892  18.113  1.00  0.00    -0.040 A 
ATOM      9  C   UNL     1      41.123 134.506  17.205  1.00  0.00     0.039 A 
ATOM     10  C   UNL     1      38.845 134.131  19.076  1.00  0.00     0.007 A 
ATOM     11  C   UNL     1      37.317 135.888  18.806  1.00  0.00     0.041 C 
ATOM     12  C   UNL     1      41.223 135.313  18.354  1.00  0.00     0.025 A 
ATOM     13  C   UNL     1      38.854 134.824  20.261  1.00  0.00    -0.047 A 
ATOM     14  C   UNL     1      37.778 135.853  20.270  1.00  0.00     0.040 C 
ATOM     15  C   UNL     1      39.963 134.908  21.120  1.00  0.00     0.005 A 
ATOM     16  C   UNL     1      41.327 134.763  20.769  1.00  0.00     0.015 A 
BRANCH   6  17
ATOM     17  C   UNL     1      37.703 135.479  15.631  1.00  0.00     0.155 C 
BRANCH  17  18
ATOM     18  C   UNL     1      38.012 134.703  14.400  1.00  0.00    -0.066 C 
ATOM     19  C   UNL     1      38.246 134.068  13.402  1.00  0.00     0.007 C 
ENDBRANCH  17  18
BRANCH  17  20
ATOM     20  O   UNL     1      36.375 135.169  16.001  1.00  0.00    -0.373 OA
ATOM     21  H   UNL     1      36.364 134.741  16.898  1.00  0.00     0.213 HD
ENDBRANCH  17  20
BRANCH  17  22
ATOM     22  C   UNL     1      37.822 137.050  15.362  1.00  0.00     0.006 C 
ATOM     23  C   UNL     1      36.553 137.799  15.858  1.00  0.00     0.015 C 
ATOM     24  C   UNL     1      38.010 137.390  13.858  1.00  0.00     0.015 C 
ATOM     25  C   UNL     1      39.030 137.641  16.128  1.00  0.00     0.015 C 
ENDBRANCH  17  22
ENDBRANCH   6  17
BRANCH   9  26
ATOM     26  N   UNL     1      42.181 133.574  16.903  1.00  0.00    -0.061 NA
BRANCH  26  27
ATOM     27  N   UNL     1      43.067 133.837  16.092  1.00  0.00     0.005 N 
ATOM     28  N   UNL     1      43.949 134.105  15.279  1.00  0.00    -0.003 NA
ENDBRANCH  26  27
ENDBRANCH   9  26
ENDBRANCH   4   5
ENDBRANCH   1   4
BRANCH   1  29
ATOM     29  C   UNL     1      44.913 132.006  19.512  1.00  0.00     0.098 C 
BRANCH  29  30
ATOM     30  N   UNL     1      44.643 131.679  18.099  1.00  0.00    -0.312 NA
ATOM     31  H   UNL     1      43.658 131.325  18.037  1.00  0.00     0.122 HD
BRANCH  30  32
ATOM     32  C   UNL     1      45.519 130.605  17.603  1.00  0.00     0.120 C 
BRANCH  32  33
ATOM     33  C   UNL     1      45.500 130.492  16.050  1.00  0.00     0.092 C 
ATOM     34  C   UNL     1      44.060 130.487  15.501  1.00  0.00     0.048 C 
BRANCH  33  35
ATOM     35  O   UNL     1      46.069 129.253  15.688  1.00  0.00    -0.385 OA
ATOM     36  H   UNL     1      45.678 128.970  14.819  1.00  0.00     0.211 HD
ENDBRANCH  33  35
BRANCH  33  37
ATOM     37  C   UNL     1      46.316 131.606  15.403  1.00  0.00     0.001 C 
ATOM     38  C   UNL     1      47.058 131.441  14.294  1.00  0.00     0.007 C 
ENDBRANCH  33  37
ENDBRANCH  32  33
ENDBRANCH  30  32
ENDBRANCH  29  30
ENDBRANCH   1  29
TORSDOF 14
ENDMDL
MODEL 4
REMARK VINA RESULT:      -5.5      3.053      6.858
REMARK SMILES C#C[C@@](O)(c1cc(N=[N+]=[N-])cc(SC(C)(C)CNC[C@](C)(O)C=C)ccc2cc1CC2)C(C)(C)C
REMARK SMILES IDX 14 1 15 2 16 3 13 4 12 5 5 6 6 7 29 8 7 9 28 10 30 11 11 12
REMARK SMILES IDX 27 13 31 14 26 15 25 16 3 17 2 18 1 19 4 20 32 22 33 23
REMARK SMILES IDX 34 24 35 25 8 26 9 27 10 28 17 29 18 30 19 32 20 33 21 34
REMARK SMILES IDX 22 35 23 37 24 38
REMARK H PARENT 4 21 18 31 22 36
ROOT
ATOM      1  C   UNL     1      43.858 132.400  15.558  1.00  0.00     0.027 C 
ATOM      2  C   UNL     1      45.329 132.556  15.992  1.00  0.00     0.024 C 
ATOM      3  C   UNL     1      43.814 131.424  14.368  1.00  0.00     0.024 C 
ENDROOT
BRANCH   1   4
ATOM      4  S   UNL     1      42.943 131.666  17.000  1.00  0.00    -0.119 SA
BRANCH   4   5
ATOM      5  C   UNL     1      43.873 132.411  18.361  1.00  0.00     0.008 A 
ATOM      6  C   UNL     1      43.710 136.098  20.503  1.00  0.00    -0.000 A 
ATOM      7  C   UNL     1      42.697 135.691  19.582  1.00  0.00     0.018 A 
ATOM      8  C   UNL     1      44.486 135.115  21.201  1.00  0.00    -0.040 A 
ATOM      9  C   UNL     1      42.694 134.526  18.768  1.00  0.00     0.039 A 
ATOM     10  C   UNL     1      44.149 133.774  21.248  1.00  0.00     0.007 A 
ATOM     11  C   UNL     1      45.934 135.255  21.584  1.00  0.00     0.041 C 
ATOM     12  C   UNL     1      43.875 133.804  18.509  1.00  0.00     0.025 A 
ATOM     13  C   UNL     1      45.290 133.021  21.131  1.00  0.00    -0.047 A 
ATOM     14  C   UNL     1      46.484 133.824  21.514  1.00  0.00     0.040 C 
ATOM     15  C   UNL     1      45.400 131.868  20.334  1.00  0.00     0.005 A 
ATOM     16  C   UNL     1      44.628 131.544  19.193  1.00  0.00     0.015 A 
BRANCH   6  17
ATOM     17  C   UNL     1      43.869 137.611  20.821  1.00  0.00     0.155 C 
BRANCH  17  18
ATOM     18  C   UNL     1      42.524 138.237  20.725  1.00  0.00    -0.066 C 
ATOM     19  C   UNL     1      41.439 138.758  20.639  1.00  0.00     0.007 C 
ENDBRANCH  17  18
BRANCH  17  20
ATOM     20  O   UNL     1      44.300 137.744  22.160  1.00  0.00    -0.373 OA
ATOM     21  H   UNL     1      45.290 137.676  22.206  1.00  0.00     0.213 HD
ENDBRANCH  17  20
BRANCH  17  22
ATOM     22  C   UNL     1      44.912 138.345  19.856  1.00  0.00     0.006 C 
ATOM     23  C   UNL     1      46.190 138.768  20.634  1.00  0.00     0.015 C 
ATOM     24  C   UNL     1      44.323 139.620  19.192  1.00  0.00     0.015 C 
ATOM     25  C   UNL     1      45.362 137.394  18.721  1.00  0.00     0.015 C 
ENDBRANCH  17  22
ENDBRANCH   6  17
BRANCH   9  26
ATOM     26  N   UNL     1      41.435 134.010  18.291  1.00  0.00    -0.061 NA
BRANCH  26  27
ATOM     27  N   UNL     1      40.367 134.305  18.824  1.00  0.00     0.005 N 
ATOM     28  N   UNL     1      39.300 134.607  19.355  1.00  0.00    -0.003 NA
ENDBRANCH  26  27
ENDBRANCH   9  26
ENDBRANCH   4   5
ENDBRANCH   1   4
BRANCH   1  29
ATOM     29  C   UNL     1      43.298 133.780  15.113  1.00  0.00     0.098 C 
BRANCH  29  30
ATOM     30  N   UNL     1      41.823 133.780  15.095  1.00  0.00    -0.312 NA
ATOM     31  H   UNL     1      41.506 132.784  15.009  1.00  0.00     0.122 HD
BRANCH  30  32
ATOM     32  C   UNL     1      41.285 134.505  13.933  1.00  0.00     0.120 C 
BRANCH  32  33
ATOM     33  C   UNL     1      39.834 135.019  14.172  1.00  0.00     0.092 C 
ATOM     34  C   UNL     1      39.152 135.426  12.852  1.00  0.00     0.048 C 
BRANCH  33  35
ATOM     35  O   UNL     1      39.901 136.184  14.963  1.00  0.00    -0.385 OA
ATOM     36  H   UNL     1      38.996 136.366  15.332  1.00  0.00     0.211 HD
ENDBRANCH  33  35
BRANCH  33  37
ATOM     37  C   UNL     1      38.994 133.981  14.911  1.00  0.00     0.001 C 
ATOM     38  C   UNL     1      38.113 134.286  15.879  1.00  0.00     0.007 C 
ENDBRANCH  33  37
ENDBRANCH  32  33
ENDBRANCH  30  32
ENDBRANCH  29  30
ENDBRANCH   1  29
TORSDOF 14
ENDMDL
MODEL 5
REMARK VINA RESULT:      -5.4      3.921      7.046
REMARK SMILES C#C[C@@](O)(c1cc(N=[N+]=[N-])cc(SC(C)(C)CNC[C@](C)(O)C=C)ccc2cc1CC2)C(C)(C)C
REMARK SMILES IDX 14 1 15 2 16 3 13 4 12 5 5 6 6 7 29 8 7 9 28 10 30 11 11 12
REMARK SMILES IDX 27 13 31 14 26 15 25 16 3 17 2 18 1 19 4 20 32 22 33 23
REMARK SMILES IDX 34 24 35 25 8 26 9 27 10 28 17 29 18 30 19 32 20 33 21 34
REMARK SMILES IDX 22 35 23 37 24 38
REMARK H PARENT 4 21 18 31 22 36
ROOT
ATOM      1  C   UNL     1      42.812 134.200  15.729  1.00  0.00     0.027 C 
ATOM      2  C   UNL     1      42.268 135.288  14.783  1.00  0.00     0.024 C 
ATOM      3  C   UNL     1      44.310 134.472  15.955  1.00  0.00     0.024 C 
ENDROOT
BRANCH   1   4
ATOM      4  S   UNL     1      41.898 134.376  17.338  1.00  0.00    -0.119 SA
BRANCH   4   5
ATOM      5  C   UNL     1      42.853 135.717  18.086  1.00  0.00     0.008 A 
ATOM      6  C   UNL     1      45.693 136.037  21.254  1.00  0.00    -0.000 A 
ATOM      7  C   UNL     1      45.238 134.781  20.745  1.00  0.00     0.018 A 
ATOM      8  C   UNL     1      45.714 137.193  20.408  1.00  0.00    -0.040 A 
ATOM      9  C   UNL     1      44.245 134.568  19.749  1.00  0.00     0.039 A 
ATOM     10  C   UNL     1      45.568 137.131  19.034  1.00  0.00     0.007 A 
ATOM     11  C   UNL     1      45.447 138.605  20.852  1.00  0.00     0.041 C 
ATOM     12  C   UNL     1      43.327 135.575  19.396  1.00  0.00     0.025 A 
ATOM     13  C   UNL     1      44.782 138.177  18.620  1.00  0.00    -0.047 A 
ATOM     14  C   UNL     1      44.791 139.268  19.633  1.00  0.00     0.040 C 
ATOM     15  C   UNL     1      43.758 138.067  17.662  1.00  0.00     0.005 A 
ATOM     16  C   UNL     1      43.028 136.902  17.324  1.00  0.00     0.015 A 
BRANCH   6  17
ATOM     17  C   UNL     1      46.274 136.093  22.696  1.00  0.00     0.155 C 
BRANCH  17  18
ATOM     18  C   UNL     1      45.457 137.060  23.475  1.00  0.00    -0.066 C 
ATOM     19  C   UNL     1      44.800 137.838  24.122  1.00  0.00     0.007 C 
ENDBRANCH  17  18
BRANCH  17  20
ATOM     20  O   UNL     1      46.108 134.824  23.294  1.00  0.00    -0.373 OA
ATOM     21  H   UNL     1      45.653 134.920  24.172  1.00  0.00     0.213 HD
ENDBRANCH  17  20
BRANCH  17  22
ATOM     22  C   UNL     1      47.821 136.493  22.729  1.00  0.00     0.006 C 
ATOM     23  C   UNL     1      48.495 136.231  21.353  1.00  0.00     0.015 C 
ATOM     24  C   UNL     1      48.623 135.705  23.803  1.00  0.00     0.015 C 
ATOM     25  C   UNL     1      47.985 138.000  23.039  1.00  0.00     0.015 C 
ENDBRANCH  17  22
ENDBRANCH   6  17
BRANCH   9  26
ATOM     26  N   UNL     1      44.255 133.331  19.008  1.00  0.00    -0.061 NA
BRANCH  26  27
ATOM     27  N   UNL     1      44.480 132.250  19.549  1.00  0.00     0.005 N 
ATOM     28  N   UNL     1      44.711 131.168  20.084  1.00  0.00    -0.003 NA
ENDBRANCH  26  27
ENDBRANCH   9  26
ENDBRANCH   4   5
ENDBRANCH   1   4
BRANCH   1  29
ATOM     29  C   UNL     1      42.635 132.803  15.072  1.00  0.00     0.098 C 
BRANCH  29  30
ATOM     30  N   UNL     1      43.719 131.883  15.468  1.00  0.00    -0.312 NA
ATOM     31  H   UNL     1      44.514 132.464  15.826  1.00  0.00     0.122 HD
BRANCH  30  32
ATOM     32  C   UNL     1      44.230 131.108  14.326  1.00  0.00     0.120 C 
BRANCH  32  33
ATOM     33  C   UNL     1      45.676 130.581  14.565  1.00  0.00     0.092 C 
ATOM     34  C   UNL     1      46.689 131.737  14.677  1.00  0.00     0.048 C 
BRANCH  33  35
ATOM     35  O   UNL     1      46.062 129.819  13.443  1.00  0.00    -0.385 OA
ATOM     36  H   UNL     1      46.784 129.194  13.721  1.00  0.00     0.211 HD
ENDBRANCH  33  35
BRANCH  33  37
ATOM     37  C   UNL     1      45.743 129.690  15.801  1.00  0.00     0.001 C 
ATOM     38  C   UNL     1      46.182 130.108  17.001  1.00  0.00     0.007 C 
ENDBRANCH  33  37
ENDBRANCH  32  33
ENDBRANCH  30  32
ENDBRANCH  29  30
ENDBRANCH   1  29
TORSDOF 14
ENDMDL
MODEL 6
REMARK VINA RESULT:      -5.2      3.381      7.110
REMARK SMILES C#C[C@@](O)(c1cc(N=[N+]=[N-])cc(SC(C)(C)CNC[C@](C)(O)C=C)ccc2cc1CC2)C(C)(C)C
REMARK SMILES IDX 14 1 15 2 16 3 13 4 12 5 5 6 6 7 29 8 7 9 28 10 30 11 11 12
REMARK SMILES IDX 27 13 31 14 26 15 25 16 3 17 2 18 1 19 4 20 32 22 33 23
REMARK SMILES IDX 34 24 35 25 8 26 9 27 10 28 17 29 18 30 19 32 20 33 21 34
REMARK SMILES IDX 22 35 23 37 24 38
REMARK H PARENT 4 21 18 31 22 36
ROOT
ATOM      1  C   UNL     1      43.634 132.699  15.559  1.00  0.00     0.027 C 
ATOM      2  C   UNL     1      45.053 133.054  16.046  1.00  0.00     0.024 C 
ATOM      3  C   UNL     1      43.765 131.680  14.413  1.00  0.00     0.024 C 
ENDROOT
BRANCH   1   4
ATOM      4  S   UNL     1      42.750 131.913  16.993  1.00  0.00    -0.119 SA
BRANCH   4   5
ATOM      5  C   UNL     1      43.798 132.491  18.350  1.00  0.00     0.008 A 
ATOM      6  C   UNL     1      43.845 135.892  20.926  1.00  0.00    -0.000 A 
ATOM      7  C   UNL     1      42.754 135.597  20.052  1.00  0.00     0.018 A 
ATOM      8  C   UNL     1      44.670 134.834  21.432  1.00  0.00    -0.040 A 
ATOM      9  C   UNL     1      42.674 134.537  19.107  1.00  0.00     0.039 A 
ATOM     10  C   UNL     1      44.328 133.497  21.346  1.00  0.00     0.007 A 
ATOM     11  C   UNL     1      46.146 134.932  21.704  1.00  0.00     0.041 C 
ATOM     12  C   UNL     1      43.823 133.856  18.664  1.00  0.00     0.025 A 
ATOM     13  C   UNL     1      45.450 132.767  21.043  1.00  0.00    -0.047 A 
ATOM     14  C   UNL     1      46.678 133.521  21.416  1.00  0.00     0.040 C 
ATOM     15  C   UNL     1      45.483 131.718  20.106  1.00  0.00     0.005 A 
ATOM     16  C   UNL     1      44.614 131.531  19.004  1.00  0.00     0.015 A 
BRANCH   6  17
ATOM     17  C   UNL     1      44.042 137.357  21.409  1.00  0.00     0.155 C 
BRANCH  17  18
ATOM     18  C   UNL     1      42.696 137.975  21.537  1.00  0.00    -0.066 C 
ATOM     19  C   UNL     1      41.601 138.475  21.624  1.00  0.00     0.007 C 
ENDBRANCH  17  18
BRANCH  17  20
ATOM     20  O   UNL     1      44.617 137.329  22.699  1.00  0.00    -0.373 OA
ATOM     21  H   UNL     1      45.445 137.878  22.713  1.00  0.00     0.213 HD
ENDBRANCH  17  20
BRANCH  17  22
ATOM     22  C   UNL     1      44.975 138.215  20.434  1.00  0.00     0.006 C 
ATOM     23  C   UNL     1      44.290 139.553  20.041  1.00  0.00     0.015 C 
ATOM     24  C   UNL     1      45.327 137.462  19.121  1.00  0.00     0.015 C 
ATOM     25  C   UNL     1      46.308 138.572  21.137  1.00  0.00     0.015 C 
ENDBRANCH  17  22
ENDBRANCH   6  17
BRANCH   9  26
ATOM     26  N   UNL     1      41.374 134.079  18.681  1.00  0.00    -0.061 NA
BRANCH  26  27
ATOM     27  N   UNL     1      40.537 134.846  18.209  1.00  0.00     0.005 N 
ATOM     28  N   UNL     1      39.705 135.616  17.733  1.00  0.00    -0.003 NA
ENDBRANCH  26  27
ENDBRANCH   9  26
ENDBRANCH   4   5
ENDBRANCH   1   4
BRANCH   1  29
ATOM     29  C   UNL     1      42.930 133.980  15.032  1.00  0.00     0.098 C 
BRANCH  29  30
ATOM     30  N   UNL     1      43.800 135.164  15.167  1.00  0.00    -0.312 NA
ATOM     31  H   UNL     1      44.710 134.845  15.578  1.00  0.00     0.122 HD
BRANCH  30  32
ATOM     32  C   UNL     1      43.235 136.162  16.089  1.00  0.00     0.120 C 
BRANCH  32  33
ATOM     33  C   UNL     1      42.639 137.392  15.342  1.00  0.00     0.092 C 
ATOM     34  C   UNL     1      41.167 137.158  14.952  1.00  0.00     0.048 C 
BRANCH  33  35
ATOM     35  O   UNL     1      43.349 137.566  14.136  1.00  0.00    -0.385 OA
ATOM     36  H   UNL     1      42.735 137.372  13.379  1.00  0.00     0.211 HD
ENDBRANCH  33  35
BRANCH  33  37
ATOM     37  C   UNL     1      42.777 138.665  16.172  1.00  0.00     0.001 C 
ATOM     38  C   UNL     1      41.933 139.007  17.160  1.00  0.00     0.007 C 
ENDBRANCH  33  37
ENDBRANCH  32  33
ENDBRANCH  30  32
ENDBRANCH  29  30
ENDBRANCH   1  29
TORSDOF 14
ENDMDL
MODEL 7
REMARK VINA RESULT:      -5.2      3.218      6.805
REMARK SMILES C#C[C@@](O)(c1cc(N=[N+]=[N-])cc(SC(C)(C)CNC[C@](C)(O)C=C)ccc2cc1CC2)C(C)(C)C
REMARK SMILES IDX 14 1 15 2 16 3 13 4 12 5 5 6 6 7 29 8 7 9 28 10 30 11 11 12
REMARK SMILES IDX 27 13 31 14 26 15 25 16 3 17 2 18 1 19 4 20 32 22 33 23
REMARK SMILES IDX 34 24 35 25 8 26 9 27 10 28 17 29 18 30 19 32 20 33 21 34
REMARK SMILES IDX 22 35 23 37 24 38
REMARK H PARENT 4 21 18 31 22 36
ROOT
ATOM      1  C   UNL     1      44.255 131.459  15.894  1.00  0.00     0.027 C 
ATOM      2  C   UNL     1      45.548 132.128  16.399  1.00  0.00     0.024 C 
ATOM      3  C   UNL     1      44.623 130.074  15.331  1.00  0.00     0.024 C 
ENDROOT
BRANCH   1   4
ATOM      4  S   UNL     1      43.140 131.255  17.368  1.00  0.00    -0.119 SA
BRANCH   4   5
ATOM      5  C   UNL     1      44.149 132.072  18.627  1.00  0.00     0.008 A 
ATOM      6  C   UNL     1      44.026 135.813  20.675  1.00  0.00    -0.000 A 
ATOM      7  C   UNL     1      42.956 135.345  19.851  1.00  0.00     0.018 A 
ATOM      8  C   UNL     1      44.890 134.878  21.334  1.00  0.00    -0.040 A 
ATOM      9  C   UNL     1      42.930 134.156  19.072  1.00  0.00     0.039 A 
ATOM     10  C   UNL     1      44.606 133.529  21.445  1.00  0.00     0.007 A 
ATOM     11  C   UNL     1      46.358 135.079  21.593  1.00  0.00     0.041 C 
ATOM     12  C   UNL     1      44.112 133.468  18.737  1.00  0.00     0.025 A 
ATOM     13  C   UNL     1      45.761 132.812  21.255  1.00  0.00    -0.047 A 
ATOM     14  C   UNL     1      46.953 133.666  21.517  1.00  0.00     0.040 C 
ATOM     15  C   UNL     1      45.848 131.640  20.483  1.00  0.00     0.005 A 
ATOM     16  C   UNL     1      44.999 131.255  19.419  1.00  0.00     0.015 A 
BRANCH   6  17
ATOM     17  C   UNL     1      44.155 137.340  20.937  1.00  0.00     0.155 C 
BRANCH  17  18
ATOM     18  C   UNL     1      42.783 137.914  20.950  1.00  0.00    -0.066 C 
ATOM     19  C   UNL     1      41.669 138.375  20.976  1.00  0.00     0.007 C 
ENDBRANCH  17  18
BRANCH  17  20
ATOM     20  O   UNL     1      44.701 137.527  22.227  1.00  0.00    -0.373 OA
ATOM     21  H   UNL     1      45.026 136.660  22.586  1.00  0.00     0.213 HD
ENDBRANCH  17  20
BRANCH  17  22
ATOM     22  C   UNL     1      45.076 138.082  19.862  1.00  0.00     0.006 C 
ATOM     23  C   UNL     1      46.561 138.106  20.322  1.00  0.00     0.015 C 
ATOM     24  C   UNL     1      44.639 139.551  19.607  1.00  0.00     0.015 C 
ATOM     25  C   UNL     1      45.030 137.340  18.505  1.00  0.00     0.015 C 
ENDBRANCH  17  22
ENDBRANCH   6  17
BRANCH   9  26
ATOM     26  N   UNL     1      41.656 133.584  18.713  1.00  0.00    -0.061 NA
BRANCH  26  27
ATOM     27  N   UNL     1      40.594 134.149  18.969  1.00  0.00     0.005 N 
ATOM     28  N   UNL     1      39.536 134.720  19.226  1.00  0.00    -0.003 NA
ENDBRANCH  26  27
ENDBRANCH   9  26
ENDBRANCH   4   5
ENDBRANCH   1   4
BRANCH   1  29
ATOM     29  C   UNL     1      43.628 132.324  14.765  1.00  0.00     0.098 C 
BRANCH  29  30
ATOM     30  N   UNL     1      42.213 132.631  15.047  1.00  0.00    -0.312 NA
ATOM     31  H   UNL     1      41.626 132.035  14.415  1.00  0.00     0.122 HD
BRANCH  30  32
ATOM     32  C   UNL     1      41.882 134.033  14.748  1.00  0.00     0.120 C 
BRANCH  32  33
ATOM     33  C   UNL     1      40.408 134.385  15.105  1.00  0.00     0.092 C 
ATOM     34  C   UNL     1      40.301 135.775  15.762  1.00  0.00     0.048 C 
BRANCH  33  35
ATOM     35  O   UNL     1      39.949 133.456  16.061  1.00  0.00    -0.385 OA
ATOM     36  H   UNL     1      40.724 133.159  16.608  1.00  0.00     0.211 HD
ENDBRANCH  33  35
BRANCH  33  37
ATOM     37  C   UNL     1      39.505 134.302  13.878  1.00  0.00     0.001 C 
ATOM     38  C   UNL     1      38.179 134.091  13.939  1.00  0.00     0.007 C 
ENDBRANCH  33  37
ENDBRANCH  32  33
ENDBRANCH  30  32
ENDBRANCH  29  30
ENDBRANCH   1  29
TORSDOF 14
ENDMDL
MODEL 8
REMARK VINA RESULT:      -5.0      3.933      6.856
REMARK SMILES C#C[C@@](O)(c1cc(N=[N+]=[N-])cc(SC(C)(C)CNC[C@](C)(O)C=C)ccc2cc1CC2)C(C)(C)C
REMARK SMILES IDX 14 1 15 2 16 3 13 4 12 5 5 6 6 7 29 8 7 9 28 10 30 11 11 12
REMARK SMILES IDX 27 13 31 14 26 15 25 16 3 17 2 18 1 19 4 20 32 22 33 23
REMARK SMILES IDX 34 24 35 25 8 26 9 27 10 28 17 29 18 30 19 32 20 33 21 34
REMARK SMILES IDX 22 35 23 37 24 38
REMARK H PARENT 4 21 18 31 22 36
ROOT
ATOM      1  C   UNL     1      43.296 132.935  15.893  1.00  0.00     0.027 C 
ATOM      2  C   UNL     1      42.535 133.207  14.581  1.00  0.00     0.024 C 
ATOM      3  C   UNL     1      44.677 133.609  15.791  1.00  0.00     0.024 C 
ENDROOT
BRANCH   1   4
ATOM      4  S   UNL     1      42.317 133.727  17.260  1.00  0.00    -0.119 SA
BRANCH   4   5
ATOM      5  C   UNL     1      43.567 133.731  18.567  1.00  0.00     0.008 A 
ATOM      6  C   UNL     1      45.145 136.636  21.265  1.00  0.00    -0.000 A 
ATOM      7  C   UNL     1      43.994 136.877  20.453  1.00  0.00     0.018 A 
ATOM      8  C   UNL     1      45.471 135.302  21.675  1.00  0.00    -0.040 A 
ATOM      9  C   UNL     1      43.437 136.008  19.475  1.00  0.00     0.039 A 
ATOM     10  C   UNL     1      44.596 134.236  21.560  1.00  0.00     0.007 A 
ATOM     11  C   UNL     1      46.862 134.759  21.855  1.00  0.00     0.041 C 
ATOM     12  C   UNL     1      44.175 134.939  18.932  1.00  0.00     0.025 A 
ATOM     13  C   UNL     1      45.295 133.126  21.156  1.00  0.00    -0.047 A 
ATOM     14  C   UNL     1      46.741 133.276  21.478  1.00  0.00     0.040 C 
ATOM     15  C   UNL     1      44.846 132.220  20.179  1.00  0.00     0.005 A 
ATOM     16  C   UNL     1      43.932 132.481  19.130  1.00  0.00     0.015 A 
BRANCH   6  17
ATOM     17  C   UNL     1      45.958 137.853  21.790  1.00  0.00     0.155 C 
BRANCH  17  18
ATOM     18  C   UNL     1      44.991 138.835  22.350  1.00  0.00    -0.066 C 
ATOM     19  C   UNL     1      44.210 139.625  22.820  1.00  0.00     0.007 C 
ENDBRANCH  17  18
BRANCH  17  20
ATOM     20  O   UNL     1      46.778 137.417  22.854  1.00  0.00    -0.373 OA
ATOM     21  H   UNL     1      47.734 137.567  22.629  1.00  0.00     0.213 HD
ENDBRANCH  17  20
BRANCH  17  22
ATOM     22  C   UNL     1      46.870 138.527  20.663  1.00  0.00     0.006 C 
ATOM     23  C   UNL     1      46.028 139.459  19.747  1.00  0.00     0.015 C 
ATOM     24  C   UNL     1      47.572 137.482  19.753  1.00  0.00     0.015 C 
ATOM     25  C   UNL     1      47.975 139.397  21.310  1.00  0.00     0.015 C 
ENDBRANCH  17  22
ENDBRANCH   6  17
BRANCH   9  26
ATOM     26  N   UNL     1      42.049 136.160  19.116  1.00  0.00    -0.061 NA
BRANCH  26  27
ATOM     27  N   UNL     1      41.155 136.169  19.961  1.00  0.00     0.005 N 
ATOM     28  N   UNL     1      40.263 136.170  20.807  1.00  0.00    -0.003 NA
ENDBRANCH  26  27
ENDBRANCH   9  26
ENDBRANCH   4   5
ENDBRANCH   1   4
BRANCH   1  29
ATOM     29  C   UNL     1      43.483 131.404  16.079  1.00  0.00     0.098 C 
BRANCH  29  30
ATOM     30  N   UNL     1      44.460 130.862  15.116  1.00  0.00    -0.312 NA
ATOM     31  H   UNL     1      44.366 129.818  15.120  1.00  0.00     0.122 HD
BRANCH  30  32
ATOM     32  C   UNL     1      45.846 131.172  15.501  1.00  0.00     0.120 C 
BRANCH  32  33
ATOM     33  C   UNL     1      46.867 130.830  14.375  1.00  0.00     0.092 C 
ATOM     34  C   UNL     1      47.903 129.792  14.847  1.00  0.00     0.048 C 
BRANCH  33  35
ATOM     35  O   UNL     1      47.589 132.000  14.060  1.00  0.00    -0.385 OA
ATOM     36  H   UNL     1      48.543 131.755  13.930  1.00  0.00     0.211 HD
ENDBRANCH  33  35
BRANCH  33  37
ATOM     37  C   UNL     1      46.159 130.345  13.114  1.00  0.00     0.001 C 
ATOM     38  C   UNL     1      46.680 130.444  11.879  1.00  0.00     0.007 C 
ENDBRANCH  33  37
ENDBRANCH  32  33
ENDBRANCH  30  32
ENDBRANCH  29  30
ENDBRANCH   1  29
TORSDOF 14
ENDMDL
MODEL 9
REMARK VINA RESULT:      -5.0      3.520      6.574
REMARK SMILES C#C[C@@](O)(c1cc(N=[N+]=[N-])cc(SC(C)(C)CNC[C@](C)(O)C=C)ccc2cc1CC2)C(C)(C)C
REMARK SMILES IDX 14 1 15 2 16 3 13 4 12 5 5 6 6 7 29 8 7 9 28 10 30 11 11 12
REMARK SMILES IDX 27 13 31 14 26 15 25 16 3 17 2 18 1 19 4 20 32 22 33 23
REMARK SMILES IDX 34 24 35 25 8 26 9 27 10 28 17 29 18 30 19 32 20 33 21 34
REMARK SMILES IDX 22 35 23 37 24 38
REMARK H PARENT 4 21 18 31 22 36
ROOT
ATOM      1  C   UNL     1      45.268 131.120  15.606  1.00  0.00     0.027 C 
ATOM      2  C   UNL     1      46.434 130.258  16.128  1.00  0.00     0.024 C 
ATOM      3  C   UNL     1      44.944 130.665  14.171  1.00  0.00     0.024 C 
ENDROOT
BRANCH   1   4
ATOM      4  S   UNL     1      43.810 130.784  16.710  1.00  0.00    -0.119 SA
BRANCH   4   5
ATOM      5  C   UNL     1      44.410 131.535  18.242  1.00  0.00     0.008 A 
ATOM      6  C   UNL     1      42.896 134.381  21.037  1.00  0.00    -0.000 A 
ATOM      7  C   UNL     1      42.097 133.817  19.995  1.00  0.00     0.018 A 
ATOM      8  C   UNL     1      43.998 133.642  21.580  1.00  0.00    -0.040 A 
ATOM      9  C   UNL     1      42.524 132.924  18.974  1.00  0.00     0.039 A 
ATOM     10  C   UNL     1      44.196 132.293  21.348  1.00  0.00     0.007 A 
ATOM     11  C   UNL     1      45.290 134.236  22.070  1.00  0.00     0.041 C 
ATOM     12  C   UNL     1      43.886 132.766  18.655  1.00  0.00     0.025 A 
ATOM     13  C   UNL     1      45.536 132.063  21.159  1.00  0.00    -0.047 A 
ATOM     14  C   UNL     1      46.342 133.161  21.761  1.00  0.00     0.040 C 
ATOM     15  C   UNL     1      46.062 131.221  20.164  1.00  0.00     0.005 A 
ATOM     16  C   UNL     1      45.451 130.866  18.937  1.00  0.00     0.015 A 
BRANCH   6  17
ATOM     17  C   UNL     1      42.473 135.747  21.648  1.00  0.00     0.155 C 
BRANCH  17  18
ATOM     18  C   UNL     1      42.605 135.641  23.126  1.00  0.00    -0.066 C 
ATOM     19  C   UNL     1      42.704 135.571  24.326  1.00  0.00     0.007 C 
ENDBRANCH  17  18
BRANCH  17  20
ATOM     20  O   UNL     1      43.387 136.732  21.214  1.00  0.00    -0.373 OA
ATOM     21  H   UNL     1      43.058 137.155  20.378  1.00  0.00     0.213 HD
ENDBRANCH  17  20
BRANCH  17  22
ATOM     22  C   UNL     1      40.992 136.184  21.235  1.00  0.00     0.006 C 
ATOM     23  C   UNL     1      40.607 137.540  21.890  1.00  0.00     0.015 C 
ATOM     24  C   UNL     1      39.919 135.139  21.650  1.00  0.00     0.015 C 
ATOM     25  C   UNL     1      40.890 136.371  19.702  1.00  0.00     0.015 C 
ENDBRANCH  17  22
ENDBRANCH   6  17
BRANCH   9  26
ATOM     26  N   UNL     1      41.547 132.080  18.331  1.00  0.00    -0.061 NA
BRANCH  26  27
ATOM     27  N   UNL     1      40.482 132.525  17.907  1.00  0.00     0.005 N 
ATOM     28  N   UNL     1      39.419 132.967  17.475  1.00  0.00    -0.003 NA
ENDBRANCH  26  27
ENDBRANCH   9  26
ENDBRANCH   4   5
ENDBRANCH   1   4
BRANCH   1  29
ATOM     29  C   UNL     1      45.693 132.615  15.589  1.00  0.00     0.098 C 
BRANCH  29  30
ATOM     30  N   UNL     1      44.549 133.495  15.283  1.00  0.00    -0.312 NA
ATOM     31  H   UNL     1      44.648 133.812  14.289  1.00  0.00     0.122 HD
BRANCH  30  32
ATOM     32  C   UNL     1      44.542 134.704  16.123  1.00  0.00     0.120 C 
BRANCH  32  33
ATOM     33  C   UNL     1      43.344 135.645  15.800  1.00  0.00     0.092 C 
ATOM     34  C   UNL     1      42.027 134.856  15.655  1.00  0.00     0.048 C 
BRANCH  33  35
ATOM     35  O   UNL     1      43.583 136.255  14.551  1.00  0.00    -0.385 OA
ATOM     36  H   UNL     1      44.054 137.116  14.707  1.00  0.00     0.211 HD
ENDBRANCH  33  35
BRANCH  33  37
ATOM     37  C   UNL     1      43.199 136.739  16.853  1.00  0.00     0.001 C 
ATOM     38  C   UNL     1      44.081 136.941  17.846  1.00  0.00     0.007 C 
ENDBRANCH  33  37
ENDBRANCH  32  33
ENDBRANCH  30  32
ENDBRANCH  29  30
ENDBRANCH   1  29
TORSDOF 14
ENDMDL


