MODEL 1
REMARK VINA RESULT:      -6.2      0.000      0.000
REMARK SMILES C[C@@H](C#N)N(C)CCCCc1cn(-c2cc(N)c3c4c(cccc24)C(=O)[N-]3)nn1
REMARK SMILES IDX 8 1 7 2 5 3 6 4 2 5 1 6 3 7 4 8 9 9 10 10 11 11 12 12 29 13
REMARK SMILES IDX 13 14 28 15 14 16 15 17 24 18 16 19 23 20 19 21 18 22 22 23
REMARK SMILES IDX 20 24 27 25 21 26 25 27 26 28 17 29
REMARK H PARENT 17 30 17 31
ROOT
ATOM      1  C   UNL     1      44.973 129.892  16.361  1.00  0.00     0.016 C 
ENDROOT
BRANCH   1   2
ATOM      2  C   UNL     1      45.682 129.044  15.289  1.00  0.00     0.085 C 
BRANCH   2   3
ATOM      3  N   UNL     1      45.674 129.723  13.965  1.00  0.00    -0.291 NA
ATOM      4  C   UNL     1      44.554 130.693  13.923  1.00  0.00     0.106 C 
BRANCH   3   5
ATOM      5  C   UNL     1      46.966 130.411  13.663  1.00  0.00     0.157 C 
ATOM      6  C   UNL     1      48.184 129.668  14.238  1.00  0.00     0.041 C 
BRANCH   5   7
ATOM      7  C   UNL     1      47.179 130.514  12.203  1.00  0.00     0.081 C 
ATOM      8  N   UNL     1      47.347 130.595  11.061  1.00  0.00    -0.197 NA
ENDBRANCH   5   7
ENDBRANCH   3   5
ENDBRANCH   2   3
ENDBRANCH   1   2
BRANCH   1   9
ATOM      9  C   UNL     1      45.926 130.684  17.279  1.00  0.00     0.008 C 
BRANCH   9  10
ATOM     10  C   UNL     1      45.536 130.705  18.767  1.00  0.00     0.060 C 
BRANCH  10  11
ATOM     11  C   UNL     1      44.301 131.512  19.026  1.00  0.00     0.083 A 
ATOM     12  C   UNL     1      43.554 132.189  18.090  1.00  0.00     0.140 A 
ATOM     13  N   UNL     1      43.687 131.619  20.221  1.00  0.00    -0.135 NA
ATOM     14  N   UNL     1      42.483 132.672  18.744  1.00  0.00    -0.220 N 
ATOM     15  N   UNL     1      42.588 132.334  20.020  1.00  0.00    -0.062 NA
BRANCH  14  16
ATOM     16  C   UNL     1      41.404 133.431  18.173  1.00  0.00     0.076 A 
ATOM     17  C   UNL     1      40.461 134.062  19.034  1.00  0.00     0.053 A 
ATOM     18  C   UNL     1      41.253 133.570  16.766  1.00  0.00     0.007 A 
ATOM     19  C   UNL     1      39.371 134.804  18.518  1.00  0.00     0.019 A 
ATOM     20  C   UNL     1      42.142 133.096  15.770  1.00  0.00     0.011 A 
ATOM     21  C   UNL     1      40.154 134.287  16.319  1.00  0.00    -0.020 A 
ATOM     22  C   UNL     1      39.238 134.891  17.131  1.00  0.00    -0.102 A 
ATOM     23  C   UNL     1      41.870 133.343  14.400  1.00  0.00     0.001 A 
ATOM     24  C   UNL     1      39.878 134.529  15.012  1.00  0.00     0.006 A 
ATOM     25  N   UNL     1      38.245 135.598  16.376  1.00  0.00    -0.620 NA
ATOM     26  C   UNL     1      40.722 134.066  14.007  1.00  0.00     0.011 A 
ATOM     27  C   UNL     1      38.672 135.351  15.026  1.00  0.00     0.086 C 
ATOM     28  O   UNL     1      38.081 135.796  14.009  1.00  0.00    -0.315 OA
BRANCH  19  29
ATOM     29  N   UNL     1      38.436 135.440  19.393  1.00  0.00    -0.400 N 
ATOM     30  H   UNL     1      37.668 136.036  19.010  1.00  0.00     0.156 HD
ATOM     31  H   UNL     1      38.503 135.318  20.425  1.00  0.00     0.156 HD
ENDBRANCH  19  29
ENDBRANCH  14  16
ENDBRANCH  10  11
ENDBRANCH   9  10
ENDBRANCH   1   9
TORSDOF 9
ENDMDL
MODEL 2
REMARK VINA RESULT:      -6.1      3.140      7.634
REMARK SMILES C[C@@H](C#N)N(C)CCCCc1cn(-c2cc(N)c3c4c(cccc24)C(=O)[N-]3)nn1
REMARK SMILES IDX 8 1 7 2 5 3 6 4 2 5 1 6 3 7 4 8 9 9 10 10 11 11 12 12 29 13
REMARK SMILES IDX 13 14 28 15 14 16 15 17 24 18 16 19 23 20 19 21 18 22 22 23
REMARK SMILES IDX 20 24 27 25 21 26 25 27 26 28 17 29
REMARK H PARENT 17 30 17 31
ROOT
ATOM      1  C   UNL     1      38.233 134.597  14.369  1.00  0.00     0.016 C 
ENDROOT
BRANCH   1   2
ATOM      2  C   UNL     1      39.092 135.860  14.176  1.00  0.00     0.085 C 
BRANCH   2   3
ATOM      3  N   UNL     1      38.720 136.586  12.930  1.00  0.00    -0.291 NA
ATOM      4  C   UNL     1      37.569 135.903  12.296  1.00  0.00     0.106 C 
BRANCH   3   5
ATOM      5  C   UNL     1      38.397 138.024  13.177  1.00  0.00     0.157 C 
ATOM      6  C   UNL     1      37.401 138.220  14.334  1.00  0.00     0.041 C 
BRANCH   5   7
ATOM      7  C   UNL     1      39.615 138.785  13.530  1.00  0.00     0.081 C 
ATOM      8  N   UNL     1      40.568 139.380  13.807  1.00  0.00    -0.197 NA
ENDBRANCH   5   7
ENDBRANCH   3   5
ENDBRANCH   2   3
ENDBRANCH   1   2
BRANCH   1   9
ATOM      9  C   UNL     1      37.640 134.442  15.784  1.00  0.00     0.008 C 
BRANCH   9  10
ATOM     10  C   UNL     1      38.249 135.362  16.854  1.00  0.00     0.060 C 
BRANCH  10  11
ATOM     11  C   UNL     1      39.257 134.659  17.711  1.00  0.00     0.083 A 
ATOM     12  C   UNL     1      40.322 133.907  17.272  1.00  0.00     0.140 A 
ATOM     13  N   UNL     1      39.315 134.739  19.055  1.00  0.00    -0.135 NA
ATOM     14  N   UNL     1      41.018 133.568  18.370  1.00  0.00    -0.220 N 
ATOM     15  N   UNL     1      40.392 134.062  19.428  1.00  0.00    -0.062 NA
BRANCH  14  16
ATOM     16  C   UNL     1      42.231 132.798  18.409  1.00  0.00     0.076 A 
ATOM     17  C   UNL     1      42.747 132.368  19.665  1.00  0.00     0.053 A 
ATOM     18  C   UNL     1      42.933 132.453  17.222  1.00  0.00     0.007 A 
ATOM     19  C   UNL     1      43.949 131.624  19.755  1.00  0.00     0.019 A 
ATOM     20  C   UNL     1      42.520 132.711  15.891  1.00  0.00     0.011 A 
ATOM     21  C   UNL     1      44.116 131.744  17.373  1.00  0.00    -0.020 A 
ATOM     22  C   UNL     1      44.626 131.331  18.570  1.00  0.00    -0.102 A 
ATOM     23  C   UNL     1      43.318 132.272  14.803  1.00  0.00     0.001 A 
ATOM     24  C   UNL     1      44.891 131.321  16.343  1.00  0.00     0.006 A 
ATOM     25  N   UNL     1      45.835 130.580  18.399  1.00  0.00    -0.620 NA
ATOM     26  C   UNL     1      44.523 131.570  15.024  1.00  0.00     0.011 A 
ATOM     27  C   UNL     1      45.986 130.588  16.970  1.00  0.00     0.086 C 
ATOM     28  O   UNL     1      46.932 130.028  16.360  1.00  0.00    -0.315 OA
BRANCH  19  29
ATOM     29  N   UNL     1      44.451 131.190  21.021  1.00  0.00    -0.400 N 
ATOM     30  H   UNL     1      43.827 130.705  21.705  1.00  0.00     0.156 HD
ATOM     31  H   UNL     1      45.447 131.348  21.282  1.00  0.00     0.156 HD
ENDBRANCH  19  29
ENDBRANCH  14  16
ENDBRANCH  10  11
ENDBRANCH   9  10
ENDBRANCH   1   9
TORSDOF 9
ENDMDL
MODEL 3
REMARK VINA RESULT:      -6.1      2.251      2.744
REMARK SMILES C[C@@H](C#N)N(C)CCCCc1cn(-c2cc(N)c3c4c(cccc24)C(=O)[N-]3)nn1
REMARK SMILES IDX 8 1 7 2 5 3 6 4 2 5 1 6 3 7 4 8 9 9 10 10 11 11 12 12 29 13
REMARK SMILES IDX 13 14 28 15 14 16 15 17 24 18 16 19 23 20 19 21 18 22 22 23
REMARK SMILES IDX 20 24 27 25 21 26 25 27 26 28 17 29
REMARK H PARENT 17 30 17 31
ROOT
ATOM      1  C   UNL     1      45.920 130.931  16.410  1.00  0.00     0.016 C 
ENDROOT
BRANCH   1   2
ATOM      2  C   UNL     1      46.145 129.617  15.640  1.00  0.00     0.085 C 
BRANCH   2   3
ATOM      3  N   UNL     1      46.053 129.825  14.169  1.00  0.00    -0.291 NA
ATOM      4  C   UNL     1      44.871 130.668  13.871  1.00  0.00     0.106 C 
BRANCH   3   5
ATOM      5  C   UNL     1      47.287 130.444  13.597  1.00  0.00     0.157 C 
ATOM      6  C   UNL     1      48.567 129.679  13.976  1.00  0.00     0.041 C 
BRANCH   5   7
ATOM      7  C   UNL     1      47.228 130.471  12.120  1.00  0.00     0.081 C 
ATOM      8  N   UNL     1      47.182 130.493  10.964  1.00  0.00    -0.197 NA
ENDBRANCH   5   7
ENDBRANCH   3   5
ENDBRANCH   2   3
ENDBRANCH   1   2
BRANCH   1   9
ATOM      9  C   UNL     1      44.797 130.866  17.465  1.00  0.00     0.008 C 
BRANCH   9  10
ATOM     10  C   UNL     1      44.858 131.951  18.553  1.00  0.00     0.060 C 
BRANCH  10  11
ATOM     11  C   UNL     1      44.027 133.152  18.214  1.00  0.00     0.083 A 
ATOM     12  C   UNL     1      43.173 133.281  17.144  1.00  0.00     0.140 A 
ATOM     13  N   UNL     1      43.933 134.262  18.973  1.00  0.00    -0.135 NA
ATOM     14  N   UNL     1      42.558 134.466  17.297  1.00  0.00    -0.220 N 
ATOM     15  N   UNL     1      43.037 135.045  18.388  1.00  0.00    -0.062 NA
BRANCH  14  16
ATOM     16  C   UNL     1      41.556 135.027  16.432  1.00  0.00     0.076 A 
ATOM     17  C   UNL     1      40.374 134.283  16.156  1.00  0.00     0.053 A 
ATOM     18  C   UNL     1      41.716 136.311  15.842  1.00  0.00     0.007 A 
ATOM     19  C   UNL     1      39.368 134.786  15.295  1.00  0.00     0.019 A 
ATOM     20  C   UNL     1      42.773 137.224  16.078  1.00  0.00     0.011 A 
ATOM     21  C   UNL     1      40.710 136.741  14.989  1.00  0.00    -0.020 A 
ATOM     22  C   UNL     1      39.575 136.037  14.709  1.00  0.00    -0.102 A 
ATOM     23  C   UNL     1      42.775 138.489  15.435  1.00  0.00     0.001 A 
ATOM     24  C   UNL     1      40.700 137.946  14.365  1.00  0.00     0.006 A 
ATOM     25  N   UNL     1      38.704 136.763  13.833  1.00  0.00    -0.620 NA
ATOM     26  C   UNL     1      41.730 138.861  14.563  1.00  0.00     0.011 A 
ATOM     27  C   UNL     1      39.443 137.977  13.624  1.00  0.00     0.086 C 
ATOM     28  O   UNL     1      39.043 138.929  12.906  1.00  0.00    -0.315 OA
BRANCH  19  29
ATOM     29  N   UNL     1      38.182 134.033  15.033  1.00  0.00    -0.400 N 
ATOM     30  H   UNL     1      37.611 133.648  15.818  1.00  0.00     0.156 HD
ATOM     31  H   UNL     1      37.865 133.859  14.056  1.00  0.00     0.156 HD
ENDBRANCH  19  29
ENDBRANCH  14  16
ENDBRANCH  10  11
ENDBRANCH   9  10
ENDBRANCH   1   9
TORSDOF 9
ENDMDL
MODEL 4
REMARK VINA RESULT:      -6.0      5.363      7.573
REMARK SMILES C[C@@H](C#N)N(C)CCCCc1cn(-c2cc(N)c3c4c(cccc24)C(=O)[N-]3)nn1
REMARK SMILES IDX 8 1 7 2 5 3 6 4 2 5 1 6 3 7 4 8 9 9 10 10 11 11 12 12 29 13
REMARK SMILES IDX 13 14 28 15 14 16 15 17 24 18 16 19 23 20 19 21 18 22 22 23
REMARK SMILES IDX 20 24 27 25 21 26 25 27 26 28 17 29
REMARK H PARENT 17 30 17 31
ROOT
ATOM      1  C   UNL     1      49.026 134.806  22.818  1.00  0.00     0.016 C 
ENDROOT
BRANCH   1   2
ATOM      2  C   UNL     1      49.033 135.891  23.911  1.00  0.00     0.085 C 
BRANCH   2   3
ATOM      3  N   UNL     1      49.869 137.057  23.514  1.00  0.00    -0.291 NA
ATOM      4  C   UNL     1      51.076 136.570  22.805  1.00  0.00     0.106 C 
BRANCH   3   5
ATOM      5  C   UNL     1      49.126 138.033  22.661  1.00  0.00     0.157 C 
ATOM      6  C   UNL     1      48.191 138.945  23.475  1.00  0.00     0.041 C 
BRANCH   5   7
ATOM      7  C   UNL     1      50.062 138.920  21.937  1.00  0.00     0.081 C 
ATOM      8  N   UNL     1      50.794 139.614  21.370  1.00  0.00    -0.197 NA
ENDBRANCH   5   7
ENDBRANCH   3   5
ENDBRANCH   2   3
ENDBRANCH   1   2
BRANCH   1   9
ATOM      9  C   UNL     1      47.721 134.736  22.000  1.00  0.00     0.008 C 
BRANCH   9  10
ATOM     10  C   UNL     1      46.486 134.251  22.776  1.00  0.00     0.060 C 
BRANCH  10  11
ATOM     11  C   UNL     1      45.446 133.645  21.883  1.00  0.00     0.083 A 
ATOM     12  C   UNL     1      45.276 133.892  20.541  1.00  0.00     0.140 A 
ATOM     13  N   UNL     1      44.572 132.689  22.257  1.00  0.00    -0.135 NA
ATOM     14  N   UNL     1      44.311 133.054  20.126  1.00  0.00    -0.220 N 
ATOM     15  N   UNL     1      43.891 132.353  21.169  1.00  0.00    -0.062 NA
BRANCH  14  16
ATOM     16  C   UNL     1      43.804 132.929  18.787  1.00  0.00     0.076 A 
ATOM     17  C   UNL     1      42.720 133.753  18.369  1.00  0.00     0.053 A 
ATOM     18  C   UNL     1      44.359 132.002  17.863  1.00  0.00     0.007 A 
ATOM     19  C   UNL     1      42.174 133.653  17.066  1.00  0.00     0.019 A 
ATOM     20  C   UNL     1      45.492 131.177  18.072  1.00  0.00     0.011 A 
ATOM     21  C   UNL     1      43.769 131.931  16.610  1.00  0.00    -0.020 A 
ATOM     22  C   UNL     1      42.726 132.709  16.198  1.00  0.00    -0.102 A 
ATOM     23  C   UNL     1      45.948 130.322  17.035  1.00  0.00     0.001 A 
ATOM     24  C   UNL     1      44.192 131.117  15.610  1.00  0.00     0.006 A 
ATOM     25  N   UNL     1      42.368 132.438  14.836  1.00  0.00    -0.620 NA
ATOM     26  C   UNL     1      45.292 130.283  15.786  1.00  0.00     0.011 A 
ATOM     27  C   UNL     1      43.316 131.417  14.482  1.00  0.00     0.086 C 
ATOM     28  O   UNL     1      43.373 130.874  13.349  1.00  0.00    -0.315 OA
BRANCH  19  29
ATOM     29  N   UNL     1      41.092 134.492  16.657  1.00  0.00    -0.400 N 
ATOM     30  H   UNL     1      40.974 135.447  17.064  1.00  0.00     0.156 HD
ATOM     31  H   UNL     1      40.405 134.167  15.944  1.00  0.00     0.156 HD
ENDBRANCH  19  29
ENDBRANCH  14  16
ENDBRANCH  10  11
ENDBRANCH   9  10
ENDBRANCH   1   9
TORSDOF 9
ENDMDL
MODEL 5
REMARK VINA RESULT:      -6.0      2.098      4.640
REMARK SMILES C[C@@H](C#N)N(C)CCCCc1cn(-c2cc(N)c3c4c(cccc24)C(=O)[N-]3)nn1
REMARK SMILES IDX 8 1 7 2 5 3 6 4 2 5 1 6 3 7 4 8 9 9 10 10 11 11 12 12 29 13
REMARK SMILES IDX 13 14 28 15 14 16 15 17 24 18 16 19 23 20 19 21 18 22 22 23
REMARK SMILES IDX 20 24 27 25 21 26 25 27 26 28 17 29
REMARK H PARENT 17 30 17 31
ROOT
ATOM      1  C   UNL     1      45.868 131.082  17.390  1.00  0.00     0.016 C 
ENDROOT
BRANCH   1   2
ATOM      2  C   UNL     1      45.308 130.828  18.802  1.00  0.00     0.085 C 
BRANCH   2   3
ATOM      3  N   UNL     1      44.696 132.058  19.374  1.00  0.00    -0.291 NA
ATOM      4  C   UNL     1      43.291 131.771  19.751  1.00  0.00     0.106 C 
BRANCH   3   5
ATOM      5  C   UNL     1      45.451 132.582  20.553  1.00  0.00     0.157 C 
ATOM      6  C   UNL     1      45.048 134.019  20.927  1.00  0.00     0.041 C 
BRANCH   5   7
ATOM      7  C   UNL     1      45.209 131.746  21.748  1.00  0.00     0.081 C 
ATOM      8  N   UNL     1      45.019 131.092  22.683  1.00  0.00    -0.197 NA
ENDBRANCH   5   7
ENDBRANCH   3   5
ENDBRANCH   2   3
ENDBRANCH   1   2
BRANCH   1   9
ATOM      9  C   UNL     1      45.596 129.945  16.384  1.00  0.00     0.008 C 
BRANCH   9  10
ATOM     10  C   UNL     1      44.701 130.325  15.192  1.00  0.00     0.060 C 
BRANCH  10  11
ATOM     11  C   UNL     1      44.084 131.682  15.346  1.00  0.00     0.083 A 
ATOM     12  C   UNL     1      42.884 131.971  15.954  1.00  0.00     0.140 A 
ATOM     13  N   UNL     1      44.669 132.840  14.982  1.00  0.00    -0.135 NA
ATOM     14  N   UNL     1      42.785 133.311  15.965  1.00  0.00    -0.220 N 
ATOM     15  N   UNL     1      43.854 133.813  15.366  1.00  0.00    -0.062 NA
BRANCH  14  16
ATOM     16  C   UNL     1      41.707 134.083  16.521  1.00  0.00     0.076 A 
ATOM     17  C   UNL     1      41.895 134.754  17.763  1.00  0.00     0.053 A 
ATOM     18  C   UNL     1      40.453 134.196  15.861  1.00  0.00     0.007 A 
ATOM     19  C   UNL     1      40.857 135.510  18.360  1.00  0.00     0.019 A 
ATOM     20  C   UNL     1      40.122 133.681  14.583  1.00  0.00     0.011 A 
ATOM     21  C   UNL     1      39.467 134.929  16.504  1.00  0.00    -0.020 A 
ATOM     22  C   UNL     1      39.630 135.571  17.697  1.00  0.00    -0.102 A 
ATOM     23  C   UNL     1      38.830 133.905  14.041  1.00  0.00     0.001 A 
ATOM     24  C   UNL     1      38.226 135.150  15.999  1.00  0.00     0.006 A 
ATOM     25  N   UNL     1      38.447 136.284  18.081  1.00  0.00    -0.620 NA
ATOM     26  C   UNL     1      37.862 134.646  14.754  1.00  0.00     0.011 A 
ATOM     27  C   UNL     1      37.564 135.999  16.983  1.00  0.00     0.086 C 
ATOM     28  O   UNL     1      36.388 136.437  16.896  1.00  0.00    -0.315 OA
BRANCH  19  29
ATOM     29  N   UNL     1      41.061 136.186  19.603  1.00  0.00    -0.400 N 
ATOM     30  H   UNL     1      41.181 135.647  20.490  1.00  0.00     0.156 HD
ATOM     31  H   UNL     1      41.097 137.226  19.645  1.00  0.00     0.156 HD
ENDBRANCH  19  29
ENDBRANCH  14  16
ENDBRANCH  10  11
ENDBRANCH   9  10
ENDBRANCH   1   9
TORSDOF 9
ENDMDL
MODEL 6
REMARK VINA RESULT:      -5.9      4.952      7.179
REMARK SMILES C[C@@H](C#N)N(C)CCCCc1cn(-c2cc(N)c3c4c(cccc24)C(=O)[N-]3)nn1
REMARK SMILES IDX 8 1 7 2 5 3 6 4 2 5 1 6 3 7 4 8 9 9 10 10 11 11 12 12 29 13
REMARK SMILES IDX 13 14 28 15 14 16 15 17 24 18 16 19 23 20 19 21 18 22 22 23
REMARK SMILES IDX 20 24 27 25 21 26 25 27 26 28 17 29
REMARK H PARENT 17 30 17 31
ROOT
ATOM      1  C   UNL     1      47.617 134.734  23.026  1.00  0.00     0.016 C 
ENDROOT
BRANCH   1   2
ATOM      2  C   UNL     1      48.118 136.161  23.319  1.00  0.00     0.085 C 
BRANCH   2   3
ATOM      3  N   UNL     1      48.171 136.984  22.080  1.00  0.00    -0.291 NA
ATOM      4  C   UNL     1      48.224 138.418  22.451  1.00  0.00     0.106 C 
BRANCH   3   5
ATOM      5  C   UNL     1      49.331 136.632  21.205  1.00  0.00     0.157 C 
ATOM      6  C   UNL     1      49.227 137.251  19.801  1.00  0.00     0.041 C 
BRANCH   5   7
ATOM      7  C   UNL     1      50.599 137.117  21.792  1.00  0.00     0.081 C 
ATOM      8  N   UNL     1      51.591 137.496  22.251  1.00  0.00    -0.197 NA
ENDBRANCH   5   7
ENDBRANCH   3   5
ENDBRANCH   2   3
ENDBRANCH   1   2
BRANCH   1   9
ATOM      9  C   UNL     1      46.206 134.432  23.568  1.00  0.00     0.008 C 
BRANCH   9  10
ATOM     10  C   UNL     1      45.064 135.209  22.893  1.00  0.00     0.060 C 
BRANCH  10  11
ATOM     11  C   UNL     1      44.329 134.386  21.878  1.00  0.00     0.083 A 
ATOM     12  C   UNL     1      44.377 134.539  20.512  1.00  0.00     0.140 A 
ATOM     13  N   UNL     1      43.574 133.307  22.162  1.00  0.00    -0.135 NA
ATOM     14  N   UNL     1      43.663 133.523  19.998  1.00  0.00    -0.220 N 
ATOM     15  N   UNL     1      43.179 132.805  21.000  1.00  0.00    -0.062 NA
BRANCH  14  16
ATOM     16  C   UNL     1      43.448 133.250  18.603  1.00  0.00     0.076 A 
ATOM     17  C   UNL     1      42.510 134.035  17.873  1.00  0.00     0.053 A 
ATOM     18  C   UNL     1      44.149 132.212  17.929  1.00  0.00     0.007 A 
ATOM     19  C   UNL     1      42.249 133.790  16.503  1.00  0.00     0.019 A 
ATOM     20  C   UNL     1      45.179 131.402  18.467  1.00  0.00     0.011 A 
ATOM     21  C   UNL     1      43.836 132.004  16.594  1.00  0.00    -0.020 A 
ATOM     22  C   UNL     1      42.934 132.743  15.884  1.00  0.00    -0.102 A 
ATOM     23  C   UNL     1      45.811 130.425  17.655  1.00  0.00     0.001 A 
ATOM     24  C   UNL     1      44.428 131.072  15.806  1.00  0.00     0.006 A 
ATOM     25  N   UNL     1      42.863 132.320  14.516  1.00  0.00    -0.620 NA
ATOM     26  C   UNL     1      45.433 130.249  16.306  1.00  0.00     0.011 A 
ATOM     27  C   UNL     1      43.823 131.251  14.490  1.00  0.00     0.086 C 
ATOM     28  O   UNL     1      44.099 130.579  13.463  1.00  0.00    -0.315 OA
BRANCH  19  29
ATOM     29  N   UNL     1      41.312 134.591  15.780  1.00  0.00    -0.400 N 
ATOM     30  H   UNL     1      40.302 134.325  15.739  1.00  0.00     0.156 HD
ATOM     31  H   UNL     1      41.618 135.454  15.283  1.00  0.00     0.156 HD
ENDBRANCH  19  29
ENDBRANCH  14  16
ENDBRANCH  10  11
ENDBRANCH   9  10
ENDBRANCH   1   9
TORSDOF 9
ENDMDL
MODEL 7
REMARK VINA RESULT:      -5.9      5.056      7.758
REMARK SMILES C[C@@H](C#N)N(C)CCCCc1cn(-c2cc(N)c3c4c(cccc24)C(=O)[N-]3)nn1
REMARK SMILES IDX 8 1 7 2 5 3 6 4 2 5 1 6 3 7 4 8 9 9 10 10 11 11 12 12 29 13
REMARK SMILES IDX 13 14 28 15 14 16 15 17 24 18 16 19 23 20 19 21 18 22 22 23
REMARK SMILES IDX 20 24 27 25 21 26 25 27 26 28 17 29
REMARK H PARENT 17 30 17 31
ROOT
ATOM      1  C   UNL     1      48.032 134.783  23.571  1.00  0.00     0.016 C 
ENDROOT
BRANCH   1   2
ATOM      2  C   UNL     1      49.332 135.175  22.846  1.00  0.00     0.085 C 
BRANCH   2   3
ATOM      3  N   UNL     1      50.406 135.535  23.812  1.00  0.00    -0.291 NA
ATOM      4  C   UNL     1      51.419 134.453  23.837  1.00  0.00     0.106 C 
BRANCH   3   5
ATOM      5  C   UNL     1      51.054 136.843  23.491  1.00  0.00     0.157 C 
ATOM      6  C   UNL     1      51.761 136.838  22.125  1.00  0.00     0.041 C 
BRANCH   5   7
ATOM      7  C   UNL     1      50.052 137.930  23.448  1.00  0.00     0.081 C 
ATOM      8  N   UNL     1      49.269 138.781  23.415  1.00  0.00    -0.197 NA
ENDBRANCH   5   7
ENDBRANCH   3   5
ENDBRANCH   2   3
ENDBRANCH   1   2
BRANCH   1   9
ATOM      9  C   UNL     1      46.771 134.825  22.684  1.00  0.00     0.008 C 
BRANCH   9  10
ATOM     10  C   UNL     1      45.636 133.880  23.113  1.00  0.00     0.060 C 
BRANCH  10  11
ATOM     11  C   UNL     1      45.289 132.880  22.052  1.00  0.00     0.083 A 
ATOM     12  C   UNL     1      45.054 133.145  20.723  1.00  0.00     0.140 A 
ATOM     13  N   UNL     1      45.243 131.546  22.236  1.00  0.00    -0.135 NA
ATOM     14  N   UNL     1      44.895 131.952  20.126  1.00  0.00    -0.220 N 
ATOM     15  N   UNL     1      44.996 131.008  21.049  1.00  0.00    -0.062 NA
BRANCH  14  16
ATOM     16  C   UNL     1      44.650 131.722  18.728  1.00  0.00     0.076 A 
ATOM     17  C   UNL     1      45.467 130.796  18.018  1.00  0.00     0.053 A 
ATOM     18  C   UNL     1      43.609 132.396  18.032  1.00  0.00     0.007 A 
ATOM     19  C   UNL     1      45.277 130.551  16.637  1.00  0.00     0.019 A 
ATOM     20  C   UNL     1      42.647 133.271  18.594  1.00  0.00     0.011 A 
ATOM     21  C   UNL     1      43.486 132.134  16.676  1.00  0.00    -0.020 A 
ATOM     22  C   UNL     1      44.265 131.255  15.981  1.00  0.00    -0.102 A 
ATOM     23  C   UNL     1      41.643 133.844  17.771  1.00  0.00     0.001 A 
ATOM     24  C   UNL     1      42.534 132.677  15.876  1.00  0.00     0.006 A 
ATOM     25  N   UNL     1      43.865 131.164  14.607  1.00  0.00    -0.620 NA
ATOM     26  C   UNL     1      41.582 133.551  16.392  1.00  0.00     0.011 A 
ATOM     27  C   UNL     1      42.760 132.082  14.563  1.00  0.00     0.086 C 
ATOM     28  O   UNL     1      42.086 132.321  13.528  1.00  0.00    -0.315 OA
BRANCH  19  29
ATOM     29  N   UNL     1      46.098 129.613  15.937  1.00  0.00    -0.400 N 
ATOM     30  H   UNL     1      47.099 129.830  15.730  1.00  0.00     0.156 HD
ATOM     31  H   UNL     1      45.713 128.696  15.625  1.00  0.00     0.156 HD
ENDBRANCH  19  29
ENDBRANCH  14  16
ENDBRANCH  10  11
ENDBRANCH   9  10
ENDBRANCH   1   9
TORSDOF 9
ENDMDL
MODEL 8
REMARK VINA RESULT:      -5.9      2.629      5.252
REMARK SMILES C[C@@H](C#N)N(C)CCCCc1cn(-c2cc(N)c3c4c(cccc24)C(=O)[N-]3)nn1
REMARK SMILES IDX 8 1 7 2 5 3 6 4 2 5 1 6 3 7 4 8 9 9 10 10 11 11 12 12 29 13
REMARK SMILES IDX 13 14 28 15 14 16 15 17 24 18 16 19 23 20 19 21 18 22 22 23
REMARK SMILES IDX 20 24 27 25 21 26 25 27 26 28 17 29
REMARK H PARENT 17 30 17 31
ROOT
ATOM      1  C   UNL     1      45.669 130.427  18.148  1.00  0.00     0.016 C 
ENDROOT
BRANCH   1   2
ATOM      2  C   UNL     1      44.973 131.662  18.748  1.00  0.00     0.085 C 
BRANCH   2   3
ATOM      3  N   UNL     1      44.640 131.454  20.184  1.00  0.00    -0.291 NA
ATOM      4  C   UNL     1      45.244 132.545  20.986  1.00  0.00     0.106 C 
BRANCH   3   5
ATOM      5  C   UNL     1      43.167 131.388  20.429  1.00  0.00     0.157 C 
ATOM      6  C   UNL     1      42.790 131.712  21.885  1.00  0.00     0.041 C 
BRANCH   5   7
ATOM      7  C   UNL     1      42.446 132.357  19.576  1.00  0.00     0.081 C 
ATOM      8  N   UNL     1      41.882 133.115  18.909  1.00  0.00    -0.197 NA
ENDBRANCH   5   7
ENDBRANCH   3   5
ENDBRANCH   2   3
ENDBRANCH   1   2
BRANCH   1   9
ATOM      9  C   UNL     1      46.091 130.588  16.673  1.00  0.00     0.008 C 
BRANCH   9  10
ATOM     10  C   UNL     1      44.932 130.723  15.671  1.00  0.00     0.060 C 
BRANCH  10  11
ATOM     11  C   UNL     1      44.494 132.144  15.487  1.00  0.00     0.083 A 
ATOM     12  C   UNL     1      43.208 132.582  15.270  1.00  0.00     0.140 A 
ATOM     13  N   UNL     1      45.299 133.219  15.597  1.00  0.00    -0.135 NA
ATOM     14  N   UNL     1      43.264 133.925  15.280  1.00  0.00    -0.220 N 
ATOM     15  N   UNL     1      44.525 134.287  15.461  1.00  0.00    -0.062 NA
BRANCH  14  16
ATOM     16  C   UNL     1      42.158 134.828  15.116  1.00  0.00     0.076 A 
ATOM     17  C   UNL     1      41.257 134.641  14.029  1.00  0.00     0.053 A 
ATOM     18  C   UNL     1      41.937 135.907  16.016  1.00  0.00     0.007 A 
ATOM     19  C   UNL     1      40.165 135.516  13.815  1.00  0.00     0.019 A 
ATOM     20  C   UNL     1      42.668 136.184  17.198  1.00  0.00     0.011 A 
ATOM     21  C   UNL     1      40.865 136.744  15.743  1.00  0.00    -0.020 A 
ATOM     22  C   UNL     1      39.999 136.583  14.701  1.00  0.00    -0.102 A 
ATOM     23  C   UNL     1      42.304 137.285  18.015  1.00  0.00     0.001 A 
ATOM     24  C   UNL     1      40.507 137.802  16.514  1.00  0.00     0.006 A 
ATOM     25  N   UNL     1      38.968 137.578  14.711  1.00  0.00    -0.620 NA
ATOM     26  C   UNL     1      41.212 138.113  17.673  1.00  0.00     0.011 A 
ATOM     27  C   UNL     1      39.313 138.347  15.875  1.00  0.00     0.086 C 
ATOM     28  O   UNL     1      38.661 139.344  16.278  1.00  0.00    -0.315 OA
BRANCH  19  29
ATOM     29  N   UNL     1      39.263 135.314  12.725  1.00  0.00    -0.400 N 
ATOM     30  H   UNL     1      39.132 134.363  12.310  1.00  0.00     0.156 HD
ATOM     31  H   UNL     1      38.720 136.109  12.327  1.00  0.00     0.156 HD
ENDBRANCH  19  29
ENDBRANCH  14  16
ENDBRANCH  10  11
ENDBRANCH   9  10
ENDBRANCH   1   9
TORSDOF 9
ENDMDL
MODEL 9
REMARK VINA RESULT:      -5.8      2.326      5.223
REMARK SMILES C[C@@H](C#N)N(C)CCCCc1cn(-c2cc(N)c3c4c(cccc24)C(=O)[N-]3)nn1
REMARK SMILES IDX 8 1 7 2 5 3 6 4 2 5 1 6 3 7 4 8 9 9 10 10 11 11 12 12 29 13
REMARK SMILES IDX 13 14 28 15 14 16 15 17 24 18 16 19 23 20 19 21 18 22 22 23
REMARK SMILES IDX 20 24 27 25 21 26 25 27 26 28 17 29
REMARK H PARENT 17 30 17 31
ROOT
ATOM      1  C   UNL     1      45.770 130.340  17.658  1.00  0.00     0.016 C 
ENDROOT
BRANCH   1   2
ATOM      2  C   UNL     1      44.663 130.938  18.546  1.00  0.00     0.085 C 
BRANCH   2   3
ATOM      3  N   UNL     1      44.979 130.776  19.992  1.00  0.00    -0.291 NA
ATOM      4  C   UNL     1      46.432 130.977  20.197  1.00  0.00     0.106 C 
BRANCH   3   5
ATOM      5  C   UNL     1      44.199 131.711  20.858  1.00  0.00     0.157 C 
ATOM      6  C   UNL     1      43.092 132.453  20.089  1.00  0.00     0.041 C 
BRANCH   5   7
ATOM      7  C   UNL     1      43.536 130.981  21.960  1.00  0.00     0.081 C 
ATOM      8  N   UNL     1      43.017 130.409  22.821  1.00  0.00    -0.197 NA
ENDBRANCH   5   7
ENDBRANCH   3   5
ENDBRANCH   2   3
ENDBRANCH   1   2
BRANCH   1   9
ATOM      9  C   UNL     1      45.317 129.986  16.227  1.00  0.00     0.008 C 
BRANCH   9  10
ATOM     10  C   UNL     1      45.648 131.039  15.156  1.00  0.00     0.060 C 
BRANCH  10  11
ATOM     11  C   UNL     1      44.772 132.251  15.250  1.00  0.00     0.083 A 
ATOM     12  C   UNL     1      43.481 132.366  14.787  1.00  0.00     0.140 A 
ATOM     13  N   UNL     1      45.099 133.390  15.892  1.00  0.00    -0.135 NA
ATOM     14  N   UNL     1      43.048 133.574  15.186  1.00  0.00    -0.220 N 
ATOM     15  N   UNL     1      44.034 134.177  15.832  1.00  0.00    -0.062 NA
BRANCH  14  16
ATOM     16  C   UNL     1      41.744 134.133  14.955  1.00  0.00     0.076 A 
ATOM     17  C   UNL     1      41.378 134.535  13.639  1.00  0.00     0.053 A 
ATOM     18  C   UNL     1      40.804 134.294  16.010  1.00  0.00     0.007 A 
ATOM     19  C   UNL     1      40.113 135.109  13.365  1.00  0.00     0.019 A 
ATOM     20  C   UNL     1      40.959 133.865  17.352  1.00  0.00     0.011 A 
ATOM     21  C   UNL     1      39.591 134.883  15.688  1.00  0.00    -0.020 A 
ATOM     22  C   UNL     1      39.229 135.281  14.433  1.00  0.00    -0.102 A 
ATOM     23  C   UNL     1      39.912 134.070  18.287  1.00  0.00     0.001 A 
ATOM     24  C   UNL     1      38.582 135.089  16.572  1.00  0.00     0.006 A 
ATOM     25  N   UNL     1      37.897 135.809  14.408  1.00  0.00    -0.620 NA
ATOM     26  C   UNL     1      38.705 134.693  17.900  1.00  0.00     0.011 A 
ATOM     27  C   UNL     1      37.504 135.679  15.784  1.00  0.00     0.086 C 
ATOM     28  O   UNL     1      36.379 136.022  16.230  1.00  0.00    -0.315 OA
BRANCH  19  29
ATOM     29  N   UNL     1      39.755 135.501  12.039  1.00  0.00    -0.400 N 
ATOM     30  H   UNL     1      39.752 136.509  11.762  1.00  0.00     0.156 HD
ATOM     31  H   UNL     1      39.494 134.789  11.324  1.00  0.00     0.156 HD
ENDBRANCH  19  29
ENDBRANCH  14  16
ENDBRANCH  10  11
ENDBRANCH   9  10
ENDBRANCH   1   9
TORSDOF 9
ENDMDL


