MODEL 1
REMARK VINA RESULT:      -6.5      0.000      0.000
REMARK SMILES C=CC[C@](C)(CC)Oc1cc2nc(Cn3n[nH+]c(C)c3-c3nnc([C@@H]4C[C@@H]4C)o3)[n-]c2cc1C#N
REMARK SMILES IDX 9 1 10 2 11 3 12 4 13 5 30 6 31 7 32 8 33 9 8 10 4 11 5 12
REMARK SMILES IDX 3 13 2 14 1 15 6 16 7 17 34 18 35 19 14 20 15 21 16 22 20 23
REMARK SMILES IDX 17 24 18 25 19 27 21 28 22 29 29 30 23 31 24 32 25 33 26 34
REMARK SMILES IDX 27 35 28 36
REMARK H PARENT 17 26
ROOT
ATOM      1  C   UNL     1      44.227 132.170  16.777  1.00  0.00     0.138 A 
ATOM      2  C   UNL     1      44.755 131.641  17.984  1.00  0.00     0.051 A 
ATOM      3  C   UNL     1      44.000 131.775  19.144  1.00  0.00    -0.035 A 
ATOM      4  N   UNL     1      44.315 131.353  20.378  1.00  0.00    -0.436 NA
ATOM      5  C   UNL     1      43.240 131.749  21.108  1.00  0.00    -0.037 A 
ATOM      6  N   UNL     1      42.275 132.386  20.392  1.00  0.00    -0.436 NA
ATOM      7  C   UNL     1      42.788 132.388  19.154  1.00  0.00    -0.037 A 
ATOM      8  C   UNL     1      42.223 132.918  18.002  1.00  0.00     0.027 A 
ATOM      9  C   UNL     1      42.954 132.807  16.801  1.00  0.00     0.094 A 
ENDROOT
BRANCH   1  10
ATOM     10  O   UNL     1      44.900 132.111  15.538  1.00  0.00    -0.486 OA
BRANCH  10  11
ATOM     11  C   UNL     1      45.451 130.989  14.824  1.00  0.00     0.109 C 
ATOM     12  C   UNL     1      45.131 129.736  15.672  1.00  0.00     0.057 C 
BRANCH  11  13
ATOM     13  C   UNL     1      46.999 131.094  14.689  1.00  0.00     0.075 C 
BRANCH  13  14
ATOM     14  C   UNL     1      47.514 130.615  13.354  1.00  0.00    -0.031 C 
ATOM     15  C   UNL     1      48.183 129.464  13.252  1.00  0.00     0.004 C 
ENDBRANCH  13  14
ENDBRANCH  11  13
BRANCH  11  16
ATOM     16  C   UNL     1      44.795 130.816  13.420  1.00  0.00     0.045 C 
ATOM     17  C   UNL     1      43.267 130.709  13.456  1.00  0.00     0.008 C 
ENDBRANCH  11  16
ENDBRANCH  10  11
ENDBRANCH   1  10
BRANCH   9  18
ATOM     18  C   UNL     1      42.395 133.356  15.591  1.00  0.00     0.103 C 
ATOM     19  N   UNL     1      41.946 133.800  14.620  1.00  0.00    -0.192 NA
ENDBRANCH   9  18
BRANCH   5  20
ATOM     20  C   UNL     1      43.126 131.493  22.578  1.00  0.00     0.297 C 
BRANCH  20  21
ATOM     21  N   UNL     1      44.238 132.121  23.290  1.00  0.00    -0.120 N 
ATOM     22  N   UNL     1      45.047 131.448  24.096  1.00  0.00     0.089 NA
ATOM     23  C   UNL     1      44.619 133.423  23.302  1.00  0.00     0.257 A 
ATOM     24  N   UNL     1      45.948 132.265  24.620  1.00  0.00    -0.147 N 
ATOM     25  C   UNL     1      45.712 133.502  24.147  1.00  0.00     0.175 A 
ATOM     26  H   UNL     1      46.699 131.975  25.284  1.00  0.00     0.342 HD
ATOM     27  C   UNL     1      46.509 134.717  24.506  1.00  0.00     0.100 C 
BRANCH  23  28
ATOM     28  C   UNL     1      43.994 134.544  22.569  1.00  0.00     0.294 A 
ATOM     29  N   UNL     1      42.961 135.284  23.016  1.00  0.00    -0.103 NA
ATOM     30  O   UNL     1      44.393 134.959  21.390  1.00  0.00    -0.417 OA
ATOM     31  N   UNL     1      42.712 136.187  22.081  1.00  0.00    -0.112 NA
ATOM     32  C   UNL     1      43.606 135.966  21.100  1.00  0.00     0.220 A 
BRANCH  32  33
ATOM     33  C   UNL     1      43.675 136.769  19.834  1.00  0.00     0.081 C 
ATOM     34  C   UNL     1      44.999 136.669  19.078  1.00  0.00     0.017 C 
ATOM     35  C   UNL     1      44.639 137.957  19.810  1.00  0.00    -0.001 C 
ATOM     36  C   UNL     1      45.475 138.248  21.062  1.00  0.00     0.008 C 
ENDBRANCH  32  33
ENDBRANCH  23  28
ENDBRANCH  20  21
ENDBRANCH   5  20
TORSDOF 10
ENDMDL
MODEL 2
REMARK VINA RESULT:      -6.1      1.236      1.792
REMARK SMILES C=CC[C@](C)(CC)Oc1cc2nc(Cn3n[nH+]c(C)c3-c3nnc([C@@H]4C[C@@H]4C)o3)[n-]c2cc1C#N
REMARK SMILES IDX 9 1 10 2 11 3 12 4 13 5 30 6 31 7 32 8 33 9 8 10 4 11 5 12
REMARK SMILES IDX 3 13 2 14 1 15 6 16 7 17 34 18 35 19 14 20 15 21 16 22 20 23
REMARK SMILES IDX 17 24 18 25 19 27 21 28 22 29 29 30 23 31 24 32 25 33 26 34
REMARK SMILES IDX 27 35 28 36
REMARK H PARENT 17 26
ROOT
ATOM      1  C   UNL     1      43.724 131.504  16.833  1.00  0.00     0.138 A 
ATOM      2  C   UNL     1      44.161 131.293  18.167  1.00  0.00     0.051 A 
ATOM      3  C   UNL     1      43.516 131.985  19.186  1.00  0.00    -0.035 A 
ATOM      4  N   UNL     1      43.776 131.932  20.501  1.00  0.00    -0.436 NA
ATOM      5  C   UNL     1      42.864 132.800  21.016  1.00  0.00    -0.037 A 
ATOM      6  N   UNL     1      42.052 133.378  20.092  1.00  0.00    -0.436 NA
ATOM      7  C   UNL     1      42.492 132.844  18.944  1.00  0.00    -0.037 A 
ATOM      8  C   UNL     1      42.022 133.083  17.660  1.00  0.00     0.027 A 
ATOM      9  C   UNL     1      42.647 132.404  16.594  1.00  0.00     0.094 A 
ENDROOT
BRANCH   1  10
ATOM     10  O   UNL     1      44.304 130.874  15.711  1.00  0.00    -0.486 OA
BRANCH  10  11
ATOM     11  C   UNL     1      45.590 131.065  15.092  1.00  0.00     0.109 C 
ATOM     12  C   UNL     1      45.968 132.546  15.324  1.00  0.00     0.057 C 
BRANCH  11  13
ATOM     13  C   UNL     1      45.532 130.819  13.555  1.00  0.00     0.075 C 
BRANCH  13  14
ATOM     14  C   UNL     1      46.890 130.847  12.896  1.00  0.00    -0.031 C 
ATOM     15  C   UNL     1      47.033 130.506  11.613  1.00  0.00     0.004 C 
ENDBRANCH  13  14
ENDBRANCH  11  13
BRANCH  11  16
ATOM     16  C   UNL     1      46.686 130.166  15.743  1.00  0.00     0.045 C 
ATOM     17  C   UNL     1      47.115 128.979  14.874  1.00  0.00     0.008 C 
ENDBRANCH  11  16
ENDBRANCH  10  11
ENDBRANCH   1  10
BRANCH   9  18
ATOM     18  C   UNL     1      42.184 132.640  15.249  1.00  0.00     0.103 C 
ATOM     19  N   UNL     1      41.811 132.832  14.171  1.00  0.00    -0.192 NA
ENDBRANCH   9  18
BRANCH   5  20
ATOM     20  C   UNL     1      42.759 133.082  22.481  1.00  0.00     0.297 C 
BRANCH  20  21
ATOM     21  N   UNL     1      44.087 133.301  23.052  1.00  0.00    -0.120 N 
ATOM     22  N   UNL     1      44.618 132.501  23.965  1.00  0.00     0.089 NA
ATOM     23  C   UNL     1      44.964 134.308  22.813  1.00  0.00     0.257 A 
ATOM     24  N   UNL     1      45.814 132.945  24.318  1.00  0.00    -0.147 N 
ATOM     25  C   UNL     1      46.063 134.068  23.619  1.00  0.00     0.175 A 
ATOM     26  H   UNL     1      46.436 132.487  25.019  1.00  0.00     0.342 HD
ATOM     27  C   UNL     1      47.313 134.882  23.734  1.00  0.00     0.100 C 
BRANCH  23  28
ATOM     28  C   UNL     1      44.790 135.445  21.885  1.00  0.00     0.294 A 
ATOM     29  N   UNL     1      44.386 136.680  22.238  1.00  0.00    -0.103 NA
ATOM     30  O   UNL     1      45.027 135.379  20.596  1.00  0.00    -0.417 OA
ATOM     31  N   UNL     1      44.372 137.404  21.129  1.00  0.00    -0.112 NA
ATOM     32  C   UNL     1      44.772 136.582  20.141  1.00  0.00     0.220 A 
BRANCH  32  33
ATOM     33  C   UNL     1      44.896 136.997  18.705  1.00  0.00     0.081 C 
ATOM     34  C   UNL     1      44.240 138.333  18.361  1.00  0.00     0.017 C 
ATOM     35  C   UNL     1      43.613 137.033  17.872  1.00  0.00    -0.001 C 
ATOM     36  C   UNL     1      42.290 136.655  18.549  1.00  0.00     0.008 C 
ENDBRANCH  32  33
ENDBRANCH  23  28
ENDBRANCH  20  21
ENDBRANCH   5  20
TORSDOF 10
ENDMDL
MODEL 3
REMARK VINA RESULT:      -6.1      2.308      4.301
REMARK SMILES C=CC[C@](C)(CC)Oc1cc2nc(Cn3n[nH+]c(C)c3-c3nnc([C@@H]4C[C@@H]4C)o3)[n-]c2cc1C#N
REMARK SMILES IDX 9 1 10 2 11 3 12 4 13 5 30 6 31 7 32 8 33 9 8 10 4 11 5 12
REMARK SMILES IDX 3 13 2 14 1 15 6 16 7 17 34 18 35 19 14 20 15 21 16 22 20 23
REMARK SMILES IDX 17 24 18 25 19 27 21 28 22 29 29 30 23 31 24 32 25 33 26 34
REMARK SMILES IDX 27 35 28 36
REMARK H PARENT 17 26
ROOT
ATOM      1  C   UNL     1      43.935 133.868  15.699  1.00  0.00     0.138 A 
ATOM      2  C   UNL     1      44.688 134.699  16.568  1.00  0.00     0.051 A 
ATOM      3  C   UNL     1      44.025 135.724  17.234  1.00  0.00    -0.035 A 
ATOM      4  N   UNL     1      44.548 136.615  18.089  1.00  0.00    -0.436 NA
ATOM      5  C   UNL     1      43.468 137.371  18.423  1.00  0.00    -0.037 A 
ATOM      6  N   UNL     1      42.308 136.990  17.827  1.00  0.00    -0.436 NA
ATOM      7  C   UNL     1      42.694 135.947  17.080  1.00  0.00    -0.037 A 
ATOM      8  C   UNL     1      41.910 135.161  16.246  1.00  0.00     0.027 A 
ATOM      9  C   UNL     1      42.540 134.110  15.549  1.00  0.00     0.094 A 
ENDROOT
BRANCH   1  10
ATOM     10  O   UNL     1      44.492 132.805  14.956  1.00  0.00    -0.486 OA
BRANCH  10  11
ATOM     11  C   UNL     1      45.061 131.556  15.391  1.00  0.00     0.109 C 
ATOM     12  C   UNL     1      44.730 131.429  16.896  1.00  0.00     0.057 C 
BRANCH  11  13
ATOM     13  C   UNL     1      46.611 131.542  15.237  1.00  0.00     0.075 C 
BRANCH  13  14
ATOM     14  C   UNL     1      47.067 131.321  13.816  1.00  0.00    -0.031 C 
ATOM     15  C   UNL     1      47.823 130.267  13.497  1.00  0.00     0.004 C 
ENDBRANCH  13  14
ENDBRANCH  11  13
BRANCH  11  16
ATOM     16  C   UNL     1      44.432 130.340  14.642  1.00  0.00     0.045 C 
ATOM     17  C   UNL     1      43.794 130.701  13.296  1.00  0.00     0.008 C 
ENDBRANCH  11  16
ENDBRANCH  10  11
ENDBRANCH   1  10
BRANCH   9  18
ATOM     18  C   UNL     1      41.750 133.284  14.670  1.00  0.00     0.103 C 
ATOM     19  N   UNL     1      41.116 132.619  13.966  1.00  0.00    -0.192 NA
ENDBRANCH   9  18
BRANCH   5  20
ATOM     20  C   UNL     1      43.554 138.520  19.377  1.00  0.00     0.297 C 
BRANCH  20  21
ATOM     21  N   UNL     1      42.879 138.190  20.631  1.00  0.00    -0.120 N 
ATOM     22  N   UNL     1      41.846 138.880  21.094  1.00  0.00     0.089 NA
ATOM     23  C   UNL     1      43.169 137.213  21.525  1.00  0.00     0.257 A 
ATOM     24  N   UNL     1      41.447 138.376  22.252  1.00  0.00    -0.147 N 
ATOM     25  C   UNL     1      42.247 137.336  22.550  1.00  0.00     0.175 A 
ATOM     26  H   UNL     1      40.649 138.741  22.816  1.00  0.00     0.342 HD
ATOM     27  C   UNL     1      42.130 136.499  23.785  1.00  0.00     0.100 C 
BRANCH  23  28
ATOM     28  C   UNL     1      44.254 136.213  21.438  1.00  0.00     0.294 A 
ATOM     29  N   UNL     1      45.537 136.430  21.785  1.00  0.00    -0.103 NA
ATOM     30  O   UNL     1      44.081 134.982  21.021  1.00  0.00    -0.417 OA
ATOM     31  N   UNL     1      46.181 135.292  21.574  1.00  0.00    -0.112 NA
ATOM     32  C   UNL     1      45.264 134.424  21.110  1.00  0.00     0.220 A 
BRANCH  32  33
ATOM     33  C   UNL     1      45.571 133.003  20.734  1.00  0.00     0.081 C 
ATOM     34  C   UNL     1      44.358 132.076  20.673  1.00  0.00     0.017 C 
ATOM     35  C   UNL     1      45.364 131.934  21.809  1.00  0.00    -0.001 C 
ATOM     36  C   UNL     1      44.853 132.370  23.187  1.00  0.00     0.008 C 
ENDBRANCH  32  33
ENDBRANCH  23  28
ENDBRANCH  20  21
ENDBRANCH   5  20
TORSDOF 10
ENDMDL
MODEL 4
REMARK VINA RESULT:      -5.8      2.467      3.770
REMARK SMILES C=CC[C@](C)(CC)Oc1cc2nc(Cn3n[nH+]c(C)c3-c3nnc([C@@H]4C[C@@H]4C)o3)[n-]c2cc1C#N
REMARK SMILES IDX 9 1 10 2 11 3 12 4 13 5 30 6 31 7 32 8 33 9 8 10 4 11 5 12
REMARK SMILES IDX 3 13 2 14 1 15 6 16 7 17 34 18 35 19 14 20 15 21 16 22 20 23
REMARK SMILES IDX 17 24 18 25 19 27 21 28 22 29 29 30 23 31 24 32 25 33 26 34
REMARK SMILES IDX 27 35 28 36
REMARK H PARENT 17 26
ROOT
ATOM      1  C   UNL     1      44.416 132.449  16.003  1.00  0.00     0.138 A 
ATOM      2  C   UNL     1      44.770 132.863  17.313  1.00  0.00     0.051 A 
ATOM      3  C   UNL     1      43.759 133.324  18.150  1.00  0.00    -0.035 A 
ATOM      4  N   UNL     1      43.880 133.762  19.412  1.00  0.00    -0.436 NA
ATOM      5  C   UNL     1      42.600 134.087  19.734  1.00  0.00    -0.037 A 
ATOM      6  N   UNL     1      41.696 133.867  18.744  1.00  0.00    -0.436 NA
ATOM      7  C   UNL     1      42.462 133.386  17.754  1.00  0.00    -0.037 A 
ATOM      8  C   UNL     1      42.061 132.990  16.485  1.00  0.00     0.027 A 
ATOM      9  C   UNL     1      43.052 132.516  15.601  1.00  0.00     0.094 A 
ENDROOT
BRANCH   1  10
ATOM     10  O   UNL     1      45.349 131.976  15.054  1.00  0.00    -0.486 OA
BRANCH  10  11
ATOM     11  C   UNL     1      46.101 130.749  15.012  1.00  0.00     0.109 C 
ATOM     12  C   UNL     1      46.531 130.454  16.468  1.00  0.00     0.057 C 
BRANCH  11  13
ATOM     13  C   UNL     1      47.390 130.891  14.150  1.00  0.00     0.075 C 
BRANCH  13  14
ATOM     14  C   UNL     1      47.324 130.127  12.850  1.00  0.00    -0.031 C 
ATOM     15  C   UNL     1      46.874 130.711  11.736  1.00  0.00     0.004 C 
ENDBRANCH  13  14
ENDBRANCH  11  13
BRANCH  11  16
ATOM     16  C   UNL     1      45.235 129.556  14.501  1.00  0.00     0.045 C 
ATOM     17  C   UNL     1      44.993 128.468  15.551  1.00  0.00     0.008 C 
ENDBRANCH  11  16
ENDBRANCH  10  11
ENDBRANCH   1  10
BRANCH   9  18
ATOM     18  C   UNL     1      42.665 132.106  14.275  1.00  0.00     0.103 C 
ATOM     19  N   UNL     1      42.351 131.774  13.211  1.00  0.00    -0.192 NA
ENDBRANCH   9  18
BRANCH   5  20
ATOM     20  C   UNL     1      42.220 134.632  21.075  1.00  0.00     0.297 C 
BRANCH  20  21
ATOM     21  N   UNL     1      41.695 135.990  20.942  1.00  0.00    -0.120 N 
ATOM     22  N   UNL     1      40.432 136.300  21.197  1.00  0.00     0.089 NA
ATOM     23  C   UNL     1      42.330 137.114  20.527  1.00  0.00     0.257 A 
ATOM     24  N   UNL     1      40.227 137.589  20.975  1.00  0.00    -0.147 N 
ATOM     25  C   UNL     1      41.388 138.128  20.558  1.00  0.00     0.175 A 
ATOM     26  H   UNL     1      39.315 138.078  21.106  1.00  0.00     0.342 HD
ATOM     27  C   UNL     1      41.575 139.567  20.195  1.00  0.00     0.100 C 
BRANCH  23  28
ATOM     28  C   UNL     1      43.743 137.244  20.114  1.00  0.00     0.294 A 
ATOM     29  N   UNL     1      44.162 137.610  18.888  1.00  0.00    -0.103 NA
ATOM     30  O   UNL     1      44.760 137.026  20.913  1.00  0.00    -0.417 OA
ATOM     31  N   UNL     1      45.486 137.620  18.930  1.00  0.00    -0.112 NA
ATOM     32  C   UNL     1      45.823 137.261  20.182  1.00  0.00     0.220 A 
BRANCH  32  33
ATOM     33  C   UNL     1      47.238 137.138  20.666  1.00  0.00     0.081 C 
ATOM     34  C   UNL     1      47.406 137.168  22.184  1.00  0.00     0.017 C 
ATOM     35  C   UNL     1      47.854 138.361  21.349  1.00  0.00    -0.001 C 
ATOM     36  C   UNL     1      46.996 139.622  21.506  1.00  0.00     0.008 C 
ENDBRANCH  32  33
ENDBRANCH  23  28
ENDBRANCH  20  21
ENDBRANCH   5  20
TORSDOF 10
ENDMDL
MODEL 5
REMARK VINA RESULT:      -5.7      3.785      7.058
REMARK SMILES C=CC[C@](C)(CC)Oc1cc2nc(Cn3n[nH+]c(C)c3-c3nnc([C@@H]4C[C@@H]4C)o3)[n-]c2cc1C#N
REMARK SMILES IDX 9 1 10 2 11 3 12 4 13 5 30 6 31 7 32 8 33 9 8 10 4 11 5 12
REMARK SMILES IDX 3 13 2 14 1 15 6 16 7 17 34 18 35 19 14 20 15 21 16 22 20 23
REMARK SMILES IDX 17 24 18 25 19 27 21 28 22 29 29 30 23 31 24 32 25 33 26 34
REMARK SMILES IDX 27 35 28 36
REMARK H PARENT 17 26
ROOT
ATOM      1  C   UNL     1      44.023 132.531  16.435  1.00  0.00     0.138 A 
ATOM      2  C   UNL     1      43.615 133.548  15.533  1.00  0.00     0.051 A 
ATOM      3  C   UNL     1      43.490 134.845  16.019  1.00  0.00    -0.035 A 
ATOM      4  N   UNL     1      43.117 135.939  15.340  1.00  0.00    -0.436 NA
ATOM      5  C   UNL     1      43.161 136.907  16.294  1.00  0.00    -0.037 A 
ATOM      6  N   UNL     1      43.547 136.470  17.522  1.00  0.00    -0.436 NA
ATOM      7  C   UNL     1      43.745 135.161  17.315  1.00  0.00    -0.037 A 
ATOM      8  C   UNL     1      44.152 134.207  18.238  1.00  0.00     0.027 A 
ATOM      9  C   UNL     1      44.291 132.877  17.790  1.00  0.00     0.094 A 
ENDROOT
BRANCH   1  10
ATOM     10  O   UNL     1      44.173 131.176  16.070  1.00  0.00    -0.486 OA
BRANCH  10  11
ATOM     11  C   UNL     1      45.086 130.550  15.148  1.00  0.00     0.109 C 
ATOM     12  C   UNL     1      45.189 129.069  15.578  1.00  0.00     0.057 C 
BRANCH  11  13
ATOM     13  C   UNL     1      46.510 131.175  15.233  1.00  0.00     0.075 C 
BRANCH  13  14
ATOM     14  C   UNL     1      47.453 130.653  14.176  1.00  0.00    -0.031 C 
ATOM     15  C   UNL     1      48.231 129.595  14.417  1.00  0.00     0.004 C 
ENDBRANCH  13  14
ENDBRANCH  11  13
BRANCH  11  16
ATOM     16  C   UNL     1      44.556 130.605  13.682  1.00  0.00     0.045 C 
ATOM     17  C   UNL     1      45.661 130.579  12.620  1.00  0.00     0.008 C 
ENDBRANCH  11  16
ENDBRANCH  10  11
ENDBRANCH   1  10
BRANCH   9  18
ATOM     18  C   UNL     1      44.704 131.864  18.730  1.00  0.00     0.103 C 
ATOM     19  N   UNL     1      45.033 131.053  19.486  1.00  0.00    -0.192 NA
ENDBRANCH   9  18
BRANCH   5  20
ATOM     20  C   UNL     1      42.821 138.336  16.008  1.00  0.00     0.297 C 
BRANCH  20  21
ATOM     21  N   UNL     1      41.673 138.755  16.810  1.00  0.00    -0.120 N 
ATOM     22  N   UNL     1      41.797 139.371  17.977  1.00  0.00     0.089 NA
ATOM     23  C   UNL     1      40.350 138.581  16.564  1.00  0.00     0.257 A 
ATOM     24  N   UNL     1      40.602 139.615  18.491  1.00  0.00    -0.147 N 
ATOM     25  C   UNL     1      39.677 139.138  17.637  1.00  0.00     0.175 A 
ATOM     26  H   UNL     1      40.432 140.094  19.402  1.00  0.00     0.342 HD
ATOM     27  C   UNL     1      38.199 139.210  17.856  1.00  0.00     0.100 C 
BRANCH  23  28
ATOM     28  C   UNL     1      39.737 137.923  15.391  1.00  0.00     0.294 A 
ATOM     29  N   UNL     1      39.906 138.305  14.111  1.00  0.00    -0.103 NA
ATOM     30  O   UNL     1      38.961 136.869  15.468  1.00  0.00    -0.417 OA
ATOM     31  N   UNL     1      39.209 137.458  13.369  1.00  0.00    -0.112 NA
ATOM     32  C   UNL     1      38.644 136.588  14.227  1.00  0.00     0.220 A 
BRANCH  32  33
ATOM     33  C   UNL     1      37.757 135.453  13.806  1.00  0.00     0.081 C 
ATOM     34  C   UNL     1      37.431 134.446  14.907  1.00  0.00     0.017 C 
ATOM     35  C   UNL     1      38.375 134.054  13.777  1.00  0.00    -0.001 C 
ATOM     36  C   UNL     1      39.845 133.894  14.185  1.00  0.00     0.008 C 
ENDBRANCH  32  33
ENDBRANCH  23  28
ENDBRANCH  20  21
ENDBRANCH   5  20
TORSDOF 10
ENDMDL
MODEL 6
REMARK VINA RESULT:      -5.7      3.595      7.566
REMARK SMILES C=CC[C@](C)(CC)Oc1cc2nc(Cn3n[nH+]c(C)c3-c3nnc([C@@H]4C[C@@H]4C)o3)[n-]c2cc1C#N
REMARK SMILES IDX 9 1 10 2 11 3 12 4 13 5 30 6 31 7 32 8 33 9 8 10 4 11 5 12
REMARK SMILES IDX 3 13 2 14 1 15 6 16 7 17 34 18 35 19 14 20 15 21 16 22 20 23
REMARK SMILES IDX 17 24 18 25 19 27 21 28 22 29 29 30 23 31 24 32 25 33 26 34
REMARK SMILES IDX 27 35 28 36
REMARK H PARENT 17 26
ROOT
ATOM      1  C   UNL     1      43.322 131.851  18.339  1.00  0.00     0.138 A 
ATOM      2  C   UNL     1      42.036 132.440  18.450  1.00  0.00     0.051 A 
ATOM      3  C   UNL     1      41.424 132.904  17.290  1.00  0.00    -0.035 A 
ATOM      4  N   UNL     1      40.224 133.490  17.177  1.00  0.00    -0.436 NA
ATOM      5  C   UNL     1      40.141 133.738  15.843  1.00  0.00    -0.037 A 
ATOM      6  N   UNL     1      41.221 133.330  15.126  1.00  0.00    -0.436 NA
ATOM      7  C   UNL     1      42.016 132.808  16.071  1.00  0.00    -0.037 A 
ATOM      8  C   UNL     1      43.271 132.238  15.906  1.00  0.00     0.027 A 
ATOM      9  C   UNL     1      43.929 131.754  17.055  1.00  0.00     0.094 A 
ENDROOT
BRANCH   1  10
ATOM     10  O   UNL     1      44.052 131.356  19.441  1.00  0.00    -0.486 OA
BRANCH  10  11
ATOM     11  C   UNL     1      44.744 132.052  20.495  1.00  0.00     0.109 C 
ATOM     12  C   UNL     1      46.151 131.419  20.583  1.00  0.00     0.057 C 
BRANCH  11  13
ATOM     13  C   UNL     1      44.043 131.858  21.872  1.00  0.00     0.075 C 
BRANCH  13  14
ATOM     14  C   UNL     1      42.843 130.944  21.807  1.00  0.00    -0.031 C 
ATOM     15  C   UNL     1      42.571 130.101  22.805  1.00  0.00     0.004 C 
ENDBRANCH  13  14
ENDBRANCH  11  13
BRANCH  11  16
ATOM     16  C   UNL     1      44.903 133.572  20.178  1.00  0.00     0.045 C 
ATOM     17  C   UNL     1      44.471 134.495  21.323  1.00  0.00     0.008 C 
ENDBRANCH  11  16
ENDBRANCH  10  11
ENDBRANCH   1  10
BRANCH   9  18
ATOM     18  C   UNL     1      45.237 131.164  16.914  1.00  0.00     0.103 C 
ATOM     19  N   UNL     1      46.286 130.688  16.801  1.00  0.00    -0.192 NA
ENDBRANCH   9  18
BRANCH   5  20
ATOM     20  C   UNL     1      38.951 134.396  15.219  1.00  0.00     0.297 C 
BRANCH  20  21
ATOM     21  N   UNL     1      39.331 135.680  14.632  1.00  0.00    -0.120 N 
ATOM     22  N   UNL     1      39.420 135.875  13.324  1.00  0.00     0.089 NA
ATOM     23  C   UNL     1      39.679 136.834  15.254  1.00  0.00     0.257 A 
ATOM     24  N   UNL     1      39.801 137.118  13.075  1.00  0.00    -0.147 N 
ATOM     25  C   UNL     1      39.970 137.745  14.254  1.00  0.00     0.175 A 
ATOM     26  H   UNL     1      39.940 137.518  12.121  1.00  0.00     0.342 HD
ATOM     27  C   UNL     1      40.406 139.168  14.406  1.00  0.00     0.100 C 
BRANCH  23  28
ATOM     28  C   UNL     1      39.746 137.081  16.710  1.00  0.00     0.294 A 
ATOM     29  N   UNL     1      40.858 137.420  17.389  1.00  0.00    -0.103 NA
ATOM     30  O   UNL     1      38.710 137.009  17.512  1.00  0.00    -0.417 OA
ATOM     31  N   UNL     1      40.498 137.563  18.655  1.00  0.00    -0.112 NA
ATOM     32  C   UNL     1      39.178 137.308  18.699  1.00  0.00     0.220 A 
BRANCH  32  33
ATOM     33  C   UNL     1      38.358 137.353  19.955  1.00  0.00     0.081 C 
ATOM     34  C   UNL     1      39.157 137.244  21.252  1.00  0.00     0.017 C 
ATOM     35  C   UNL     1      38.291 136.076  20.795  1.00  0.00    -0.001 C 
ATOM     36  C   UNL     1      39.065 134.842  20.315  1.00  0.00     0.008 C 
ENDBRANCH  32  33
ENDBRANCH  23  28
ENDBRANCH  20  21
ENDBRANCH   5  20
TORSDOF 10
ENDMDL
MODEL 7
REMARK VINA RESULT:      -5.7      4.136      7.226
REMARK SMILES C=CC[C@](C)(CC)Oc1cc2nc(Cn3n[nH+]c(C)c3-c3nnc([C@@H]4C[C@@H]4C)o3)[n-]c2cc1C#N
REMARK SMILES IDX 9 1 10 2 11 3 12 4 13 5 30 6 31 7 32 8 33 9 8 10 4 11 5 12
REMARK SMILES IDX 3 13 2 14 1 15 6 16 7 17 34 18 35 19 14 20 15 21 16 22 20 23
REMARK SMILES IDX 17 24 18 25 19 27 21 28 22 29 29 30 23 31 24 32 25 33 26 34
REMARK SMILES IDX 27 35 28 36
REMARK H PARENT 17 26
ROOT
ATOM      1  C   UNL     1      40.203 135.731  14.054  1.00  0.00     0.138 A 
ATOM      2  C   UNL     1      40.235 134.367  14.443  1.00  0.00     0.051 A 
ATOM      3  C   UNL     1      40.670 134.062  15.729  1.00  0.00    -0.035 A 
ATOM      4  N   UNL     1      40.778 132.848  16.288  1.00  0.00    -0.436 NA
ATOM      5  C   UNL     1      41.250 133.137  17.530  1.00  0.00    -0.037 A 
ATOM      6  N   UNL     1      41.430 134.462  17.770  1.00  0.00    -0.436 NA
ATOM      7  C   UNL     1      41.056 135.020  16.610  1.00  0.00    -0.037 A 
ATOM      8  C   UNL     1      41.040 136.369  16.282  1.00  0.00     0.027 A 
ATOM      9  C   UNL     1      40.608 136.726  14.988  1.00  0.00     0.094 A 
ENDROOT
BRANCH   1  10
ATOM     10  O   UNL     1      39.797 136.169  12.775  1.00  0.00    -0.486 OA
BRANCH  10  11
ATOM     11  C   UNL     1      38.481 136.413  12.243  1.00  0.00     0.109 C 
ATOM     12  C   UNL     1      37.497 135.631  13.144  1.00  0.00     0.057 C 
BRANCH  11  13
ATOM     13  C   UNL     1      38.336 135.870  10.791  1.00  0.00     0.075 C 
BRANCH  13  14
ATOM     14  C   UNL     1      37.118 136.402  10.075  1.00  0.00    -0.031 C 
ATOM     15  C   UNL     1      36.376 135.603   9.304  1.00  0.00     0.004 C 
ENDBRANCH  13  14
ENDBRANCH  11  13
BRANCH  11  16
ATOM     16  C   UNL     1      38.106 137.926  12.296  1.00  0.00     0.045 C 
ATOM     17  C   UNL     1      36.851 138.227  13.122  1.00  0.00     0.008 C 
ENDBRANCH  11  16
ENDBRANCH  10  11
ENDBRANCH   1  10
BRANCH   9  18
ATOM     18  C   UNL     1      40.588 138.119  14.619  1.00  0.00     0.103 C 
ATOM     19  N   UNL     1      40.574 139.237  14.320  1.00  0.00    -0.192 NA
ENDBRANCH   9  18
BRANCH   5  20
ATOM     20  C   UNL     1      41.534 132.080  18.550  1.00  0.00     0.297 C 
BRANCH  20  21
ATOM     21  N   UNL     1      42.506 132.565  19.528  1.00  0.00    -0.120 N 
ATOM     22  N   UNL     1      42.157 133.238  20.615  1.00  0.00     0.089 NA
ATOM     23  C   UNL     1      43.859 132.470  19.507  1.00  0.00     0.257 A 
ATOM     24  N   UNL     1      43.235 133.570  21.308  1.00  0.00    -0.147 N 
ATOM     25  C   UNL     1      44.313 133.107  20.648  1.00  0.00     0.175 A 
ATOM     26  H   UNL     1      43.224 134.101  22.207  1.00  0.00     0.342 HD
ATOM     27  C   UNL     1      45.728 133.283  21.101  1.00  0.00     0.100 C 
BRANCH  23  28
ATOM     28  C   UNL     1      44.694 131.823  18.473  1.00  0.00     0.294 A 
ATOM     29  N   UNL     1      45.615 130.868  18.706  1.00  0.00    -0.103 NA
ATOM     30  O   UNL     1      44.621 132.104  17.194  1.00  0.00    -0.417 OA
ATOM     31  N   UNL     1      46.129 130.546  17.529  1.00  0.00    -0.112 NA
ATOM     32  C   UNL     1      45.499 131.316  16.622  1.00  0.00     0.220 A 
BRANCH  32  33
ATOM     33  C   UNL     1      45.782 131.276  15.149  1.00  0.00     0.081 C 
ATOM     34  C   UNL     1      44.553 131.097  14.260  1.00  0.00     0.017 C 
ATOM     35  C   UNL     1      45.543 129.951  14.424  1.00  0.00    -0.001 C 
ATOM     36  C   UNL     1      45.025 128.756  15.234  1.00  0.00     0.008 C 
ENDBRANCH  32  33
ENDBRANCH  23  28
ENDBRANCH  20  21
ENDBRANCH   5  20
TORSDOF 10
ENDMDL
MODEL 8
REMARK VINA RESULT:      -5.6      3.048      8.474
REMARK SMILES C=CC[C@](C)(CC)Oc1cc2nc(Cn3n[nH+]c(C)c3-c3nnc([C@@H]4C[C@@H]4C)o3)[n-]c2cc1C#N
REMARK SMILES IDX 9 1 10 2 11 3 12 4 13 5 30 6 31 7 32 8 33 9 8 10 4 11 5 12
REMARK SMILES IDX 3 13 2 14 1 15 6 16 7 17 34 18 35 19 14 20 15 21 16 22 20 23
REMARK SMILES IDX 17 24 18 25 19 27 21 28 22 29 29 30 23 31 24 32 25 33 26 34
REMARK SMILES IDX 27 35 28 36
REMARK H PARENT 17 26
ROOT
ATOM      1  C   UNL     1      47.711 136.339  21.494  1.00  0.00     0.138 A 
ATOM      2  C   UNL     1      46.648 136.652  20.608  1.00  0.00     0.051 A 
ATOM      3  C   UNL     1      45.494 135.877  20.669  1.00  0.00    -0.035 A 
ATOM      4  N   UNL     1      44.386 136.002  19.924  1.00  0.00    -0.436 NA
ATOM      5  C   UNL     1      43.600 134.998  20.395  1.00  0.00    -0.037 A 
ATOM      6  N   UNL     1      44.160 134.265  21.394  1.00  0.00    -0.436 NA
ATOM      7  C   UNL     1      45.359 134.846  21.542  1.00  0.00    -0.037 A 
ATOM      8  C   UNL     1      46.366 134.500  22.433  1.00  0.00     0.027 A 
ATOM      9  C   UNL     1      47.555 135.258  22.406  1.00  0.00     0.094 A 
ENDROOT
BRANCH   1  10
ATOM     10  O   UNL     1      48.937 137.039  21.521  1.00  0.00    -0.486 OA
BRANCH  10  11
ATOM     11  C   UNL     1      49.253 138.355  22.014  1.00  0.00     0.109 C 
ATOM     12  C   UNL     1      47.939 138.928  22.594  1.00  0.00     0.057 C 
BRANCH  11  13
ATOM     13  C   UNL     1      49.726 139.301  20.871  1.00  0.00     0.075 C 
BRANCH  13  14
ATOM     14  C   UNL     1      48.856 139.230  19.640  1.00  0.00    -0.031 C 
ATOM     15  C   UNL     1      49.274 138.592  18.544  1.00  0.00     0.004 C 
ENDBRANCH  13  14
ENDBRANCH  11  13
BRANCH  11  16
ATOM     16  C   UNL     1      50.317 138.307  23.153  1.00  0.00     0.045 C 
ATOM     17  C   UNL     1      51.733 138.679  22.699  1.00  0.00     0.008 C 
ENDBRANCH  11  16
ENDBRANCH  10  11
ENDBRANCH   1  10
BRANCH   9  18
ATOM     18  C   UNL     1      48.620 134.915  23.315  1.00  0.00     0.103 C 
ATOM     19  N   UNL     1      49.474 134.641  24.048  1.00  0.00    -0.192 NA
ENDBRANCH   9  18
BRANCH   5  20
ATOM     20  C   UNL     1      42.228 134.731  19.862  1.00  0.00     0.297 C 
BRANCH  20  21
ATOM     21  N   UNL     1      42.113 135.219  18.489  1.00  0.00    -0.120 N 
ATOM     22  N   UNL     1      41.532 136.370  18.180  1.00  0.00     0.089 NA
ATOM     23  C   UNL     1      42.512 134.626  17.336  1.00  0.00     0.257 A 
ATOM     24  N   UNL     1      41.552 136.551  16.869  1.00  0.00    -0.147 N 
ATOM     25  C   UNL     1      42.155 135.485  16.311  1.00  0.00     0.175 A 
ATOM     26  H   UNL     1      41.159 137.383  16.378  1.00  0.00     0.342 HD
ATOM     27  C   UNL     1      42.370 135.301  14.842  1.00  0.00     0.100 C 
BRANCH  23  28
ATOM     28  C   UNL     1      43.187 133.319  17.189  1.00  0.00     0.294 A 
ATOM     29  N   UNL     1      42.697 132.140  17.619  1.00  0.00    -0.103 NA
ATOM     30  O   UNL     1      44.348 133.159  16.601  1.00  0.00    -0.417 OA
ATOM     31  N   UNL     1      43.588 131.219  17.285  1.00  0.00    -0.112 NA
ATOM     32  C   UNL     1      44.585 131.871  16.661  1.00  0.00     0.220 A 
BRANCH  32  33
ATOM     33  C   UNL     1      45.813 131.201  16.118  1.00  0.00     0.081 C 
ATOM     34  C   UNL     1      46.442 131.888  14.908  1.00  0.00     0.017 C 
ATOM     35  C   UNL     1      45.709 130.564  14.731  1.00  0.00    -0.001 C 
ATOM     36  C   UNL     1      44.374 130.656  13.981  1.00  0.00     0.008 C 
ENDBRANCH  32  33
ENDBRANCH  23  28
ENDBRANCH  20  21
ENDBRANCH   5  20
TORSDOF 10
ENDMDL
MODEL 9
REMARK VINA RESULT:      -5.4      1.594      2.246
REMARK SMILES C=CC[C@](C)(CC)Oc1cc2nc(Cn3n[nH+]c(C)c3-c3nnc([C@@H]4C[C@@H]4C)o3)[n-]c2cc1C#N
REMARK SMILES IDX 9 1 10 2 11 3 12 4 13 5 30 6 31 7 32 8 33 9 8 10 4 11 5 12
REMARK SMILES IDX 3 13 2 14 1 15 6 16 7 17 34 18 35 19 14 20 15 21 16 22 20 23
REMARK SMILES IDX 17 24 18 25 19 27 21 28 22 29 29 30 23 31 24 32 25 33 26 34
REMARK SMILES IDX 27 35 28 36
REMARK H PARENT 17 26
ROOT
ATOM      1  C   UNL     1      44.186 132.034  16.252  1.00  0.00     0.138 A 
ATOM      2  C   UNL     1      44.806 131.740  17.494  1.00  0.00     0.051 A 
ATOM      3  C   UNL     1      44.024 131.782  18.644  1.00  0.00    -0.035 A 
ATOM      4  N   UNL     1      44.413 131.543  19.905  1.00  0.00    -0.436 NA
ATOM      5  C   UNL     1      43.263 131.729  20.607  1.00  0.00    -0.037 A 
ATOM      6  N   UNL     1      42.187 132.062  19.847  1.00  0.00    -0.436 NA
ATOM      7  C   UNL     1      42.702 132.089  18.610  1.00  0.00    -0.037 A 
ATOM      8  C   UNL     1      42.045 132.380  17.422  1.00  0.00     0.027 A 
ATOM      9  C   UNL     1      42.798 132.351  16.231  1.00  0.00     0.094 A 
ENDROOT
BRANCH   1  10
ATOM     10  O   UNL     1      44.872 132.040  15.018  1.00  0.00    -0.486 OA
BRANCH  10  11
ATOM     11  C   UNL     1      45.422 130.956  14.247  1.00  0.00     0.109 C 
ATOM     12  C   UNL     1      44.333 130.553  13.226  1.00  0.00     0.057 C 
BRANCH  11  13
ATOM     13  C   UNL     1      45.729 129.714  15.136  1.00  0.00     0.075 C 
BRANCH  13  14
ATOM     14  C   UNL     1      47.157 129.668  15.622  1.00  0.00    -0.031 C 
ATOM     15  C   UNL     1      48.156 129.385  14.782  1.00  0.00     0.004 C 
ENDBRANCH  13  14
ENDBRANCH  11  13
BRANCH  11  16
ATOM     16  C   UNL     1      46.699 131.391  13.464  1.00  0.00     0.045 C 
ATOM     17  C   UNL     1      46.878 130.677  12.120  1.00  0.00     0.008 C 
ENDBRANCH  11  16
ENDBRANCH  10  11
ENDBRANCH   1  10
BRANCH   9  18
ATOM     18  C   UNL     1      42.143 132.658  14.984  1.00  0.00     0.103 C 
ATOM     19  N   UNL     1      41.614 132.902  13.984  1.00  0.00    -0.192 NA
ENDBRANCH   9  18
BRANCH   5  20
ATOM     20  C   UNL     1      43.192 131.568  22.093  1.00  0.00     0.297 C 
BRANCH  20  21
ATOM     21  N   UNL     1      44.112 132.497  22.748  1.00  0.00    -0.120 N 
ATOM     22  N   UNL     1      45.265 132.112  23.278  1.00  0.00     0.089 NA
ATOM     23  C   UNL     1      43.971 133.828  22.965  1.00  0.00     0.257 A 
ATOM     24  N   UNL     1      45.883 133.150  23.820  1.00  0.00    -0.147 N 
ATOM     25  C   UNL     1      45.107 134.235  23.643  1.00  0.00     0.175 A 
ATOM     26  H   UNL     1      46.810 133.107  24.297  1.00  0.00     0.342 HD
ATOM     27  C   UNL     1      45.449 135.612  24.119  1.00  0.00     0.100 C 
BRANCH  23  28
ATOM     28  C   UNL     1      42.833 134.684  22.570  1.00  0.00     0.294 A 
ATOM     29  N   UNL     1      41.786 134.995  23.357  1.00  0.00    -0.103 NA
ATOM     30  O   UNL     1      42.723 135.255  21.394  1.00  0.00    -0.417 OA
ATOM     31  N   UNL     1      41.000 135.787  22.643  1.00  0.00    -0.112 NA
ATOM     32  C   UNL     1      41.601 135.930  21.448  1.00  0.00     0.220 A 
BRANCH  32  33
ATOM     33  C   UNL     1      41.042 136.752  20.323  1.00  0.00     0.081 C 
ATOM     34  C   UNL     1      39.536 136.997  20.389  1.00  0.00     0.017 C 
ATOM     35  C   UNL     1      40.104 136.049  19.340  1.00  0.00    -0.001 C 
ATOM     36  C   UNL     1      39.787 134.566  19.563  1.00  0.00     0.008 C 
ENDBRANCH  32  33
ENDBRANCH  23  28
ENDBRANCH  20  21
ENDBRANCH   5  20
TORSDOF 10
ENDMDL


