MODEL 1
REMARK VINA RESULT:      -7.2      0.000      0.000
REMARK SMILES [N-]=[N+]=Nc1ccc2c3c(cc(/C(O)=N/[NH+]=[N-])c(OC(=O)[C@]4(N)C[C@H](CO)C4)c13)C=C2
REMARK SMILES IDX 18 1 17 2 11 3 10 4 9 5 28 6 8 7 29 8 4 9 7 10 30 11 5 12
REMARK SMILES IDX 6 13 12 14 13 15 14 17 15 18 16 20 3 21 2 22 1 23 19 24
REMARK SMILES IDX 20 25 21 26 27 27 23 28 24 29 22 30 25 33 26 34
REMARK H PARENT 13 16 15 19 22 31 22 32 26 35
ROOT
ATOM      1  O   UNL     1      42.130 133.367  17.277  1.00  0.00    -0.424 OA
ENDROOT
BRANCH   1   2
ATOM      2  C   UNL     1      42.867 132.643  16.333  1.00  0.00     0.150 A 
ATOM      3  C   UNL     1      42.521 132.682  14.939  1.00  0.00     0.062 A 
ATOM      4  C   UNL     1      43.237 131.887  14.007  1.00  0.00     0.024 A 
ATOM      5  C   UNL     1      44.287 131.103  14.475  1.00  0.00    -0.016 A 
ATOM      6  C   UNL     1      43.963 131.848  16.761  1.00  0.00     0.036 A 
ATOM      7  C   UNL     1      44.617 131.110  15.788  1.00  0.00     0.000 A 
ATOM      8  C   UNL     1      45.225 130.201  13.799  1.00  0.00     0.009 C 
ATOM      9  C   UNL     1      44.444 131.719  18.094  1.00  0.00     0.049 A 
ATOM     10  C   UNL     1      45.675 130.291  16.020  1.00  0.00    -0.017 A 
ATOM     11  C   UNL     1      46.060 129.710  14.730  1.00  0.00     0.009 C 
ATOM     12  C   UNL     1      45.557 130.860  18.351  1.00  0.00     0.011 A 
ATOM     13  C   UNL     1      46.179 130.139  17.307  1.00  0.00     0.009 A 
BRANCH   3  14
ATOM     14  C   UNL     1      41.465 133.584  14.429  1.00  0.00     0.172 C 
BRANCH  14  15
ATOM     15  O   UNL     1      40.209 133.074  14.097  1.00  0.00    -0.506 OA
ATOM     16  H   UNL     1      39.641 133.492  13.370  1.00  0.00     0.293 HD
ENDBRANCH  14  15
BRANCH  14  17
ATOM     17  N   UNL     1      41.723 134.846  14.262  1.00  0.00    -0.151 NA
BRANCH  17  18
ATOM     18  N   UNL     1      42.538 135.577  15.140  1.00  0.00    -0.169 N 
ATOM     19  H   UNL     1      42.177 135.921  16.058  1.00  0.00     0.475 HD
ATOM     20  N   UNL     1      43.733 135.848  14.809  1.00  0.00    -0.151 NA
ENDBRANCH  17  18
ENDBRANCH  14  17
ENDBRANCH   3  14
BRANCH   9  21
ATOM     21  N   UNL     1      43.815 132.447  19.159  1.00  0.00    -0.060 NA
BRANCH  21  22
ATOM     22  N   UNL     1      43.220 131.887  20.082  1.00  0.00     0.005 N 
ATOM     23  N   UNL     1      42.628 131.329  21.004  1.00  0.00    -0.003 NA
ENDBRANCH  21  22
ENDBRANCH   9  21
ENDBRANCH   1   2
BRANCH   1  24
ATOM     24  C   UNL     1      40.896 132.933  17.779  1.00  0.00     0.331 C 
ATOM     25  O   UNL     1      40.601 131.706  17.764  1.00  0.00    -0.250 OA
BRANCH  24  26
ATOM     26  C   UNL     1      39.895 133.929  18.326  1.00  0.00     0.116 C 
ATOM     27  C   UNL     1      38.438 133.493  18.118  1.00  0.00     0.040 C 
ATOM     28  C   UNL     1      39.652 135.163  17.441  1.00  0.00     0.040 C 
ATOM     29  C   UNL     1      38.200 134.723  17.236  1.00  0.00     0.019 C 
BRANCH  26  30
ATOM     30  N   UNL     1      40.190 134.294  19.719  1.00  0.00    -0.316 NA
ATOM     31  H   UNL     1      39.390 134.023  20.337  1.00  0.00     0.119 HD
ATOM     32  H   UNL     1      41.012 133.735  20.044  1.00  0.00     0.119 HD
ENDBRANCH  26  30
BRANCH  29  33
ATOM     33  C   UNL     1      37.861 134.374  15.781  1.00  0.00     0.159 C 
BRANCH  33  34
ATOM     34  O   UNL     1      36.626 134.937  15.441  1.00  0.00    -0.396 OA
ATOM     35  H   UNL     1      36.753 135.367  14.557  1.00  0.00     0.210 HD
ENDBRANCH  33  34
ENDBRANCH  29  33
ENDBRANCH  24  26
ENDBRANCH   1  24
TORSDOF 12
ENDMDL
MODEL 2
REMARK VINA RESULT:      -7.0      1.352      1.843
REMARK SMILES [N-]=[N+]=Nc1ccc2c3c(cc(/C(O)=N/[NH+]=[N-])c(OC(=O)[C@]4(N)C[C@H](CO)C4)c13)C=C2
REMARK SMILES IDX 18 1 17 2 11 3 10 4 9 5 28 6 8 7 29 8 4 9 7 10 30 11 5 12
REMARK SMILES IDX 6 13 12 14 13 15 14 17 15 18 16 20 3 21 2 22 1 23 19 24
REMARK SMILES IDX 20 25 21 26 27 27 23 28 24 29 22 30 25 33 26 34
REMARK H PARENT 13 16 15 19 22 31 22 32 26 35
ROOT
ATOM      1  O   UNL     1      42.111 133.259  17.237  1.00  0.00    -0.424 OA
ENDROOT
BRANCH   1   2
ATOM      2  C   UNL     1      42.881 132.566  16.297  1.00  0.00     0.150 A 
ATOM      3  C   UNL     1      42.574 132.633  14.896  1.00  0.00     0.062 A 
ATOM      4  C   UNL     1      43.324 131.868  13.965  1.00  0.00     0.024 A 
ATOM      5  C   UNL     1      44.370 131.087  14.443  1.00  0.00    -0.016 A 
ATOM      6  C   UNL     1      43.975 131.774  16.737  1.00  0.00     0.036 A 
ATOM      7  C   UNL     1      44.665 131.067  15.766  1.00  0.00     0.000 A 
ATOM      8  C   UNL     1      45.337 130.211  13.773  1.00  0.00     0.009 C 
ATOM      9  C   UNL     1      44.421 131.620  18.079  1.00  0.00     0.049 A 
ATOM     10  C   UNL     1      45.726 130.255  16.008  1.00  0.00    -0.017 A 
ATOM     11  C   UNL     1      46.153 129.709  14.715  1.00  0.00     0.009 C 
ATOM     12  C   UNL     1      45.538 130.768  18.347  1.00  0.00     0.011 A 
ATOM     13  C   UNL     1      46.197 130.079  17.304  1.00  0.00     0.009 A 
BRANCH   3  14
ATOM     14  C   UNL     1      41.521 133.534  14.378  1.00  0.00     0.172 C 
BRANCH  14  15
ATOM     15  O   UNL     1      40.255 133.031  14.072  1.00  0.00    -0.506 OA
ATOM     16  H   UNL     1      39.531 132.948  14.775  1.00  0.00     0.293 HD
ENDBRANCH  14  15
BRANCH  14  17
ATOM     17  N   UNL     1      41.790 134.789  14.178  1.00  0.00    -0.151 NA
BRANCH  17  18
ATOM     18  N   UNL     1      42.868 135.443  14.796  1.00  0.00    -0.169 N 
ATOM     19  H   UNL     1      43.793 134.972  14.914  1.00  0.00     0.475 HD
ATOM     20  N   UNL     1      42.716 136.621  15.241  1.00  0.00    -0.151 NA
ENDBRANCH  17  18
ENDBRANCH  14  17
ENDBRANCH   3  14
BRANCH   9  21
ATOM     21  N   UNL     1      43.755 132.315  19.143  1.00  0.00    -0.060 NA
BRANCH  21  22
ATOM     22  N   UNL     1      43.444 131.765  20.201  1.00  0.00     0.005 N 
ATOM     23  N   UNL     1      43.132 131.215  21.255  1.00  0.00    -0.003 NA
ENDBRANCH  21  22
ENDBRANCH   9  21
ENDBRANCH   1   2
BRANCH   1  24
ATOM     24  C   UNL     1      40.812 132.872  17.596  1.00  0.00     0.331 C 
ATOM     25  O   UNL     1      40.575 131.676  17.921  1.00  0.00    -0.250 OA
BRANCH  24  26
ATOM     26  C   UNL     1      39.678 133.875  17.579  1.00  0.00     0.116 C 
ATOM     27  C   UNL     1      40.158 135.324  17.419  1.00  0.00     0.040 C 
ATOM     28  C   UNL     1      39.094 134.221  18.960  1.00  0.00     0.040 C 
ATOM     29  C   UNL     1      39.576 135.665  18.794  1.00  0.00     0.019 C 
BRANCH  26  30
ATOM     30  N   UNL     1      38.635 133.506  16.612  1.00  0.00    -0.316 NA
ATOM     31  H   UNL     1      37.914 132.905  17.075  1.00  0.00     0.119 HD
ATOM     32  H   UNL     1      38.138 134.375  16.309  1.00  0.00     0.119 HD
ENDBRANCH  26  30
BRANCH  29  33
ATOM     33  C   UNL     1      40.638 136.081  19.821  1.00  0.00     0.159 C 
BRANCH  33  34
ATOM     34  O   UNL     1      40.296 137.322  20.369  1.00  0.00    -0.396 OA
ATOM     35  H   UNL     1      41.084 137.618  20.894  1.00  0.00     0.210 HD
ENDBRANCH  33  34
ENDBRANCH  29  33
ENDBRANCH  24  26
ENDBRANCH   1  24
TORSDOF 12
ENDMDL
MODEL 3
REMARK VINA RESULT:      -6.8      1.299      1.567
REMARK SMILES [N-]=[N+]=Nc1ccc2c3c(cc(/C(O)=N/[NH+]=[N-])c(OC(=O)[C@]4(N)C[C@H](CO)C4)c13)C=C2
REMARK SMILES IDX 18 1 17 2 11 3 10 4 9 5 28 6 8 7 29 8 4 9 7 10 30 11 5 12
REMARK SMILES IDX 6 13 12 14 13 15 14 17 15 18 16 20 3 21 2 22 1 23 19 24
REMARK SMILES IDX 20 25 21 26 27 27 23 28 24 29 22 30 25 33 26 34
REMARK H PARENT 13 16 15 19 22 31 22 32 26 35
ROOT
ATOM      1  O   UNL     1      42.140 133.459  17.529  1.00  0.00    -0.424 OA
ENDROOT
BRANCH   1   2
ATOM      2  C   UNL     1      42.772 132.767  16.490  1.00  0.00     0.150 A 
ATOM      3  C   UNL     1      42.326 132.905  15.133  1.00  0.00     0.062 A 
ATOM      4  C   UNL     1      42.936 132.142  14.103  1.00  0.00     0.024 A 
ATOM      5  C   UNL     1      43.983 131.292  14.441  1.00  0.00    -0.016 A 
ATOM      6  C   UNL     1      43.863 131.906  16.786  1.00  0.00     0.036 A 
ATOM      7  C   UNL     1      44.411 131.205  15.724  1.00  0.00     0.000 A 
ATOM      8  C   UNL     1      44.830 130.398  13.643  1.00  0.00     0.009 C 
ATOM      9  C   UNL     1      44.436 131.678  18.068  1.00  0.00     0.049 A 
ATOM     10  C   UNL     1      45.447 130.335  15.825  1.00  0.00    -0.017 A 
ATOM     11  C   UNL     1      45.710 129.820  14.477  1.00  0.00     0.009 C 
ATOM     12  C   UNL     1      45.528 130.763  18.188  1.00  0.00     0.011 A 
ATOM     13  C   UNL     1      46.040 130.085  17.059  1.00  0.00     0.009 A 
BRANCH   3  14
ATOM     14  C   UNL     1      41.274 133.875  14.759  1.00  0.00     0.172 C 
BRANCH  14  15
ATOM     15  O   UNL     1      41.473 135.241  14.970  1.00  0.00    -0.506 OA
ATOM     16  H   UNL     1      41.371 135.658  15.887  1.00  0.00     0.293 HD
ENDBRANCH  14  15
BRANCH  14  17
ATOM     17  N   UNL     1      40.152 133.448  14.263  1.00  0.00    -0.151 NA
BRANCH  17  18
ATOM     18  N   UNL     1      39.266 134.280  13.561  1.00  0.00    -0.169 N 
ATOM     19  H   UNL     1      39.499 135.279  13.364  1.00  0.00     0.475 HD
ATOM     20  N   UNL     1      38.149 133.821  13.172  1.00  0.00    -0.151 NA
ENDBRANCH  17  18
ENDBRANCH  14  17
ENDBRANCH   3  14
BRANCH   9  21
ATOM     21  N   UNL     1      43.920 132.361  19.219  1.00  0.00    -0.060 NA
BRANCH  21  22
ATOM     22  N   UNL     1      43.384 131.768  20.157  1.00  0.00     0.005 N 
ATOM     23  N   UNL     1      42.849 131.177  21.093  1.00  0.00    -0.003 NA
ENDBRANCH  21  22
ENDBRANCH   9  21
ENDBRANCH   1   2
BRANCH   1  24
ATOM     24  C   UNL     1      40.911 133.062  18.075  1.00  0.00     0.331 C 
ATOM     25  O   UNL     1      40.486 131.888  17.892  1.00  0.00    -0.250 OA
BRANCH  24  26
ATOM     26  C   UNL     1      40.071 134.038  18.871  1.00  0.00     0.116 C 
ATOM     27  C   UNL     1      38.578 133.973  18.520  1.00  0.00     0.040 C 
ATOM     28  C   UNL     1      40.122 135.495  18.378  1.00  0.00     0.040 C 
ATOM     29  C   UNL     1      38.633 135.423  18.030  1.00  0.00     0.019 C 
BRANCH  26  30
ATOM     30  N   UNL     1      40.326 133.931  20.314  1.00  0.00    -0.316 NA
ATOM     31  H   UNL     1      41.325 133.667  20.482  1.00  0.00     0.119 HD
ATOM     32  H   UNL     1      40.199 134.875  20.747  1.00  0.00     0.119 HD
ENDBRANCH  26  30
BRANCH  29  33
ATOM     33  C   UNL     1      38.343 135.572  16.531  1.00  0.00     0.159 C 
BRANCH  33  34
ATOM     34  O   UNL     1      37.588 134.479  16.090  1.00  0.00    -0.396 OA
ATOM     35  H   UNL     1      37.117 134.130  16.889  1.00  0.00     0.210 HD
ENDBRANCH  33  34
ENDBRANCH  29  33
ENDBRANCH  24  26
ENDBRANCH   1  24
TORSDOF 12
ENDMDL
MODEL 4
REMARK VINA RESULT:      -6.7      1.911      2.709
REMARK SMILES [N-]=[N+]=Nc1ccc2c3c(cc(/C(O)=N/[NH+]=[N-])c(OC(=O)[C@]4(N)C[C@H](CO)C4)c13)C=C2
REMARK SMILES IDX 18 1 17 2 11 3 10 4 9 5 28 6 8 7 29 8 4 9 7 10 30 11 5 12
REMARK SMILES IDX 6 13 12 14 13 15 14 17 15 18 16 20 3 21 2 22 1 23 19 24
REMARK SMILES IDX 20 25 21 26 27 27 23 28 24 29 22 30 25 33 26 34
REMARK H PARENT 13 16 15 19 22 31 22 32 26 35
ROOT
ATOM      1  O   UNL     1      41.909 133.565  17.419  1.00  0.00    -0.424 OA
ENDROOT
BRANCH   1   2
ATOM      2  C   UNL     1      42.601 132.847  16.437  1.00  0.00     0.150 A 
ATOM      3  C   UNL     1      42.202 132.908  15.059  1.00  0.00     0.062 A 
ATOM      4  C   UNL     1      42.873 132.118  14.089  1.00  0.00     0.024 A 
ATOM      5  C   UNL     1      43.931 131.318  14.505  1.00  0.00    -0.016 A 
ATOM      6  C   UNL     1      43.704 132.034  16.812  1.00  0.00     0.036 A 
ATOM      7  C   UNL     1      44.312 131.303  15.805  1.00  0.00     0.000 A 
ATOM      8  C   UNL     1      44.833 130.415  13.781  1.00  0.00     0.009 C 
ATOM      9  C   UNL     1      44.234 131.883  18.124  1.00  0.00     0.049 A 
ATOM     10  C   UNL     1      45.369 130.470  15.985  1.00  0.00    -0.017 A 
ATOM     11  C   UNL     1      45.698 129.903  14.673  1.00  0.00     0.009 C 
ATOM     12  C   UNL     1      45.347 131.008  18.326  1.00  0.00     0.011 A 
ATOM     13  C   UNL     1      45.921 130.295  17.249  1.00  0.00     0.009 A 
BRANCH   3  14
ATOM     14  C   UNL     1      41.137 133.828  14.602  1.00  0.00     0.172 C 
BRANCH  14  15
ATOM     15  O   UNL     1      41.223 135.193  14.879  1.00  0.00    -0.506 OA
ATOM     16  H   UNL     1      40.504 135.842  14.585  1.00  0.00     0.293 HD
ENDBRANCH  14  15
BRANCH  14  17
ATOM     17  N   UNL     1      40.106 133.354  13.969  1.00  0.00    -0.151 NA
BRANCH  17  18
ATOM     18  N   UNL     1      38.791 133.752  14.254  1.00  0.00    -0.169 N 
ATOM     19  H   UNL     1      38.373 133.610  15.201  1.00  0.00     0.475 HD
ATOM     20  N   UNL     1      38.083 134.278  13.342  1.00  0.00    -0.151 NA
ENDBRANCH  17  18
ENDBRANCH  14  17
ENDBRANCH   3  14
BRANCH   9  21
ATOM     21  N   UNL     1      43.655 132.602  19.222  1.00  0.00    -0.060 NA
BRANCH  21  22
ATOM     22  N   UNL     1      44.290 133.427  19.881  1.00  0.00     0.005 N 
ATOM     23  N   UNL     1      44.924 134.250  20.539  1.00  0.00    -0.003 NA
ENDBRANCH  21  22
ENDBRANCH   9  21
ENDBRANCH   1   2
BRANCH   1  24
ATOM     24  C   UNL     1      40.551 133.363  17.699  1.00  0.00     0.331 C 
ATOM     25  O   UNL     1      40.057 132.203  17.640  1.00  0.00    -0.250 OA
BRANCH  24  26
ATOM     26  C   UNL     1      39.657 134.531  18.057  1.00  0.00     0.116 C 
ATOM     27  C   UNL     1      40.441 135.788  18.460  1.00  0.00     0.040 C 
ATOM     28  C   UNL     1      39.034 134.470  19.462  1.00  0.00     0.040 C 
ATOM     29  C   UNL     1      39.820 135.722  19.858  1.00  0.00     0.019 C 
BRANCH  26  30
ATOM     30  N   UNL     1      38.653 134.792  17.016  1.00  0.00    -0.316 NA
ATOM     31  H   UNL     1      38.408 135.809  17.001  1.00  0.00     0.119 HD
ATOM     32  H   UNL     1      39.076 134.581  16.083  1.00  0.00     0.119 HD
ENDBRANCH  26  30
BRANCH  29  33
ATOM     33  C   UNL     1      40.846 135.480  20.972  1.00  0.00     0.159 C 
BRANCH  33  34
ATOM     34  O   UNL     1      40.867 136.580  21.836  1.00  0.00    -0.396 OA
ATOM     35  H   UNL     1      40.145 136.425  22.498  1.00  0.00     0.210 HD
ENDBRANCH  33  34
ENDBRANCH  29  33
ENDBRANCH  24  26
ENDBRANCH   1  24
TORSDOF 12
ENDMDL
MODEL 5
REMARK VINA RESULT:      -6.7      1.266      3.869
REMARK SMILES [N-]=[N+]=Nc1ccc2c3c(cc(/C(O)=N/[NH+]=[N-])c(OC(=O)[C@]4(N)C[C@H](CO)C4)c13)C=C2
REMARK SMILES IDX 18 1 17 2 11 3 10 4 9 5 28 6 8 7 29 8 4 9 7 10 30 11 5 12
REMARK SMILES IDX 6 13 12 14 13 15 14 17 15 18 16 20 3 21 2 22 1 23 19 24
REMARK SMILES IDX 20 25 21 26 27 27 23 28 24 29 22 30 25 33 26 34
REMARK H PARENT 13 16 15 19 22 31 22 32 26 35
ROOT
ATOM      1  O   UNL     1      42.347 133.116  17.439  1.00  0.00    -0.424 OA
ENDROOT
BRANCH   1   2
ATOM      2  C   UNL     1      43.428 132.257  17.212  1.00  0.00     0.150 A 
ATOM      3  C   UNL     1      44.313 131.885  18.279  1.00  0.00     0.062 A 
ATOM      4  C   UNL     1      45.444 131.070  18.014  1.00  0.00     0.024 A 
ATOM      5  C   UNL     1      45.648 130.625  16.713  1.00  0.00    -0.016 A 
ATOM      6  C   UNL     1      43.661 131.758  15.902  1.00  0.00     0.036 A 
ATOM      7  C   UNL     1      44.779 130.959  15.728  1.00  0.00     0.000 A 
ATOM      8  C   UNL     1      46.677 129.772  16.108  1.00  0.00     0.009 C 
ATOM      9  C   UNL     1      42.870 132.013  14.747  1.00  0.00     0.049 A 
ATOM     10  C   UNL     1      45.158 130.407  14.547  1.00  0.00    -0.017 A 
ATOM     11  C   UNL     1      46.383 129.642  14.804  1.00  0.00     0.009 C 
ATOM     12  C   UNL     1      43.259 131.437  13.498  1.00  0.00     0.011 A 
ATOM     13  C   UNL     1      44.412 130.627  13.395  1.00  0.00     0.009 A 
BRANCH   3  14
ATOM     14  C   UNL     1      44.046 132.283  19.679  1.00  0.00     0.172 C 
BRANCH  14  15
ATOM     15  O   UNL     1      42.979 131.716  20.378  1.00  0.00    -0.506 OA
ATOM     16  H   UNL     1      42.049 131.671  19.983  1.00  0.00     0.293 HD
ENDBRANCH  14  15
BRANCH  14  17
ATOM     17  N   UNL     1      44.790 133.186  20.244  1.00  0.00    -0.151 NA
BRANCH  17  18
ATOM     18  N   UNL     1      44.284 134.417  20.689  1.00  0.00    -0.169 N 
ATOM     19  H   UNL     1      44.890 135.105  21.191  1.00  0.00     0.475 HD
ATOM     20  N   UNL     1      43.061 134.698  20.501  1.00  0.00    -0.151 NA
ENDBRANCH  17  18
ENDBRANCH  14  17
ENDBRANCH   3  14
BRANCH   9  21
ATOM     21  N   UNL     1      41.699 132.836  14.844  1.00  0.00    -0.060 NA
BRANCH  21  22
ATOM     22  N   UNL     1      41.677 134.005  14.455  1.00  0.00     0.005 N 
ATOM     23  N   UNL     1      41.657 135.171  14.065  1.00  0.00    -0.003 NA
ENDBRANCH  21  22
ENDBRANCH   9  21
ENDBRANCH   1   2
BRANCH   1  24
ATOM     24  C   UNL     1      41.097 132.669  17.887  1.00  0.00     0.331 C 
ATOM     25  O   UNL     1      40.854 131.432  17.959  1.00  0.00    -0.250 OA
BRANCH  24  26
ATOM     26  C   UNL     1      40.017 133.659  18.269  1.00  0.00     0.116 C 
ATOM     27  C   UNL     1      38.608 133.194  17.878  1.00  0.00     0.040 C 
ATOM     28  C   UNL     1      39.878 134.868  17.329  1.00  0.00     0.040 C 
ATOM     29  C   UNL     1      38.474 134.399  16.941  1.00  0.00     0.019 C 
BRANCH  26  30
ATOM     30  N   UNL     1      40.117 134.061  19.679  1.00  0.00    -0.316 NA
ATOM     31  H   UNL     1      41.052 134.495  19.862  1.00  0.00     0.119 HD
ATOM     32  H   UNL     1      39.408 134.807  19.865  1.00  0.00     0.119 HD
ENDBRANCH  26  30
BRANCH  29  33
ATOM     33  C   UNL     1      38.339 134.012  15.463  1.00  0.00     0.159 C 
BRANCH  33  34
ATOM     34  O   UNL     1      37.883 135.114  14.732  1.00  0.00    -0.396 OA
ATOM     35  H   UNL     1      37.941 134.853  13.776  1.00  0.00     0.210 HD
ENDBRANCH  33  34
ENDBRANCH  29  33
ENDBRANCH  24  26
ENDBRANCH   1  24
TORSDOF 12
ENDMDL
MODEL 6
REMARK VINA RESULT:      -6.7      1.886      2.637
REMARK SMILES [N-]=[N+]=Nc1ccc2c3c(cc(/C(O)=N/[NH+]=[N-])c(OC(=O)[C@]4(N)C[C@H](CO)C4)c13)C=C2
REMARK SMILES IDX 18 1 17 2 11 3 10 4 9 5 28 6 8 7 29 8 4 9 7 10 30 11 5 12
REMARK SMILES IDX 6 13 12 14 13 15 14 17 15 18 16 20 3 21 2 22 1 23 19 24
REMARK SMILES IDX 20 25 21 26 27 27 23 28 24 29 22 30 25 33 26 34
REMARK H PARENT 13 16 15 19 22 31 22 32 26 35
ROOT
ATOM      1  O   UNL     1      41.612 133.381  17.182  1.00  0.00    -0.424 OA
ENDROOT
BRANCH   1   2
ATOM      2  C   UNL     1      42.459 132.730  16.278  1.00  0.00     0.150 A 
ATOM      3  C   UNL     1      42.210 132.780  14.865  1.00  0.00     0.062 A 
ATOM      4  C   UNL     1      43.041 132.057  13.970  1.00  0.00     0.024 A 
ATOM      5  C   UNL     1      44.105 131.333  14.495  1.00  0.00    -0.016 A 
ATOM      6  C   UNL     1      43.574 131.998  16.767  1.00  0.00     0.036 A 
ATOM      7  C   UNL     1      44.342 131.329  15.829  1.00  0.00     0.000 A 
ATOM      8  C   UNL     1      45.147 130.510  13.870  1.00  0.00     0.009 C 
ATOM      9  C   UNL     1      43.968 131.869  18.129  1.00  0.00     0.049 A 
ATOM     10  C   UNL     1      45.433 130.575  16.120  1.00  0.00    -0.017 A 
ATOM     11  C   UNL     1      45.946 130.053  14.849  1.00  0.00     0.009 C 
ATOM     12  C   UNL     1      45.116 131.078  18.447  1.00  0.00     0.011 A 
ATOM     13  C   UNL     1      45.856 130.425  17.436  1.00  0.00     0.009 A 
BRANCH   3  14
ATOM     14  C   UNL     1      41.134 133.623  14.298  1.00  0.00     0.172 C 
BRANCH  14  15
ATOM     15  O   UNL     1      41.356 134.982  14.068  1.00  0.00    -0.506 OA
ATOM     16  H   UNL     1      40.917 135.469  13.296  1.00  0.00     0.293 HD
ENDBRANCH  14  15
BRANCH  14  17
ATOM     17  N   UNL     1      39.972 133.100  14.048  1.00  0.00    -0.151 NA
BRANCH  17  18
ATOM     18  N   UNL     1      38.778 133.836  14.107  1.00  0.00    -0.169 N 
ATOM     19  H   UNL     1      38.478 134.314  14.986  1.00  0.00     0.475 HD
ATOM     20  N   UNL     1      38.035 133.909  13.082  1.00  0.00    -0.151 NA
ENDBRANCH  17  18
ENDBRANCH  14  17
ENDBRANCH   3  14
BRANCH   9  21
ATOM     21  N   UNL     1      43.219 132.527  19.160  1.00  0.00    -0.060 NA
BRANCH  21  22
ATOM     22  N   UNL     1      43.743 133.286  19.977  1.00  0.00     0.005 N 
ATOM     23  N   UNL     1      44.266 134.046  20.790  1.00  0.00    -0.003 NA
ENDBRANCH  21  22
ENDBRANCH   9  21
ENDBRANCH   1   2
BRANCH   1  24
ATOM     24  C   UNL     1      41.455 134.773  17.216  1.00  0.00     0.331 C 
ATOM     25  O   UNL     1      42.447 135.527  17.022  1.00  0.00    -0.250 OA
BRANCH  24  26
ATOM     26  C   UNL     1      40.102 135.388  17.507  1.00  0.00     0.116 C 
ATOM     27  C   UNL     1      40.089 136.237  18.786  1.00  0.00     0.040 C 
ATOM     28  C   UNL     1      39.072 134.432  18.132  1.00  0.00     0.040 C 
ATOM     29  C   UNL     1      39.064 135.282  19.405  1.00  0.00     0.019 C 
BRANCH  26  30
ATOM     30  N   UNL     1      39.563 136.101  16.341  1.00  0.00    -0.316 NA
ATOM     31  H   UNL     1      38.747 136.692  16.628  1.00  0.00     0.119 HD
ATOM     32  H   UNL     1      40.291 136.763  15.988  1.00  0.00     0.119 HD
ENDBRANCH  26  30
BRANCH  29  33
ATOM     33  C   UNL     1      39.588 134.542  20.643  1.00  0.00     0.159 C 
BRANCH  33  34
ATOM     34  O   UNL     1      38.509 134.139  21.438  1.00  0.00    -0.396 OA
ATOM     35  H   UNL     1      38.623 133.165  21.583  1.00  0.00     0.210 HD
ENDBRANCH  33  34
ENDBRANCH  29  33
ENDBRANCH  24  26
ENDBRANCH   1  24
TORSDOF 12
ENDMDL
MODEL 7
REMARK VINA RESULT:      -6.6      2.555      3.298
REMARK SMILES [N-]=[N+]=Nc1ccc2c3c(cc(/C(O)=N/[NH+]=[N-])c(OC(=O)[C@]4(N)C[C@H](CO)C4)c13)C=C2
REMARK SMILES IDX 18 1 17 2 11 3 10 4 9 5 28 6 8 7 29 8 4 9 7 10 30 11 5 12
REMARK SMILES IDX 6 13 12 14 13 15 14 17 15 18 16 20 3 21 2 22 1 23 19 24
REMARK SMILES IDX 20 25 21 26 27 27 23 28 24 29 22 30 25 33 26 34
REMARK H PARENT 13 16 15 19 22 31 22 32 26 35
ROOT
ATOM      1  O   UNL     1      42.158 133.307  18.245  1.00  0.00    -0.424 OA
ENDROOT
BRANCH   1   2
ATOM      2  C   UNL     1      42.689 132.761  17.071  1.00  0.00     0.150 A 
ATOM      3  C   UNL     1      42.101 133.045  15.793  1.00  0.00     0.062 A 
ATOM      4  C   UNL     1      42.611 132.426  14.622  1.00  0.00     0.024 A 
ATOM      5  C   UNL     1      43.701 131.572  14.747  1.00  0.00    -0.016 A 
ATOM      6  C   UNL     1      43.818 131.902  17.148  1.00  0.00     0.036 A 
ATOM      7  C   UNL     1      44.262 131.346  15.960  1.00  0.00     0.000 A 
ATOM      8  C   UNL     1      44.473 130.802  13.766  1.00  0.00     0.009 C 
ATOM      9  C   UNL     1      44.525 131.540  18.329  1.00  0.00     0.049 A 
ATOM     10  C   UNL     1      45.317 130.499  15.849  1.00  0.00    -0.017 A 
ATOM     11  C   UNL     1      45.445 130.155  14.429  1.00  0.00     0.009 C 
ATOM     12  C   UNL     1      45.638 130.648  18.225  1.00  0.00     0.011 A 
ATOM     13  C   UNL     1      46.039 130.122  16.977  1.00  0.00     0.009 A 
BRANCH   3  14
ATOM     14  C   UNL     1      41.001 134.023  15.648  1.00  0.00     0.172 C 
BRANCH  14  15
ATOM     15  O   UNL     1      41.285 135.364  15.382  1.00  0.00    -0.506 OA
ATOM     16  H   UNL     1      41.155 135.762  14.460  1.00  0.00     0.293 HD
ENDBRANCH  14  15
BRANCH  14  17
ATOM     17  N   UNL     1      39.770 133.635  15.802  1.00  0.00    -0.151 NA
BRANCH  17  18
ATOM     18  N   UNL     1      38.880 134.263  16.687  1.00  0.00    -0.169 N 
ATOM     19  H   UNL     1      38.638 133.834  17.609  1.00  0.00     0.475 HD
ATOM     20  N   UNL     1      38.340 135.362  16.359  1.00  0.00    -0.151 NA
ENDBRANCH  17  18
ENDBRANCH  14  17
ENDBRANCH   3  14
BRANCH   9  21
ATOM     21  N   UNL     1      44.123 132.068  19.600  1.00  0.00    -0.060 NA
BRANCH  21  22
ATOM     22  N   UNL     1      44.145 131.397  20.633  1.00  0.00     0.005 N 
ATOM     23  N   UNL     1      44.168 130.729  21.666  1.00  0.00    -0.003 NA
ENDBRANCH  21  22
ENDBRANCH   9  21
ENDBRANCH   1   2
BRANCH   1  24
ATOM     24  C   UNL     1      42.100 134.686  18.489  1.00  0.00     0.331 C 
ATOM     25  O   UNL     1      40.984 135.271  18.555  1.00  0.00    -0.250 OA
BRANCH  24  26
ATOM     26  C   UNL     1      43.371 135.492  18.656  1.00  0.00     0.116 C 
ATOM     27  C   UNL     1      43.108 136.976  18.951  1.00  0.00     0.040 C 
ATOM     28  C   UNL     1      44.074 135.879  17.344  1.00  0.00     0.040 C 
ATOM     29  C   UNL     1      43.808 137.356  17.643  1.00  0.00     0.019 C 
BRANCH  26  30
ATOM     30  N   UNL     1      44.292 134.871  19.617  1.00  0.00    -0.316 NA
ATOM     31  H   UNL     1      44.484 135.531  20.407  1.00  0.00     0.119 HD
ATOM     32  H   UNL     1      43.820 134.040  20.042  1.00  0.00     0.119 HD
ENDBRANCH  26  30
BRANCH  29  33
ATOM     33  C   UNL     1      42.879 138.034  16.627  1.00  0.00     0.159 C 
BRANCH  33  34
ATOM     34  O   UNL     1      43.295 139.354  16.422  1.00  0.00    -0.396 OA
ATOM     35  H   UNL     1      42.557 139.802  15.934  1.00  0.00     0.210 HD
ENDBRANCH  33  34
ENDBRANCH  29  33
ENDBRANCH  24  26
ENDBRANCH   1  24
TORSDOF 12
ENDMDL
MODEL 8
REMARK VINA RESULT:      -6.4      2.036      4.671
REMARK SMILES [N-]=[N+]=Nc1ccc2c3c(cc(/C(O)=N/[NH+]=[N-])c(OC(=O)[C@]4(N)C[C@H](CO)C4)c13)C=C2
REMARK SMILES IDX 18 1 17 2 11 3 10 4 9 5 28 6 8 7 29 8 4 9 7 10 30 11 5 12
REMARK SMILES IDX 6 13 12 14 13 15 14 17 15 18 16 20 3 21 2 22 1 23 19 24
REMARK SMILES IDX 20 25 21 26 27 27 23 28 24 29 22 30 25 33 26 34
REMARK H PARENT 13 16 15 19 22 31 22 32 26 35
ROOT
ATOM      1  O   UNL     1      42.510 133.092  17.660  1.00  0.00    -0.424 OA
ENDROOT
BRANCH   1   2
ATOM      2  C   UNL     1      43.556 132.211  17.363  1.00  0.00     0.150 A 
ATOM      3  C   UNL     1      44.466 131.775  18.384  1.00  0.00     0.062 A 
ATOM      4  C   UNL     1      45.562 130.937  18.049  1.00  0.00     0.024 A 
ATOM      5  C   UNL     1      45.706 130.535  16.726  1.00  0.00    -0.016 A 
ATOM      6  C   UNL     1      43.727 131.755  16.029  1.00  0.00     0.036 A 
ATOM      7  C   UNL     1      44.814 130.931  15.786  1.00  0.00     0.000 A 
ATOM      8  C   UNL     1      46.687 129.675  16.054  1.00  0.00     0.009 C 
ATOM      9  C   UNL     1      42.904 132.075  14.914  1.00  0.00     0.049 A 
ATOM     10  C   UNL     1      45.135 130.412  14.573  1.00  0.00    -0.017 A 
ATOM     11  C   UNL     1      46.344 129.603  14.758  1.00  0.00     0.009 C 
ATOM     12  C   UNL     1      43.232 131.535  13.631  1.00  0.00     0.011 A 
ATOM     13  C   UNL     1      44.355 130.696  13.457  1.00  0.00     0.009 A 
BRANCH   3  14
ATOM     14  C   UNL     1      44.260 132.128  19.806  1.00  0.00     0.172 C 
BRANCH  14  15
ATOM     15  O   UNL     1      43.845 133.414  20.156  1.00  0.00    -0.506 OA
ATOM     16  H   UNL     1      42.921 133.756  19.924  1.00  0.00     0.293 HD
ENDBRANCH  14  15
BRANCH  14  17
ATOM     17  N   UNL     1      44.499 131.245  20.729  1.00  0.00    -0.151 NA
BRANCH  17  18
ATOM     18  N   UNL     1      43.648 131.045  21.827  1.00  0.00    -0.169 N 
ATOM     19  H   UNL     1      43.096 130.164  21.934  1.00  0.00     0.475 HD
ATOM     20  N   UNL     1      43.527 131.957  22.701  1.00  0.00    -0.151 NA
ENDBRANCH  17  18
ENDBRANCH  14  17
ENDBRANCH   3  14
BRANCH   9  21
ATOM     21  N   UNL     1      41.763 132.928  15.083  1.00  0.00    -0.060 NA
BRANCH  21  22
ATOM     22  N   UNL     1      41.340 133.655  14.182  1.00  0.00     0.005 N 
ATOM     23  N   UNL     1      40.917 134.380  13.284  1.00  0.00    -0.003 NA
ENDBRANCH  21  22
ENDBRANCH   9  21
ENDBRANCH   1   2
BRANCH   1  24
ATOM     24  C   UNL     1      41.207 132.663  17.948  1.00  0.00     0.331 C 
ATOM     25  O   UNL     1      40.981 131.447  18.197  1.00  0.00    -0.250 OA
BRANCH  24  26
ATOM     26  C   UNL     1      40.054 133.645  17.944  1.00  0.00     0.116 C 
ATOM     27  C   UNL     1      40.486 135.077  17.602  1.00  0.00     0.040 C 
ATOM     28  C   UNL     1      39.594 134.116  19.334  1.00  0.00     0.040 C 
ATOM     29  C   UNL     1      40.027 135.542  18.987  1.00  0.00     0.019 C 
BRANCH  26  30
ATOM     30  N   UNL     1      38.934 133.171  17.119  1.00  0.00    -0.316 NA
ATOM     31  H   UNL     1      39.238 133.077  16.122  1.00  0.00     0.119 HD
ATOM     32  H   UNL     1      38.671 132.209  17.434  1.00  0.00     0.119 HD
ENDBRANCH  26  30
BRANCH  29  33
ATOM     33  C   UNL     1      41.170 136.070  19.864  1.00  0.00     0.159 C 
BRANCH  33  34
ATOM     34  O   UNL     1      41.042 137.455  20.016  1.00  0.00    -0.396 OA
ATOM     35  H   UNL     1      40.072 137.650  19.945  1.00  0.00     0.210 HD
ENDBRANCH  33  34
ENDBRANCH  29  33
ENDBRANCH  24  26
ENDBRANCH   1  24
TORSDOF 12
ENDMDL
MODEL 9
REMARK VINA RESULT:      -6.4      3.075      4.865
REMARK SMILES [N-]=[N+]=Nc1ccc2c3c(cc(/C(O)=N/[NH+]=[N-])c(OC(=O)[C@]4(N)C[C@H](CO)C4)c13)C=C2
REMARK SMILES IDX 18 1 17 2 11 3 10 4 9 5 28 6 8 7 29 8 4 9 7 10 30 11 5 12
REMARK SMILES IDX 6 13 12 14 13 15 14 17 15 18 16 20 3 21 2 22 1 23 19 24
REMARK SMILES IDX 20 25 21 26 27 27 23 28 24 29 22 30 25 33 26 34
REMARK H PARENT 13 16 15 19 22 31 22 32 26 35
ROOT
ATOM      1  O   UNL     1      42.755 132.437  16.531  1.00  0.00    -0.424 OA
ENDROOT
BRANCH   1   2
ATOM      2  C   UNL     1      43.675 132.013  17.496  1.00  0.00     0.150 A 
ATOM      3  C   UNL     1      44.917 131.402  17.113  1.00  0.00     0.062 A 
ATOM      4  C   UNL     1      45.806 130.916  18.107  1.00  0.00     0.024 A 
ATOM      5  C   UNL     1      45.455 131.074  19.443  1.00  0.00    -0.016 A 
ATOM      6  C   UNL     1      43.370 132.177  18.873  1.00  0.00     0.036 A 
ATOM      7  C   UNL     1      44.294 131.685  19.781  1.00  0.00     0.000 A 
ATOM      8  C   UNL     1      46.132 130.715  20.694  1.00  0.00     0.009 C 
ATOM      9  C   UNL     1      42.198 132.778  19.413  1.00  0.00     0.049 A 
ATOM     10  C   UNL     1      44.160 131.746  21.130  1.00  0.00    -0.017 A 
ATOM     11  C   UNL     1      45.352 131.119  21.709  1.00  0.00     0.009 C 
ATOM     12  C   UNL     1      42.046 132.848  20.833  1.00  0.00     0.011 A 
ATOM     13  C   UNL     1      43.033 132.329  21.701  1.00  0.00     0.009 A 
BRANCH   3  14
ATOM     14  C   UNL     1      45.333 131.317  15.696  1.00  0.00     0.172 C 
BRANCH  14  15
ATOM     15  O   UNL     1      46.114 132.327  15.132  1.00  0.00    -0.506 OA
ATOM     16  H   UNL     1      46.540 133.049  15.699  1.00  0.00     0.293 HD
ENDBRANCH  14  15
BRANCH  14  17
ATOM     17  N   UNL     1      44.940 130.313  14.971  1.00  0.00    -0.151 NA
BRANCH  17  18
ATOM     18  N   UNL     1      45.667 129.844  13.865  1.00  0.00    -0.169 N 
ATOM     19  H   UNL     1      45.251 129.830  12.907  1.00  0.00     0.475 HD
ATOM     20  N   UNL     1      46.847 129.408  14.030  1.00  0.00    -0.151 NA
ENDBRANCH  17  18
ENDBRANCH  14  17
ENDBRANCH   3  14
BRANCH   9  21
ATOM     21  N   UNL     1      41.191 133.305  18.539  1.00  0.00    -0.060 NA
BRANCH  21  22
ATOM     22  N   UNL     1      40.148 133.809  18.958  1.00  0.00     0.005 N 
ATOM     23  N   UNL     1      39.107 134.313  19.377  1.00  0.00    -0.003 NA
ENDBRANCH  21  22
ENDBRANCH   9  21
ENDBRANCH   1   2
BRANCH   1  24
ATOM     24  C   UNL     1      42.839 133.679  15.887  1.00  0.00     0.331 C 
ATOM     25  O   UNL     1      43.966 134.202  15.664  1.00  0.00    -0.250 OA
BRANCH  24  26
ATOM     26  C   UNL     1      41.584 134.417  15.470  1.00  0.00     0.116 C 
ATOM     27  C   UNL     1      41.753 135.199  14.160  1.00  0.00     0.040 C 
ATOM     28  C   UNL     1      41.323 135.734  16.221  1.00  0.00     0.040 C 
ATOM     29  C   UNL     1      41.493 136.508  14.912  1.00  0.00     0.019 C 
BRANCH  26  30
ATOM     30  N   UNL     1      40.408 133.537  15.465  1.00  0.00    -0.316 NA
ATOM     31  H   UNL     1      39.726 133.848  16.197  1.00  0.00     0.119 HD
ATOM     32  H   UNL     1      39.917 133.641  14.548  1.00  0.00     0.119 HD
ENDBRANCH  26  30
BRANCH  29  33
ATOM     33  C   UNL     1      42.695 137.462  14.911  1.00  0.00     0.159 C 
BRANCH  33  34
ATOM     34  O   UNL     1      42.373 138.618  14.193  1.00  0.00    -0.396 OA
ATOM     35  H   UNL     1      41.816 138.321  13.427  1.00  0.00     0.210 HD
ENDBRANCH  33  34
ENDBRANCH  29  33
ENDBRANCH  24  26
ENDBRANCH   1  24
TORSDOF 12
ENDMDL


