MODEL 1
REMARK VINA RESULT:      -6.6      0.000      0.000
REMARK SMILES C#Cc1ccc(-n2cc(CCCCN(C)[C@@H](C)C#N)nn2)cc(N)ccc2ccccc12
REMARK SMILES IDX 11 1 10 2 9 3 7 4 8 5 21 6 20 7 6 8 3 9 4 10 32 11 5 12
REMARK SMILES IDX 31 13 27 14 30 15 26 16 28 17 22 18 29 19 25 20 23 21 2 22
REMARK SMILES IDX 1 23 24 24 12 27 13 28 14 29 15 30 16 31 17 32 18 33 19 34
REMARK H PARENT 24 25 24 26
ROOT
ATOM      1  C   UNL     1      45.258 132.033  16.772  1.00  0.00     0.008 C 
ENDROOT
BRANCH   1   2
ATOM      2  C   UNL     1      43.825 132.321  17.254  1.00  0.00     0.060 C 
BRANCH   2   3
ATOM      3  C   UNL     1      43.066 133.289  16.388  1.00  0.00     0.083 A 
ATOM      4  N   UNL     1      41.498 134.264  15.226  1.00  0.00    -0.220 N 
ATOM      5  C   UNL     1      41.698 133.391  16.230  1.00  0.00     0.140 A 
ATOM      6  N   UNL     1      42.679 134.666  14.782  1.00  0.00    -0.062 NA
ATOM      7  N   UNL     1      43.653 134.084  15.468  1.00  0.00    -0.135 NA
BRANCH   4   8
ATOM      8  C   UNL     1      40.235 134.635  14.643  1.00  0.00     0.068 A 
ATOM      9  C   UNL     1      39.759 135.969  17.352  1.00  0.00     0.032 A 
ATOM     10  C   UNL     1      38.955 134.979  16.741  1.00  0.00     0.020 A 
ATOM     11  C   UNL     1      40.556 136.910  16.639  1.00  0.00    -0.003 A 
ATOM     12  C   UNL     1      39.060 134.546  15.409  1.00  0.00     0.030 A 
ATOM     13  C   UNL     1      41.822 137.261  17.160  1.00  0.00     0.010 A 
ATOM     14  C   UNL     1      40.194 137.416  15.352  1.00  0.00    -0.017 A 
ATOM     15  C   UNL     1      42.746 137.965  16.383  1.00  0.00     0.001 A 
ATOM     16  C   UNL     1      38.868 137.350  14.880  1.00  0.00     0.011 A 
ATOM     17  C   UNL     1      41.162 138.068  14.564  1.00  0.00     0.009 A 
ATOM     18  C   UNL     1      40.194 135.096  13.312  1.00  0.00     0.053 A 
ATOM     19  C   UNL     1      42.429 138.341  15.080  1.00  0.00     0.001 A 
ATOM     20  C   UNL     1      38.513 136.922  13.591  1.00  0.00     0.026 A 
ATOM     21  C   UNL     1      39.252 136.016  12.796  1.00  0.00     0.034 A 
BRANCH   9  22
ATOM     22  C   UNL     1      39.733 136.020  18.796  1.00  0.00    -0.070 C 
ATOM     23  C   UNL     1      39.699 136.067  20.000  1.00  0.00     0.010 C 
ENDBRANCH   9  22
BRANCH  21  24
ATOM     24  N   UNL     1      39.031 136.024  11.381  1.00  0.00    -0.399 N 
ATOM     25  H   UNL     1      38.891 135.132  10.853  1.00  0.00     0.156 HD
ATOM     26  H   UNL     1      39.022 136.921  10.843  1.00  0.00     0.156 HD
ENDBRANCH  21  24
ENDBRANCH   4   8
ENDBRANCH   2   3
ENDBRANCH   1   2
BRANCH   1  27
ATOM     27  C   UNL     1      45.759 130.616  17.112  1.00  0.00     0.016 C 
BRANCH  27  28
ATOM     28  C   UNL     1      46.823 130.115  16.124  1.00  0.00     0.085 C 
BRANCH  28  29
ATOM     29  N   UNL     1      46.178 129.591  14.894  1.00  0.00    -0.291 NA
ATOM     30  C   UNL     1      45.003 128.752  15.225  1.00  0.00     0.106 C 
BRANCH  29  31
ATOM     31  C   UNL     1      45.869 130.676  13.921  1.00  0.00     0.157 C 
ATOM     32  C   UNL     1      46.614 130.485  12.594  1.00  0.00     0.041 C 
BRANCH  31  33
ATOM     33  C   UNL     1      44.419 130.822  13.680  1.00  0.00     0.081 C 
ATOM     34  N   UNL     1      43.284 130.941  13.490  1.00  0.00    -0.197 NA
ENDBRANCH  31  33
ENDBRANCH  29  31
ENDBRANCH  28  29
ENDBRANCH  27  28
ENDBRANCH   1  27
TORSDOF 10
ENDMDL
MODEL 2
REMARK VINA RESULT:      -6.4      2.137      3.839
REMARK SMILES C#Cc1ccc(-n2cc(CCCCN(C)[C@@H](C)C#N)nn2)cc(N)ccc2ccccc12
REMARK SMILES IDX 11 1 10 2 9 3 7 4 8 5 21 6 20 7 6 8 3 9 4 10 32 11 5 12
REMARK SMILES IDX 31 13 27 14 30 15 26 16 28 17 22 18 29 19 25 20 23 21 2 22
REMARK SMILES IDX 1 23 24 24 12 27 13 28 14 29 15 30 16 31 17 32 18 33 19 34
REMARK H PARENT 24 25 24 26
ROOT
ATOM      1  C   UNL     1      45.361 132.074  16.562  1.00  0.00     0.008 C 
ENDROOT
BRANCH   1   2
ATOM      2  C   UNL     1      44.559 132.155  17.872  1.00  0.00     0.060 C 
BRANCH   2   3
ATOM      3  C   UNL     1      43.128 132.584  17.694  1.00  0.00     0.083 A 
ATOM      4  N   UNL     1      41.160 133.470  18.010  1.00  0.00    -0.220 N 
ATOM      5  C   UNL     1      42.450 133.575  18.376  1.00  0.00     0.140 A 
ATOM      6  N   UNL     1      41.049 132.460  17.159  1.00  0.00    -0.062 NA
ATOM      7  N   UNL     1      42.232 131.899  16.953  1.00  0.00    -0.135 NA
BRANCH   4   8
ATOM      8  C   UNL     1      40.053 134.236  18.519  1.00  0.00     0.068 A 
ATOM      9  C   UNL     1      41.174 136.427  16.704  1.00  0.00     0.032 A 
ATOM     10  C   UNL     1      40.963 136.507  18.100  1.00  0.00     0.020 A 
ATOM     11  C   UNL     1      40.416 135.602  15.822  1.00  0.00    -0.003 A 
ATOM     12  C   UNL     1      40.242 135.583  18.874  1.00  0.00     0.030 A 
ATOM     13  C   UNL     1      41.082 134.960  14.754  1.00  0.00     0.010 A 
ATOM     14  C   UNL     1      39.040 135.287  16.046  1.00  0.00    -0.017 A 
ATOM     15  C   UNL     1      40.454 133.945  14.027  1.00  0.00     0.001 A 
ATOM     16  C   UNL     1      38.234 136.069  16.896  1.00  0.00     0.011 A 
ATOM     17  C   UNL     1      38.449 134.220  15.344  1.00  0.00     0.009 A 
ATOM     18  C   UNL     1      38.787 133.630  18.641  1.00  0.00     0.053 A 
ATOM     19  C   UNL     1      39.153 133.555  14.339  1.00  0.00     0.001 A 
ATOM     20  C   UNL     1      37.372 135.538  17.869  1.00  0.00     0.026 A 
ATOM     21  C   UNL     1      37.547 134.301  18.532  1.00  0.00     0.034 A 
BRANCH   9  22
ATOM     22  C   UNL     1      42.218 137.264  16.160  1.00  0.00    -0.070 C 
ATOM     23  C   UNL     1      43.096 137.953  15.703  1.00  0.00     0.010 C 
ENDBRANCH   9  22
BRANCH  21  24
ATOM     24  N   UNL     1      36.400 133.690  19.135  1.00  0.00    -0.399 N 
ATOM     25  H   UNL     1      36.355 132.656  19.281  1.00  0.00     0.156 HD
ATOM     26  H   UNL     1      35.575 134.264  19.425  1.00  0.00     0.156 HD
ENDBRANCH  21  24
ENDBRANCH   4   8
ENDBRANCH   2   3
ENDBRANCH   1   2
BRANCH   1  27
ATOM     27  C   UNL     1      44.505 132.250  15.292  1.00  0.00     0.016 C 
BRANCH  27  28
ATOM     28  C   UNL     1      44.494 130.992  14.411  1.00  0.00     0.085 C 
BRANCH  28  29
ATOM     29  N   UNL     1      45.613 130.092  14.783  1.00  0.00    -0.291 NA
ATOM     30  C   UNL     1      45.127 128.931  15.565  1.00  0.00     0.106 C 
BRANCH  29  31
ATOM     31  C   UNL     1      46.432 129.702  13.601  1.00  0.00     0.157 C 
ATOM     32  C   UNL     1      46.292 130.706  12.451  1.00  0.00     0.041 C 
BRANCH  31  33
ATOM     33  C   UNL     1      47.856 129.504  13.942  1.00  0.00     0.081 C 
ATOM     34  N   UNL     1      48.973 129.348  14.203  1.00  0.00    -0.197 NA
ENDBRANCH  31  33
ENDBRANCH  29  31
ENDBRANCH  28  29
ENDBRANCH  27  28
ENDBRANCH   1  27
TORSDOF 10
ENDMDL
MODEL 3
REMARK VINA RESULT:      -6.3      0.941      1.088
REMARK SMILES C#Cc1ccc(-n2cc(CCCCN(C)[C@@H](C)C#N)nn2)cc(N)ccc2ccccc12
REMARK SMILES IDX 11 1 10 2 9 3 7 4 8 5 21 6 20 7 6 8 3 9 4 10 32 11 5 12
REMARK SMILES IDX 31 13 27 14 30 15 26 16 28 17 22 18 29 19 25 20 23 21 2 22
REMARK SMILES IDX 1 23 24 24 12 27 13 28 14 29 15 30 16 31 17 32 18 33 19 34
REMARK H PARENT 24 25 24 26
ROOT
ATOM      1  C   UNL     1      45.542 132.642  16.017  1.00  0.00     0.008 C 
ENDROOT
BRANCH   1   2
ATOM      2  C   UNL     1      44.554 133.626  16.667  1.00  0.00     0.060 C 
BRANCH   2   3
ATOM      3  C   UNL     1      43.119 133.412  16.270  1.00  0.00     0.083 A 
ATOM      4  N   UNL     1      41.117 133.688  15.449  1.00  0.00    -0.220 N 
ATOM      5  C   UNL     1      42.391 134.103  15.323  1.00  0.00     0.140 A 
ATOM      6  N   UNL     1      41.064 132.799  16.430  1.00  0.00    -0.062 NA
ATOM      7  N   UNL     1      42.269 132.615  16.952  1.00  0.00    -0.135 NA
BRANCH   4   8
ATOM      8  C   UNL     1      39.972 134.183  14.731  1.00  0.00     0.068 A 
ATOM      9  C   UNL     1      39.068 135.127  17.495  1.00  0.00     0.032 A 
ATOM     10  C   UNL     1      38.366 134.264  16.621  1.00  0.00     0.020 A 
ATOM     11  C   UNL     1      39.982 136.133  17.069  1.00  0.00    -0.003 A 
ATOM     12  C   UNL     1      38.686 134.025  15.275  1.00  0.00     0.030 A 
ATOM     13  C   UNL     1      41.148 136.361  17.835  1.00  0.00     0.010 A 
ATOM     14  C   UNL     1      39.843 136.832  15.830  1.00  0.00    -0.017 A 
ATOM     15  C   UNL     1      42.195 137.137  17.331  1.00  0.00     0.001 A 
ATOM     16  C   UNL     1      38.613 136.881  15.145  1.00  0.00     0.011 A 
ATOM     17  C   UNL     1      40.935 137.557  15.315  1.00  0.00     0.009 A 
ATOM     18  C   UNL     1      40.157 134.834  13.495  1.00  0.00     0.053 A 
ATOM     19  C   UNL     1      42.102 137.709  16.064  1.00  0.00     0.001 A 
ATOM     20  C   UNL     1      38.472 136.657  13.766  1.00  0.00     0.026 A 
ATOM     21  C   UNL     1      39.323 135.851  12.975  1.00  0.00     0.034 A 
BRANCH   9  22
ATOM     22  C   UNL     1      38.805 134.969  18.907  1.00  0.00    -0.070 C 
ATOM     23  C   UNL     1      38.593 134.845  20.088  1.00  0.00     0.010 C 
ENDBRANCH   9  22
BRANCH  21  24
ATOM     24  N   UNL     1      39.338 136.072  11.560  1.00  0.00    -0.399 N 
ATOM     25  H   UNL     1      38.989 136.970  11.153  1.00  0.00     0.156 HD
ATOM     26  H   UNL     1      39.682 135.335  10.904  1.00  0.00     0.156 HD
ENDBRANCH  21  24
ENDBRANCH   4   8
ENDBRANCH   2   3
ENDBRANCH   1   2
BRANCH   1  27
ATOM     27  C   UNL     1      45.610 131.269  16.716  1.00  0.00     0.016 C 
BRANCH  27  28
ATOM     28  C   UNL     1      46.665 130.342  16.094  1.00  0.00     0.085 C 
BRANCH  28  29
ATOM     29  N   UNL     1      46.117 129.674  14.888  1.00  0.00    -0.291 NA
ATOM     30  C   UNL     1      44.980 128.791  15.239  1.00  0.00     0.106 C 
BRANCH  29  31
ATOM     31  C   UNL     1      45.793 130.649  13.810  1.00  0.00     0.157 C 
ATOM     32  C   UNL     1      46.543 130.334  12.509  1.00  0.00     0.041 C 
BRANCH  31  33
ATOM     33  C   UNL     1      44.341 130.746  13.555  1.00  0.00     0.081 C 
ATOM     34  N   UNL     1      43.203 130.817  13.356  1.00  0.00    -0.197 NA
ENDBRANCH  31  33
ENDBRANCH  29  31
ENDBRANCH  28  29
ENDBRANCH  27  28
ENDBRANCH   1  27
TORSDOF 10
ENDMDL
MODEL 4
REMARK VINA RESULT:      -6.2      1.335      1.959
REMARK SMILES C#Cc1ccc(-n2cc(CCCCN(C)[C@@H](C)C#N)nn2)cc(N)ccc2ccccc12
REMARK SMILES IDX 11 1 10 2 9 3 7 4 8 5 21 6 20 7 6 8 3 9 4 10 32 11 5 12
REMARK SMILES IDX 31 13 27 14 30 15 26 16 28 17 22 18 29 19 25 20 23 21 2 22
REMARK SMILES IDX 1 23 24 24 12 27 13 28 14 29 15 30 16 31 17 32 18 33 19 34
REMARK H PARENT 24 25 24 26
ROOT
ATOM      1  C   UNL     1      44.958 132.552  15.554  1.00  0.00     0.008 C 
ENDROOT
BRANCH   1   2
ATOM      2  C   UNL     1      44.421 133.619  16.524  1.00  0.00     0.060 C 
BRANCH   2   3
ATOM      3  C   UNL     1      43.372 134.520  15.931  1.00  0.00     0.083 A 
ATOM      4  N   UNL     1      41.466 135.367  15.294  1.00  0.00    -0.220 N 
ATOM      5  C   UNL     1      42.016 134.523  16.185  1.00  0.00     0.140 A 
ATOM      6  N   UNL     1      42.431 135.847  14.525  1.00  0.00    -0.062 NA
ATOM      7  N   UNL     1      43.603 135.344  14.887  1.00  0.00    -0.135 NA
BRANCH   4   8
ATOM      8  C   UNL     1      40.064 135.640  15.114  1.00  0.00     0.068 A 
ATOM      9  C   UNL     1      40.406 137.304  17.656  1.00  0.00     0.032 A 
ATOM     10  C   UNL     1      39.506 136.230  17.459  1.00  0.00     0.020 A 
ATOM     11  C   UNL     1      40.878 138.158  16.618  1.00  0.00    -0.003 A 
ATOM     12  C   UNL     1      39.203 135.632  16.225  1.00  0.00     0.030 A 
ATOM     13  C   UNL     1      42.222 138.593  16.655  1.00  0.00     0.010 A 
ATOM     14  C   UNL     1      40.095 138.488  15.469  1.00  0.00    -0.017 A 
ATOM     15  C   UNL     1      42.807 139.205  15.544  1.00  0.00     0.001 A 
ATOM     16  C   UNL     1      38.694 138.341  15.465  1.00  0.00     0.011 A 
ATOM     17  C   UNL     1      40.721 139.049  14.339  1.00  0.00     0.009 A 
ATOM     18  C   UNL     1      39.573 135.925  13.824  1.00  0.00     0.053 A 
ATOM     19  C   UNL     1      42.069 139.406  14.380  1.00  0.00     0.001 A 
ATOM     20  C   UNL     1      37.969 137.745  14.420  1.00  0.00     0.026 A 
ATOM     21  C   UNL     1      38.465 136.756  13.539  1.00  0.00     0.034 A 
BRANCH   9  22
ATOM     22  C   UNL     1      40.841 137.539  19.014  1.00  0.00    -0.070 C 
ATOM     23  C   UNL     1      41.210 137.725  20.146  1.00  0.00     0.010 C 
ENDBRANCH   9  22
BRANCH  21  24
ATOM     24  N   UNL     1      37.801 136.580  12.282  1.00  0.00    -0.399 N 
ATOM     25  H   UNL     1      36.851 136.146  12.231  1.00  0.00     0.156 HD
ATOM     26  H   UNL     1      38.261 136.864  11.386  1.00  0.00     0.156 HD
ENDBRANCH  21  24
ENDBRANCH   4   8
ENDBRANCH   2   3
ENDBRANCH   1   2
BRANCH   1  27
ATOM     27  C   UNL     1      43.856 131.741  14.844  1.00  0.00     0.016 C 
BRANCH  27  28
ATOM     28  C   UNL     1      44.425 130.705  13.863  1.00  0.00     0.085 C 
BRANCH  28  29
ATOM     29  N   UNL     1      45.631 130.060  14.439  1.00  0.00    -0.291 NA
ATOM     30  C   UNL     1      45.260 128.932  15.326  1.00  0.00     0.106 C 
BRANCH  29  31
ATOM     31  C   UNL     1      46.616 129.680  13.388  1.00  0.00     0.157 C 
ATOM     32  C   UNL     1      46.657 130.701  12.245  1.00  0.00     0.041 C 
BRANCH  31  33
ATOM     33  C   UNL     1      47.972 129.467  13.936  1.00  0.00     0.081 C 
ATOM     34  N   UNL     1      49.031 129.295  14.368  1.00  0.00    -0.197 NA
ENDBRANCH  31  33
ENDBRANCH  29  31
ENDBRANCH  28  29
ENDBRANCH  27  28
ENDBRANCH   1  27
TORSDOF 10
ENDMDL
MODEL 5
REMARK VINA RESULT:      -6.0      2.402      5.046
REMARK SMILES C#Cc1ccc(-n2cc(CCCCN(C)[C@@H](C)C#N)nn2)cc(N)ccc2ccccc12
REMARK SMILES IDX 11 1 10 2 9 3 7 4 8 5 21 6 20 7 6 8 3 9 4 10 32 11 5 12
REMARK SMILES IDX 31 13 27 14 30 15 26 16 28 17 22 18 29 19 25 20 23 21 2 22
REMARK SMILES IDX 1 23 24 24 12 27 13 28 14 29 15 30 16 31 17 32 18 33 19 34
REMARK H PARENT 24 25 24 26
ROOT
ATOM      1  C   UNL     1      42.958 131.047  13.394  1.00  0.00     0.008 C 
ENDROOT
BRANCH   1   2
ATOM      2  C   UNL     1      42.420 132.358  13.994  1.00  0.00     0.060 C 
BRANCH   2   3
ATOM      3  C   UNL     1      43.141 132.810  15.235  1.00  0.00     0.083 A 
ATOM      4  N   UNL     1      43.643 133.261  17.309  1.00  0.00    -0.220 N 
ATOM      5  C   UNL     1      42.858 132.480  16.545  1.00  0.00     0.140 A 
ATOM      6  N   UNL     1      44.361 134.037  16.511  1.00  0.00    -0.062 NA
ATOM      7  N   UNL     1      44.071 133.788  15.242  1.00  0.00    -0.135 NA
BRANCH   4   8
ATOM      8  C   UNL     1      43.649 133.338  18.747  1.00  0.00     0.068 A 
ATOM      9  C   UNL     1      42.804 136.235  18.259  1.00  0.00     0.032 A 
ATOM     10  C   UNL     1      43.940 135.791  18.977  1.00  0.00     0.020 A 
ATOM     11  C   UNL     1      41.592 135.497  18.135  1.00  0.00    -0.003 A 
ATOM     12  C   UNL     1      44.187 134.470  19.382  1.00  0.00     0.030 A 
ATOM     13  C   UNL     1      40.901 135.529  16.903  1.00  0.00     0.010 A 
ATOM     14  C   UNL     1      41.112 134.618  19.154  1.00  0.00    -0.017 A 
ATOM     15  C   UNL     1      39.865 134.628  16.640  1.00  0.00     0.001 A 
ATOM     16  C   UNL     1      41.560 134.719  20.486  1.00  0.00     0.011 A 
ATOM     17  C   UNL     1      40.110 133.678  18.846  1.00  0.00     0.009 A 
ATOM     18  C   UNL     1      43.102 132.280  19.500  1.00  0.00     0.053 A 
ATOM     19  C   UNL     1      39.490 133.687  17.596  1.00  0.00     0.001 A 
ATOM     20  C   UNL     1      41.956 133.622  21.268  1.00  0.00     0.026 A 
ATOM     21  C   UNL     1      42.493 132.412  20.770  1.00  0.00     0.034 A 
BRANCH   9  22
ATOM     22  C   UNL     1      42.902 137.537  17.639  1.00  0.00    -0.070 C 
ATOM     23  C   UNL     1      42.992 138.619  17.115  1.00  0.00     0.010 C 
ENDBRANCH   9  22
BRANCH  21  24
ATOM     24  N   UNL     1      42.423 131.249  21.603  1.00  0.00    -0.399 N 
ATOM     25  H   UNL     1      42.942 131.205  22.510  1.00  0.00     0.156 HD
ATOM     26  H   UNL     1      41.865 130.413  21.314  1.00  0.00     0.156 HD
ENDBRANCH  21  24
ENDBRANCH   4   8
ENDBRANCH   2   3
ENDBRANCH   1   2
BRANCH   1  27
ATOM     27  C   UNL     1      44.078 130.392  14.226  1.00  0.00     0.016 C 
BRANCH  27  28
ATOM     28  C   UNL     1      45.394 130.262  13.445  1.00  0.00     0.085 C 
BRANCH  28  29
ATOM     29  N   UNL     1      46.453 129.687  14.311  1.00  0.00    -0.291 NA
ATOM     30  C   UNL     1      47.584 129.175  13.503  1.00  0.00     0.106 C 
BRANCH  29  31
ATOM     31  C   UNL     1      46.876 130.636  15.378  1.00  0.00     0.157 C 
ATOM     32  C   UNL     1      46.743 132.097  14.932  1.00  0.00     0.041 C 
BRANCH  31  33
ATOM     33  C   UNL     1      46.151 130.417  16.648  1.00  0.00     0.081 C 
ATOM     34  N   UNL     1      45.583 130.252  17.642  1.00  0.00    -0.197 NA
ENDBRANCH  31  33
ENDBRANCH  29  31
ENDBRANCH  28  29
ENDBRANCH  27  28
ENDBRANCH   1  27
TORSDOF 10
ENDMDL
MODEL 6
REMARK VINA RESULT:      -6.0      1.081      1.643
REMARK SMILES C#Cc1ccc(-n2cc(CCCCN(C)[C@@H](C)C#N)nn2)cc(N)ccc2ccccc12
REMARK SMILES IDX 11 1 10 2 9 3 7 4 8 5 21 6 20 7 6 8 3 9 4 10 32 11 5 12
REMARK SMILES IDX 31 13 27 14 30 15 26 16 28 17 22 18 29 19 25 20 23 21 2 22
REMARK SMILES IDX 1 23 24 24 12 27 13 28 14 29 15 30 16 31 17 32 18 33 19 34
REMARK H PARENT 24 25 24 26
ROOT
ATOM      1  C   UNL     1      45.390 132.186  16.283  1.00  0.00     0.008 C 
ENDROOT
BRANCH   1   2
ATOM      2  C   UNL     1      43.883 131.875  16.269  1.00  0.00     0.060 C 
BRANCH   2   3
ATOM      3  C   UNL     1      43.032 132.974  15.694  1.00  0.00     0.083 A 
ATOM      4  N   UNL     1      41.400 134.076  14.756  1.00  0.00    -0.220 N 
ATOM      5  C   UNL     1      41.677 132.945  15.430  1.00  0.00     0.140 A 
ATOM      6  N   UNL     1      42.526 134.756  14.602  1.00  0.00    -0.062 NA
ATOM      7  N   UNL     1      43.538 134.105  15.159  1.00  0.00    -0.135 NA
BRANCH   4   8
ATOM      8  C   UNL     1      40.131 134.456  14.193  1.00  0.00     0.068 A 
ATOM      9  C   UNL     1      39.395 135.036  17.103  1.00  0.00     0.032 A 
ATOM     10  C   UNL     1      38.731 134.153  16.219  1.00  0.00     0.020 A 
ATOM     11  C   UNL     1      40.116 136.194  16.692  1.00  0.00    -0.003 A 
ATOM     12  C   UNL     1      38.940 134.072  14.833  1.00  0.00     0.030 A 
ATOM     13  C   UNL     1      41.312 136.525  17.368  1.00  0.00     0.010 A 
ATOM     14  C   UNL     1      39.757 136.963  15.542  1.00  0.00    -0.017 A 
ATOM     15  C   UNL     1      42.188 137.482  16.847  1.00  0.00     0.001 A 
ATOM     16  C   UNL     1      38.469 136.889  14.978  1.00  0.00     0.011 A 
ATOM     17  C   UNL     1      40.682 137.876  15.001  1.00  0.00     0.009 A 
ATOM     18  C   UNL     1      40.098 135.223  13.011  1.00  0.00     0.053 A 
ATOM     19  C   UNL     1      41.889 138.134  15.652  1.00  0.00     0.001 A 
ATOM     20  C   UNL     1      38.218 136.758  13.603  1.00  0.00     0.026 A 
ATOM     21  C   UNL     1      39.085 136.148  12.666  1.00  0.00     0.034 A 
BRANCH   9  22
ATOM     22  C   UNL     1      39.301 134.729  18.512  1.00  0.00    -0.070 C 
ATOM     23  C   UNL     1      39.231 134.482  19.690  1.00  0.00     0.010 C 
ENDBRANCH   9  22
BRANCH  21  24
ATOM     24  N   UNL     1      38.926 136.482  11.283  1.00  0.00    -0.399 N 
ATOM     25  H   UNL     1      39.254 135.833  10.531  1.00  0.00     0.156 HD
ATOM     26  H   UNL     1      38.494 137.390  10.994  1.00  0.00     0.156 HD
ENDBRANCH  21  24
ENDBRANCH   4   8
ENDBRANCH   2   3
ENDBRANCH   1   2
BRANCH   1  27
ATOM     27  C   UNL     1      46.067 132.064  14.904  1.00  0.00     0.016 C 
BRANCH  27  28
ATOM     28  C   UNL     1      45.303 131.131  13.953  1.00  0.00     0.085 C 
BRANCH  28  29
ATOM     29  N   UNL     1      46.253 130.291  13.181  1.00  0.00    -0.291 NA
ATOM     30  C   UNL     1      47.323 131.117  12.575  1.00  0.00     0.106 C 
BRANCH  29  31
ATOM     31  C   UNL     1      46.775 129.155  13.990  1.00  0.00     0.157 C 
ATOM     32  C   UNL     1      48.115 129.493  14.655  1.00  0.00     0.041 C 
BRANCH  31  33
ATOM     33  C   UNL     1      45.803 128.687  15.000  1.00  0.00     0.081 C 
ATOM     34  N   UNL     1      45.042 128.316  15.788  1.00  0.00    -0.197 NA
ENDBRANCH  31  33
ENDBRANCH  29  31
ENDBRANCH  28  29
ENDBRANCH  27  28
ENDBRANCH   1  27
TORSDOF 10
ENDMDL
MODEL 7
REMARK VINA RESULT:      -5.9      1.943      4.126
REMARK SMILES C#Cc1ccc(-n2cc(CCCCN(C)[C@@H](C)C#N)nn2)cc(N)ccc2ccccc12
REMARK SMILES IDX 11 1 10 2 9 3 7 4 8 5 21 6 20 7 6 8 3 9 4 10 32 11 5 12
REMARK SMILES IDX 31 13 27 14 30 15 26 16 28 17 22 18 29 19 25 20 23 21 2 22
REMARK SMILES IDX 1 23 24 24 12 27 13 28 14 29 15 30 16 31 17 32 18 33 19 34
REMARK H PARENT 24 25 24 26
ROOT
ATOM      1  C   UNL     1      44.883 133.296  16.210  1.00  0.00     0.008 C 
ENDROOT
BRANCH   1   2
ATOM      2  C   UNL     1      43.674 133.458  15.272  1.00  0.00     0.060 C 
BRANCH   2   3
ATOM      3  C   UNL     1      42.375 133.724  15.981  1.00  0.00     0.083 A 
ATOM      4  N   UNL     1      40.889 134.354  17.448  1.00  0.00    -0.220 N 
ATOM      5  C   UNL     1      42.145 134.592  17.029  1.00  0.00     0.140 A 
ATOM      6  N   UNL     1      40.379 133.383  16.705  1.00  0.00    -0.062 NA
ATOM      7  N   UNL     1      41.265 132.976  15.806  1.00  0.00    -0.135 NA
BRANCH   4   8
ATOM      8  C   UNL     1      40.224 134.959  18.573  1.00  0.00     0.068 A 
ATOM      9  C   UNL     1      40.123 137.419  16.760  1.00  0.00     0.032 A 
ATOM     10  C   UNL     1      40.709 137.335  18.045  1.00  0.00     0.020 A 
ATOM     11  C   UNL     1      39.024 136.623  16.324  1.00  0.00    -0.003 A 
ATOM     12  C   UNL     1      40.548 136.273  18.950  1.00  0.00     0.030 A 
ATOM     13  C   UNL     1      39.010 136.159  14.989  1.00  0.00     0.010 A 
ATOM     14  C   UNL     1      38.002 136.160  17.209  1.00  0.00    -0.017 A 
ATOM     15  C   UNL     1      38.109 135.171  14.585  1.00  0.00     0.001 A 
ATOM     16  C   UNL     1      37.775 136.772  18.457  1.00  0.00     0.011 A 
ATOM     17  C   UNL     1      37.146 135.121  16.798  1.00  0.00     0.009 A 
ATOM     18  C   UNL     1      39.245 134.228  19.275  1.00  0.00     0.053 A 
ATOM     19  C   UNL     1      37.200 134.632  15.493  1.00  0.00     0.001 A 
ATOM     20  C   UNL     1      37.598 136.066  19.658  1.00  0.00     0.026 A 
ATOM     21  C   UNL     1      38.133 134.788  19.945  1.00  0.00     0.034 A 
BRANCH   9  22
ATOM     22  C   UNL     1      40.681 138.402  15.860  1.00  0.00    -0.070 C 
ATOM     23  C   UNL     1      41.155 139.225  15.118  1.00  0.00     0.010 C 
ENDBRANCH   9  22
BRANCH  21  24
ATOM     24  N   UNL     1      37.515 134.016  20.981  1.00  0.00    -0.399 N 
ATOM     25  H   UNL     1      36.878 134.463  21.678  1.00  0.00     0.156 HD
ATOM     26  H   UNL     1      37.703 132.991  21.072  1.00  0.00     0.156 HD
ENDBRANCH  21  24
ENDBRANCH   4   8
ENDBRANCH   2   3
ENDBRANCH   1   2
BRANCH   1  27
ATOM     27  C   UNL     1      44.983 131.905  16.866  1.00  0.00     0.016 C 
BRANCH  27  28
ATOM     28  C   UNL     1      44.337 130.802  16.013  1.00  0.00     0.085 C 
BRANCH  28  29
ATOM     29  N   UNL     1      45.381 129.912  15.447  1.00  0.00    -0.291 NA
ATOM     30  C   UNL     1      45.137 128.500  15.820  1.00  0.00     0.106 C 
BRANCH  29  31
ATOM     31  C   UNL     1      45.546 130.111  13.980  1.00  0.00     0.157 C 
ATOM     32  C   UNL     1      44.293 130.720  13.339  1.00  0.00     0.041 C 
BRANCH  31  33
ATOM     33  C   UNL     1      46.738 130.922  13.651  1.00  0.00     0.081 C 
ATOM     34  N   UNL     1      47.674 131.553  13.398  1.00  0.00    -0.197 NA
ENDBRANCH  31  33
ENDBRANCH  29  31
ENDBRANCH  28  29
ENDBRANCH  27  28
ENDBRANCH   1  27
TORSDOF 10
ENDMDL
MODEL 8
REMARK VINA RESULT:      -5.7      3.230      5.753
REMARK SMILES C#Cc1ccc(-n2cc(CCCCN(C)[C@@H](C)C#N)nn2)cc(N)ccc2ccccc12
REMARK SMILES IDX 11 1 10 2 9 3 7 4 8 5 21 6 20 7 6 8 3 9 4 10 32 11 5 12
REMARK SMILES IDX 31 13 27 14 30 15 26 16 28 17 22 18 29 19 25 20 23 21 2 22
REMARK SMILES IDX 1 23 24 24 12 27 13 28 14 29 15 30 16 31 17 32 18 33 19 34
REMARK H PARENT 24 25 24 26
ROOT
ATOM      1  C   UNL     1      45.568 131.093  18.277  1.00  0.00     0.008 C 
ENDROOT
BRANCH   1   2
ATOM      2  C   UNL     1      44.747 131.156  16.977  1.00  0.00     0.060 C 
BRANCH   2   3
ATOM      3  C   UNL     1      44.516 132.549  16.461  1.00  0.00     0.083 A 
ATOM      4  N   UNL     1      43.992 134.662  16.319  1.00  0.00    -0.220 N 
ATOM      5  C   UNL     1      44.357 133.708  17.194  1.00  0.00     0.140 A 
ATOM      6  N   UNL     1      43.919 134.116  15.114  1.00  0.00    -0.062 NA
ATOM      7  N   UNL     1      44.227 132.828  15.172  1.00  0.00    -0.135 NA
BRANCH   4   8
ATOM      8  C   UNL     1      43.634 136.023  16.623  1.00  0.00     0.068 A 
ATOM      9  C   UNL     1      40.835 135.118  15.789  1.00  0.00     0.032 A 
ATOM     10  C   UNL     1      41.586 136.179  15.230  1.00  0.00     0.020 A 
ATOM     11  C   UNL     1      40.956 134.670  17.136  1.00  0.00    -0.003 A 
ATOM     12  C   UNL     1      42.763 136.722  15.770  1.00  0.00     0.030 A 
ATOM     13  C   UNL     1      40.868 133.285  17.402  1.00  0.00     0.010 A 
ATOM     14  C   UNL     1      41.295 135.543  18.216  1.00  0.00    -0.017 A 
ATOM     15  C   UNL     1      41.237 132.771  18.648  1.00  0.00     0.001 A 
ATOM     16  C   UNL     1      41.136 136.939  18.113  1.00  0.00     0.011 A 
ATOM     17  C   UNL     1      41.722 134.998  19.442  1.00  0.00     0.009 A 
ATOM     18  C   UNL     1      44.153 136.634  17.782  1.00  0.00     0.053 A 
ATOM     19  C   UNL     1      41.691 133.620  19.655  1.00  0.00     0.001 A 
ATOM     20  C   UNL     1      42.108 137.872  18.509  1.00  0.00     0.026 A 
ATOM     21  C   UNL     1      43.504 137.641  18.533  1.00  0.00     0.034 A 
BRANCH   9  22
ATOM     22  C   UNL     1      39.875 134.479  14.918  1.00  0.00    -0.070 C 
ATOM     23  C   UNL     1      39.083 133.942  14.185  1.00  0.00     0.010 C 
ENDBRANCH   9  22
BRANCH  21  24
ATOM     24  N   UNL     1      44.312 138.482  19.365  1.00  0.00    -0.399 N 
ATOM     25  H   UNL     1      44.806 139.315  18.969  1.00  0.00     0.156 HD
ATOM     26  H   UNL     1      44.440 138.272  20.381  1.00  0.00     0.156 HD
ENDBRANCH  21  24
ENDBRANCH   4   8
ENDBRANCH   2   3
ENDBRANCH   1   2
BRANCH   1  27
ATOM     27  C   UNL     1      44.729 131.281  19.556  1.00  0.00     0.016 C 
BRANCH  27  28
ATOM     28  C   UNL     1      45.472 132.083  20.636  1.00  0.00     0.085 C 
BRANCH  28  29
ATOM     29  N   UNL     1      44.531 132.505  21.702  1.00  0.00    -0.291 NA
ATOM     30  C   UNL     1      44.577 131.574  22.853  1.00  0.00     0.106 C 
BRANCH  29  31
ATOM     31  C   UNL     1      44.733 133.929  22.091  1.00  0.00     0.157 C 
ATOM     32  C   UNL     1      45.158 134.794  20.898  1.00  0.00     0.041 C 
BRANCH  31  33
ATOM     33  C   UNL     1      43.542 134.509  22.747  1.00  0.00     0.081 C 
ATOM     34  N   UNL     1      42.608 134.957  23.262  1.00  0.00    -0.197 NA
ENDBRANCH  31  33
ENDBRANCH  29  31
ENDBRANCH  28  29
ENDBRANCH  27  28
ENDBRANCH   1  27
TORSDOF 10
ENDMDL
MODEL 9
REMARK VINA RESULT:      -5.7      2.720      4.109
REMARK SMILES C#Cc1ccc(-n2cc(CCCCN(C)[C@@H](C)C#N)nn2)cc(N)ccc2ccccc12
REMARK SMILES IDX 11 1 10 2 9 3 7 4 8 5 21 6 20 7 6 8 3 9 4 10 32 11 5 12
REMARK SMILES IDX 31 13 27 14 30 15 26 16 28 17 22 18 29 19 25 20 23 21 2 22
REMARK SMILES IDX 1 23 24 24 12 27 13 28 14 29 15 30 16 31 17 32 18 33 19 34
REMARK H PARENT 24 25 24 26
ROOT
ATOM      1  C   UNL     1      44.503 131.183  17.576  1.00  0.00     0.008 C 
ENDROOT
BRANCH   1   2
ATOM      2  C   UNL     1      45.116 132.252  16.655  1.00  0.00     0.060 C 
BRANCH   2   3
ATOM      3  C   UNL     1      44.117 133.226  16.090  1.00  0.00     0.083 A 
ATOM      4  N   UNL     1      42.296 134.115  15.285  1.00  0.00    -0.220 N 
ATOM      5  C   UNL     1      42.744 133.093  16.036  1.00  0.00     0.140 A 
ATOM      6  N   UNL     1      43.338 134.830  14.889  1.00  0.00    -0.062 NA
ATOM      7  N   UNL     1      44.462 134.307  15.361  1.00  0.00    -0.135 NA
BRANCH   4   8
ATOM      8  C   UNL     1      40.936 134.356  14.877  1.00  0.00     0.068 A 
ATOM      9  C   UNL     1      40.553 135.145  17.806  1.00  0.00     0.032 A 
ATOM     10  C   UNL     1      39.849 134.143  17.098  1.00  0.00     0.020 A 
ATOM     11  C   UNL     1      41.117 136.308  17.206  1.00  0.00    -0.003 A 
ATOM     12  C   UNL     1      39.877 133.951  15.707  1.00  0.00     0.030 A 
ATOM     13  C   UNL     1      42.363 136.779  17.679  1.00  0.00     0.010 A 
ATOM     14  C   UNL     1      40.548 136.943  16.060  1.00  0.00    -0.017 A 
ATOM     15  C   UNL     1      43.081 137.742  16.965  1.00  0.00     0.001 A 
ATOM     16  C   UNL     1      39.205 136.731  15.690  1.00  0.00     0.011 A 
ATOM     17  C   UNL     1      41.316 137.865  15.323  1.00  0.00     0.009 A 
ATOM     18  C   UNL     1      40.685 135.009  13.654  1.00  0.00     0.053 A 
ATOM     19  C   UNL     1      42.574 138.262  15.776  1.00  0.00     0.001 A 
ATOM     20  C   UNL     1      38.784 136.459  14.379  1.00  0.00     0.026 A 
ATOM     21  C   UNL     1      39.564 135.828  13.382  1.00  0.00     0.034 A 
BRANCH   9  22
ATOM     22  C   UNL     1      40.674 134.961  19.235  1.00  0.00    -0.070 C 
ATOM     23  C   UNL     1      40.778 134.796  20.424  1.00  0.00     0.010 C 
ENDBRANCH   9  22
BRANCH  21  24
ATOM     24  N   UNL     1      39.194 136.024  12.012  1.00  0.00    -0.399 N 
ATOM     25  H   UNL     1      38.278 136.461  11.759  1.00  0.00     0.156 HD
ATOM     26  H   UNL     1      39.824 135.717  11.235  1.00  0.00     0.156 HD
ENDBRANCH  21  24
ENDBRANCH   4   8
ENDBRANCH   2   3
ENDBRANCH   1   2
BRANCH   1  27
ATOM     27  C   UNL     1      44.706 131.462  19.078  1.00  0.00     0.016 C 
BRANCH  27  28
ATOM     28  C   UNL     1      43.712 132.498  19.625  1.00  0.00     0.085 C 
BRANCH  28  29
ATOM     29  N   UNL     1      43.787 132.552  21.106  1.00  0.00    -0.291 NA
ATOM     30  C   UNL     1      44.194 131.243  21.667  1.00  0.00     0.106 C 
BRANCH  29  31
ATOM     31  C   UNL     1      44.633 133.683  21.580  1.00  0.00     0.157 C 
ATOM     32  C   UNL     1      44.514 134.910  20.667  1.00  0.00     0.041 C 
BRANCH  31  33
ATOM     33  C   UNL     1      44.346 134.054  22.981  1.00  0.00     0.081 C 
ATOM     34  N   UNL     1      44.122 134.350  24.077  1.00  0.00    -0.197 NA
ENDBRANCH  31  33
ENDBRANCH  29  31
ENDBRANCH  28  29
ENDBRANCH  27  28
ENDBRANCH   1  27
TORSDOF 10
ENDMDL


