MODEL 1
REMARK VINA RESULT:      -6.1      0.000      0.000
REMARK SMILES C[C@@H](C#N)N(C)CCCCc1cn(-c2cc(N)c3c4c(cccc24)C(O)=N3)nn1
REMARK SMILES IDX 8 1 7 2 5 3 6 4 2 5 1 6 3 7 4 8 9 9 10 10 11 11 12 12 29 13
REMARK SMILES IDX 13 14 28 15 14 16 15 17 24 18 16 19 23 20 19 21 18 22 22 23
REMARK SMILES IDX 20 24 27 25 21 26 25 27 17 28 26 31
REMARK H PARENT 17 29 17 30 26 32
ROOT
ATOM      1  C   UNL     1      43.359 131.123  13.541  1.00  0.00     0.016 C 
ENDROOT
BRANCH   1   2
ATOM      2  C   UNL     1      44.463 130.524  14.427  1.00  0.00     0.085 C 
BRANCH   2   3
ATOM      3  N   UNL     1      45.790 130.998  13.974  1.00  0.00    -0.291 NA
ATOM      4  C   UNL     1      46.034 130.645  12.561  1.00  0.00     0.106 C 
BRANCH   3   5
ATOM      5  C   UNL     1      46.887 130.592  14.892  1.00  0.00     0.157 C 
ATOM      6  C   UNL     1      46.391 129.950  16.199  1.00  0.00     0.041 C 
BRANCH   5   7
ATOM      7  C   UNL     1      47.828 129.693  14.206  1.00  0.00     0.081 C 
ATOM      8  N   UNL     1      48.570 128.984  13.668  1.00  0.00    -0.197 NA
ENDBRANCH   5   7
ENDBRANCH   3   5
ENDBRANCH   2   3
ENDBRANCH   1   2
BRANCH   1   9
ATOM      9  C   UNL     1      42.320 131.929  14.349  1.00  0.00     0.008 C 
BRANCH   9  10
ATOM     10  C   UNL     1      42.523 133.452  14.261  1.00  0.00     0.060 C 
BRANCH  10  11
ATOM     11  C   UNL     1      43.276 133.991  15.438  1.00  0.00     0.083 A 
ATOM     12  C   UNL     1      43.209 133.529  16.734  1.00  0.00     0.140 A 
ATOM     13  N   UNL     1      44.003 135.125  15.424  1.00  0.00    -0.135 NA
ATOM     14  N   UNL     1      43.900 134.410  17.477  1.00  0.00    -0.220 N 
ATOM     15  N   UNL     1      44.379 135.350  16.676  1.00  0.00    -0.062 NA
BRANCH  14  16
ATOM     16  C   UNL     1      44.076 134.374  18.902  1.00  0.00     0.076 A 
ATOM     17  C   UNL     1      43.767 135.533  19.678  1.00  0.00     0.056 A 
ATOM     18  C   UNL     1      44.581 133.219  19.561  1.00  0.00     0.011 A 
ATOM     19  C   UNL     1      43.937 135.542  21.087  1.00  0.00     0.060 A 
ATOM     20  C   UNL     1      45.033 132.021  18.957  1.00  0.00     0.011 A 
ATOM     21  C   UNL     1      44.705 133.294  20.935  1.00  0.00     0.024 A 
ATOM     22  C   UNL     1      44.411 134.377  21.690  1.00  0.00     0.099 A 
ATOM     23  C   UNL     1      45.568 130.978  19.763  1.00  0.00     0.002 A 
ATOM     24  C   UNL     1      45.216 132.321  21.722  1.00  0.00     0.047 A 
ATOM     25  N   UNL     1      44.731 134.122  23.064  1.00  0.00    -0.211 NA
ATOM     26  C   UNL     1      45.668 131.126  21.167  1.00  0.00     0.014 A 
ATOM     27  C   UNL     1      45.205 132.903  23.067  1.00  0.00     0.219 C 
BRANCH  19  28
ATOM     28  N   UNL     1      43.639 136.708  21.858  1.00  0.00    -0.397 N 
ATOM     29  H   UNL     1      43.986 136.805  22.838  1.00  0.00     0.156 HD
ATOM     30  H   UNL     1      43.067 137.483  21.452  1.00  0.00     0.156 HD
ENDBRANCH  19  28
BRANCH  27  31
ATOM     31  O   UNL     1      45.646 132.259  24.218  1.00  0.00    -0.493 OA
ATOM     32  H   UNL     1      46.450 132.604  24.728  1.00  0.00     0.295 HD
ENDBRANCH  27  31
ENDBRANCH  14  16
ENDBRANCH  10  11
ENDBRANCH   9  10
ENDBRANCH   1   9
TORSDOF 10
ENDMDL
MODEL 2
REMARK VINA RESULT:      -6.1      4.774      7.609
REMARK SMILES C[C@@H](C#N)N(C)CCCCc1cn(-c2cc(N)c3c4c(cccc24)C(O)=N3)nn1
REMARK SMILES IDX 8 1 7 2 5 3 6 4 2 5 1 6 3 7 4 8 9 9 10 10 11 11 12 12 29 13
REMARK SMILES IDX 13 14 28 15 14 16 15 17 24 18 16 19 23 20 19 21 18 22 22 23
REMARK SMILES IDX 20 24 27 25 21 26 25 27 17 28 26 31
REMARK H PARENT 17 29 17 30 26 32
ROOT
ATOM      1  C   UNL     1      45.031 132.653  15.847  1.00  0.00     0.016 C 
ENDROOT
BRANCH   1   2
ATOM      2  C   UNL     1      44.685 131.622  14.760  1.00  0.00     0.085 C 
BRANCH   2   3
ATOM      3  N   UNL     1      45.925 131.106  14.136  1.00  0.00    -0.291 NA
ATOM      4  C   UNL     1      45.690 130.689  12.739  1.00  0.00     0.106 C 
BRANCH   3   5
ATOM      5  C   UNL     1      46.597 130.073  14.966  1.00  0.00     0.157 C 
ATOM      6  C   UNL     1      45.660 128.937  15.413  1.00  0.00     0.041 C 
BRANCH   5   7
ATOM      7  C   UNL     1      47.766 129.524  14.262  1.00  0.00     0.081 C 
ATOM      8  N   UNL     1      48.687 129.094  13.707  1.00  0.00    -0.197 NA
ENDBRANCH   5   7
ENDBRANCH   3   5
ENDBRANCH   2   3
ENDBRANCH   1   2
BRANCH   1   9
ATOM      9  C   UNL     1      44.704 132.149  17.269  1.00  0.00     0.008 C 
BRANCH   9  10
ATOM     10  C   UNL     1      43.661 133.015  18.000  1.00  0.00     0.060 C 
BRANCH  10  11
ATOM     11  C   UNL     1      42.531 133.414  17.103  1.00  0.00     0.083 A 
ATOM     12  C   UNL     1      42.439 134.574  16.367  1.00  0.00     0.140 A 
ATOM     13  N   UNL     1      41.353 132.763  17.024  1.00  0.00    -0.135 NA
ATOM     14  N   UNL     1      41.194 134.596  15.862  1.00  0.00    -0.220 N 
ATOM     15  N   UNL     1      40.563 133.500  16.254  1.00  0.00    -0.062 NA
BRANCH  14  16
ATOM     16  C   UNL     1      40.616 135.637  15.059  1.00  0.00     0.076 A 
ATOM     17  C   UNL     1      41.087 136.978  15.201  1.00  0.00     0.056 A 
ATOM     18  C   UNL     1      39.560 135.372  14.143  1.00  0.00     0.011 A 
ATOM     19  C   UNL     1      40.535 138.038  14.435  1.00  0.00     0.060 A 
ATOM     20  C   UNL     1      38.898 134.137  13.937  1.00  0.00     0.011 A 
ATOM     21  C   UNL     1      39.082 136.448  13.420  1.00  0.00     0.024 A 
ATOM     22  C   UNL     1      39.518 137.723  13.532  1.00  0.00     0.099 A 
ATOM     23  C   UNL     1      37.815 134.058  13.020  1.00  0.00     0.002 A 
ATOM     24  C   UNL     1      38.051 136.400  12.548  1.00  0.00     0.047 A 
ATOM     25  N   UNL     1      38.748 138.585  12.685  1.00  0.00    -0.211 NA
ATOM     26  C   UNL     1      37.376 135.204  12.314  1.00  0.00     0.014 A 
ATOM     27  C   UNL     1      37.885 137.789  12.109  1.00  0.00     0.219 C 
BRANCH  19  28
ATOM     28  N   UNL     1      41.001 139.380  14.590  1.00  0.00    -0.397 N 
ATOM     29  H   UNL     1      40.392 140.112  15.018  1.00  0.00     0.156 HD
ATOM     30  H   UNL     1      41.960 139.650  14.276  1.00  0.00     0.156 HD
ENDBRANCH  19  28
BRANCH  27  31
ATOM     31  O   UNL     1      36.931 138.228  11.199  1.00  0.00    -0.493 OA
ATOM     32  H   UNL     1      36.271 137.579  10.787  1.00  0.00     0.295 HD
ENDBRANCH  27  31
ENDBRANCH  14  16
ENDBRANCH  10  11
ENDBRANCH   9  10
ENDBRANCH   1   9
TORSDOF 10
ENDMDL
MODEL 3
REMARK VINA RESULT:      -5.9      4.363      7.123
REMARK SMILES C[C@@H](C#N)N(C)CCCCc1cn(-c2cc(N)c3c4c(cccc24)C(O)=N3)nn1
REMARK SMILES IDX 8 1 7 2 5 3 6 4 2 5 1 6 3 7 4 8 9 9 10 10 11 11 12 12 29 13
REMARK SMILES IDX 13 14 28 15 14 16 15 17 24 18 16 19 23 20 19 21 18 22 22 23
REMARK SMILES IDX 20 24 27 25 21 26 25 27 17 28 26 31
REMARK H PARENT 17 29 17 30 26 32
ROOT
ATOM      1  C   UNL     1      45.513 129.837  15.894  1.00  0.00     0.016 C 
ENDROOT
BRANCH   1   2
ATOM      2  C   UNL     1      46.672 130.777  15.524  1.00  0.00     0.085 C 
BRANCH   2   3
ATOM      3  N   UNL     1      46.612 131.115  14.084  1.00  0.00    -0.291 NA
ATOM      4  C   UNL     1      45.340 130.671  13.480  1.00  0.00     0.106 C 
BRANCH   3   5
ATOM      5  C   UNL     1      47.819 130.668  13.340  1.00  0.00     0.157 C 
ATOM      6  C   UNL     1      48.410 129.347  13.861  1.00  0.00     0.041 C 
BRANCH   5   7
ATOM      7  C   UNL     1      47.530 130.566  11.901  1.00  0.00     0.081 C 
ATOM      8  N   UNL     1      47.301 130.484  10.768  1.00  0.00    -0.197 NA
ENDBRANCH   5   7
ENDBRANCH   3   5
ENDBRANCH   2   3
ENDBRANCH   1   2
BRANCH   1   9
ATOM      9  C   UNL     1      44.374 130.564  16.641  1.00  0.00     0.008 C 
BRANCH   9  10
ATOM     10  C   UNL     1      44.804 131.910  17.251  1.00  0.00     0.060 C 
BRANCH  10  11
ATOM     11  C   UNL     1      44.217 133.076  16.517  1.00  0.00     0.083 A 
ATOM     12  C   UNL     1      42.877 133.356  16.363  1.00  0.00     0.140 A 
ATOM     13  N   UNL     1      44.924 133.930  15.752  1.00  0.00    -0.135 NA
ATOM     14  N   UNL     1      42.811 134.380  15.494  1.00  0.00    -0.220 N 
ATOM     15  N   UNL     1      44.043 134.718  15.150  1.00  0.00    -0.062 NA
BRANCH  14  16
ATOM     16  C   UNL     1      41.615 134.995  14.989  1.00  0.00     0.076 A 
ATOM     17  C   UNL     1      40.504 134.175  14.621  1.00  0.00     0.056 A 
ATOM     18  C   UNL     1      41.518 136.403  14.816  1.00  0.00     0.011 A 
ATOM     19  C   UNL     1      39.309 134.741  14.107  1.00  0.00     0.060 A 
ATOM     20  C   UNL     1      42.538 137.362  15.028  1.00  0.00     0.011 A 
ATOM     21  C   UNL     1      40.320 136.886  14.326  1.00  0.00     0.024 A 
ATOM     22  C   UNL     1      39.253 136.130  13.979  1.00  0.00     0.099 A 
ATOM     23  C   UNL     1      42.291 138.734  14.747  1.00  0.00     0.002 A 
ATOM     24  C   UNL     1      40.063 138.182  14.045  1.00  0.00     0.047 A 
ATOM     25  N   UNL     1      38.214 136.958  13.442  1.00  0.00    -0.211 NA
ATOM     26  C   UNL     1      41.038 139.157  14.243  1.00  0.00     0.014 A 
ATOM     27  C   UNL     1      38.706 138.169  13.488  1.00  0.00     0.219 C 
BRANCH  19  28
ATOM     28  N   UNL     1      38.205 133.916  13.728  1.00  0.00    -0.397 N 
ATOM     29  H   UNL     1      37.780 133.994  12.778  1.00  0.00     0.156 HD
ATOM     30  H   UNL     1      37.806 133.220  14.398  1.00  0.00     0.156 HD
ENDBRANCH  19  28
BRANCH  27  31
ATOM     31  O   UNL     1      38.013 139.291  13.050  1.00  0.00    -0.493 OA
ATOM     32  H   UNL     1      38.323 140.222  13.303  1.00  0.00     0.295 HD
ENDBRANCH  27  31
ENDBRANCH  14  16
ENDBRANCH  10  11
ENDBRANCH   9  10
ENDBRANCH   1   9
TORSDOF 10
ENDMDL
MODEL 4
REMARK VINA RESULT:      -5.9      1.799      2.721
REMARK SMILES C[C@@H](C#N)N(C)CCCCc1cn(-c2cc(N)c3c4c(cccc24)C(O)=N3)nn1
REMARK SMILES IDX 8 1 7 2 5 3 6 4 2 5 1 6 3 7 4 8 9 9 10 10 11 11 12 12 29 13
REMARK SMILES IDX 13 14 28 15 14 16 15 17 24 18 16 19 23 20 19 21 18 22 22 23
REMARK SMILES IDX 20 24 27 25 21 26 25 27 17 28 26 31
REMARK H PARENT 17 29 17 30 26 32
ROOT
ATOM      1  C   UNL     1      43.173 131.435  13.617  1.00  0.00     0.016 C 
ENDROOT
BRANCH   1   2
ATOM      2  C   UNL     1      43.945 130.872  14.821  1.00  0.00     0.085 C 
BRANCH   2   3
ATOM      3  N   UNL     1      45.004 129.947  14.358  1.00  0.00    -0.291 NA
ATOM      4  C   UNL     1      45.314 128.928  15.381  1.00  0.00     0.106 C 
BRANCH   3   5
ATOM      5  C   UNL     1      46.201 130.661  13.840  1.00  0.00     0.157 C 
ATOM      6  C   UNL     1      46.681 131.803  14.753  1.00  0.00     0.041 C 
BRANCH   5   7
ATOM      7  C   UNL     1      47.298 129.713  13.588  1.00  0.00     0.081 C 
ATOM      8  N   UNL     1      48.161 128.966  13.390  1.00  0.00    -0.197 NA
ENDBRANCH   5   7
ENDBRANCH   3   5
ENDBRANCH   2   3
ENDBRANCH   1   2
BRANCH   1   9
ATOM      9  C   UNL     1      41.950 132.279  14.037  1.00  0.00     0.008 C 
BRANCH   9  10
ATOM     10  C   UNL     1      42.328 133.599  14.733  1.00  0.00     0.060 C 
BRANCH  10  11
ATOM     11  C   UNL     1      42.167 133.521  16.219  1.00  0.00     0.083 A 
ATOM     12  C   UNL     1      43.178 133.411  17.148  1.00  0.00     0.140 A 
ATOM     13  N   UNL     1      40.986 133.374  16.851  1.00  0.00    -0.135 NA
ATOM     14  N   UNL     1      42.574 133.192  18.329  1.00  0.00    -0.220 N 
ATOM     15  N   UNL     1      41.264 133.186  18.135  1.00  0.00    -0.062 NA
BRANCH  14  16
ATOM     16  C   UNL     1      43.221 132.968  19.591  1.00  0.00     0.076 A 
ATOM     17  C   UNL     1      42.989 131.747  20.294  1.00  0.00     0.056 A 
ATOM     18  C   UNL     1      44.067 133.950  20.178  1.00  0.00     0.011 A 
ATOM     19  C   UNL     1      43.600 131.491  21.549  1.00  0.00     0.060 A 
ATOM     20  C   UNL     1      44.336 135.250  19.686  1.00  0.00     0.011 A 
ATOM     21  C   UNL     1      44.640 133.628  21.393  1.00  0.00     0.024 A 
ATOM     22  C   UNL     1      44.441 132.474  22.072  1.00  0.00     0.099 A 
ATOM     23  C   UNL     1      45.163 136.134  20.432  1.00  0.00     0.002 A 
ATOM     24  C   UNL     1      45.423 134.451  22.124  1.00  0.00     0.047 A 
ATOM     25  N   UNL     1      45.134 132.514  23.326  1.00  0.00    -0.211 NA
ATOM     26  C   UNL     1      45.715 135.736  21.673  1.00  0.00     0.014 A 
ATOM     27  C   UNL     1      45.710 133.687  23.343  1.00  0.00     0.219 C 
BRANCH  19  28
ATOM     28  N   UNL     1      43.355 130.272  22.254  1.00  0.00    -0.397 N 
ATOM     29  H   UNL     1      44.145 129.710  22.640  1.00  0.00     0.156 HD
ATOM     30  H   UNL     1      42.380 129.925  22.394  1.00  0.00     0.156 HD
ENDBRANCH  19  28
BRANCH  27  31
ATOM     31  O   UNL     1      46.491 134.139  24.401  1.00  0.00    -0.493 OA
ATOM     32  H   UNL     1      47.334 133.646  24.669  1.00  0.00     0.295 HD
ENDBRANCH  27  31
ENDBRANCH  14  16
ENDBRANCH  10  11
ENDBRANCH   9  10
ENDBRANCH   1   9
TORSDOF 10
ENDMDL
MODEL 5
REMARK VINA RESULT:      -5.8      4.009      6.628
REMARK SMILES C[C@@H](C#N)N(C)CCCCc1cn(-c2cc(N)c3c4c(cccc24)C(O)=N3)nn1
REMARK SMILES IDX 8 1 7 2 5 3 6 4 2 5 1 6 3 7 4 8 9 9 10 10 11 11 12 12 29 13
REMARK SMILES IDX 13 14 28 15 14 16 15 17 24 18 16 19 23 20 19 21 18 22 22 23
REMARK SMILES IDX 20 24 27 25 21 26 25 27 17 28 26 31
REMARK H PARENT 17 29 17 30 26 32
ROOT
ATOM      1  C   UNL     1      45.404 130.163  16.762  1.00  0.00     0.016 C 
ENDROOT
BRANCH   1   2
ATOM      2  C   UNL     1      46.733 130.419  16.033  1.00  0.00     0.085 C 
BRANCH   2   3
ATOM      3  N   UNL     1      46.678 129.857  14.664  1.00  0.00    -0.291 NA
ATOM      4  C   UNL     1      47.960 129.225  14.291  1.00  0.00     0.106 C 
BRANCH   3   5
ATOM      5  C   UNL     1      46.177 130.836  13.664  1.00  0.00     0.157 C 
ATOM      6  C   UNL     1      46.783 130.649  12.262  1.00  0.00     0.041 C 
BRANCH   5   7
ATOM      7  C   UNL     1      44.708 130.799  13.596  1.00  0.00     0.081 C 
ATOM      8  N   UNL     1      43.552 130.770  13.540  1.00  0.00    -0.197 NA
ENDBRANCH   5   7
ENDBRANCH   3   5
ENDBRANCH   2   3
ENDBRANCH   1   2
BRANCH   1   9
ATOM      9  C   UNL     1      45.474 130.507  18.265  1.00  0.00     0.008 C 
BRANCH   9  10
ATOM     10  C   UNL     1      44.992 131.933  18.590  1.00  0.00     0.060 C 
BRANCH  10  11
ATOM     11  C   UNL     1      43.917 132.392  17.656  1.00  0.00     0.083 A 
ATOM     12  C   UNL     1      43.674 133.688  17.258  1.00  0.00     0.140 A 
ATOM     13  N   UNL     1      42.916 131.611  17.201  1.00  0.00    -0.135 NA
ATOM     14  N   UNL     1      42.519 133.656  16.573  1.00  0.00    -0.220 N 
ATOM     15  N   UNL     1      42.087 132.405  16.537  1.00  0.00    -0.062 NA
BRANCH  14  16
ATOM     16  C   UNL     1      41.837 134.781  15.996  1.00  0.00     0.076 A 
ATOM     17  C   UNL     1      42.596 135.886  15.503  1.00  0.00     0.056 A 
ATOM     18  C   UNL     1      40.417 134.837  15.930  1.00  0.00     0.011 A 
ATOM     19  C   UNL     1      41.961 137.022  14.936  1.00  0.00     0.060 A 
ATOM     20  C   UNL     1      39.500 133.893  16.452  1.00  0.00     0.011 A 
ATOM     21  C   UNL     1      39.867 135.965  15.352  1.00  0.00     0.024 A 
ATOM     22  C   UNL     1      40.566 137.019  14.871  1.00  0.00     0.099 A 
ATOM     23  C   UNL     1      38.102 134.133  16.353  1.00  0.00     0.002 A 
ATOM     24  C   UNL     1      38.544 136.219  15.252  1.00  0.00     0.047 A 
ATOM     25  N   UNL     1      39.670 138.038  14.413  1.00  0.00    -0.211 NA
ATOM     26  C   UNL     1      37.609 135.314  15.749  1.00  0.00     0.014 A 
ATOM     27  C   UNL     1      38.478 137.552  14.643  1.00  0.00     0.219 C 
BRANCH  19  28
ATOM     28  N   UNL     1      42.724 138.130  14.456  1.00  0.00    -0.397 N 
ATOM     29  H   UNL     1      42.847 138.292  13.432  1.00  0.00     0.156 HD
ATOM     30  H   UNL     1      43.171 138.798  15.124  1.00  0.00     0.156 HD
ENDBRANCH  19  28
BRANCH  27  31
ATOM     31  O   UNL     1      37.304 138.235  14.346  1.00  0.00    -0.493 OA
ATOM     32  H   UNL     1      36.785 138.711  15.073  1.00  0.00     0.295 HD
ENDBRANCH  27  31
ENDBRANCH  14  16
ENDBRANCH  10  11
ENDBRANCH   9  10
ENDBRANCH   1   9
TORSDOF 10
ENDMDL
MODEL 6
REMARK VINA RESULT:      -5.8      2.238      2.684
REMARK SMILES C[C@@H](C#N)N(C)CCCCc1cn(-c2cc(N)c3c4c(cccc24)C(O)=N3)nn1
REMARK SMILES IDX 8 1 7 2 5 3 6 4 2 5 1 6 3 7 4 8 9 9 10 10 11 11 12 12 29 13
REMARK SMILES IDX 13 14 28 15 14 16 15 17 24 18 16 19 23 20 19 21 18 22 22 23
REMARK SMILES IDX 20 24 27 25 21 26 25 27 17 28 26 31
REMARK H PARENT 17 29 17 30 26 32
ROOT
ATOM      1  C   UNL     1      45.450 130.962  13.389  1.00  0.00     0.016 C 
ENDROOT
BRANCH   1   2
ATOM      2  C   UNL     1      46.365 131.491  14.506  1.00  0.00     0.085 C 
BRANCH   2   3
ATOM      3  N   UNL     1      47.144 130.377  15.094  1.00  0.00    -0.291 NA
ATOM      4  C   UNL     1      47.510 129.378  14.071  1.00  0.00     0.106 C 
BRANCH   3   5
ATOM      5  C   UNL     1      46.490 129.794  16.296  1.00  0.00     0.157 C 
ATOM      6  C   UNL     1      45.732 130.827  17.147  1.00  0.00     0.041 C 
BRANCH   5   7
ATOM      7  C   UNL     1      45.596 128.691  15.913  1.00  0.00     0.081 C 
ATOM      8  N   UNL     1      44.892 127.822  15.610  1.00  0.00    -0.197 NA
ENDBRANCH   5   7
ENDBRANCH   3   5
ENDBRANCH   2   3
ENDBRANCH   1   2
BRANCH   1   9
ATOM      9  C   UNL     1      44.013 130.685  13.879  1.00  0.00     0.008 C 
BRANCH   9  10
ATOM     10  C   UNL     1      43.102 131.925  13.834  1.00  0.00     0.060 C 
BRANCH  10  11
ATOM     11  C   UNL     1      43.174 132.725  15.097  1.00  0.00     0.083 A 
ATOM     12  C   UNL     1      42.553 132.431  16.291  1.00  0.00     0.140 A 
ATOM     13  N   UNL     1      43.728 133.950  15.194  1.00  0.00    -0.135 NA
ATOM     14  N   UNL     1      42.744 133.500  17.082  1.00  0.00    -0.220 N 
ATOM     15  N   UNL     1      43.460 134.393  16.415  1.00  0.00    -0.062 NA
BRANCH  14  16
ATOM     16  C   UNL     1      42.241 133.677  18.415  1.00  0.00     0.076 A 
ATOM     17  C   UNL     1      40.875 134.050  18.607  1.00  0.00     0.056 A 
ATOM     18  C   UNL     1      43.078 133.522  19.555  1.00  0.00     0.011 A 
ATOM     19  C   UNL     1      40.340 134.246  19.907  1.00  0.00     0.060 A 
ATOM     20  C   UNL     1      44.468 133.256  19.562  1.00  0.00     0.011 A 
ATOM     21  C   UNL     1      42.487 133.713  20.789  1.00  0.00     0.024 A 
ATOM     22  C   UNL     1      41.195 134.057  20.994  1.00  0.00     0.099 A 
ATOM     23  C   UNL     1      45.171 133.190  20.797  1.00  0.00     0.002 A 
ATOM     24  C   UNL     1      43.133 133.662  21.974  1.00  0.00     0.047 A 
ATOM     25  N   UNL     1      40.950 134.241  22.394  1.00  0.00    -0.211 NA
ATOM     26  C   UNL     1      44.500 133.400  22.026  1.00  0.00     0.014 A 
ATOM     27  C   UNL     1      42.103 134.003  22.961  1.00  0.00     0.219 C 
BRANCH  19  28
ATOM     28  N   UNL     1      38.976 134.631  20.094  1.00  0.00    -0.397 N 
ATOM     29  H   UNL     1      38.477 134.416  20.985  1.00  0.00     0.156 HD
ATOM     30  H   UNL     1      38.457 135.133  19.339  1.00  0.00     0.156 HD
ENDBRANCH  19  28
BRANCH  27  31
ATOM     31  O   UNL     1      42.309 134.078  24.334  1.00  0.00    -0.493 OA
ATOM     32  H   UNL     1      41.650 134.564  24.930  1.00  0.00     0.295 HD
ENDBRANCH  27  31
ENDBRANCH  14  16
ENDBRANCH  10  11
ENDBRANCH   9  10
ENDBRANCH   1   9
TORSDOF 10
ENDMDL
MODEL 7
REMARK VINA RESULT:      -5.8      4.082      7.276
REMARK SMILES C[C@@H](C#N)N(C)CCCCc1cn(-c2cc(N)c3c4c(cccc24)C(O)=N3)nn1
REMARK SMILES IDX 8 1 7 2 5 3 6 4 2 5 1 6 3 7 4 8 9 9 10 10 11 11 12 12 29 13
REMARK SMILES IDX 13 14 28 15 14 16 15 17 24 18 16 19 23 20 19 21 18 22 22 23
REMARK SMILES IDX 20 24 27 25 21 26 25 27 17 28 26 31
REMARK H PARENT 17 29 17 30 26 32
ROOT
ATOM      1  C   UNL     1      38.617 134.863  17.150  1.00  0.00     0.016 C 
ENDROOT
BRANCH   1   2
ATOM      2  C   UNL     1      37.485 135.637  16.456  1.00  0.00     0.085 C 
BRANCH   2   3
ATOM      3  N   UNL     1      37.465 135.319  15.009  1.00  0.00    -0.291 NA
ATOM      4  C   UNL     1      38.455 134.275  14.675  1.00  0.00     0.106 C 
BRANCH   3   5
ATOM      5  C   UNL     1      37.558 136.531  14.155  1.00  0.00     0.157 C 
ATOM      6  C   UNL     1      36.519 137.611  14.501  1.00  0.00     0.041 C 
BRANCH   5   7
ATOM      7  C   UNL     1      38.916 137.095  14.205  1.00  0.00     0.081 C 
ATOM      8  N   UNL     1      39.986 137.538  14.247  1.00  0.00    -0.197 NA
ENDBRANCH   5   7
ENDBRANCH   3   5
ENDBRANCH   2   3
ENDBRANCH   1   2
BRANCH   1   9
ATOM      9  C   UNL     1      38.465 134.838  18.686  1.00  0.00     0.008 C 
BRANCH   9  10
ATOM     10  C   UNL     1      39.683 135.413  19.431  1.00  0.00     0.060 C 
BRANCH  10  11
ATOM     11  C   UNL     1      40.976 135.013  18.793  1.00  0.00     0.083 A 
ATOM     12  C   UNL     1      41.422 133.728  18.581  1.00  0.00     0.140 A 
ATOM     13  N   UNL     1      41.972 135.868  18.486  1.00  0.00    -0.135 NA
ATOM     14  N   UNL     1      42.692 133.841  18.154  1.00  0.00    -0.220 N 
ATOM     15  N   UNL     1      42.999 135.128  18.091  1.00  0.00    -0.062 NA
BRANCH  14  16
ATOM     16  C   UNL     1      43.588 132.763  17.843  1.00  0.00     0.076 A 
ATOM     17  C   UNL     1      44.468 132.268  18.854  1.00  0.00     0.056 A 
ATOM     18  C   UNL     1      43.645 132.193  16.541  1.00  0.00     0.011 A 
ATOM     19  C   UNL     1      45.377 131.211  18.586  1.00  0.00     0.060 A 
ATOM     20  C   UNL     1      42.931 132.613  15.394  1.00  0.00     0.011 A 
ATOM     21  C   UNL     1      44.543 131.159  16.356  1.00  0.00     0.024 A 
ATOM     22  C   UNL     1      45.379 130.668  17.300  1.00  0.00     0.099 A 
ATOM     23  C   UNL     1      43.151 131.968  14.145  1.00  0.00     0.002 A 
ATOM     24  C   UNL     1      44.775 130.535  15.181  1.00  0.00     0.047 A 
ATOM     25  N   UNL     1      46.216 129.652  16.737  1.00  0.00    -0.211 NA
ATOM     26  C   UNL     1      44.090 130.915  14.029  1.00  0.00     0.014 A 
ATOM     27  C   UNL     1      45.848 129.583  15.484  1.00  0.00     0.219 C 
BRANCH  19  28
ATOM     28  N   UNL     1      46.265 130.727  19.596  1.00  0.00    -0.397 N 
ATOM     29  H   UNL     1      46.732 129.799  19.498  1.00  0.00     0.156 HD
ATOM     30  H   UNL     1      46.459 131.296  20.451  1.00  0.00     0.156 HD
ENDBRANCH  19  28
BRANCH  27  31
ATOM     31  O   UNL     1      46.423 128.710  14.566  1.00  0.00    -0.493 OA
ATOM     32  H   UNL     1      45.874 127.975  14.138  1.00  0.00     0.295 HD
ENDBRANCH  27  31
ENDBRANCH  14  16
ENDBRANCH  10  11
ENDBRANCH   9  10
ENDBRANCH   1   9
TORSDOF 10
ENDMDL
MODEL 8
REMARK VINA RESULT:      -5.7      3.910      6.695
REMARK SMILES C[C@@H](C#N)N(C)CCCCc1cn(-c2cc(N)c3c4c(cccc24)C(O)=N3)nn1
REMARK SMILES IDX 8 1 7 2 5 3 6 4 2 5 1 6 3 7 4 8 9 9 10 10 11 11 12 12 29 13
REMARK SMILES IDX 13 14 28 15 14 16 15 17 24 18 16 19 23 20 19 21 18 22 22 23
REMARK SMILES IDX 20 24 27 25 21 26 25 27 17 28 26 31
REMARK H PARENT 17 29 17 30 26 32
ROOT
ATOM      1  C   UNL     1      45.165 130.723  18.496  1.00  0.00     0.016 C 
ENDROOT
BRANCH   1   2
ATOM      2  C   UNL     1      45.459 131.413  17.155  1.00  0.00     0.085 C 
BRANCH   2   3
ATOM      3  N   UNL     1      44.910 130.609  16.039  1.00  0.00    -0.291 NA
ATOM      4  C   UNL     1      45.703 129.382  15.820  1.00  0.00     0.106 C 
BRANCH   3   5
ATOM      5  C   UNL     1      44.694 131.412  14.807  1.00  0.00     0.157 C 
ATOM      6  C   UNL     1      44.954 130.630  13.508  1.00  0.00     0.041 C 
BRANCH   5   7
ATOM      7  C   UNL     1      43.339 131.985  14.795  1.00  0.00     0.081 C 
ATOM      8  N   UNL     1      42.273 132.437  14.789  1.00  0.00    -0.197 NA
ENDBRANCH   5   7
ENDBRANCH   3   5
ENDBRANCH   2   3
ENDBRANCH   1   2
BRANCH   1   9
ATOM      9  C   UNL     1      45.286 131.685  19.698  1.00  0.00     0.008 C 
BRANCH   9  10
ATOM     10  C   UNL     1      43.926 132.148  20.250  1.00  0.00     0.060 C 
BRANCH  10  11
ATOM     11  C   UNL     1      43.451 133.408  19.595  1.00  0.00     0.083 A 
ATOM     12  C   UNL     1      42.625 133.499  18.496  1.00  0.00     0.140 A 
ATOM     13  N   UNL     1      43.908 134.641  19.891  1.00  0.00    -0.135 NA
ATOM     14  N   UNL     1      42.611 134.798  18.150  1.00  0.00    -0.220 N 
ATOM     15  N   UNL     1      43.372 135.467  19.002  1.00  0.00    -0.062 NA
BRANCH  14  16
ATOM     16  C   UNL     1      41.919 135.376  17.032  1.00  0.00     0.076 A 
ATOM     17  C   UNL     1      42.533 136.436  16.298  1.00  0.00     0.056 A 
ATOM     18  C   UNL     1      40.619 134.940  16.654  1.00  0.00     0.011 A 
ATOM     19  C   UNL     1      41.880 137.043  15.194  1.00  0.00     0.060 A 
ATOM     20  C   UNL     1      39.815 133.981  17.315  1.00  0.00     0.011 A 
ATOM     21  C   UNL     1      40.049 135.564  15.561  1.00  0.00     0.024 A 
ATOM     22  C   UNL     1      40.616 136.563  14.846  1.00  0.00     0.099 A 
ATOM     23  C   UNL     1      38.505 133.703  16.836  1.00  0.00     0.002 A 
ATOM     24  C   UNL     1      38.806 135.323  15.091  1.00  0.00     0.047 A 
ATOM     25  N   UNL     1      39.712 137.018  13.832  1.00  0.00    -0.211 NA
ATOM     26  C   UNL     1      37.984 134.384  15.710  1.00  0.00     0.014 A 
ATOM     27  C   UNL     1      38.646 136.276  13.988  1.00  0.00     0.219 C 
BRANCH  19  28
ATOM     28  N   UNL     1      42.493 138.112  14.470  1.00  0.00    -0.397 N 
ATOM     29  H   UNL     1      41.929 138.723  13.839  1.00  0.00     0.156 HD
ATOM     30  H   UNL     1      43.516 138.298  14.561  1.00  0.00     0.156 HD
ENDBRANCH  19  28
BRANCH  27  31
ATOM     31  O   UNL     1      37.509 136.397  13.197  1.00  0.00    -0.493 OA
ATOM     32  H   UNL     1      37.081 137.301  13.042  1.00  0.00     0.295 HD
ENDBRANCH  27  31
ENDBRANCH  14  16
ENDBRANCH  10  11
ENDBRANCH   9  10
ENDBRANCH   1   9
TORSDOF 10
ENDMDL
MODEL 9
REMARK VINA RESULT:      -5.5      4.693      7.449
REMARK SMILES C[C@@H](C#N)N(C)CCCCc1cn(-c2cc(N)c3c4c(cccc24)C(O)=N3)nn1
REMARK SMILES IDX 8 1 7 2 5 3 6 4 2 5 1 6 3 7 4 8 9 9 10 10 11 11 12 12 29 13
REMARK SMILES IDX 13 14 28 15 14 16 15 17 24 18 16 19 23 20 19 21 18 22 22 23
REMARK SMILES IDX 20 24 27 25 21 26 25 27 17 28 26 31
REMARK H PARENT 17 29 17 30 26 32
ROOT
ATOM      1  C   UNL     1      45.786 131.488  16.152  1.00  0.00     0.016 C 
ENDROOT
BRANCH   1   2
ATOM      2  C   UNL     1      45.881 131.442  14.618  1.00  0.00     0.085 C 
BRANCH   2   3
ATOM      3  N   UNL     1      45.755 130.045  14.143  1.00  0.00    -0.291 NA
ATOM      4  C   UNL     1      45.693 129.096  15.273  1.00  0.00     0.106 C 
BRANCH   3   5
ATOM      5  C   UNL     1      46.774 129.695  13.120  1.00  0.00     0.157 C 
ATOM      6  C   UNL     1      46.903 130.736  11.995  1.00  0.00     0.041 C 
BRANCH   5   7
ATOM      7  C   UNL     1      48.081 129.461  13.752  1.00  0.00     0.081 C 
ATOM      8  N   UNL     1      49.110 129.278  14.252  1.00  0.00    -0.197 NA
ENDBRANCH   5   7
ENDBRANCH   3   5
ENDBRANCH   2   3
ENDBRANCH   1   2
BRANCH   1   9
ATOM      9  C   UNL     1      44.354 131.778  16.650  1.00  0.00     0.008 C 
BRANCH   9  10
ATOM     10  C   UNL     1      44.296 132.843  17.760  1.00  0.00     0.060 C 
BRANCH  10  11
ATOM     11  C   UNL     1      43.192 133.829  17.539  1.00  0.00     0.083 A 
ATOM     12  C   UNL     1      42.412 133.947  16.410  1.00  0.00     0.140 A 
ATOM     13  N   UNL     1      42.917 134.863  18.359  1.00  0.00    -0.135 NA
ATOM     14  N   UNL     1      41.684 135.065  16.577  1.00  0.00    -0.220 N 
ATOM     15  N   UNL     1      41.989 135.591  17.753  1.00  0.00    -0.062 NA
BRANCH  14  16
ATOM     16  C   UNL     1      40.752 135.625  15.639  1.00  0.00     0.076 A 
ATOM     17  C   UNL     1      39.684 134.818  15.142  1.00  0.00     0.056 A 
ATOM     18  C   UNL     1      40.884 136.960  15.165  1.00  0.00     0.011 A 
ATOM     19  C   UNL     1      38.748 135.329  14.206  1.00  0.00     0.060 A 
ATOM     20  C   UNL     1      41.925 137.872  15.461  1.00  0.00     0.011 A 
ATOM     21  C   UNL     1      39.929 137.396  14.266  1.00  0.00     0.024 A 
ATOM     22  C   UNL     1      38.905 136.652  13.789  1.00  0.00     0.099 A 
ATOM     23  C   UNL     1      41.938 139.156  14.851  1.00  0.00     0.002 A 
ATOM     24  C   UNL     1      39.923 138.607  13.668  1.00  0.00     0.047 A 
ATOM     25  N   UNL     1      38.158 137.402  12.823  1.00  0.00    -0.211 NA
ATOM     26  C   UNL     1      40.927 139.535  13.936  1.00  0.00     0.014 A 
ATOM     27  C   UNL     1      38.771 138.556  12.762  1.00  0.00     0.219 C 
BRANCH  19  28
ATOM     28  N   UNL     1      37.688 134.513  13.702  1.00  0.00    -0.397 N 
ATOM     29  H   UNL     1      37.886 133.584  13.270  1.00  0.00     0.156 HD
ATOM     30  H   UNL     1      36.696 134.836  13.758  1.00  0.00     0.156 HD
ENDBRANCH  19  28
BRANCH  27  31
ATOM     31  O   UNL     1      38.366 139.592  11.928  1.00  0.00    -0.493 OA
ATOM     32  H   UNL     1      38.537 139.549  10.931  1.00  0.00     0.295 HD
ENDBRANCH  27  31
ENDBRANCH  14  16
ENDBRANCH  10  11
ENDBRANCH   9  10
ENDBRANCH   1   9
TORSDOF 10
ENDMDL


