REMARK SMILES Cc1cc(-n2cc(C[C@@H](C)[N-]C(=O)[C@H](C)C#N)[nH+]n2)nc2ccc3ccccc3c12
REMARK SMILES IDX 9 1 10 2 8 3 7 4 5 5 6 6 19 7 18 8 4 10 2 11 3 12 30 13
REMARK SMILES IDX 29 14 21 15 20 16 28 17 24 18 22 19 27 20 23 21 25 22 26 23
REMARK SMILES IDX 1 24 11 25 12 26 13 27 14 28 15 29 16 30 17 31
REMARK H PARENT 18 9
ROOT
ATOM      1  C   UNL     1      -0.325  -4.050  -3.471  1.00  0.00    -0.102 C 
ATOM      2  C   UNL     1      -0.663  -3.202  -4.705  1.00  0.00    -0.013 C 
ENDROOT
BRANCH   1   3
ATOM      3  C   UNL     1      -1.395  -3.971  -2.362  1.00  0.00     0.070 C 
BRANCH   3   4
ATOM      4  C   UNL     1      -1.462  -2.640  -1.674  1.00  0.00     0.164 A 
ATOM      5  N   UNL     1      -1.072  -0.964  -0.332  1.00  0.00    -0.084 N 
ATOM      6  C   UNL     1      -0.779  -2.263  -0.538  1.00  0.00     0.283 A 
ATOM      7  N   UNL     1      -1.901  -0.564  -1.286  1.00  0.00     0.095 NA
ATOM      8  N   UNL     1      -2.153  -1.570  -2.109  1.00  0.00    -0.147 N 
ATOM      9  H   UNL     1      -2.767  -1.512  -2.951  1.00  0.00     0.342 HD
BRANCH   5  10
ATOM     10  C   UNL     1      -0.530  -0.121   0.695  1.00  0.00     0.248 A 
ATOM     11  C   UNL     1      -0.444   2.004   1.871  1.00  0.00    -0.035 A 
ATOM     12  C   UNL     1      -0.979   1.190   0.859  1.00  0.00     0.080 A 
ATOM     13  C   UNL     1       0.666   1.528   2.640  1.00  0.00     0.011 A 
ATOM     14  C   UNL     1       1.448   2.312   3.553  1.00  0.00    -0.009 A 
ATOM     15  C   UNL     1       0.991   0.148   2.505  1.00  0.00     0.076 A 
ATOM     16  N   UNL     1       0.405  -0.611   1.544  1.00  0.00    -0.207 NA
ATOM     17  C   UNL     1       1.480   3.727   3.539  1.00  0.00     0.009 A 
ATOM     18  C   UNL     1       2.327   1.649   4.459  1.00  0.00    -0.018 A 
ATOM     19  C   UNL     1       1.901  -0.462   3.366  1.00  0.00     0.030 A 
ATOM     20  C   UNL     1       2.215   4.443   4.487  1.00  0.00     0.001 A 
ATOM     21  C   UNL     1       2.523   0.269   4.369  1.00  0.00     0.011 A 
ATOM     22  C   UNL     1       3.051   2.382   5.414  1.00  0.00     0.009 A 
ATOM     23  C   UNL     1       2.977   3.772   5.439  1.00  0.00     0.001 A 
ATOM     24  C   UNL     1      -1.197   3.279   2.162  1.00  0.00     0.045 C 
ENDBRANCH   5  10
ENDBRANCH   3   4
ENDBRANCH   1   3
BRANCH   1  25
ATOM     25  N   UNL     1       1.025  -3.781  -2.959  1.00  0.00    -0.649 NA
BRANCH  25  26
ATOM     26  C   UNL     1       1.628  -2.504  -2.700  1.00  0.00     0.068 C 
ATOM     27  O   UNL     1       1.016  -1.434  -2.965  1.00  0.00    -0.319 OA
BRANCH  26  28
ATOM     28  C   UNL     1       3.003  -2.448  -2.099  1.00  0.00     0.137 C 
ATOM     29  C   UNL     1       2.960  -1.834  -0.698  1.00  0.00     0.031 C 
BRANCH  28  30
ATOM     30  C   UNL     1       3.899  -1.672  -2.969  1.00  0.00     0.071 C 
ATOM     31  N   UNL     1       4.604  -1.062  -3.654  1.00  0.00    -0.198 NA
ENDBRANCH  28  30
ENDBRANCH  26  28
ENDBRANCH  25  26
ENDBRANCH   1  25
TORSDOF 7


