MODEL 1
REMARK VINA RESULT:      -6.7      0.000      0.000
REMARK SMILES Cc1nnn(C/C(C#N)=N/c2cccc(C#N)c2C)c1-c1cc2ccccc2c2ccccc12
REMARK SMILES IDX 10 1 11 2 13 3 14 4 12 5 15 6 18 7 19 8 16 9 17 10 7 11 8 12
REMARK SMILES IDX 9 13 6 14 5 15 4 16 20 17 3 18 2 19 1 20 21 21 22 22 34 23
REMARK SMILES IDX 23 24 33 25 29 26 24 27 28 28 32 29 30 30 25 31 27 32 31 33
REMARK SMILES IDX 26 34
REMARK H PARENT
ROOT
ATOM      1  N   UNL     1      44.351 133.503  15.172  1.00  0.00    -0.240 NA
ENDROOT
BRANCH   1   2
ATOM      2  C   UNL     1      42.992 133.918  14.932  1.00  0.00     0.068 A 
ATOM      3  C   UNL     1      40.689 133.392  14.347  1.00  0.00     0.004 A 
ATOM      4  C   UNL     1      40.363 134.746  14.379  1.00  0.00     0.020 A 
ATOM      5  C   UNL     1      41.992 132.979  14.620  1.00  0.00     0.029 A 
ATOM      6  C   UNL     1      41.346 135.703  14.660  1.00  0.00     0.057 A 
ATOM      7  C   UNL     1      42.682 135.299  14.903  1.00  0.00    -0.008 A 
ATOM      8  C   UNL     1      43.751 136.321  15.218  1.00  0.00     0.048 C 
BRANCH   6   9
ATOM      9  C   UNL     1      40.955 137.093  14.697  1.00  0.00     0.099 C 
ATOM     10  N   UNL     1      40.643 138.207  14.728  1.00  0.00    -0.192 NA
ENDBRANCH   6   9
ENDBRANCH   1   2
BRANCH   1  11
ATOM     11  C   UNL     1      44.788 132.311  15.472  1.00  0.00     0.139 C 
BRANCH  11  12
ATOM     12  C   UNL     1      46.027 131.786  14.941  1.00  0.00     0.117 C 
ATOM     13  N   UNL     1      47.016 131.362  14.517  1.00  0.00    -0.191 NA
ENDBRANCH  11  12
BRANCH  11  14
ATOM     14  C   UNL     1      43.936 131.418  16.328  1.00  0.00     0.214 C 
BRANCH  14  15
ATOM     15  N   UNL     1      44.305 131.529  17.740  1.00  0.00    -0.238 N 
ATOM     16  N   UNL     1      45.260 130.811  18.311  1.00  0.00    -0.066 NA
ATOM     17  C   UNL     1      43.802 132.366  18.671  1.00  0.00     0.093 A 
ATOM     18  N   UNL     1      45.397 131.144  19.588  1.00  0.00    -0.135 NA
ATOM     19  C   UNL     1      44.503 132.124  19.835  1.00  0.00     0.088 A 
ATOM     20  C   UNL     1      44.291 132.756  21.172  1.00  0.00     0.071 C 
BRANCH  17  21
ATOM     21  C   UNL     1      42.697 133.326  18.466  1.00  0.00     0.010 A 
ATOM     22  C   UNL     1      41.422 132.807  18.251  1.00  0.00     0.019 A 
ATOM     23  C   UNL     1      42.893 134.725  18.520  1.00  0.00    -0.008 A 
ATOM     24  C   UNL     1      40.323 133.649  18.072  1.00  0.00    -0.017 A 
ATOM     25  C   UNL     1      44.169 135.264  18.797  1.00  0.00     0.009 A 
ATOM     26  C   UNL     1      41.785 135.607  18.334  1.00  0.00    -0.010 A 
ATOM     27  C   UNL     1      39.056 133.082  17.862  1.00  0.00     0.009 A 
ATOM     28  C   UNL     1      40.485 135.061  18.104  1.00  0.00    -0.010 A 
ATOM     29  C   UNL     1      44.363 136.639  18.870  1.00  0.00     0.001 A 
ATOM     30  C   UNL     1      42.022 137.003  18.409  1.00  0.00     0.009 A 
ATOM     31  C   UNL     1      37.940 133.895  17.680  1.00  0.00     0.001 A 
ATOM     32  C   UNL     1      39.329 135.862  17.913  1.00  0.00     0.009 A 
ATOM     33  C   UNL     1      43.296 137.505  18.672  1.00  0.00     0.001 A 
ATOM     34  C   UNL     1      38.077 135.279  17.705  1.00  0.00     0.001 A 
ENDBRANCH  17  21
ENDBRANCH  14  15
ENDBRANCH  11  14
ENDBRANCH   1  11
TORSDOF 7
ENDMDL
MODEL 2
REMARK VINA RESULT:      -6.1      2.638      6.479
REMARK SMILES Cc1nnn(C/C(C#N)=N/c2cccc(C#N)c2C)c1-c1cc2ccccc2c2ccccc12
REMARK SMILES IDX 10 1 11 2 13 3 14 4 12 5 15 6 18 7 19 8 16 9 17 10 7 11 8 12
REMARK SMILES IDX 9 13 6 14 5 15 4 16 20 17 3 18 2 19 1 20 21 21 22 22 34 23
REMARK SMILES IDX 23 24 33 25 29 26 24 27 28 28 32 29 30 30 25 31 27 32 31 33
REMARK SMILES IDX 26 34
REMARK H PARENT
ROOT
ATOM      1  N   UNL     1      40.063 134.501  19.506  1.00  0.00    -0.240 NA
ENDROOT
BRANCH   1   2
ATOM      2  C   UNL     1      41.365 133.884  19.462  1.00  0.00     0.068 A 
ATOM      3  C   UNL     1      42.797 132.001  18.892  1.00  0.00     0.004 A 
ATOM      4  C   UNL     1      43.891 132.651  19.459  1.00  0.00     0.020 A 
ATOM      5  C   UNL     1      41.544 132.609  18.893  1.00  0.00     0.029 A 
ATOM      6  C   UNL     1      43.734 133.908  20.055  1.00  0.00     0.057 A 
ATOM      7  C   UNL     1      42.458 134.521  20.095  1.00  0.00    -0.008 A 
ATOM      8  C   UNL     1      42.277 135.883  20.727  1.00  0.00     0.048 C 
BRANCH   6   9
ATOM      9  C   UNL     1      44.901 134.549  20.615  1.00  0.00     0.099 C 
ATOM     10  N   UNL     1      45.836 135.063  21.063  1.00  0.00    -0.192 NA
ENDBRANCH   6   9
ENDBRANCH   1   2
BRANCH   1  11
ATOM     11  C   UNL     1      39.014 134.220  18.783  1.00  0.00     0.139 C 
BRANCH  11  12
ATOM     12  C   UNL     1      37.701 134.744  19.090  1.00  0.00     0.117 C 
ATOM     13  N   UNL     1      36.653 135.164  19.341  1.00  0.00    -0.191 NA
ENDBRANCH  11  12
BRANCH  11  14
ATOM     14  C   UNL     1      39.153 133.251  17.644  1.00  0.00     0.214 C 
BRANCH  14  15
ATOM     15  N   UNL     1      38.978 133.921  16.355  1.00  0.00    -0.238 N 
ATOM     16  N   UNL     1      37.806 134.321  15.885  1.00  0.00    -0.066 NA
ATOM     17  C   UNL     1      39.925 134.280  15.464  1.00  0.00     0.093 A 
ATOM     18  N   UNL     1      37.952 134.924  14.712  1.00  0.00    -0.135 NA
ATOM     19  C   UNL     1      39.271 134.921  14.432  1.00  0.00     0.088 A 
ATOM     20  C   UNL     1      39.868 135.463  13.175  1.00  0.00     0.071 C 
BRANCH  17  21
ATOM     21  C   UNL     1      41.372 134.002  15.582  1.00  0.00     0.010 A 
ATOM     22  C   UNL     1      41.853 132.824  15.014  1.00  0.00     0.019 A 
ATOM     23  C   UNL     1      42.265 134.903  16.207  1.00  0.00    -0.008 A 
ATOM     24  C   UNL     1      43.211 132.503  15.064  1.00  0.00    -0.017 A 
ATOM     25  C   UNL     1      41.801 136.129  16.733  1.00  0.00     0.009 A 
ATOM     26  C   UNL     1      43.658 134.594  16.276  1.00  0.00    -0.010 A 
ATOM     27  C   UNL     1      43.651 131.307  14.475  1.00  0.00     0.009 A 
ATOM     28  C   UNL     1      44.135 133.377  15.699  1.00  0.00    -0.010 A 
ATOM     29  C   UNL     1      42.677 137.027  17.334  1.00  0.00     0.001 A 
ATOM     30  C   UNL     1      44.521 135.530  16.900  1.00  0.00     0.009 A 
ATOM     31  C   UNL     1      44.999 130.958  14.508  1.00  0.00     0.001 A 
ATOM     32  C   UNL     1      45.501 132.992  15.717  1.00  0.00     0.009 A 
ATOM     33  C   UNL     1      44.030 136.726  17.420  1.00  0.00     0.001 A 
ATOM     34  C   UNL     1      45.919 131.798  15.127  1.00  0.00     0.001 A 
ENDBRANCH  17  21
ENDBRANCH  14  15
ENDBRANCH  11  14
ENDBRANCH   1  11
TORSDOF 7
ENDMDL
MODEL 3
REMARK VINA RESULT:      -5.8      1.077      1.645
REMARK SMILES Cc1nnn(C/C(C#N)=N/c2cccc(C#N)c2C)c1-c1cc2ccccc2c2ccccc12
REMARK SMILES IDX 10 1 11 2 13 3 14 4 12 5 15 6 18 7 19 8 16 9 17 10 7 11 8 12
REMARK SMILES IDX 9 13 6 14 5 15 4 16 20 17 3 18 2 19 1 20 21 21 22 22 34 23
REMARK SMILES IDX 23 24 33 25 29 26 24 27 28 28 32 29 30 30 25 31 27 32 31 33
REMARK SMILES IDX 26 34
REMARK H PARENT
ROOT
ATOM      1  N   UNL     1      43.581 132.453  14.928  1.00  0.00    -0.240 NA
ENDROOT
BRANCH   1   2
ATOM      2  C   UNL     1      43.161 133.830  15.010  1.00  0.00     0.068 A 
ATOM      3  C   UNL     1      43.586 136.137  15.656  1.00  0.00     0.004 A 
ATOM      4  C   UNL     1      42.302 136.495  15.249  1.00  0.00     0.020 A 
ATOM      5  C   UNL     1      44.014 134.816  15.540  1.00  0.00     0.029 A 
ATOM      6  C   UNL     1      41.426 135.528  14.744  1.00  0.00     0.057 A 
ATOM      7  C   UNL     1      41.836 134.175  14.655  1.00  0.00    -0.008 A 
ATOM      8  C   UNL     1      40.902 133.122  14.102  1.00  0.00     0.048 C 
BRANCH   6   9
ATOM      9  C   UNL     1      40.112 135.952  14.320  1.00  0.00     0.099 C 
ATOM     10  N   UNL     1      39.059 136.291  13.979  1.00  0.00    -0.192 NA
ENDBRANCH   6   9
ENDBRANCH   1   2
BRANCH   1  11
ATOM     11  C   UNL     1      44.448 131.829  15.676  1.00  0.00     0.139 C 
BRANCH  11  12
ATOM     12  C   UNL     1      44.733 130.420  15.517  1.00  0.00     0.117 C 
ATOM     13  N   UNL     1      44.965 129.294  15.393  1.00  0.00    -0.191 NA
ENDBRANCH  11  12
BRANCH  11  14
ATOM     14  C   UNL     1      45.112 132.576  16.797  1.00  0.00     0.214 C 
BRANCH  14  15
ATOM     15  N   UNL     1      44.801 131.970  18.093  1.00  0.00    -0.238 N 
ATOM     16  N   UNL     1      45.526 131.012  18.652  1.00  0.00    -0.066 NA
ATOM     17  C   UNL     1      43.800 132.280  18.941  1.00  0.00     0.093 A 
ATOM     18  N   UNL     1      45.029 130.679  19.836  1.00  0.00    -0.135 NA
ATOM     19  C   UNL     1      43.954 131.467  20.045  1.00  0.00     0.088 A 
ATOM     20  C   UNL     1      43.070 131.386  21.246  1.00  0.00     0.071 C 
BRANCH  17  21
ATOM     21  C   UNL     1      42.739 133.281  18.699  1.00  0.00     0.010 A 
ATOM     22  C   UNL     1      41.521 132.825  18.199  1.00  0.00     0.019 A 
ATOM     23  C   UNL     1      42.916 134.653  18.993  1.00  0.00    -0.008 A 
ATOM     24  C   UNL     1      40.463 133.706  17.966  1.00  0.00    -0.017 A 
ATOM     25  C   UNL     1      44.124 135.120  19.557  1.00  0.00     0.009 A 
ATOM     26  C   UNL     1      41.850 135.575  18.757  1.00  0.00    -0.010 A 
ATOM     27  C   UNL     1      39.253 133.201  17.465  1.00  0.00     0.009 A 
ATOM     28  C   UNL     1      40.610 135.094  18.235  1.00  0.00    -0.010 A 
ATOM     29  C   UNL     1      44.295 136.466  19.864  1.00  0.00     0.001 A 
ATOM     30  C   UNL     1      42.063 136.940  19.078  1.00  0.00     0.009 A 
ATOM     31  C   UNL     1      38.179 134.054  17.222  1.00  0.00     0.001 A 
ATOM     32  C   UNL     1      39.498 135.937  17.974  1.00  0.00     0.009 A 
ATOM     33  C   UNL     1      43.271 137.371  19.622  1.00  0.00     0.001 A 
ATOM     34  C   UNL     1      38.303 135.416  17.475  1.00  0.00     0.001 A 
ENDBRANCH  17  21
ENDBRANCH  14  15
ENDBRANCH  11  14
ENDBRANCH   1  11
TORSDOF 7
ENDMDL
MODEL 4
REMARK VINA RESULT:      -5.6      2.660      5.699
REMARK SMILES Cc1nnn(C/C(C#N)=N/c2cccc(C#N)c2C)c1-c1cc2ccccc2c2ccccc12
REMARK SMILES IDX 10 1 11 2 13 3 14 4 12 5 15 6 18 7 19 8 16 9 17 10 7 11 8 12
REMARK SMILES IDX 9 13 6 14 5 15 4 16 20 17 3 18 2 19 1 20 21 21 22 22 34 23
REMARK SMILES IDX 23 24 33 25 29 26 24 27 28 28 32 29 30 30 25 31 27 32 31 33
REMARK SMILES IDX 26 34
REMARK H PARENT
ROOT
ATOM      1  N   UNL     1      39.903 133.712  16.838  1.00  0.00    -0.240 NA
ENDROOT
BRANCH   1   2
ATOM      2  C   UNL     1      40.032 134.781  15.880  1.00  0.00     0.068 A 
ATOM      3  C   UNL     1      41.280 136.652  14.950  1.00  0.00     0.004 A 
ATOM      4  C   UNL     1      40.236 136.919  14.066  1.00  0.00     0.020 A 
ATOM      5  C   UNL     1      41.180 135.594  15.851  1.00  0.00     0.029 A 
ATOM      6  C   UNL     1      39.071 136.143  14.094  1.00  0.00     0.057 A 
ATOM      7  C   UNL     1      38.943 135.087  15.029  1.00  0.00    -0.008 A 
ATOM      8  C   UNL     1      37.694 134.234  15.062  1.00  0.00     0.048 C 
BRANCH   6   9
ATOM      9  C   UNL     1      38.025 136.448  13.147  1.00  0.00     0.099 C 
ATOM     10  N   UNL     1      37.186 136.693  12.388  1.00  0.00    -0.192 NA
ENDBRANCH   6   9
ENDBRANCH   1   2
BRANCH   1  11
ATOM     11  C   UNL     1      39.609 133.797  18.106  1.00  0.00     0.139 C 
BRANCH  11  12
ATOM     12  C   UNL     1      38.281 134.133  18.571  1.00  0.00     0.117 C 
ATOM     13  N   UNL     1      37.220 134.405  18.940  1.00  0.00    -0.191 NA
ENDBRANCH  11  12
BRANCH  11  14
ATOM     14  C   UNL     1      40.705 133.627  19.119  1.00  0.00     0.214 C 
BRANCH  14  15
ATOM     15  N   UNL     1      41.610 134.777  19.118  1.00  0.00    -0.238 N 
ATOM     16  N   UNL     1      41.240 136.008  19.437  1.00  0.00    -0.066 NA
ATOM     17  C   UNL     1      42.932 134.799  18.849  1.00  0.00     0.093 A 
ATOM     18  N   UNL     1      42.273 136.839  19.379  1.00  0.00    -0.135 NA
ATOM     19  C   UNL     1      43.347 136.103  19.024  1.00  0.00     0.088 A 
ATOM     20  C   UNL     1      44.714 136.661  18.799  1.00  0.00     0.071 C 
BRANCH  17  21
ATOM     21  C   UNL     1      43.748 133.642  18.423  1.00  0.00     0.010 A 
ATOM     22  C   UNL     1      43.954 133.463  17.057  1.00  0.00     0.019 A 
ATOM     23  C   UNL     1      44.342 132.756  19.351  1.00  0.00    -0.008 A 
ATOM     24  C   UNL     1      44.732 132.407  16.578  1.00  0.00    -0.017 A 
ATOM     25  C   UNL     1      44.192 132.961  20.741  1.00  0.00     0.009 A 
ATOM     26  C   UNL     1      45.138 131.664  18.885  1.00  0.00    -0.010 A 
ATOM     27  C   UNL     1      44.915 132.269  15.193  1.00  0.00     0.009 A 
ATOM     28  C   UNL     1      45.331 131.488  17.481  1.00  0.00    -0.010 A 
ATOM     29  C   UNL     1      44.790 132.102  21.658  1.00  0.00     0.001 A 
ATOM     30  C   UNL     1      45.727 130.808  19.849  1.00  0.00     0.009 A 
ATOM     31  C   UNL     1      45.685 131.226  14.684  1.00  0.00     0.001 A 
ATOM     32  C   UNL     1      46.109 130.436  16.931  1.00  0.00     0.009 A 
ATOM     33  C   UNL     1      45.550 131.029  21.214  1.00  0.00     0.001 A 
ATOM     34  C   UNL     1      46.279 130.313  15.551  1.00  0.00     0.001 A 
ENDBRANCH  17  21
ENDBRANCH  14  15
ENDBRANCH  11  14
ENDBRANCH   1  11
TORSDOF 7
ENDMDL
MODEL 5
REMARK VINA RESULT:      -5.5      1.065      1.692
REMARK SMILES Cc1nnn(C/C(C#N)=N/c2cccc(C#N)c2C)c1-c1cc2ccccc2c2ccccc12
REMARK SMILES IDX 10 1 11 2 13 3 14 4 12 5 15 6 18 7 19 8 16 9 17 10 7 11 8 12
REMARK SMILES IDX 9 13 6 14 5 15 4 16 20 17 3 18 2 19 1 20 21 21 22 22 34 23
REMARK SMILES IDX 23 24 33 25 29 26 24 27 28 28 32 29 30 30 25 31 27 32 31 33
REMARK SMILES IDX 26 34
REMARK H PARENT
ROOT
ATOM      1  N   UNL     1      45.045 133.641  15.964  1.00  0.00    -0.240 NA
ENDROOT
BRANCH   1   2
ATOM      2  C   UNL     1      43.905 134.426  15.564  1.00  0.00     0.068 A 
ATOM      3  C   UNL     1      42.792 136.578  15.334  1.00  0.00     0.004 A 
ATOM      4  C   UNL     1      41.645 135.943  14.861  1.00  0.00     0.020 A 
ATOM      5  C   UNL     1      43.912 135.828  15.683  1.00  0.00     0.029 A 
ATOM      6  C   UNL     1      41.602 134.547  14.758  1.00  0.00     0.057 A 
ATOM      7  C   UNL     1      42.722 133.772  15.145  1.00  0.00    -0.008 A 
ATOM      8  C   UNL     1      42.693 132.264  15.029  1.00  0.00     0.048 C 
BRANCH   6   9
ATOM      9  C   UNL     1      40.397 133.937  14.247  1.00  0.00     0.099 C 
ATOM     10  N   UNL     1      39.431 133.447  13.837  1.00  0.00    -0.192 NA
ENDBRANCH   6   9
ENDBRANCH   1   2
BRANCH   1  11
ATOM     11  C   UNL     1      45.252 132.367  15.776  1.00  0.00     0.139 C 
BRANCH  11  12
ATOM     12  C   UNL     1      46.224 131.874  14.825  1.00  0.00     0.117 C 
ATOM     13  N   UNL     1      46.998 131.477  14.064  1.00  0.00    -0.191 NA
ENDBRANCH  11  12
BRANCH  11  14
ATOM     14  C   UNL     1      44.394 131.376  16.508  1.00  0.00     0.214 C 
BRANCH  14  15
ATOM     15  N   UNL     1      44.683 131.383  17.943  1.00  0.00    -0.238 N 
ATOM     16  N   UNL     1      45.631 130.650  18.508  1.00  0.00    -0.066 NA
ATOM     17  C   UNL     1      44.102 132.124  18.908  1.00  0.00     0.093 A 
ATOM     18  N   UNL     1      45.687 130.882  19.813  1.00  0.00    -0.135 NA
ATOM     19  C   UNL     1      44.748 131.810  20.086  1.00  0.00     0.088 A 
ATOM     20  C   UNL     1      44.442 132.324  21.455  1.00  0.00     0.071 C 
BRANCH  17  21
ATOM     21  C   UNL     1      42.976 133.063  18.718  1.00  0.00     0.010 A 
ATOM     22  C   UNL     1      41.736 132.526  18.382  1.00  0.00     0.019 A 
ATOM     23  C   UNL     1      43.117 134.458  18.904  1.00  0.00    -0.008 A 
ATOM     24  C   UNL     1      40.619 133.345  18.208  1.00  0.00    -0.017 A 
ATOM     25  C   UNL     1      44.354 135.010  19.304  1.00  0.00     0.009 A 
ATOM     26  C   UNL     1      41.990 135.318  18.726  1.00  0.00    -0.010 A 
ATOM     27  C   UNL     1      39.388 132.759  17.873  1.00  0.00     0.009 A 
ATOM     28  C   UNL     1      40.727 134.753  18.371  1.00  0.00    -0.010 A 
ATOM     29  C   UNL     1      44.493 136.380  19.506  1.00  0.00     0.001 A 
ATOM     30  C   UNL     1      42.171 136.709  18.935  1.00  0.00     0.009 A 
ATOM     31  C   UNL     1      38.256 133.549  17.692  1.00  0.00     0.001 A 
ATOM     32  C   UNL     1      39.555 135.531  18.178  1.00  0.00     0.009 A 
ATOM     33  C   UNL     1      43.408 137.225  19.318  1.00  0.00     0.001 A 
ATOM     34  C   UNL     1      38.340 134.929  17.844  1.00  0.00     0.001 A 
ENDBRANCH  17  21
ENDBRANCH  14  15
ENDBRANCH  11  14
ENDBRANCH   1  11
TORSDOF 7
ENDMDL
MODEL 6
REMARK VINA RESULT:      -5.5      2.336      6.091
REMARK SMILES Cc1nnn(C/C(C#N)=N/c2cccc(C#N)c2C)c1-c1cc2ccccc2c2ccccc12
REMARK SMILES IDX 10 1 11 2 13 3 14 4 12 5 15 6 18 7 19 8 16 9 17 10 7 11 8 12
REMARK SMILES IDX 9 13 6 14 5 15 4 16 20 17 3 18 2 19 1 20 21 21 22 22 34 23
REMARK SMILES IDX 23 24 33 25 29 26 24 27 28 28 32 29 30 30 25 31 27 32 31 33
REMARK SMILES IDX 26 34
REMARK H PARENT
ROOT
ATOM      1  N   UNL     1      43.432 132.408  15.296  1.00  0.00    -0.240 NA
ENDROOT
BRANCH   1   2
ATOM      2  C   UNL     1      44.507 131.577  15.778  1.00  0.00     0.068 A 
ATOM      3  C   UNL     1      45.841 130.692  17.611  1.00  0.00     0.004 A 
ATOM      4  C   UNL     1      46.660 130.024  16.703  1.00  0.00     0.020 A 
ATOM      5  C   UNL     1      44.774 131.463  17.155  1.00  0.00     0.029 A 
ATOM      6  C   UNL     1      46.432 130.142  15.327  1.00  0.00     0.057 A 
ATOM      7  C   UNL     1      45.373 130.952  14.849  1.00  0.00    -0.008 A 
ATOM      8  C   UNL     1      45.110 131.080  13.365  1.00  0.00     0.048 C 
BRANCH   6   9
ATOM      9  C   UNL     1      47.298 129.417  14.427  1.00  0.00     0.099 C 
ATOM     10  N   UNL     1      47.991 128.835  13.706  1.00  0.00    -0.192 NA
ENDBRANCH   6   9
ENDBRANCH   1   2
BRANCH   1  11
ATOM     11  C   UNL     1      42.431 132.901  15.971  1.00  0.00     0.139 C 
BRANCH  11  12
ATOM     12  C   UNL     1      41.855 134.192  15.665  1.00  0.00     0.117 C 
ATOM     13  N   UNL     1      41.397 135.226  15.423  1.00  0.00    -0.191 NA
ENDBRANCH  11  12
BRANCH  11  14
ATOM     14  C   UNL     1      41.913 132.145  17.160  1.00  0.00     0.214 C 
BRANCH  14  15
ATOM     15  N   UNL     1      40.948 132.944  17.917  1.00  0.00    -0.238 N 
ATOM     16  N   UNL     1      39.648 132.964  17.664  1.00  0.00    -0.066 NA
ATOM     17  C   UNL     1      41.174 133.737  18.984  1.00  0.00     0.093 A 
ATOM     18  N   UNL     1      39.015 133.749  18.526  1.00  0.00    -0.135 NA
ATOM     19  C   UNL     1      39.947 134.236  19.370  1.00  0.00     0.088 A 
ATOM     20  C   UNL     1      39.665 135.205  20.471  1.00  0.00     0.071 C 
BRANCH  17  21
ATOM     21  C   UNL     1      42.494 134.022  19.586  1.00  0.00     0.010 A 
ATOM     22  C   UNL     1      43.068 135.265  19.329  1.00  0.00     0.019 A 
ATOM     23  C   UNL     1      43.153 133.098  20.430  1.00  0.00    -0.008 A 
ATOM     24  C   UNL     1      44.302 135.616  19.880  1.00  0.00    -0.017 A 
ATOM     25  C   UNL     1      42.555 131.859  20.748  1.00  0.00     0.009 A 
ATOM     26  C   UNL     1      44.419 133.432  21.001  1.00  0.00    -0.010 A 
ATOM     27  C   UNL     1      44.840 136.882  19.596  1.00  0.00     0.009 A 
ATOM     28  C   UNL     1      45.000 134.707  20.719  1.00  0.00    -0.010 A 
ATOM     29  C   UNL     1      43.191 130.954  21.592  1.00  0.00     0.001 A 
ATOM     30  C   UNL     1      45.040 132.483  21.852  1.00  0.00     0.009 A 
ATOM     31  C   UNL     1      46.068 137.262  20.131  1.00  0.00     0.001 A 
ATOM     32  C   UNL     1      46.250 135.123  21.247  1.00  0.00     0.009 A 
ATOM     33  C   UNL     1      44.430 131.263  22.137  1.00  0.00     0.001 A 
ATOM     34  C   UNL     1      46.770 136.385  20.952  1.00  0.00     0.001 A 
ENDBRANCH  17  21
ENDBRANCH  14  15
ENDBRANCH  11  14
ENDBRANCH   1  11
TORSDOF 7
ENDMDL
MODEL 7
REMARK VINA RESULT:      -5.4      1.962      5.850
REMARK SMILES Cc1nnn(C/C(C#N)=N/c2cccc(C#N)c2C)c1-c1cc2ccccc2c2ccccc12
REMARK SMILES IDX 10 1 11 2 13 3 14 4 12 5 15 6 18 7 19 8 16 9 17 10 7 11 8 12
REMARK SMILES IDX 9 13 6 14 5 15 4 16 20 17 3 18 2 19 1 20 21 21 22 22 34 23
REMARK SMILES IDX 23 24 33 25 29 26 24 27 28 28 32 29 30 30 25 31 27 32 31 33
REMARK SMILES IDX 26 34
REMARK H PARENT
ROOT
ATOM      1  N   UNL     1      42.482 132.329  15.578  1.00  0.00    -0.240 NA
ENDROOT
BRANCH   1   2
ATOM      2  C   UNL     1      43.661 131.665  16.075  1.00  0.00     0.068 A 
ATOM      3  C   UNL     1      45.184 131.139  17.898  1.00  0.00     0.004 A 
ATOM      4  C   UNL     1      46.009 130.441  17.018  1.00  0.00     0.020 A 
ATOM      5  C   UNL     1      44.021 131.747  17.433  1.00  0.00     0.029 A 
ATOM      6  C   UNL     1      45.688 130.367  15.657  1.00  0.00     0.057 A 
ATOM      7  C   UNL     1      44.527 131.012  15.165  1.00  0.00    -0.008 A 
ATOM      8  C   UNL     1      44.163 130.932  13.700  1.00  0.00     0.048 C 
BRANCH   6   9
ATOM      9  C   UNL     1      46.565 129.618  14.788  1.00  0.00     0.099 C 
ATOM     10  N   UNL     1      47.268 129.018  14.091  1.00  0.00    -0.192 NA
ENDBRANCH   6   9
ENDBRANCH   1   2
BRANCH   1  11
ATOM     11  C   UNL     1      42.383 133.530  15.080  1.00  0.00     0.139 C 
BRANCH  11  12
ATOM     12  C   UNL     1      41.204 133.979  14.373  1.00  0.00     0.117 C 
ATOM     13  N   UNL     1      40.263 134.342  13.806  1.00  0.00    -0.191 NA
ENDBRANCH  11  12
BRANCH  11  14
ATOM     14  C   UNL     1      43.565 134.453  15.167  1.00  0.00     0.214 C 
BRANCH  14  15
ATOM     15  N   UNL     1      43.145 135.824  15.461  1.00  0.00    -0.238 N 
ATOM     16  N   UNL     1      43.084 136.787  14.554  1.00  0.00    -0.066 NA
ATOM     17  C   UNL     1      42.723 136.335  16.636  1.00  0.00     0.093 A 
ATOM     18  N   UNL     1      42.642 137.915  15.096  1.00  0.00    -0.135 NA
ATOM     19  C   UNL     1      42.398 137.654  16.396  1.00  0.00     0.088 A 
ATOM     20  C   UNL     1      41.929 138.669  17.387  1.00  0.00     0.071 C 
BRANCH  17  21
ATOM     21  C   UNL     1      42.657 135.608  17.922  1.00  0.00     0.010 A 
ATOM     22  C   UNL     1      43.855 135.370  18.592  1.00  0.00     0.019 A 
ATOM     23  C   UNL     1      41.432 135.194  18.492  1.00  0.00    -0.008 A 
ATOM     24  C   UNL     1      43.873 134.710  19.822  1.00  0.00    -0.017 A 
ATOM     25  C   UNL     1      40.205 135.481  17.853  1.00  0.00     0.009 A 
ATOM     26  C   UNL     1      41.425 134.511  19.748  1.00  0.00    -0.010 A 
ATOM     27  C   UNL     1      45.104 134.496  20.463  1.00  0.00     0.009 A 
ATOM     28  C   UNL     1      42.662 134.265  20.418  1.00  0.00    -0.010 A 
ATOM     29  C   UNL     1      38.996 135.091  18.419  1.00  0.00     0.001 A 
ATOM     30  C   UNL     1      40.174 134.124  20.291  1.00  0.00     0.009 A 
ATOM     31  C   UNL     1      45.155 133.841  21.691  1.00  0.00     0.001 A 
ATOM     32  C   UNL     1      42.748 133.599  21.668  1.00  0.00     0.009 A 
ATOM     33  C   UNL     1      38.981 134.413  19.630  1.00  0.00     0.001 A 
ATOM     34  C   UNL     1      43.982 133.394  22.290  1.00  0.00     0.001 A 
ENDBRANCH  17  21
ENDBRANCH  14  15
ENDBRANCH  11  14
ENDBRANCH   1  11
TORSDOF 7
ENDMDL
MODEL 8
REMARK VINA RESULT:      -5.3      2.048      5.980
REMARK SMILES Cc1nnn(C/C(C#N)=N/c2cccc(C#N)c2C)c1-c1cc2ccccc2c2ccccc12
REMARK SMILES IDX 10 1 11 2 13 3 14 4 12 5 15 6 18 7 19 8 16 9 17 10 7 11 8 12
REMARK SMILES IDX 9 13 6 14 5 15 4 16 20 17 3 18 2 19 1 20 21 21 22 22 34 23
REMARK SMILES IDX 23 24 33 25 29 26 24 27 28 28 32 29 30 30 25 31 27 32 31 33
REMARK SMILES IDX 26 34
REMARK H PARENT
ROOT
ATOM      1  N   UNL     1      41.822 132.572  16.120  1.00  0.00    -0.240 NA
ENDROOT
BRANCH   1   2
ATOM      2  C   UNL     1      42.919 132.061  16.903  1.00  0.00     0.068 A 
ATOM      3  C   UNL     1      44.008 131.721  19.052  1.00  0.00     0.004 A 
ATOM      4  C   UNL     1      45.102 131.139  18.414  1.00  0.00     0.020 A 
ATOM      5  C   UNL     1      42.926 132.179  18.305  1.00  0.00     0.029 A 
ATOM      6  C   UNL     1      45.133 131.034  17.019  1.00  0.00     0.057 A 
ATOM      7  C   UNL     1      44.054 131.529  16.246  1.00  0.00    -0.008 A 
ATOM      8  C   UNL     1      44.069 131.413  14.738  1.00  0.00     0.048 C 
BRANCH   6   9
ATOM      9  C   UNL     1      46.281 130.409  16.406  1.00  0.00     0.099 C 
ATOM     10  N   UNL     1      47.201 129.907  15.915  1.00  0.00    -0.192 NA
ENDBRANCH   6   9
ENDBRANCH   1   2
BRANCH   1  11
ATOM     11  C   UNL     1      41.563 133.812  15.809  1.00  0.00     0.139 C 
BRANCH  11  12
ATOM     12  C   UNL     1      42.548 134.678  15.200  1.00  0.00     0.117 C 
ATOM     13  N   UNL     1      43.339 135.368  14.714  1.00  0.00    -0.191 NA
ENDBRANCH  11  12
BRANCH  11  14
ATOM     14  C   UNL     1      40.225 134.388  16.174  1.00  0.00     0.214 C 
BRANCH  14  15
ATOM     15  N   UNL     1      40.306 135.838  16.362  1.00  0.00    -0.238 N 
ATOM     16  N   UNL     1      39.897 136.722  15.465  1.00  0.00    -0.066 NA
ATOM     17  C   UNL     1      40.748 136.517  17.441  1.00  0.00     0.093 A 
ATOM     18  N   UNL     1      40.062 137.959  15.916  1.00  0.00    -0.135 NA
ATOM     19  C   UNL     1      40.583 137.856  17.156  1.00  0.00     0.088 A 
ATOM     20  C   UNL     1      40.969 139.021  18.008  1.00  0.00     0.071 C 
BRANCH  17  21
ATOM     21  C   UNL     1      41.320 135.918  18.666  1.00  0.00     0.010 A 
ATOM     22  C   UNL     1      42.707 135.831  18.756  1.00  0.00     0.019 A 
ATOM     23  C   UNL     1      40.510 135.478  19.738  1.00  0.00    -0.008 A 
ATOM     24  C   UNL     1      43.323 135.299  19.891  1.00  0.00    -0.017 A 
ATOM     25  C   UNL     1      39.106 135.615  19.685  1.00  0.00     0.009 A 
ATOM     26  C   UNL     1      41.117 134.924  20.908  1.00  0.00    -0.010 A 
ATOM     27  C   UNL     1      44.724 135.234  19.940  1.00  0.00     0.009 A 
ATOM     28  C   UNL     1      42.541 134.832  20.982  1.00  0.00    -0.010 A 
ATOM     29  C   UNL     1      38.306 135.200  20.745  1.00  0.00     0.001 A 
ATOM     30  C   UNL     1      40.270 134.507  21.966  1.00  0.00     0.009 A 
ATOM     31  C   UNL     1      45.368 134.709  21.057  1.00  0.00     0.001 A 
ATOM     32  C   UNL     1      43.226 134.300  22.105  1.00  0.00     0.009 A 
ATOM     33  C   UNL     1      38.886 134.645  21.878  1.00  0.00     0.001 A 
ATOM     34  C   UNL     1      44.621 134.244  22.135  1.00  0.00     0.001 A 
ENDBRANCH  17  21
ENDBRANCH  14  15
ENDBRANCH  11  14
ENDBRANCH   1  11
TORSDOF 7
ENDMDL
MODEL 9
REMARK VINA RESULT:      -5.3      1.904      6.146
REMARK SMILES Cc1nnn(C/C(C#N)=N/c2cccc(C#N)c2C)c1-c1cc2ccccc2c2ccccc12
REMARK SMILES IDX 10 1 11 2 13 3 14 4 12 5 15 6 18 7 19 8 16 9 17 10 7 11 8 12
REMARK SMILES IDX 9 13 6 14 5 15 4 16 20 17 3 18 2 19 1 20 21 21 22 22 34 23
REMARK SMILES IDX 23 24 33 25 29 26 24 27 28 28 32 29 30 30 25 31 27 32 31 33
REMARK SMILES IDX 26 34
REMARK H PARENT
ROOT
ATOM      1  N   UNL     1      42.464 132.345  14.902  1.00  0.00    -0.240 NA
ENDROOT
BRANCH   1   2
ATOM      2  C   UNL     1      43.732 131.824  15.345  1.00  0.00     0.068 A 
ATOM      3  C   UNL     1      45.926 130.892  14.855  1.00  0.00     0.004 A 
ATOM      4  C   UNL     1      46.169 130.726  16.217  1.00  0.00     0.020 A 
ATOM      5  C   UNL     1      44.719 131.434  14.420  1.00  0.00     0.029 A 
ATOM      6  C   UNL     1      45.194 131.081  17.156  1.00  0.00     0.057 A 
ATOM      7  C   UNL     1      43.948 131.600  16.726  1.00  0.00    -0.008 A 
ATOM      8  C   UNL     1      42.890 131.996  17.731  1.00  0.00     0.048 C 
BRANCH   6   9
ATOM      9  C   UNL     1      45.499 130.906  18.557  1.00  0.00     0.099 C 
ATOM     10  N   UNL     1      45.743 130.766  19.679  1.00  0.00    -0.192 NA
ENDBRANCH   6   9
ENDBRANCH   1   2
BRANCH   1  11
ATOM     11  C   UNL     1      41.925 133.500  15.182  1.00  0.00     0.139 C 
BRANCH  11  12
ATOM     12  C   UNL     1      40.519 133.642  15.489  1.00  0.00     0.117 C 
ATOM     13  N   UNL     1      39.395 133.761  15.736  1.00  0.00    -0.191 NA
ENDBRANCH  11  12
BRANCH  11  14
ATOM     14  C   UNL     1      42.773 134.736  15.098  1.00  0.00     0.214 C 
BRANCH  14  15
ATOM     15  N   UNL     1      41.982 135.939  15.364  1.00  0.00    -0.238 N 
ATOM     16  N   UNL     1      41.115 136.456  14.506  1.00  0.00    -0.066 NA
ATOM     17  C   UNL     1      41.952 136.689  16.485  1.00  0.00     0.093 A 
ATOM     18  N   UNL     1      40.522 137.524  15.026  1.00  0.00    -0.135 NA
ATOM     19  C   UNL     1      41.021 137.683  16.268  1.00  0.00     0.088 A 
ATOM     20  C   UNL     1      40.655 138.802  17.188  1.00  0.00     0.071 C 
BRANCH  17  21
ATOM     21  C   UNL     1      42.786 136.479  17.688  1.00  0.00     0.010 A 
ATOM     22  C   UNL     1      43.997 137.165  17.762  1.00  0.00     0.019 A 
ATOM     23  C   UNL     1      42.375 135.650  18.756  1.00  0.00    -0.008 A 
ATOM     24  C   UNL     1      44.829 137.038  18.876  1.00  0.00    -0.017 A 
ATOM     25  C   UNL     1      41.123 134.996  18.721  1.00  0.00     0.009 A 
ATOM     26  C   UNL     1      43.213 135.498  19.904  1.00  0.00    -0.010 A 
ATOM     27  C   UNL     1      46.038 137.751  18.909  1.00  0.00     0.009 A 
ATOM     28  C   UNL     1      44.456 136.200  19.962  1.00  0.00    -0.010 A 
ATOM     29  C   UNL     1      40.707 134.193  19.777  1.00  0.00     0.001 A 
ATOM     30  C   UNL     1      42.757 134.668  20.959  1.00  0.00     0.009 A 
ATOM     31  C   UNL     1      46.890 137.645  20.006  1.00  0.00     0.001 A 
ATOM     32  C   UNL     1      45.346 136.112  21.063  1.00  0.00     0.009 A 
ATOM     33  C   UNL     1      41.521 134.026  20.889  1.00  0.00     0.001 A 
ATOM     34  C   UNL     1      46.545 136.828  21.078  1.00  0.00     0.001 A 
ENDBRANCH  17  21
ENDBRANCH  14  15
ENDBRANCH  11  14
ENDBRANCH   1  11
TORSDOF 7
ENDMDL


