REMARK SMILES C#CCO/C([O-])=C\[C@@H]1[CH][C]2C=CC=C[C@@H]2CC1
REMARK SMILES IDX 4 1 3 2 2 3 1 4 5 5 6 6 7 7 8 8 9 9 17 10 10 11 16 12 11 13
REMARK SMILES IDX 15 14 12 15 14 16 13 17
REMARK H PARENT
ROOT
ATOM      1  O   UNL     1      -3.473   1.393   1.241  1.00  0.00    -0.601 OA
ENDROOT
BRANCH   1   2
ATOM      2  C   UNL     1      -4.570   2.269   1.466  1.00  0.00     0.160 C 
BRANCH   2   3
ATOM      3  C   UNL     1      -5.798   1.637   0.984  1.00  0.00    -0.095 C 
ATOM      4  C   UNL     1      -6.810   1.116   0.586  1.00  0.00     0.005 C 
ENDBRANCH   2   3
ENDBRANCH   1   2
BRANCH   1   5
ATOM      5  C   UNL     1      -2.163   1.729   1.594  1.00  0.00     0.049 C 
ATOM      6  O   UNL     1      -1.893   2.954   2.197  1.00  0.00    -0.547 OA
BRANCH   5   7
ATOM      7  C   UNL     1      -1.159   0.881   1.357  1.00  0.00     0.004 C 
BRANCH   7   8
ATOM      8  C   UNL     1      -1.368  -0.460   0.694  1.00  0.00     0.036 C 
ATOM      9  C   UNL     1      -0.211  -1.373   1.037  1.00  0.00    -0.015 C 
ATOM     10  C   UNL     1      -1.553  -0.297  -0.831  1.00  0.00     0.013 C 
ATOM     11  C   UNL     1       0.841  -1.613   0.140  1.00  0.00    -0.045 C 
ATOM     12  C   UNL     1      -0.213  -0.059  -1.540  1.00  0.00     0.013 C 
ATOM     13  C   UNL     1       2.067  -2.298   0.600  1.00  0.00     0.004 C 
ATOM     14  C   UNL     1       0.708  -1.270  -1.333  1.00  0.00     0.041 C 
ATOM     15  C   UNL     1       3.162  -2.284  -0.165  1.00  0.00    -0.000 C 
ATOM     16  C   UNL     1       2.059  -1.043  -1.973  1.00  0.00    -0.019 C 
ATOM     17  C   UNL     1       3.175  -1.576  -1.460  1.00  0.00    -0.004 C 
ENDBRANCH   7   8
ENDBRANCH   5   7
ENDBRANCH   1   5
TORSDOF 5


