REMARK SMILES C#CCO/C([O-])=C\[C@H]1CC[C@@H]2C(=O)N([O-])C(=O)c3ccc(N=[N+]=[N-])c1c32
REMARK SMILES IDX 5 1 6 2 4 3 3 4 2 5 1 6 7 7 8 8 25 9 9 10 21 11 26 12 10 13
REMARK SMILES IDX 20 14 18 15 11 16 19 17 16 18 12 19 14 20 17 21 13 22 15 23
REMARK SMILES IDX 22 24 23 25 24 26
REMARK H PARENT
ROOT
ATOM      1  C   UNL     1      -2.302   0.085  -1.301  1.00  0.00     0.049 C 
ATOM      2  O   UNL     1      -2.961   0.784  -2.308  1.00  0.00    -0.547 OA
ENDROOT
BRANCH   1   3
ATOM      3  O   UNL     1      -2.897  -1.039  -0.721  1.00  0.00    -0.601 OA
BRANCH   3   4
ATOM      4  C   UNL     1      -4.173  -1.517  -1.123  1.00  0.00     0.160 C 
BRANCH   4   5
ATOM      5  C   UNL     1      -4.513  -2.703  -0.336  1.00  0.00    -0.095 C 
ATOM      6  C   UNL     1      -4.792  -3.680   0.312  1.00  0.00     0.005 C 
ENDBRANCH   4   5
ENDBRANCH   3   4
ENDBRANCH   1   3
BRANCH   1   7
ATOM      7  C   UNL     1      -1.098   0.499  -0.898  1.00  0.00     0.005 C 
BRANCH   7   8
ATOM      8  C   UNL     1      -0.309  -0.215   0.179  1.00  0.00     0.044 C 
ATOM      9  C   UNL     1       0.673   0.745   0.860  1.00  0.00    -0.027 A 
ATOM     10  C   UNL     1       0.341  -1.471  -0.441  1.00  0.00     0.014 C 
ATOM     11  C   UNL     1       0.177   1.928   1.466  1.00  0.00     0.042 A 
ATOM     12  C   UNL     1       2.054   0.423   0.996  1.00  0.00    -0.019 A 
ATOM     13  C   UNL     1       1.549  -1.946   0.355  1.00  0.00     0.019 C 
ATOM     14  C   UNL     1       1.063   2.814   2.097  1.00  0.00     0.011 A 
ATOM     15  C   UNL     1       2.921   1.324   1.659  1.00  0.00     0.043 A 
ATOM     16  C   UNL     1       2.614  -0.841   0.357  1.00  0.00     0.109 C 
ATOM     17  C   UNL     1       2.418   2.520   2.184  1.00  0.00     0.014 A 
ATOM     18  C   UNL     1       4.341   0.971   1.863  1.00  0.00     0.250 C 
ATOM     19  C   UNL     1       3.895  -1.311   1.011  1.00  0.00     0.226 C 
ATOM     20  N   UNL     1       4.782  -0.363   1.608  1.00  0.00    -0.351 N 
ATOM     21  O   UNL     1       5.160   1.827   2.298  1.00  0.00    -0.269 OA
ATOM     22  O   UNL     1       4.241  -2.521   0.937  1.00  0.00    -0.275 OA
ATOM     23  O   UNL     1       6.034  -0.740   1.964  1.00  0.00    -0.749 OA
BRANCH  11  24
ATOM     24  N   UNL     1      -1.235   2.204   1.445  1.00  0.00    -0.060 NA
BRANCH  24  25
ATOM     25  N   UNL     1      -1.724   3.213   1.955  1.00  0.00     0.005 N 
ATOM     26  N   UNL     1      -2.214   4.220   2.464  1.00  0.00    -0.003 NA
ENDBRANCH  24  25
ENDBRANCH  11  24
ENDBRANCH   7   8
ENDBRANCH   1   7
TORSDOF 7


