MODEL 1
REMARK VINA RESULT:      -7.8      0.000      0.000
REMARK SMILES Cc1[nH+]nn(C/C(C#N)=[NH+]/c2cccc(C#N)c2C)c1-c1cc2ccccc2c2ccccc12
REMARK SMILES IDX 10 1 11 3 13 4 14 5 12 6 15 7 18 8 19 9 16 10 17 11 7 12
REMARK SMILES IDX 8 13 9 14 6 15 5 16 4 17 20 18 3 19 2 20 1 22 21 23 22 24
REMARK SMILES IDX 34 25 23 26 33 27 29 28 24 29 28 30 32 31 30 32 25 33 27 34
REMARK SMILES IDX 31 35 26 36
REMARK H PARENT 10 2 3 21
ROOT
ATOM      1  N   UNL     1      43.204 132.032  14.740  1.00  0.00    -0.196 N 
ATOM      2  H   UNL     1      42.756 131.511  13.951  1.00  0.00     0.455 HD
ENDROOT
BRANCH   1   3
ATOM      3  C   UNL     1      44.369 131.423  15.335  1.00  0.00     0.208 A 
ATOM      4  C   UNL     1      45.570 130.723  17.330  1.00  0.00     0.008 A 
ATOM      5  C   UNL     1      46.549 130.124  16.542  1.00  0.00     0.020 A 
ATOM      6  C   UNL     1      44.482 131.358  16.734  1.00  0.00     0.079 A 
ATOM      7  C   UNL     1      46.448 130.154  15.148  1.00  0.00     0.062 A 
ATOM      8  C   UNL     1      45.359 130.813  14.526  1.00  0.00     0.038 A 
ATOM      9  C   UNL     1      45.258 130.849  13.020  1.00  0.00     0.053 C 
BRANCH   7  10
ATOM     10  C   UNL     1      47.465 129.487  14.373  1.00  0.00     0.100 C 
ATOM     11  N   UNL     1      48.277 128.951  13.748  1.00  0.00    -0.192 NA
ENDBRANCH   7  10
ENDBRANCH   1   3
BRANCH   1  12
ATOM     12  C   UNL     1      42.708 133.187  15.104  1.00  0.00     0.302 C 
BRANCH  12  13
ATOM     13  C   UNL     1      41.281 133.392  15.249  1.00  0.00     0.169 C 
ATOM     14  N   UNL     1      40.143 133.558  15.366  1.00  0.00    -0.186 NA
ENDBRANCH  12  13
BRANCH  12  15
ATOM     15  C   UNL     1      43.620 134.363  15.340  1.00  0.00     0.390 C 
BRANCH  15  16
ATOM     16  N   UNL     1      42.863 135.518  15.825  1.00  0.00    -0.118 N 
ATOM     17  N   UNL     1      42.205 136.353  15.035  1.00  0.00     0.089 NA
ATOM     18  C   UNL     1      42.630 135.877  17.105  1.00  0.00     0.201 A 
ATOM     19  N   UNL     1      41.568 137.255  15.767  1.00  0.00    -0.147 N 
ATOM     20  C   UNL     1      41.821 136.996  17.064  1.00  0.00     0.169 A 
ATOM     21  H   UNL     1      40.971 138.021  15.383  1.00  0.00     0.342 HD
ATOM     22  C   UNL     1      41.249 137.757  18.216  1.00  0.00     0.100 C 
BRANCH  18  23
ATOM     23  C   UNL     1      43.157 135.196  18.307  1.00  0.00     0.036 A 
ATOM     24  C   UNL     1      42.598 133.966  18.652  1.00  0.00     0.022 A 
ATOM     25  C   UNL     1      44.217 135.730  19.076  1.00  0.00    -0.006 A 
ATOM     26  C   UNL     1      43.080 133.235  19.739  1.00  0.00    -0.017 A 
ATOM     27  C   UNL     1      44.743 137.008  18.786  1.00  0.00     0.009 A 
ATOM     28  C   UNL     1      44.747 134.987  20.175  1.00  0.00    -0.010 A 
ATOM     29  C   UNL     1      42.480 132.005  20.054  1.00  0.00     0.009 A 
ATOM     30  C   UNL     1      44.167 133.726  20.513  1.00  0.00    -0.010 A 
ATOM     31  C   UNL     1      45.793 137.535  19.533  1.00  0.00     0.001 A 
ATOM     32  C   UNL     1      45.824 135.549  20.906  1.00  0.00     0.009 A 
ATOM     33  C   UNL     1      42.939 131.251  21.130  1.00  0.00     0.001 A 
ATOM     34  C   UNL     1      44.610 132.935  21.604  1.00  0.00     0.009 A 
ATOM     35  C   UNL     1      46.336 136.805  20.581  1.00  0.00     0.001 A 
ATOM     36  C   UNL     1      43.999 131.715  21.902  1.00  0.00     0.001 A 
ENDBRANCH  18  23
ENDBRANCH  15  16
ENDBRANCH  12  15
ENDBRANCH   1  12
TORSDOF 7
ENDMDL
MODEL 2
REMARK VINA RESULT:      -7.5      3.535      6.776
REMARK SMILES Cc1[nH+]nn(C/C(C#N)=[NH+]/c2cccc(C#N)c2C)c1-c1cc2ccccc2c2ccccc12
REMARK SMILES IDX 10 1 11 3 13 4 14 5 12 6 15 7 18 8 19 9 16 10 17 11 7 12
REMARK SMILES IDX 8 13 9 14 6 15 5 16 4 17 20 18 3 19 2 20 1 22 21 23 22 24
REMARK SMILES IDX 34 25 23 26 33 27 29 28 24 29 28 30 32 31 30 32 25 33 27 34
REMARK SMILES IDX 31 35 26 36
REMARK H PARENT 10 2 3 21
ROOT
ATOM      1  N   UNL     1      42.965 131.779  16.066  1.00  0.00    -0.196 N 
ATOM      2  H   UNL     1      42.164 131.148  16.298  1.00  0.00     0.455 HD
ENDROOT
BRANCH   1   3
ATOM      3  C   UNL     1      44.286 131.212  16.176  1.00  0.00     0.208 A 
ATOM      4  C   UNL     1      46.094 130.385  17.577  1.00  0.00     0.008 A 
ATOM      5  C   UNL     1      46.798 129.981  16.446  1.00  0.00     0.020 A 
ATOM      6  C   UNL     1      44.843 130.985  17.447  1.00  0.00     0.079 A 
ATOM      7  C   UNL     1      46.256 130.174  15.172  1.00  0.00     0.062 A 
ATOM      8  C   UNL     1      44.995 130.801  15.021  1.00  0.00     0.038 A 
ATOM      9  C   UNL     1      44.417 131.013  13.643  1.00  0.00     0.053 C 
BRANCH   7  10
ATOM     10  C   UNL     1      47.004 129.704  14.031  1.00  0.00     0.100 C 
ATOM     11  N   UNL     1      47.605 129.332  13.116  1.00  0.00    -0.192 NA
ENDBRANCH   7  10
ENDBRANCH   1   3
BRANCH   1  12
ATOM     12  C   UNL     1      42.717 133.003  15.673  1.00  0.00     0.302 C 
BRANCH  12  13
ATOM     13  C   UNL     1      43.636 134.091  15.942  1.00  0.00     0.169 C 
ATOM     14  N   UNL     1      44.369 134.960  16.154  1.00  0.00    -0.186 NA
ENDBRANCH  12  13
BRANCH  12  15
ATOM     15  C   UNL     1      41.429 133.325  14.961  1.00  0.00     0.390 C 
BRANCH  15  16
ATOM     16  N   UNL     1      40.354 133.577  15.920  1.00  0.00    -0.118 N 
ATOM     17  N   UNL     1      40.384 133.181  17.184  1.00  0.00     0.089 NA
ATOM     18  C   UNL     1      39.231 134.303  15.733  1.00  0.00     0.201 A 
ATOM     19  N   UNL     1      39.302 133.613  17.815  1.00  0.00    -0.147 N 
ATOM     20  C   UNL     1      38.553 134.306  16.937  1.00  0.00     0.169 A 
ATOM     21  H   UNL     1      39.092 133.440  18.823  1.00  0.00     0.342 HD
ATOM     22  C   UNL     1      37.271 135.000  17.266  1.00  0.00     0.100 C 
BRANCH  18  23
ATOM     23  C   UNL     1      38.818 134.952  14.470  1.00  0.00     0.036 A 
ATOM     24  C   UNL     1      38.079 134.193  13.564  1.00  0.00     0.022 A 
ATOM     25  C   UNL     1      39.114 136.304  14.182  1.00  0.00    -0.006 A 
ATOM     26  C   UNL     1      37.603 134.750  12.376  1.00  0.00    -0.017 A 
ATOM     27  C   UNL     1      39.926 137.065  15.052  1.00  0.00     0.009 A 
ATOM     28  C   UNL     1      38.613 136.906  12.986  1.00  0.00    -0.010 A 
ATOM     29  C   UNL     1      36.870 133.944  11.490  1.00  0.00     0.009 A 
ATOM     30  C   UNL     1      37.853 136.115  12.070  1.00  0.00    -0.010 A 
ATOM     31  C   UNL     1      40.211 138.399  14.778  1.00  0.00     0.001 A 
ATOM     32  C   UNL     1      38.915 138.269  12.746  1.00  0.00     0.009 A 
ATOM     33  C   UNL     1      36.380 134.470  10.299  1.00  0.00     0.001 A 
ATOM     34  C   UNL     1      37.343 136.621  10.847  1.00  0.00     0.009 A 
ATOM     35  C   UNL     1      39.702 139.000  13.636  1.00  0.00     0.001 A 
ATOM     36  C   UNL     1      36.617 135.804   9.978  1.00  0.00     0.001 A 
ENDBRANCH  18  23
ENDBRANCH  15  16
ENDBRANCH  12  15
ENDBRANCH   1  12
TORSDOF 7
ENDMDL
MODEL 3
REMARK VINA RESULT:      -7.5      1.203      3.253
REMARK SMILES Cc1[nH+]nn(C/C(C#N)=[NH+]/c2cccc(C#N)c2C)c1-c1cc2ccccc2c2ccccc12
REMARK SMILES IDX 10 1 11 3 13 4 14 5 12 6 15 7 18 8 19 9 16 10 17 11 7 12
REMARK SMILES IDX 8 13 9 14 6 15 5 16 4 17 20 18 3 19 2 20 1 22 21 23 22 24
REMARK SMILES IDX 34 25 23 26 33 27 29 28 24 29 28 30 32 31 30 32 25 33 27 34
REMARK SMILES IDX 31 35 26 36
REMARK H PARENT 10 2 3 21
ROOT
ATOM      1  N   UNL     1      43.360 131.672  14.938  1.00  0.00    -0.196 N 
ATOM      2  H   UNL     1      42.946 131.283  14.060  1.00  0.00     0.455 HD
ENDROOT
BRANCH   1   3
ATOM      3  C   UNL     1      44.615 131.104  15.365  1.00  0.00     0.208 A 
ATOM      4  C   UNL     1      46.062 130.354  17.171  1.00  0.00     0.008 A 
ATOM      5  C   UNL     1      46.985 129.875  16.244  1.00  0.00     0.020 A 
ATOM      6  C   UNL     1      44.880 130.953  16.737  1.00  0.00     0.079 A 
ATOM      7  C   UNL     1      46.735 129.993  14.874  1.00  0.00     0.062 A 
ATOM      8  C   UNL     1      45.549 130.617  14.417  1.00  0.00     0.038 A 
ATOM      9  C   UNL     1      45.286 130.747  12.936  1.00  0.00     0.053 C 
BRANCH   7  10
ATOM     10  C   UNL     1      47.701 129.448  13.953  1.00  0.00     0.100 C 
ATOM     11  N   UNL     1      48.474 129.014  13.210  1.00  0.00    -0.192 NA
ENDBRANCH   7  10
ENDBRANCH   1   3
BRANCH   1  12
ATOM     12  C   UNL     1      42.741 132.645  15.558  1.00  0.00     0.302 C 
BRANCH  12  13
ATOM     13  C   UNL     1      42.681 133.983  15.007  1.00  0.00     0.169 C 
ATOM     14  N   UNL     1      42.629 135.052  14.566  1.00  0.00    -0.186 NA
ENDBRANCH  12  13
BRANCH  12  15
ATOM     15  C   UNL     1      42.107 132.404  16.903  1.00  0.00     0.390 C 
BRANCH  15  16
ATOM     16  N   UNL     1      41.112 133.435  17.201  1.00  0.00    -0.118 N 
ATOM     17  N   UNL     1      39.872 133.421  16.734  1.00  0.00     0.089 NA
ATOM     18  C   UNL     1      41.235 134.487  18.037  1.00  0.00     0.201 A 
ATOM     19  N   UNL     1      39.196 134.447  17.228  1.00  0.00    -0.147 N 
ATOM     20  C   UNL     1      40.019 135.142  18.036  1.00  0.00     0.169 A 
ATOM     21  H   UNL     1      38.194 134.655  17.020  1.00  0.00     0.342 HD
ATOM     22  C   UNL     1      39.625 136.347  18.827  1.00  0.00     0.100 C 
BRANCH  18  23
ATOM     23  C   UNL     1      42.452 134.859  18.791  1.00  0.00     0.036 A 
ATOM     24  C   UNL     1      43.227 135.905  18.294  1.00  0.00     0.022 A 
ATOM     25  C   UNL     1      42.821 134.219  19.997  1.00  0.00    -0.006 A 
ATOM     26  C   UNL     1      44.358 136.352  18.978  1.00  0.00    -0.017 A 
ATOM     27  C   UNL     1      42.091 133.107  20.474  1.00  0.00     0.009 A 
ATOM     28  C   UNL     1      43.958 134.677  20.731  1.00  0.00    -0.010 A 
ATOM     29  C   UNL     1      45.113 137.405  18.434  1.00  0.00     0.009 A 
ATOM     30  C   UNL     1      44.739 135.755  20.210  1.00  0.00    -0.010 A 
ATOM     31  C   UNL     1      42.443 132.480  21.666  1.00  0.00     0.001 A 
ATOM     32  C   UNL     1      44.279 134.022  21.945  1.00  0.00     0.009 A 
ATOM     33  C   UNL     1      46.245 137.875  19.093  1.00  0.00     0.001 A 
ATOM     34  C   UNL     1      45.898 136.255  20.856  1.00  0.00     0.009 A 
ATOM     35  C   UNL     1      43.526 132.940  22.401  1.00  0.00     0.001 A 
ATOM     36  C   UNL     1      46.636 137.301  20.299  1.00  0.00     0.001 A 
ENDBRANCH  18  23
ENDBRANCH  15  16
ENDBRANCH  12  15
ENDBRANCH   1  12
TORSDOF 7
ENDMDL
MODEL 4
REMARK VINA RESULT:      -7.3      2.308      5.880
REMARK SMILES Cc1[nH+]nn(C/C(C#N)=[NH+]/c2cccc(C#N)c2C)c1-c1cc2ccccc2c2ccccc12
REMARK SMILES IDX 10 1 11 3 13 4 14 5 12 6 15 7 18 8 19 9 16 10 17 11 7 12
REMARK SMILES IDX 8 13 9 14 6 15 5 16 4 17 20 18 3 19 2 20 1 22 21 23 22 24
REMARK SMILES IDX 34 25 23 26 33 27 29 28 24 29 28 30 32 31 30 32 25 33 27 34
REMARK SMILES IDX 31 35 26 36
REMARK H PARENT 10 2 3 21
ROOT
ATOM      1  N   UNL     1      42.699 133.421  14.660  1.00  0.00    -0.196 N 
ATOM      2  H   UNL     1      42.381 132.960  13.776  1.00  0.00     0.455 HD
ENDROOT
BRANCH   1   3
ATOM      3  C   UNL     1      42.287 134.789  14.858  1.00  0.00     0.208 A 
ATOM      4  C   UNL     1      42.869 137.146  15.000  1.00  0.00     0.008 A 
ATOM      5  C   UNL     1      41.522 137.482  15.101  1.00  0.00     0.020 A 
ATOM      6  C   UNL     1      43.251 135.811  14.867  1.00  0.00     0.079 A 
ATOM      7  C   UNL     1      40.542 136.485  15.071  1.00  0.00     0.062 A 
ATOM      8  C   UNL     1      40.914 135.123  14.958  1.00  0.00     0.038 A 
ATOM      9  C   UNL     1      39.853 134.050  14.932  1.00  0.00     0.053 C 
BRANCH   7  10
ATOM     10  C   UNL     1      39.158 136.884  15.140  1.00  0.00     0.100 C 
ATOM     11  N   UNL     1      38.048 137.201  15.200  1.00  0.00    -0.192 NA
ENDBRANCH   7  10
ENDBRANCH   1   3
BRANCH   1  12
ATOM     12  C   UNL     1      43.407 132.731  15.518  1.00  0.00     0.302 C 
BRANCH  12  13
ATOM     13  C   UNL     1      44.845 132.612  15.399  1.00  0.00     0.169 C 
ATOM     14  N   UNL     1      45.995 132.519  15.305  1.00  0.00    -0.186 NA
ENDBRANCH  12  13
BRANCH  12  15
ATOM     15  C   UNL     1      42.727 131.994  16.643  1.00  0.00     0.390 C 
BRANCH  15  16
ATOM     16  N   UNL     1      43.472 132.149  17.892  1.00  0.00    -0.118 N 
ATOM     17  N   UNL     1      44.428 131.323  18.289  1.00  0.00     0.089 NA
ATOM     18  C   UNL     1      43.394 133.162  18.782  1.00  0.00     0.201 A 
ATOM     19  N   UNL     1      44.958 131.760  19.421  1.00  0.00    -0.147 N 
ATOM     20  C   UNL     1      44.328 132.899  19.766  1.00  0.00     0.169 A 
ATOM     21  H   UNL     1      45.735 131.291  19.936  1.00  0.00     0.342 HD
ATOM     22  C   UNL     1      44.662 133.735  20.959  1.00  0.00     0.100 C 
BRANCH  18  23
ATOM     23  C   UNL     1      42.471 134.314  18.706  1.00  0.00     0.036 A 
ATOM     24  C   UNL     1      41.104 134.055  18.787  1.00  0.00     0.022 A 
ATOM     25  C   UNL     1      42.931 135.647  18.594  1.00  0.00    -0.006 A 
ATOM     26  C   UNL     1      40.172 135.093  18.781  1.00  0.00    -0.017 A 
ATOM     27  C   UNL     1      44.307 135.922  18.433  1.00  0.00     0.009 A 
ATOM     28  C   UNL     1      41.998 136.729  18.615  1.00  0.00    -0.010 A 
ATOM     29  C   UNL     1      38.803 134.783  18.857  1.00  0.00     0.009 A 
ATOM     30  C   UNL     1      40.600 136.446  18.704  1.00  0.00    -0.010 A 
ATOM     31  C   UNL     1      44.767 137.232  18.333  1.00  0.00     0.001 A 
ATOM     32  C   UNL     1      42.503 138.050  18.522  1.00  0.00     0.009 A 
ATOM     33  C   UNL     1      37.850 135.796  18.855  1.00  0.00     0.001 A 
ATOM     34  C   UNL     1      39.603 137.455  18.702  1.00  0.00     0.009 A 
ATOM     35  C   UNL     1      43.870 138.290  18.386  1.00  0.00     0.001 A 
ATOM     36  C   UNL     1      38.248 137.126  18.777  1.00  0.00     0.001 A 
ENDBRANCH  18  23
ENDBRANCH  15  16
ENDBRANCH  12  15
ENDBRANCH   1  12
TORSDOF 7
ENDMDL
MODEL 5
REMARK VINA RESULT:      -7.3      2.752      5.952
REMARK SMILES Cc1[nH+]nn(C/C(C#N)=[NH+]/c2cccc(C#N)c2C)c1-c1cc2ccccc2c2ccccc12
REMARK SMILES IDX 10 1 11 3 13 4 14 5 12 6 15 7 18 8 19 9 16 10 17 11 7 12
REMARK SMILES IDX 8 13 9 14 6 15 5 16 4 17 20 18 3 19 2 20 1 22 21 23 22 24
REMARK SMILES IDX 34 25 23 26 33 27 29 28 24 29 28 30 32 31 30 32 25 33 27 34
REMARK SMILES IDX 31 35 26 36
REMARK H PARENT 10 2 3 21
ROOT
ATOM      1  N   UNL     1      39.515 135.419  19.229  1.00  0.00    -0.196 N 
ATOM      2  H   UNL     1      38.637 134.978  19.587  1.00  0.00     0.455 HD
ENDROOT
BRANCH   1   3
ATOM      3  C   UNL     1      39.619 135.580  17.800  1.00  0.00     0.208 A 
ATOM      4  C   UNL     1      39.465 137.016  15.843  1.00  0.00     0.008 A 
ATOM      5  C   UNL     1      39.941 135.985  15.038  1.00  0.00     0.020 A 
ATOM      6  C   UNL     1      39.316 136.822  17.215  1.00  0.00     0.079 A 
ATOM      7  C   UNL     1      40.271 134.748  15.598  1.00  0.00     0.062 A 
ATOM      8  C   UNL     1      40.105 134.527  16.987  1.00  0.00     0.038 A 
ATOM      9  C   UNL     1      40.458 133.187  17.586  1.00  0.00     0.053 C 
BRANCH   7  10
ATOM     10  C   UNL     1      40.796 133.721  14.730  1.00  0.00     0.100 C 
ATOM     11  N   UNL     1      41.213 132.900  14.032  1.00  0.00    -0.192 NA
ENDBRANCH   7  10
ENDBRANCH   1   3
BRANCH   1  12
ATOM     12  C   UNL     1      40.425 135.812  20.085  1.00  0.00     0.302 C 
BRANCH  12  13
ATOM     13  C   UNL     1      40.666 137.215  20.350  1.00  0.00     0.169 C 
ATOM     14  N   UNL     1      40.861 138.336  20.559  1.00  0.00    -0.186 NA
ENDBRANCH  12  13
BRANCH  12  15
ATOM     15  C   UNL     1      41.288 134.799  20.792  1.00  0.00     0.390 C 
BRANCH  15  16
ATOM     16  N   UNL     1      42.570 135.389  21.178  1.00  0.00    -0.118 N 
ATOM     17  N   UNL     1      42.791 135.976  22.345  1.00  0.00     0.089 NA
ATOM     18  C   UNL     1      43.733 135.363  20.493  1.00  0.00     0.201 A 
ATOM     19  N   UNL     1      44.059 136.351  22.425  1.00  0.00    -0.147 N 
ATOM     20  C   UNL     1      44.674 135.995  21.282  1.00  0.00     0.169 A 
ATOM     21  H   UNL     1      44.487 136.829  23.248  1.00  0.00     0.342 HD
ATOM     22  C   UNL     1      46.127 136.197  20.993  1.00  0.00     0.100 C 
BRANCH  18  23
ATOM     23  C   UNL     1      43.936 134.776  19.151  1.00  0.00     0.036 A 
ATOM     24  C   UNL     1      44.317 133.437  19.081  1.00  0.00     0.022 A 
ATOM     25  C   UNL     1      43.723 135.512  17.963  1.00  0.00    -0.006 A 
ATOM     26  C   UNL     1      44.473 132.795  17.852  1.00  0.00    -0.017 A 
ATOM     27  C   UNL     1      43.413 136.889  18.015  1.00  0.00     0.009 A 
ATOM     28  C   UNL     1      43.848 134.870  16.692  1.00  0.00    -0.010 A 
ATOM     29  C   UNL     1      44.865 131.446  17.830  1.00  0.00     0.009 A 
ATOM     30  C   UNL     1      44.233 133.495  16.638  1.00  0.00    -0.010 A 
ATOM     31  C   UNL     1      43.191 137.616  16.849  1.00  0.00     0.001 A 
ATOM     32  C   UNL     1      43.604 135.639  15.527  1.00  0.00     0.009 A 
ATOM     33  C   UNL     1      45.027 130.778  16.620  1.00  0.00     0.001 A 
ATOM     34  C   UNL     1      44.409 132.787  15.421  1.00  0.00     0.009 A 
ATOM     35  C   UNL     1      43.278 136.992  15.612  1.00  0.00     0.001 A 
ATOM     36  C   UNL     1      44.801 131.446  15.421  1.00  0.00     0.001 A 
ENDBRANCH  18  23
ENDBRANCH  15  16
ENDBRANCH  12  15
ENDBRANCH   1  12
TORSDOF 7
ENDMDL
MODEL 6
REMARK VINA RESULT:      -7.1      1.396      1.897
REMARK SMILES Cc1[nH+]nn(C/C(C#N)=[NH+]/c2cccc(C#N)c2C)c1-c1cc2ccccc2c2ccccc12
REMARK SMILES IDX 10 1 11 3 13 4 14 5 12 6 15 7 18 8 19 9 16 10 17 11 7 12
REMARK SMILES IDX 8 13 9 14 6 15 5 16 4 17 20 18 3 19 2 20 1 22 21 23 22 24
REMARK SMILES IDX 34 25 23 26 33 27 29 28 24 29 28 30 32 31 30 32 25 33 27 34
REMARK SMILES IDX 31 35 26 36
REMARK H PARENT 10 2 3 21
ROOT
ATOM      1  N   UNL     1      45.320 133.009  16.021  1.00  0.00    -0.196 N 
ATOM      2  H   UNL     1      45.923 133.301  16.824  1.00  0.00     0.455 HD
ENDROOT
BRANCH   1   3
ATOM      3  C   UNL     1      45.683 131.782  15.356  1.00  0.00     0.208 A 
ATOM      4  C   UNL     1      47.026 130.627  13.689  1.00  0.00     0.008 A 
ATOM      5  C   UNL     1      46.526 129.401  14.123  1.00  0.00     0.020 A 
ATOM      6  C   UNL     1      46.619 131.808  14.308  1.00  0.00     0.079 A 
ATOM      7  C   UNL     1      45.612 129.346  15.178  1.00  0.00     0.062 A 
ATOM      8  C   UNL     1      45.171 130.538  15.803  1.00  0.00     0.038 A 
ATOM      9  C   UNL     1      44.179 130.474  16.939  1.00  0.00     0.053 C 
BRANCH   7  10
ATOM     10  C   UNL     1      45.150 128.052  15.618  1.00  0.00     0.100 C 
ATOM     11  N   UNL     1      44.776 127.016  15.968  1.00  0.00    -0.192 NA
ENDBRANCH   7  10
ENDBRANCH   1   3
BRANCH   1  12
ATOM     12  C   UNL     1      44.286 133.744  15.701  1.00  0.00     0.302 C 
BRANCH  12  13
ATOM     13  C   UNL     1      43.095 133.169  15.110  1.00  0.00     0.169 C 
ATOM     14  N   UNL     1      42.145 132.708  14.638  1.00  0.00    -0.186 NA
ENDBRANCH  12  13
BRANCH  12  15
ATOM     15  C   UNL     1      44.326 135.238  15.901  1.00  0.00     0.390 C 
BRANCH  15  16
ATOM     16  N   UNL     1      43.077 135.717  16.491  1.00  0.00    -0.118 N 
ATOM     17  N   UNL     1      42.113 136.308  15.801  1.00  0.00     0.089 NA
ATOM     18  C   UNL     1      42.654 135.572  17.765  1.00  0.00     0.201 A 
ATOM     19  N   UNL     1      41.086 136.568  16.596  1.00  0.00    -0.147 N 
ATOM     20  C   UNL     1      41.394 136.134  17.833  1.00  0.00     0.169 A 
ATOM     21  H   UNL     1      40.198 137.024  16.292  1.00  0.00     0.342 HD
ATOM     22  C   UNL     1      40.480 136.197  19.015  1.00  0.00     0.100 C 
BRANCH  18  23
ATOM     23  C   UNL     1      43.414 134.940  18.865  1.00  0.00     0.036 A 
ATOM     24  C   UNL     1      43.108 133.619  19.188  1.00  0.00     0.022 A 
ATOM     25  C   UNL     1      44.447 135.614  19.556  1.00  0.00    -0.006 A 
ATOM     26  C   UNL     1      43.818 132.935  20.175  1.00  0.00    -0.017 A 
ATOM     27  C   UNL     1      44.719 136.975  19.295  1.00  0.00     0.009 A 
ATOM     28  C   UNL     1      45.209 134.926  20.550  1.00  0.00    -0.010 A 
ATOM     29  C   UNL     1      43.469 131.607  20.472  1.00  0.00     0.009 A 
ATOM     30  C   UNL     1      44.886 133.570  20.866  1.00  0.00    -0.010 A 
ATOM     31  C   UNL     1      45.742 137.641  19.964  1.00  0.00     0.001 A 
ATOM     32  C   UNL     1      46.249 135.633  21.203  1.00  0.00     0.009 A 
ATOM     33  C   UNL     1      44.160 130.897  21.449  1.00  0.00     0.001 A 
ATOM     34  C   UNL     1      45.569 132.821  21.858  1.00  0.00     0.009 A 
ATOM     35  C   UNL     1      46.508 136.971  20.907  1.00  0.00     0.001 A 
ATOM     36  C   UNL     1      45.205 131.503  22.140  1.00  0.00     0.001 A 
ENDBRANCH  18  23
ENDBRANCH  15  16
ENDBRANCH  12  15
ENDBRANCH   1  12
TORSDOF 7
ENDMDL
MODEL 7
REMARK VINA RESULT:      -7.1      2.301      5.303
REMARK SMILES Cc1[nH+]nn(C/C(C#N)=[NH+]/c2cccc(C#N)c2C)c1-c1cc2ccccc2c2ccccc12
REMARK SMILES IDX 10 1 11 3 13 4 14 5 12 6 15 7 18 8 19 9 16 10 17 11 7 12
REMARK SMILES IDX 8 13 9 14 6 15 5 16 4 17 20 18 3 19 2 20 1 22 21 23 22 24
REMARK SMILES IDX 34 25 23 26 33 27 29 28 24 29 28 30 32 31 30 32 25 33 27 34
REMARK SMILES IDX 31 35 26 36
REMARK H PARENT 10 2 3 21
ROOT
ATOM      1  N   UNL     1      45.362 132.910  15.543  1.00  0.00    -0.196 N 
ATOM      2  H   UNL     1      46.205 133.278  15.044  1.00  0.00     0.455 HD
ENDROOT
BRANCH   1   3
ATOM      3  C   UNL     1      44.210 133.777  15.588  1.00  0.00     0.208 A 
ATOM      4  C   UNL     1      43.246 135.944  16.127  1.00  0.00     0.008 A 
ATOM      5  C   UNL     1      42.031 135.551  15.571  1.00  0.00     0.020 A 
ATOM      6  C   UNL     1      44.332 135.069  16.125  1.00  0.00     0.079 A 
ATOM      7  C   UNL     1      41.891 134.279  15.010  1.00  0.00     0.062 A 
ATOM      8  C   UNL     1      42.978 133.371  15.019  1.00  0.00     0.038 A 
ATOM      9  C   UNL     1      42.819 131.996  14.417  1.00  0.00     0.053 C 
BRANCH   7  10
ATOM     10  C   UNL     1      40.625 133.931  14.412  1.00  0.00     0.100 C 
ATOM     11  N   UNL     1      39.612 133.652  13.929  1.00  0.00    -0.192 NA
ENDBRANCH   7  10
ENDBRANCH   1   3
BRANCH   1  12
ATOM     12  C   UNL     1      45.400 131.705  16.054  1.00  0.00     0.302 C 
BRANCH  12  13
ATOM     13  C   UNL     1      46.466 130.776  15.739  1.00  0.00     0.169 C 
ATOM     14  N   UNL     1      47.315 130.033  15.486  1.00  0.00    -0.186 NA
ENDBRANCH  12  13
BRANCH  12  15
ATOM     15  C   UNL     1      44.293 131.231  16.960  1.00  0.00     0.390 C 
BRANCH  15  16
ATOM     16  N   UNL     1      44.688 131.343  18.365  1.00  0.00    -0.118 N 
ATOM     17  N   UNL     1      45.682 130.657  18.908  1.00  0.00     0.089 NA
ATOM     18  C   UNL     1      44.200 132.188  19.297  1.00  0.00     0.201 A 
ATOM     19  N   UNL     1      45.838 131.020  20.173  1.00  0.00    -0.147 N 
ATOM     20  C   UNL     1      44.921 131.965  20.454  1.00  0.00     0.169 A 
ATOM     21  H   UNL     1      46.560 130.632  20.819  1.00  0.00     0.342 HD
ATOM     22  C   UNL     1      44.793 132.671  21.765  1.00  0.00     0.100 C 
BRANCH  18  23
ATOM     23  C   UNL     1      43.096 133.152  19.101  1.00  0.00     0.036 A 
ATOM     24  C   UNL     1      41.882 132.658  18.625  1.00  0.00     0.022 A 
ATOM     25  C   UNL     1      43.225 134.525  19.412  1.00  0.00    -0.006 A 
ATOM     26  C   UNL     1      40.776 133.494  18.468  1.00  0.00    -0.017 A 
ATOM     27  C   UNL     1      44.468 135.056  19.822  1.00  0.00     0.009 A 
ATOM     28  C   UNL     1      42.098 135.396  19.288  1.00  0.00    -0.010 A 
ATOM     29  C   UNL     1      39.575 132.953  17.977  1.00  0.00     0.009 A 
ATOM     30  C   UNL     1      40.859 134.872  18.804  1.00  0.00    -0.010 A 
ATOM     31  C   UNL     1      44.598 136.405  20.141  1.00  0.00     0.001 A 
ATOM     32  C   UNL     1      42.266 136.760  19.632  1.00  0.00     0.009 A 
ATOM     33  C   UNL     1      38.454 133.759  17.811  1.00  0.00     0.001 A 
ATOM     34  C   UNL     1      39.700 135.668  18.621  1.00  0.00     0.009 A 
ATOM     35  C   UNL     1      43.501 137.250  20.054  1.00  0.00     0.001 A 
ATOM     36  C   UNL     1      38.516 135.112  18.131  1.00  0.00     0.001 A 
ENDBRANCH  18  23
ENDBRANCH  15  16
ENDBRANCH  12  15
ENDBRANCH   1  12
TORSDOF 7
ENDMDL
MODEL 8
REMARK VINA RESULT:      -7.1      2.915      5.369
REMARK SMILES Cc1[nH+]nn(C/C(C#N)=[NH+]/c2cccc(C#N)c2C)c1-c1cc2ccccc2c2ccccc12
REMARK SMILES IDX 10 1 11 3 13 4 14 5 12 6 15 7 18 8 19 9 16 10 17 11 7 12
REMARK SMILES IDX 8 13 9 14 6 15 5 16 4 17 20 18 3 19 2 20 1 22 21 23 22 24
REMARK SMILES IDX 34 25 23 26 33 27 29 28 24 29 28 30 32 31 30 32 25 33 27 34
REMARK SMILES IDX 31 35 26 36
REMARK H PARENT 10 2 3 21
ROOT
ATOM      1  N   UNL     1      44.435 133.525  18.644  1.00  0.00    -0.196 N 
ATOM      2  H   UNL     1      45.369 133.984  18.744  1.00  0.00     0.455 HD
ENDROOT
BRANCH   1   3
ATOM      3  C   UNL     1      44.157 132.901  17.373  1.00  0.00     0.208 A 
ATOM      4  C   UNL     1      43.232 133.054  15.129  1.00  0.00     0.008 A 
ATOM      5  C   UNL     1      43.712 131.780  14.835  1.00  0.00     0.020 A 
ATOM      6  C   UNL     1      43.462 133.617  16.384  1.00  0.00     0.079 A 
ATOM      7  C   UNL     1      44.426 131.057  15.794  1.00  0.00     0.062 A 
ATOM      8  C   UNL     1      44.650 131.606  17.080  1.00  0.00     0.038 A 
ATOM      9  C   UNL     1      45.417 130.818  18.115  1.00  0.00     0.053 C 
BRANCH   7  10
ATOM     10  C   UNL     1      44.937 129.757  15.431  1.00  0.00     0.100 C 
ATOM     11  N   UNL     1      45.350 128.718  15.138  1.00  0.00    -0.192 NA
ENDBRANCH   7  10
ENDBRANCH   1   3
BRANCH   1  12
ATOM     12  C   UNL     1      43.614 133.522  19.663  1.00  0.00     0.302 C 
BRANCH  12  13
ATOM     13  C   UNL     1      44.010 134.025  20.962  1.00  0.00     0.169 C 
ATOM     14  N   UNL     1      44.323 134.427  22.001  1.00  0.00    -0.186 NA
ENDBRANCH  12  13
BRANCH  12  15
ATOM     15  C   UNL     1      42.230 132.944  19.520  1.00  0.00     0.390 C 
BRANCH  15  16
ATOM     16  N   UNL     1      41.232 133.826  20.126  1.00  0.00    -0.118 N 
ATOM     17  N   UNL     1      40.990 133.883  21.427  1.00  0.00     0.089 NA
ATOM     18  C   UNL     1      40.478 134.765  19.516  1.00  0.00     0.201 A 
ATOM     19  N   UNL     1      40.085 134.817  21.674  1.00  0.00    -0.147 N 
ATOM     20  C   UNL     1      39.733 135.380  20.503  1.00  0.00     0.169 A 
ATOM     21  H   UNL     1      39.727 135.064  22.623  1.00  0.00     0.342 HD
ATOM     22  C   UNL     1      38.768 136.512  20.352  1.00  0.00     0.100 C 
BRANCH  18  23
ATOM     23  C   UNL     1      40.459 135.055  18.066  1.00  0.00     0.036 A 
ATOM     24  C   UNL     1      39.556 134.346  17.276  1.00  0.00     0.022 A 
ATOM     25  C   UNL     1      41.289 136.039  17.479  1.00  0.00    -0.006 A 
ATOM     26  C   UNL     1      39.437 134.602  15.909  1.00  0.00    -0.017 A 
ATOM     27  C   UNL     1      42.262 136.711  18.250  1.00  0.00     0.009 A 
ATOM     28  C   UNL     1      41.166 136.340  16.088  1.00  0.00    -0.010 A 
ATOM     29  C   UNL     1      38.519 133.857  15.151  1.00  0.00     0.009 A 
ATOM     30  C   UNL     1      40.231 135.607  15.293  1.00  0.00    -0.010 A 
ATOM     31  C   UNL     1      43.074 137.688  17.680  1.00  0.00     0.001 A 
ATOM     32  C   UNL     1      42.001 137.348  15.545  1.00  0.00     0.009 A 
ATOM     33  C   UNL     1      38.376 134.090  13.787  1.00  0.00     0.001 A 
ATOM     34  C   UNL     1      40.063 135.820  13.900  1.00  0.00     0.009 A 
ATOM     35  C   UNL     1      42.938 138.010  16.337  1.00  0.00     0.001 A 
ATOM     36  C   UNL     1      39.146 135.067  13.164  1.00  0.00     0.001 A 
ENDBRANCH  18  23
ENDBRANCH  15  16
ENDBRANCH  12  15
ENDBRANCH   1  12
TORSDOF 7
ENDMDL
MODEL 9
REMARK VINA RESULT:      -7.0      0.893      2.997
REMARK SMILES Cc1[nH+]nn(C/C(C#N)=[NH+]/c2cccc(C#N)c2C)c1-c1cc2ccccc2c2ccccc12
REMARK SMILES IDX 10 1 11 3 13 4 14 5 12 6 15 7 18 8 19 9 16 10 17 11 7 12
REMARK SMILES IDX 8 13 9 14 6 15 5 16 4 17 20 18 3 19 2 20 1 22 21 23 22 24
REMARK SMILES IDX 34 25 23 26 33 27 29 28 24 29 28 30 32 31 30 32 25 33 27 34
REMARK SMILES IDX 31 35 26 36
REMARK H PARENT 10 2 3 21
ROOT
ATOM      1  N   UNL     1      43.608 132.210  14.773  1.00  0.00    -0.196 N 
ATOM      2  H   UNL     1      43.233 131.893  13.850  1.00  0.00     0.455 HD
ENDROOT
BRANCH   1   3
ATOM      3  C   UNL     1      44.737 131.479  15.296  1.00  0.00     0.208 A 
ATOM      4  C   UNL     1      45.922 130.554  17.207  1.00  0.00     0.008 A 
ATOM      5  C   UNL     1      46.840 129.946  16.354  1.00  0.00     0.020 A 
ATOM      6  C   UNL     1      44.871 131.305  16.684  1.00  0.00     0.079 A 
ATOM      7  C   UNL     1      46.716 130.085  14.969  1.00  0.00     0.062 A 
ATOM      8  C   UNL     1      45.666 130.862  14.422  1.00  0.00     0.038 A 
ATOM      9  C   UNL     1      45.539 131.015  12.926  1.00  0.00     0.053 C 
BRANCH   7  10
ATOM     10  C   UNL     1      47.668 129.407  14.125  1.00  0.00     0.100 C 
ATOM     11  N   UNL     1      48.434 128.862  13.451  1.00  0.00    -0.192 NA
ENDBRANCH   7  10
ENDBRANCH   1   3
BRANCH   1  12
ATOM     12  C   UNL     1      43.059 133.242  15.364  1.00  0.00     0.302 C 
BRANCH  12  13
ATOM     13  C   UNL     1      41.686 133.217  15.822  1.00  0.00     0.169 C 
ATOM     14  N   UNL     1      40.588 133.194  16.187  1.00  0.00    -0.186 NA
ENDBRANCH  12  13
BRANCH  12  15
ATOM     15  C   UNL     1      43.842 134.517  15.542  1.00  0.00     0.390 C 
BRANCH  15  16
ATOM     16  N   UNL     1      42.946 135.644  15.804  1.00  0.00    -0.118 N 
ATOM     17  N   UNL     1      41.973 136.019  14.987  1.00  0.00     0.089 NA
ATOM     18  C   UNL     1      42.886 136.414  16.911  1.00  0.00     0.201 A 
ATOM     19  N   UNL     1      41.298 137.023  15.525  1.00  0.00    -0.147 N 
ATOM     20  C   UNL     1      41.848 137.305  16.721  1.00  0.00     0.169 A 
ATOM     21  H   UNL     1      40.477 137.494  15.083  1.00  0.00     0.342 HD
ATOM     22  C   UNL     1      41.348 138.347  17.670  1.00  0.00     0.100 C 
BRANCH  18  23
ATOM     23  C   UNL     1      43.779 136.314  18.086  1.00  0.00     0.036 A 
ATOM     24  C   UNL     1      44.859 137.193  18.154  1.00  0.00     0.022 A 
ATOM     25  C   UNL     1      43.548 135.397  19.137  1.00  0.00    -0.006 A 
ATOM     26  C   UNL     1      45.714 137.200  19.257  1.00  0.00    -0.017 A 
ATOM     27  C   UNL     1      42.504 134.449  19.048  1.00  0.00     0.009 A 
ATOM     28  C   UNL     1      44.391 135.405  20.291  1.00  0.00    -0.010 A 
ATOM     29  C   UNL     1      46.795 138.097  19.279  1.00  0.00     0.009 A 
ATOM     30  C   UNL     1      45.491 136.315  20.348  1.00  0.00    -0.010 A 
ATOM     31  C   UNL     1      42.265 133.551  20.085  1.00  0.00     0.001 A 
ATOM     32  C   UNL     1      44.110 134.484  21.330  1.00  0.00     0.009 A 
ATOM     33  C   UNL     1      47.663 138.130  20.365  1.00  0.00     0.001 A 
ATOM     34  C   UNL     1      46.395 136.372  21.439  1.00  0.00     0.009 A 
ATOM     35  C   UNL     1      43.059 133.574  21.223  1.00  0.00     0.001 A 
ATOM     36  C   UNL     1      47.464 137.270  21.440  1.00  0.00     0.001 A 
ENDBRANCH  18  23
ENDBRANCH  15  16
ENDBRANCH  12  15
ENDBRANCH   1  12
TORSDOF 7
ENDMDL


