MODEL 1
REMARK VINA RESULT:      -6.7      0.000      0.000
REMARK SMILES C#C/C(=N\[C@H](c1c(C)n[nH+]n1-c1c2ccccc2c(C=O)c2ccccc12)C(C)C)OC(=O)C=C
REMARK SMILES IDX 4 1 3 2 2 3 1 4 31 5 32 6 33 7 34 8 35 9 5 10 6 11 7 12
REMARK SMILES IDX 11 13 9 14 10 15 8 16 12 18 13 19 27 20 14 21 18 22 26 23
REMARK SMILES IDX 22 24 15 25 17 26 19 27 25 28 23 29 16 30 24 31 20 32 21 33
REMARK SMILES IDX 28 34 29 35 30 36
REMARK H PARENT 10 17
ROOT
ATOM      1  N   UNL     1      44.128 131.800  17.297  1.00  0.00    -0.233 NA
ENDROOT
BRANCH   1   2
ATOM      2  C   UNL     1      45.107 131.040  17.701  1.00  0.00     0.272 C 
BRANCH   2   3
ATOM      3  C   UNL     1      45.592 131.088  19.056  1.00  0.00    -0.011 C 
ATOM      4  C   UNL     1      45.986 131.151  20.193  1.00  0.00     0.015 C 
ENDBRANCH   2   3
BRANCH   2   5
ATOM      5  O   UNL     1      45.728 130.141  16.822  1.00  0.00    -0.396 OA
BRANCH   5   6
ATOM      6  C   UNL     1      45.749 130.249  15.423  1.00  0.00     0.337 C 
ATOM      7  O   UNL     1      44.936 129.604  14.706  1.00  0.00    -0.246 OA
BRANCH   6   8
ATOM      8  C   UNL     1      46.747 131.135  14.804  1.00  0.00     0.086 C 
ATOM      9  C   UNL     1      46.908 131.224  13.485  1.00  0.00     0.016 C 
ENDBRANCH   6   8
ENDBRANCH   5   6
ENDBRANCH   2   5
ENDBRANCH   1   2
BRANCH   1  10
ATOM     10  C   UNL     1      43.961 133.234  17.555  1.00  0.00     0.168 C 
BRANCH  10  11
ATOM     11  C   UNL     1      42.938 133.492  18.652  1.00  0.00     0.137 A 
ATOM     12  C   UNL     1      41.789 132.772  18.977  1.00  0.00     0.135 A 
ATOM     13  N   UNL     1      42.937 134.569  19.471  1.00  0.00    -0.097 N 
ATOM     14  N   UNL     1      41.157 133.412  19.984  1.00  0.00     0.020 NA
ATOM     15  N   UNL     1      41.875 134.490  20.253  1.00  0.00    -0.012 N 
ATOM     16  C   UNL     1      41.282 131.502  18.373  1.00  0.00     0.076 C 
ATOM     17  H   UNL     1      41.617 135.197  20.978  1.00  0.00     0.527 HD
BRANCH  13  18
ATOM     18  C   UNL     1      43.850 135.681  19.466  1.00  0.00     0.123 A 
ATOM     19  C   UNL     1      45.033 135.625  20.230  1.00  0.00     0.013 A 
ATOM     20  C   UNL     1      43.548 136.837  18.715  1.00  0.00     0.013 A 
ATOM     21  C   UNL     1      45.292 134.517  21.063  1.00  0.00     0.011 A 
ATOM     22  C   UNL     1      45.960 136.701  20.191  1.00  0.00    -0.005 A 
ATOM     23  C   UNL     1      42.337 136.926  17.993  1.00  0.00     0.011 A 
ATOM     24  C   UNL     1      44.475 137.912  18.655  1.00  0.00    -0.005 A 
ATOM     25  C   UNL     1      46.443 134.467  21.847  1.00  0.00     0.001 A 
ATOM     26  C   UNL     1      47.113 136.630  21.011  1.00  0.00     0.009 A 
ATOM     27  C   UNL     1      45.697 137.834  19.374  1.00  0.00     0.030 A 
ATOM     28  C   UNL     1      42.050 138.045  17.217  1.00  0.00     0.001 A 
ATOM     29  C   UNL     1      44.163 139.030  17.845  1.00  0.00     0.009 A 
ATOM     30  C   UNL     1      47.350 135.521  21.821  1.00  0.00     0.001 A 
ATOM     31  C   UNL     1      42.961 139.092  17.140  1.00  0.00     0.001 A 
BRANCH  27  32
ATOM     32  C   UNL     1      46.682 138.938  19.273  1.00  0.00     0.261 C 
ATOM     33  O   UNL     1      47.618 138.891  18.433  1.00  0.00    -0.298 OA
ENDBRANCH  27  32
ENDBRANCH  13  18
ENDBRANCH  10  11
BRANCH  10  34
ATOM     34  C   UNL     1      43.586 133.962  16.238  1.00  0.00     0.014 C 
ATOM     35  C   UNL     1      44.614 135.052  15.902  1.00  0.00     0.010 C 
ATOM     36  C   UNL     1      43.427 133.002  15.048  1.00  0.00     0.010 C 
ENDBRANCH  10  34
ENDBRANCH   1  10
TORSDOF 10
ENDMDL
MODEL 2
REMARK VINA RESULT:      -6.5      0.772      3.187
REMARK SMILES C#C/C(=N\[C@H](c1c(C)n[nH+]n1-c1c2ccccc2c(C=O)c2ccccc12)C(C)C)OC(=O)C=C
REMARK SMILES IDX 4 1 3 2 2 3 1 4 31 5 32 6 33 7 34 8 35 9 5 10 6 11 7 12
REMARK SMILES IDX 11 13 9 14 10 15 8 16 12 18 13 19 27 20 14 21 18 22 26 23
REMARK SMILES IDX 22 24 15 25 17 26 19 27 25 28 23 29 16 30 24 31 20 32 21 33
REMARK SMILES IDX 28 34 29 35 30 36
REMARK H PARENT 10 17
ROOT
ATOM      1  N   UNL     1      44.364 131.918  17.459  1.00  0.00    -0.233 NA
ENDROOT
BRANCH   1   2
ATOM      2  C   UNL     1      45.234 131.184  18.094  1.00  0.00     0.272 C 
BRANCH   2   3
ATOM      3  C   UNL     1      45.191 131.029  19.526  1.00  0.00    -0.011 C 
ATOM      4  C   UNL     1      45.137 130.918  20.724  1.00  0.00     0.015 C 
ENDBRANCH   2   3
BRANCH   2   5
ATOM      5  O   UNL     1      46.252 130.514  17.400  1.00  0.00    -0.396 OA
BRANCH   5   6
ATOM      6  C   UNL     1      46.137 129.957  16.118  1.00  0.00     0.337 C 
ATOM      7  O   UNL     1      45.268 129.079  15.862  1.00  0.00    -0.246 OA
BRANCH   6   8
ATOM      8  C   UNL     1      47.059 130.420  15.068  1.00  0.00     0.086 C 
ATOM      9  C   UNL     1      46.760 131.419  14.240  1.00  0.00     0.016 C 
ENDBRANCH   6   8
ENDBRANCH   5   6
ENDBRANCH   2   5
ENDBRANCH   1   2
BRANCH   1  10
ATOM     10  C   UNL     1      44.122 133.353  17.639  1.00  0.00     0.168 C 
BRANCH  10  11
ATOM     11  C   UNL     1      43.113 133.618  18.747  1.00  0.00     0.137 A 
ATOM     12  C   UNL     1      41.904 132.976  19.015  1.00  0.00     0.135 A 
ATOM     13  N   UNL     1      43.193 134.631  19.639  1.00  0.00    -0.097 N 
ATOM     14  N   UNL     1      41.318 133.594  20.061  1.00  0.00     0.020 NA
ATOM     15  N   UNL     1      42.120 134.587  20.409  1.00  0.00    -0.012 N 
ATOM     16  C   UNL     1      41.300 131.799  18.320  1.00  0.00     0.076 C 
ATOM     17  H   UNL     1      41.915 135.261  21.181  1.00  0.00     0.527 HD
BRANCH  13  18
ATOM     18  C   UNL     1      44.196 135.660  19.718  1.00  0.00     0.123 A 
ATOM     19  C   UNL     1      44.025 136.867  19.010  1.00  0.00     0.013 A 
ATOM     20  C   UNL     1      45.362 135.450  20.484  1.00  0.00     0.013 A 
ATOM     21  C   UNL     1      42.913 137.043  18.160  1.00  0.00     0.011 A 
ATOM     22  C   UNL     1      44.990 137.904  19.122  1.00  0.00    -0.005 A 
ATOM     23  C   UNL     1      45.570 134.222  21.150  1.00  0.00     0.011 A 
ATOM     24  C   UNL     1      46.325 136.486  20.618  1.00  0.00    -0.005 A 
ATOM     25  C   UNL     1      42.752 138.220  17.430  1.00  0.00     0.001 A 
ATOM     26  C   UNL     1      44.808 139.081  18.356  1.00  0.00     0.009 A 
ATOM     27  C   UNL     1      46.126 137.727  19.956  1.00  0.00     0.030 A 
ATOM     28  C   UNL     1      46.697 134.022  21.942  1.00  0.00     0.001 A 
ATOM     29  C   UNL     1      47.453 136.260  21.442  1.00  0.00     0.009 A 
ATOM     30  C   UNL     1      43.696 139.235  17.529  1.00  0.00     0.001 A 
ATOM     31  C   UNL     1      47.634 135.038  22.091  1.00  0.00     0.001 A 
BRANCH  27  32
ATOM     32  C   UNL     1      47.111 138.822  20.133  1.00  0.00     0.261 C 
ATOM     33  O   UNL     1      47.030 139.607  21.114  1.00  0.00    -0.298 OA
ENDBRANCH  27  32
ENDBRANCH  13  18
ENDBRANCH  10  11
BRANCH  10  34
ATOM     34  C   UNL     1      43.675 133.981  16.293  1.00  0.00     0.014 C 
ATOM     35  C   UNL     1      44.678 135.044  15.824  1.00  0.00     0.010 C 
ATOM     36  C   UNL     1      43.459 132.935  15.187  1.00  0.00     0.010 C 
ENDBRANCH  10  34
ENDBRANCH   1  10
TORSDOF 10
ENDMDL
MODEL 3
REMARK VINA RESULT:      -6.4      1.237      3.303
REMARK SMILES C#C/C(=N\[C@H](c1c(C)n[nH+]n1-c1c2ccccc2c(C=O)c2ccccc12)C(C)C)OC(=O)C=C
REMARK SMILES IDX 4 1 3 2 2 3 1 4 31 5 32 6 33 7 34 8 35 9 5 10 6 11 7 12
REMARK SMILES IDX 11 13 9 14 10 15 8 16 12 18 13 19 27 20 14 21 18 22 26 23
REMARK SMILES IDX 22 24 15 25 17 26 19 27 25 28 23 29 16 30 24 31 20 32 21 33
REMARK SMILES IDX 28 34 29 35 30 36
REMARK H PARENT 10 17
ROOT
ATOM      1  N   UNL     1      43.212 132.666  16.714  1.00  0.00    -0.233 NA
ENDROOT
BRANCH   1   2
ATOM      2  C   UNL     1      44.344 132.030  16.609  1.00  0.00     0.272 C 
BRANCH   2   3
ATOM      3  C   UNL     1      44.958 131.387  17.743  1.00  0.00    -0.011 C 
ATOM      4  C   UNL     1      45.494 130.851  18.679  1.00  0.00     0.015 C 
ENDBRANCH   2   3
BRANCH   2   5
ATOM      5  O   UNL     1      45.011 131.947  15.378  1.00  0.00    -0.396 OA
BRANCH   5   6
ATOM      6  C   UNL     1      44.847 130.930  14.427  1.00  0.00     0.337 C 
ATOM      7  O   UNL     1      43.802 130.854  13.724  1.00  0.00    -0.246 OA
BRANCH   6   8
ATOM      8  C   UNL     1      45.927 129.943  14.265  1.00  0.00     0.086 C 
ATOM      9  C   UNL     1      47.091 130.041  14.905  1.00  0.00     0.016 C 
ENDBRANCH   6   8
ENDBRANCH   5   6
ENDBRANCH   2   5
ENDBRANCH   1   2
BRANCH   1  10
ATOM     10  C   UNL     1      43.024 134.091  17.007  1.00  0.00     0.168 C 
BRANCH  10  11
ATOM     11  C   UNL     1      42.132 134.302  18.222  1.00  0.00     0.137 A 
ATOM     12  C   UNL     1      40.816 133.891  18.434  1.00  0.00     0.135 A 
ATOM     13  N   UNL     1      42.464 135.038  19.307  1.00  0.00    -0.097 N 
ATOM     14  N   UNL     1      40.413 134.361  19.634  1.00  0.00     0.020 NA
ATOM     15  N   UNL     1      41.429 135.048  20.129  1.00  0.00    -0.012 N 
ATOM     16  C   UNL     1      39.941 133.067  17.546  1.00  0.00     0.076 C 
ATOM     17  H   UNL     1      41.403 135.551  21.044  1.00  0.00     0.527 HD
BRANCH  13  18
ATOM     18  C   UNL     1      43.677 135.779  19.532  1.00  0.00     0.123 A 
ATOM     19  C   UNL     1      43.823 137.073  18.992  1.00  0.00     0.013 A 
ATOM     20  C   UNL     1      44.728 135.200  20.273  1.00  0.00     0.013 A 
ATOM     21  C   UNL     1      42.819 137.617  18.165  1.00  0.00     0.011 A 
ATOM     22  C   UNL     1      44.999 137.826  19.252  1.00  0.00    -0.005 A 
ATOM     23  C   UNL     1      44.615 133.882  20.769  1.00  0.00     0.011 A 
ATOM     24  C   UNL     1      45.902 135.950  20.554  1.00  0.00    -0.005 A 
ATOM     25  C   UNL     1      42.969 138.882  17.600  1.00  0.00     0.001 A 
ATOM     26  C   UNL     1      45.130 139.102  18.651  1.00  0.00     0.009 A 
ATOM     27  C   UNL     1      46.028 137.277  20.064  1.00  0.00     0.030 A 
ATOM     28  C   UNL     1      45.630 133.318  21.536  1.00  0.00     0.001 A 
ATOM     29  C   UNL     1      46.911 135.356  21.350  1.00  0.00     0.009 A 
ATOM     30  C   UNL     1      44.121 139.622  17.843  1.00  0.00     0.001 A 
ATOM     31  C   UNL     1      46.773 134.053  21.829  1.00  0.00     0.001 A 
BRANCH  27  32
ATOM     32  C   UNL     1      47.234 138.073  20.397  1.00  0.00     0.261 C 
ATOM     33  O   UNL     1      48.259 138.024  19.667  1.00  0.00    -0.298 OA
ENDBRANCH  27  32
ENDBRANCH  13  18
ENDBRANCH  10  11
BRANCH  10  34
ATOM     34  C   UNL     1      42.468 134.814  15.753  1.00  0.00     0.014 C 
ATOM     35  C   UNL     1      43.499 135.803  15.189  1.00  0.00     0.010 C 
ATOM     36  C   UNL     1      42.013 133.841  14.653  1.00  0.00     0.010 C 
ENDBRANCH  10  34
ENDBRANCH   1  10
TORSDOF 10
ENDMDL
MODEL 4
REMARK VINA RESULT:      -6.3      1.760      2.932
REMARK SMILES C#C/C(=N\[C@H](c1c(C)n[nH+]n1-c1c2ccccc2c(C=O)c2ccccc12)C(C)C)OC(=O)C=C
REMARK SMILES IDX 4 1 3 2 2 3 1 4 31 5 32 6 33 7 34 8 35 9 5 10 6 11 7 12
REMARK SMILES IDX 11 13 9 14 10 15 8 16 12 18 13 19 27 20 14 21 18 22 26 23
REMARK SMILES IDX 22 24 15 25 17 26 19 27 25 28 23 29 16 30 24 31 20 32 21 33
REMARK SMILES IDX 28 34 29 35 30 36
REMARK H PARENT 10 17
ROOT
ATOM      1  N   UNL     1      43.385 132.165  16.662  1.00  0.00    -0.233 NA
ENDROOT
BRANCH   1   2
ATOM      2  C   UNL     1      44.269 131.208  16.698  1.00  0.00     0.272 C 
BRANCH   2   3
ATOM      3  C   UNL     1      45.075 130.967  17.867  1.00  0.00    -0.011 C 
ATOM      4  C   UNL     1      45.754 130.741  18.836  1.00  0.00     0.015 C 
ENDBRANCH   2   3
BRANCH   2   5
ATOM      5  O   UNL     1      44.468 130.372  15.589  1.00  0.00    -0.396 OA
BRANCH   5   6
ATOM      6  C   UNL     1      44.926 130.783  14.329  1.00  0.00     0.337 C 
ATOM      7  O   UNL     1      44.170 130.759  13.319  1.00  0.00    -0.246 OA
BRANCH   6   8
ATOM      8  C   UNL     1      46.319 131.242  14.205  1.00  0.00     0.086 C 
ATOM      9  C   UNL     1      47.345 130.400  14.093  1.00  0.00     0.016 C 
ENDBRANCH   6   8
ENDBRANCH   5   6
ENDBRANCH   2   5
ENDBRANCH   1   2
BRANCH   1  10
ATOM     10  C   UNL     1      43.574 133.557  17.083  1.00  0.00     0.168 C 
BRANCH  10  11
ATOM     11  C   UNL     1      42.425 134.041  17.955  1.00  0.00     0.137 A 
ATOM     12  C   UNL     1      41.093 134.276  17.613  1.00  0.00     0.135 A 
ATOM     13  N   UNL     1      42.542 134.425  19.247  1.00  0.00    -0.097 N 
ATOM     14  N   UNL     1      40.454 134.759  18.699  1.00  0.00     0.020 NA
ATOM     15  N   UNL     1      41.358 134.838  19.662  1.00  0.00    -0.012 N 
ATOM     16  C   UNL     1      40.414 134.049  16.301  1.00  0.00     0.076 C 
ATOM     17  H   UNL     1      41.159 135.202  20.621  1.00  0.00     0.527 HD
BRANCH  13  18
ATOM     18  C   UNL     1      43.739 134.485  20.043  1.00  0.00     0.123 A 
ATOM     19  C   UNL     1      44.107 133.388  20.847  1.00  0.00     0.013 A 
ATOM     20  C   UNL     1      44.530 135.654  20.036  1.00  0.00     0.013 A 
ATOM     21  C   UNL     1      43.268 132.259  20.939  1.00  0.00     0.011 A 
ATOM     22  C   UNL     1      45.313 133.426  21.599  1.00  0.00    -0.005 A 
ATOM     23  C   UNL     1      44.139 136.780  19.279  1.00  0.00     0.011 A 
ATOM     24  C   UNL     1      45.746 135.697  20.770  1.00  0.00    -0.005 A 
ATOM     25  C   UNL     1      43.608 131.182  21.757  1.00  0.00     0.001 A 
ATOM     26  C   UNL     1      45.623 132.325  22.433  1.00  0.00     0.009 A 
ATOM     27  C   UNL     1      46.153 134.571  21.533  1.00  0.00     0.030 A 
ATOM     28  C   UNL     1      44.935 137.922  19.234  1.00  0.00     0.001 A 
ATOM     29  C   UNL     1      46.542 136.865  20.693  1.00  0.00     0.009 A 
ATOM     30  C   UNL     1      44.781 131.216  22.501  1.00  0.00     0.001 A 
ATOM     31  C   UNL     1      46.134 137.963  19.936  1.00  0.00     0.001 A 
BRANCH  27  32
ATOM     32  C   UNL     1      47.444 134.602  22.261  1.00  0.00     0.261 C 
ATOM     33  O   UNL     1      48.502 134.192  21.715  1.00  0.00    -0.298 OA
ENDBRANCH  27  32
ENDBRANCH  13  18
ENDBRANCH  10  11
BRANCH  10  34
ATOM     34  C   UNL     1      43.769 134.459  15.837  1.00  0.00     0.014 C 
ATOM     35  C   UNL     1      42.954 133.933  14.646  1.00  0.00     0.010 C 
ATOM     36  C   UNL     1      43.422 135.932  16.104  1.00  0.00     0.010 C 
ENDBRANCH  10  34
ENDBRANCH   1  10
TORSDOF 10
ENDMDL
MODEL 5
REMARK VINA RESULT:      -6.2      2.240      3.854
REMARK SMILES C#C/C(=N\[C@H](c1c(C)n[nH+]n1-c1c2ccccc2c(C=O)c2ccccc12)C(C)C)OC(=O)C=C
REMARK SMILES IDX 4 1 3 2 2 3 1 4 31 5 32 6 33 7 34 8 35 9 5 10 6 11 7 12
REMARK SMILES IDX 11 13 9 14 10 15 8 16 12 18 13 19 27 20 14 21 18 22 26 23
REMARK SMILES IDX 22 24 15 25 17 26 19 27 25 28 23 29 16 30 24 31 20 32 21 33
REMARK SMILES IDX 28 34 29 35 30 36
REMARK H PARENT 10 17
ROOT
ATOM      1  N   UNL     1      44.069 134.067  15.526  1.00  0.00    -0.233 NA
ENDROOT
BRANCH   1   2
ATOM      2  C   UNL     1      44.537 132.892  15.211  1.00  0.00     0.272 C 
BRANCH   2   3
ATOM      3  C   UNL     1      43.722 131.907  14.547  1.00  0.00    -0.011 C 
ATOM      4  C   UNL     1      43.063 131.070  13.985  1.00  0.00     0.015 C 
ENDBRANCH   2   3
BRANCH   2   5
ATOM      5  O   UNL     1      45.861 132.541  15.513  1.00  0.00    -0.396 OA
BRANCH   5   6
ATOM      6  C   UNL     1      46.504 131.360  15.116  1.00  0.00     0.337 C 
ATOM      7  O   UNL     1      46.803 130.465  15.954  1.00  0.00    -0.246 OA
BRANCH   6   8
ATOM      8  C   UNL     1      46.828 131.184  13.692  1.00  0.00     0.086 C 
ATOM      9  C   UNL     1      47.982 130.663  13.277  1.00  0.00     0.016 C 
ENDBRANCH   6   8
ENDBRANCH   5   6
ENDBRANCH   2   5
ENDBRANCH   1   2
BRANCH   1  10
ATOM     10  C   UNL     1      43.773 134.567  16.872  1.00  0.00     0.168 C 
BRANCH  10  11
ATOM     11  C   UNL     1      42.474 133.988  17.413  1.00  0.00     0.137 A 
ATOM     12  C   UNL     1      41.267 133.756  16.754  1.00  0.00     0.135 A 
ATOM     13  N   UNL     1      42.247 133.676  18.710  1.00  0.00    -0.097 N 
ATOM     14  N   UNL     1      40.374 133.291  17.654  1.00  0.00     0.020 NA
ATOM     15  N   UNL     1      40.998 133.259  18.820  1.00  0.00    -0.012 N 
ATOM     16  C   UNL     1      40.941 133.950  15.308  1.00  0.00     0.076 C 
ATOM     17  H   UNL     1      40.548 132.961  19.715  1.00  0.00     0.527 HD
BRANCH  13  18
ATOM     18  C   UNL     1      43.140 133.842  19.826  1.00  0.00     0.123 A 
ATOM     19  C   UNL     1      44.196 132.931  20.026  1.00  0.00     0.013 A 
ATOM     20  C   UNL     1      42.941 134.905  20.733  1.00  0.00     0.013 A 
ATOM     21  C   UNL     1      44.338 131.809  19.184  1.00  0.00     0.011 A 
ATOM     22  C   UNL     1      45.107 133.119  21.100  1.00  0.00    -0.005 A 
ATOM     23  C   UNL     1      41.851 135.789  20.574  1.00  0.00     0.011 A 
ATOM     24  C   UNL     1      43.856 135.113  21.800  1.00  0.00    -0.005 A 
ATOM     25  C   UNL     1      45.360 130.884  19.394  1.00  0.00     0.001 A 
ATOM     26  C   UNL     1      46.125 132.155  21.298  1.00  0.00     0.009 A 
ATOM     27  C   UNL     1      44.958 134.233  21.970  1.00  0.00     0.030 A 
ATOM     28  C   UNL     1      41.672 136.864  21.441  1.00  0.00     0.001 A 
ATOM     29  C   UNL     1      43.658 136.223  22.655  1.00  0.00     0.009 A 
ATOM     30  C   UNL     1      46.250 131.057  20.448  1.00  0.00     0.001 A 
ATOM     31  C   UNL     1      42.574 137.083  22.476  1.00  0.00     0.001 A 
BRANCH  27  32
ATOM     32  C   UNL     1      45.936 134.479  23.057  1.00  0.00     0.261 C 
ATOM     33  O   UNL     1      45.775 133.967  24.196  1.00  0.00    -0.298 OA
ENDBRANCH  27  32
ENDBRANCH  13  18
ENDBRANCH  10  11
BRANCH  10  34
ATOM     34  C   UNL     1      43.750 136.118  16.860  1.00  0.00     0.014 C 
ATOM     35  C   UNL     1      42.309 136.646  16.927  1.00  0.00     0.010 C 
ATOM     36  C   UNL     1      44.592 136.737  17.988  1.00  0.00     0.010 C 
ENDBRANCH  10  34
ENDBRANCH   1  10
TORSDOF 10
ENDMDL
MODEL 6
REMARK VINA RESULT:      -6.0      2.835      6.950
REMARK SMILES C#C/C(=N\[C@H](c1c(C)n[nH+]n1-c1c2ccccc2c(C=O)c2ccccc12)C(C)C)OC(=O)C=C
REMARK SMILES IDX 4 1 3 2 2 3 1 4 31 5 32 6 33 7 34 8 35 9 5 10 6 11 7 12
REMARK SMILES IDX 11 13 9 14 10 15 8 16 12 18 13 19 27 20 14 21 18 22 26 23
REMARK SMILES IDX 22 24 15 25 17 26 19 27 25 28 23 29 16 30 24 31 20 32 21 33
REMARK SMILES IDX 28 34 29 35 30 36
REMARK H PARENT 10 17
ROOT
ATOM      1  N   UNL     1      42.843 135.926  15.742  1.00  0.00    -0.233 NA
ENDROOT
BRANCH   1   2
ATOM      2  C   UNL     1      41.756 136.251  15.101  1.00  0.00     0.272 C 
BRANCH   2   3
ATOM      3  C   UNL     1      41.190 137.573  15.194  1.00  0.00    -0.011 C 
ATOM      4  C   UNL     1      40.709 138.672  15.295  1.00  0.00     0.015 C 
ENDBRANCH   2   3
BRANCH   2   5
ATOM      5  O   UNL     1      41.092 135.318  14.292  1.00  0.00    -0.396 OA
BRANCH   5   6
ATOM      6  C   UNL     1      39.772 134.878  14.465  1.00  0.00     0.337 C 
ATOM      7  O   UNL     1      39.518 133.762  14.996  1.00  0.00    -0.246 OA
BRANCH   6   8
ATOM      8  C   UNL     1      38.678 135.751  14.010  1.00  0.00     0.086 C 
ATOM      9  C   UNL     1      37.540 135.889  14.688  1.00  0.00     0.016 C 
ENDBRANCH   6   8
ENDBRANCH   5   6
ENDBRANCH   2   5
ENDBRANCH   1   2
BRANCH   1  10
ATOM     10  C   UNL     1      42.945 135.479  17.135  1.00  0.00     0.168 C 
BRANCH  10  11
ATOM     11  C   UNL     1      41.779 134.583  17.525  1.00  0.00     0.137 A 
ATOM     12  C   UNL     1      40.510 134.934  17.986  1.00  0.00     0.135 A 
ATOM     13  N   UNL     1      41.823 133.232  17.572  1.00  0.00    -0.097 N 
ATOM     14  N   UNL     1      39.831 133.801  18.265  1.00  0.00     0.020 NA
ATOM     15  N   UNL     1      40.653 132.797  18.007  1.00  0.00    -0.012 N 
ATOM     16  C   UNL     1      39.925 136.298  18.160  1.00  0.00     0.076 C 
ATOM     17  H   UNL     1      40.410 131.791  18.151  1.00  0.00     0.527 HD
BRANCH  13  18
ATOM     18  C   UNL     1      42.948 132.377  17.302  1.00  0.00     0.123 A 
ATOM     19  C   UNL     1      43.210 131.950  15.985  1.00  0.00     0.013 A 
ATOM     20  C   UNL     1      43.774 131.946  18.362  1.00  0.00     0.013 A 
ATOM     21  C   UNL     1      42.330 132.291  14.937  1.00  0.00     0.011 A 
ATOM     22  C   UNL     1      44.347 131.144  15.708  1.00  0.00    -0.005 A 
ATOM     23  C   UNL     1      43.487 132.320  19.693  1.00  0.00     0.011 A 
ATOM     24  C   UNL     1      44.924 131.155  18.095  1.00  0.00    -0.005 A 
ATOM     25  C   UNL     1      42.563 131.847  13.637  1.00  0.00     0.001 A 
ATOM     26  C   UNL     1      44.548 130.694  14.380  1.00  0.00     0.009 A 
ATOM     27  C   UNL     1      45.226 130.773  16.761  1.00  0.00     0.030 A 
ATOM     28  C   UNL     1      44.320 131.934  20.739  1.00  0.00     0.001 A 
ATOM     29  C   UNL     1      45.761 130.790  19.176  1.00  0.00     0.009 A 
ATOM     30  C   UNL     1      43.668 131.051  13.360  1.00  0.00     0.001 A 
ATOM     31  C   UNL     1      45.455 131.175  20.482  1.00  0.00     0.001 A 
BRANCH  27  32
ATOM     32  C   UNL     1      46.451 129.985  16.480  1.00  0.00     0.261 C 
ATOM     33  O   UNL     1      47.350 130.440  15.725  1.00  0.00    -0.298 OA
ENDBRANCH  27  32
ENDBRANCH  13  18
ENDBRANCH  10  11
BRANCH  10  34
ATOM     34  C   UNL     1      43.063 136.709  18.072  1.00  0.00     0.014 C 
ATOM     35  C   UNL     1      43.566 136.294  19.462  1.00  0.00     0.010 C 
ATOM     36  C   UNL     1      43.959 137.817  17.496  1.00  0.00     0.010 C 
ENDBRANCH  10  34
ENDBRANCH   1  10
TORSDOF 10
ENDMDL
MODEL 7
REMARK VINA RESULT:      -6.0      2.497      3.548
REMARK SMILES C#C/C(=N\[C@H](c1c(C)n[nH+]n1-c1c2ccccc2c(C=O)c2ccccc12)C(C)C)OC(=O)C=C
REMARK SMILES IDX 4 1 3 2 2 3 1 4 31 5 32 6 33 7 34 8 35 9 5 10 6 11 7 12
REMARK SMILES IDX 11 13 9 14 10 15 8 16 12 18 13 19 27 20 14 21 18 22 26 23
REMARK SMILES IDX 22 24 15 25 17 26 19 27 25 28 23 29 16 30 24 31 20 32 21 33
REMARK SMILES IDX 28 34 29 35 30 36
REMARK H PARENT 10 17
ROOT
ATOM      1  N   UNL     1      44.448 133.059  15.929  1.00  0.00    -0.233 NA
ENDROOT
BRANCH   1   2
ATOM      2  C   UNL     1      44.923 131.869  16.168  1.00  0.00     0.272 C 
BRANCH   2   3
ATOM      3  C   UNL     1      45.183 131.414  17.510  1.00  0.00    -0.011 C 
ATOM      4  C   UNL     1      45.394 131.009  18.625  1.00  0.00     0.015 C 
ENDBRANCH   2   3
BRANCH   2   5
ATOM      5  O   UNL     1      45.202 130.983  15.117  1.00  0.00    -0.396 OA
BRANCH   5   6
ATOM      6  C   UNL     1      46.372 130.975  14.344  1.00  0.00     0.337 C 
ATOM      7  O   UNL     1      47.101 131.999  14.252  1.00  0.00    -0.246 OA
BRANCH   6   8
ATOM      8  C   UNL     1      46.733 129.737  13.633  1.00  0.00     0.086 C 
ATOM      9  C   UNL     1      47.994 129.333  13.492  1.00  0.00     0.016 C 
ENDBRANCH   6   8
ENDBRANCH   5   6
ENDBRANCH   2   5
ENDBRANCH   1   2
BRANCH   1  10
ATOM     10  C   UNL     1      43.745 133.934  16.873  1.00  0.00     0.168 C 
BRANCH  10  11
ATOM     11  C   UNL     1      42.235 133.780  16.764  1.00  0.00     0.137 A 
ATOM     12  C   UNL     1      41.457 133.463  15.651  1.00  0.00     0.135 A 
ATOM     13  N   UNL     1      41.358 134.029  17.764  1.00  0.00    -0.097 N 
ATOM     14  N   UNL     1      40.158 133.502  16.016  1.00  0.00     0.020 NA
ATOM     15  N   UNL     1      40.136 133.849  17.293  1.00  0.00    -0.012 N 
ATOM     16  C   UNL     1      41.905 133.119  14.268  1.00  0.00     0.076 C 
ATOM     17  H   UNL     1      39.261 133.982  17.847  1.00  0.00     0.527 HD
BRANCH  13  18
ATOM     18  C   UNL     1      41.646 134.503  19.091  1.00  0.00     0.123 A 
ATOM     19  C   UNL     1      42.108 133.607  20.076  1.00  0.00     0.013 A 
ATOM     20  C   UNL     1      41.441 135.862  19.413  1.00  0.00     0.013 A 
ATOM     21  C   UNL     1      42.216 132.230  19.791  1.00  0.00     0.011 A 
ATOM     22  C   UNL     1      42.437 134.080  21.375  1.00  0.00    -0.005 A 
ATOM     23  C   UNL     1      40.923 136.756  18.450  1.00  0.00     0.011 A 
ATOM     24  C   UNL     1      41.783 136.350  20.702  1.00  0.00    -0.005 A 
ATOM     25  C   UNL     1      42.641 131.331  20.768  1.00  0.00     0.001 A 
ATOM     26  C   UNL     1      42.850 133.141  22.350  1.00  0.00     0.009 A 
ATOM     27  C   UNL     1      42.307 135.462  21.679  1.00  0.00     0.030 A 
ATOM     28  C   UNL     1      40.756 138.106  18.747  1.00  0.00     0.001 A 
ATOM     29  C   UNL     1      41.618 137.730  20.970  1.00  0.00     0.009 A 
ATOM     30  C   UNL     1      42.957 131.785  22.043  1.00  0.00     0.001 A 
ATOM     31  C   UNL     1      41.106 138.593  20.001  1.00  0.00     0.001 A 
BRANCH  27  32
ATOM     32  C   UNL     1      42.705 135.982  23.010  1.00  0.00     0.261 C 
ATOM     33  O   UNL     1      43.890 136.349  23.229  1.00  0.00    -0.298 OA
ENDBRANCH  27  32
ENDBRANCH  13  18
ENDBRANCH  10  11
BRANCH  10  34
ATOM     34  C   UNL     1      44.191 135.403  16.656  1.00  0.00     0.014 C 
ATOM     35  C   UNL     1      43.157 136.172  15.820  1.00  0.00     0.010 C 
ATOM     36  C   UNL     1      44.463 136.147  17.973  1.00  0.00     0.010 C 
ENDBRANCH  10  34
ENDBRANCH   1  10
TORSDOF 10
ENDMDL
MODEL 8
REMARK VINA RESULT:      -5.9      2.683      4.603
REMARK SMILES C#C/C(=N\[C@H](c1c(C)n[nH+]n1-c1c2ccccc2c(C=O)c2ccccc12)C(C)C)OC(=O)C=C
REMARK SMILES IDX 4 1 3 2 2 3 1 4 31 5 32 6 33 7 34 8 35 9 5 10 6 11 7 12
REMARK SMILES IDX 11 13 9 14 10 15 8 16 12 18 13 19 27 20 14 21 18 22 26 23
REMARK SMILES IDX 22 24 15 25 17 26 19 27 25 28 23 29 16 30 24 31 20 32 21 33
REMARK SMILES IDX 28 34 29 35 30 36
REMARK H PARENT 10 17
ROOT
ATOM      1  N   UNL     1      43.794 133.700  15.758  1.00  0.00    -0.233 NA
ENDROOT
BRANCH   1   2
ATOM      2  C   UNL     1      44.268 132.487  15.804  1.00  0.00     0.272 C 
BRANCH   2   3
ATOM      3  C   UNL     1      44.775 131.918  17.026  1.00  0.00    -0.011 C 
ATOM      4  C   UNL     1      45.192 131.464  18.061  1.00  0.00     0.015 C 
ENDBRANCH   2   3
BRANCH   2   5
ATOM      5  O   UNL     1      44.303 131.685  14.653  1.00  0.00    -0.396 OA
BRANCH   5   6
ATOM      6  C   UNL     1      45.238 130.674  14.390  1.00  0.00     0.337 C 
ATOM      7  O   UNL     1      44.982 129.465  14.646  1.00  0.00    -0.246 OA
BRANCH   6   8
ATOM      8  C   UNL     1      46.534 131.053  13.806  1.00  0.00     0.086 C 
ATOM      9  C   UNL     1      46.953 130.593  12.629  1.00  0.00     0.016 C 
ENDBRANCH   6   8
ENDBRANCH   5   6
ENDBRANCH   2   5
ENDBRANCH   1   2
BRANCH   1  10
ATOM     10  C   UNL     1      43.111 134.421  16.837  1.00  0.00     0.168 C 
BRANCH  10  11
ATOM     11  C   UNL     1      41.639 134.044  16.921  1.00  0.00     0.137 A 
ATOM     12  C   UNL     1      40.753 133.707  15.898  1.00  0.00     0.135 A 
ATOM     13  N   UNL     1      40.898 134.067  18.052  1.00  0.00    -0.097 N 
ATOM     14  N   UNL     1      39.533 133.512  16.440  1.00  0.00     0.020 NA
ATOM     15  N   UNL     1      39.657 133.740  17.737  1.00  0.00    -0.012 N 
ATOM     16  C   UNL     1      41.030 133.557  14.436  1.00  0.00     0.076 C 
ATOM     17  H   UNL     1      38.866 133.687  18.418  1.00  0.00     0.527 HD
BRANCH  13  18
ATOM     18  C   UNL     1      41.314 134.464  19.371  1.00  0.00     0.123 A 
ATOM     19  C   UNL     1      41.154 135.800  19.789  1.00  0.00     0.013 A 
ATOM     20  C   UNL     1      41.905 133.519  20.237  1.00  0.00     0.013 A 
ATOM     21  C   UNL     1      40.661 136.772  18.894  1.00  0.00     0.011 A 
ATOM     22  C   UNL     1      41.520 136.186  21.106  1.00  0.00    -0.005 A 
ATOM     23  C   UNL     1      42.123 132.191  19.807  1.00  0.00     0.011 A 
ATOM     24  C   UNL     1      42.258 133.888  21.562  1.00  0.00    -0.005 A 
ATOM     25  C   UNL     1      40.529 138.103  19.287  1.00  0.00     0.001 A 
ATOM     26  C   UNL     1      41.391 137.547  21.472  1.00  0.00     0.009 A 
ATOM     27  C   UNL     1      42.042 135.219  22.008  1.00  0.00     0.030 A 
ATOM     28  C   UNL     1      42.667 131.242  20.669  1.00  0.00     0.001 A 
ATOM     29  C   UNL     1      42.795 132.899  22.421  1.00  0.00     0.009 A 
ATOM     30  C   UNL     1      40.894 138.488  20.572  1.00  0.00     0.001 A 
ATOM     31  C   UNL     1      42.999 131.593  21.972  1.00  0.00     0.001 A 
BRANCH  27  32
ATOM     32  C   UNL     1      42.370 135.590  23.406  1.00  0.00     0.261 C 
ATOM     33  O   UNL     1      43.518 136.011  23.707  1.00  0.00    -0.298 OA
ENDBRANCH  27  32
ENDBRANCH  13  18
ENDBRANCH  10  11
BRANCH  10  34
ATOM     34  C   UNL     1      43.304 135.948  16.650  1.00  0.00     0.014 C 
ATOM     35  C   UNL     1      44.354 136.493  17.628  1.00  0.00     0.010 C 
ATOM     36  C   UNL     1      43.676 136.332  15.208  1.00  0.00     0.010 C 
ENDBRANCH  10  34
ENDBRANCH   1  10
TORSDOF 10
ENDMDL
MODEL 9
REMARK VINA RESULT:      -5.9      1.837      3.834
REMARK SMILES C#C/C(=N\[C@H](c1c(C)n[nH+]n1-c1c2ccccc2c(C=O)c2ccccc12)C(C)C)OC(=O)C=C
REMARK SMILES IDX 4 1 3 2 2 3 1 4 31 5 32 6 33 7 34 8 35 9 5 10 6 11 7 12
REMARK SMILES IDX 11 13 9 14 10 15 8 16 12 18 13 19 27 20 14 21 18 22 26 23
REMARK SMILES IDX 22 24 15 25 17 26 19 27 25 28 23 29 16 30 24 31 20 32 21 33
REMARK SMILES IDX 28 34 29 35 30 36
REMARK H PARENT 10 17
ROOT
ATOM      1  N   UNL     1      43.055 132.699  16.374  1.00  0.00    -0.233 NA
ENDROOT
BRANCH   1   2
ATOM      2  C   UNL     1      44.174 132.075  16.134  1.00  0.00     0.272 C 
BRANCH   2   3
ATOM      3  C   UNL     1      44.888 131.376  17.172  1.00  0.00    -0.011 C 
ATOM      4  C   UNL     1      45.505 130.805  18.034  1.00  0.00     0.015 C 
ENDBRANCH   2   3
BRANCH   2   5
ATOM      5  O   UNL     1      44.728 132.063  14.845  1.00  0.00    -0.396 OA
BRANCH   5   6
ATOM      6  C   UNL     1      44.625 131.012  13.922  1.00  0.00     0.337 C 
ATOM      7  O   UNL     1      43.516 130.700  13.408  1.00  0.00    -0.246 OA
BRANCH   6   8
ATOM      8  C   UNL     1      45.846 130.274  13.563  1.00  0.00     0.086 C 
ATOM      9  C   UNL     1      46.946 130.878  13.117  1.00  0.00     0.016 C 
ENDBRANCH   6   8
ENDBRANCH   5   6
ENDBRANCH   2   5
ENDBRANCH   1   2
BRANCH   1  10
ATOM     10  C   UNL     1      42.898 134.039  16.947  1.00  0.00     0.168 C 
BRANCH  10  11
ATOM     11  C   UNL     1      41.853 134.058  18.053  1.00  0.00     0.137 A 
ATOM     12  C   UNL     1      40.462 134.045  17.955  1.00  0.00     0.135 A 
ATOM     13  N   UNL     1      42.124 134.189  19.372  1.00  0.00    -0.097 N 
ATOM     14  N   UNL     1      39.947 134.137  19.200  1.00  0.00     0.020 NA
ATOM     15  N   UNL     1      40.977 134.226  20.026  1.00  0.00    -0.012 N 
ATOM     16  C   UNL     1      39.614 133.939  16.728  1.00  0.00     0.076 C 
ATOM     17  H   UNL     1      40.887 134.332  21.061  1.00  0.00     0.527 HD
BRANCH  13  18
ATOM     18  C   UNL     1      43.410 134.361  19.995  1.00  0.00     0.123 A 
ATOM     19  C   UNL     1      44.061 135.610  19.935  1.00  0.00     0.013 A 
ATOM     20  C   UNL     1      44.028 133.272  20.644  1.00  0.00     0.013 A 
ATOM     21  C   UNL     1      43.497 136.673  19.199  1.00  0.00     0.011 A 
ATOM     22  C   UNL     1      45.309 135.797  20.589  1.00  0.00    -0.005 A 
ATOM     23  C   UNL     1      43.411 132.002  20.660  1.00  0.00     0.011 A 
ATOM     24  C   UNL     1      45.267 133.452  21.317  1.00  0.00    -0.005 A 
ATOM     25  C   UNL     1      44.149 137.901  19.107  1.00  0.00     0.001 A 
ATOM     26  C   UNL     1      45.955 137.051  20.464  1.00  0.00     0.009 A 
ATOM     27  C   UNL     1      45.898 134.725  21.311  1.00  0.00     0.030 A 
ATOM     28  C   UNL     1      43.995 130.933  21.334  1.00  0.00     0.001 A 
ATOM     29  C   UNL     1      45.829 132.351  22.006  1.00  0.00     0.009 A 
ATOM     30  C   UNL     1      45.374 138.089  19.737  1.00  0.00     0.001 A 
ATOM     31  C   UNL     1      45.198 131.107  22.008  1.00  0.00     0.001 A 
BRANCH  27  32
ATOM     32  C   UNL     1      47.168 134.920  22.052  1.00  0.00     0.261 C 
ATOM     33  O   UNL     1      47.165 135.378  23.225  1.00  0.00    -0.298 OA
ENDBRANCH  27  32
ENDBRANCH  13  18
ENDBRANCH  10  11
BRANCH  10  34
ATOM     34  C   UNL     1      42.564 135.053  15.823  1.00  0.00     0.014 C 
ATOM     35  C   UNL     1      41.946 136.333  16.404  1.00  0.00     0.010 C 
ATOM     36  C   UNL     1      43.781 135.403  14.951  1.00  0.00     0.010 C 
ENDBRANCH  10  34
ENDBRANCH   1  10
TORSDOF 10
ENDMDL


