MODEL 1
REMARK VINA RESULT:      -7.4      0.000      0.000
REMARK SMILES C#CCOC(=O)C[C@@H]1CC[C@H]2C(O/C([O-])=C\CC)=NC(=O)c3c(N=[N+]=[N-])cc(Cl)c1c32
REMARK SMILES IDX 8 1 30 2 28 3 29 4 27 5 23 6 22 7 31 8 11 9 12 10 19 11
REMARK SMILES IDX 20 12 21 13 10 14 9 15 7 16 5 17 6 18 4 19 3 20 2 21 1 22
REMARK SMILES IDX 24 23 25 24 26 25 13 26 14 27 15 28 16 29 17 30 18 31
REMARK H PARENT
ROOT
ATOM      1  C   UNL     1      42.772 133.777  16.133  1.00  0.00     0.032 C 
ATOM      2  C   UNL     1      42.998 133.498  17.622  1.00  0.00    -0.021 A 
ATOM      3  C   UNL     1      42.322 134.254  18.604  1.00  0.00     0.045 A 
ATOM      4  Cl  UNL     1      41.258 135.597  18.194  1.00  0.00    -0.084 Cl
ATOM      5  C   UNL     1      42.493 133.961  19.957  1.00  0.00     0.032 A 
ATOM      6  C   UNL     1      43.350 132.930  20.373  1.00  0.00     0.052 A 
ATOM      7  C   UNL     1      44.053 132.182  19.402  1.00  0.00     0.056 A 
ATOM      8  C   UNL     1      43.867 132.459  18.031  1.00  0.00    -0.020 A 
ATOM      9  C   UNL     1      44.590 131.656  16.968  1.00  0.00     0.077 C 
ATOM     10  C   UNL     1      45.709 130.780  17.490  1.00  0.00     0.091 C 
ATOM     11  N   UNL     1      45.856 130.547  18.759  1.00  0.00    -0.205 NA
ATOM     12  C   UNL     1      45.037 131.136  19.767  1.00  0.00     0.278 C 
ATOM     13  O   UNL     1      45.187 130.762  20.960  1.00  0.00    -0.267 OA
ATOM     14  C   UNL     1      45.103 132.628  15.901  1.00  0.00     0.016 C 
ATOM     15  C   UNL     1      43.926 133.308  15.189  1.00  0.00     0.010 C 
ENDROOT
BRANCH   1  16
ATOM     16  C   UNL     1      41.397 133.235  15.662  1.00  0.00     0.131 C 
BRANCH  16  17
ATOM     17  C   UNL     1      40.727 134.121  14.653  1.00  0.00     0.307 C 
ATOM     18  O   UNL     1      41.170 134.171  13.473  1.00  0.00    -0.252 OA
BRANCH  17  19
ATOM     19  O   UNL     1      39.638 134.905  15.036  1.00  0.00    -0.452 OA
BRANCH  19  20
ATOM     20  C   UNL     1      38.312 134.395  15.118  1.00  0.00     0.322 C 
BRANCH  20  21
ATOM     21  C   UNL     1      37.692 134.454  13.796  1.00  0.00    -0.065 C 
ATOM     22  C   UNL     1      37.179 134.496  12.706  1.00  0.00     0.007 C 
ENDBRANCH  20  21
ENDBRANCH  19  20
ENDBRANCH  17  19
ENDBRANCH  16  17
ENDBRANCH   1  16
BRANCH   6  23
ATOM     23  N   UNL     1      43.528 132.652  21.772  1.00  0.00    -0.060 NA
BRANCH  23  24
ATOM     24  N   UNL     1      43.296 133.484  22.651  1.00  0.00     0.005 N 
ATOM     25  N   UNL     1      43.066 134.315  23.529  1.00  0.00    -0.003 NA
ENDBRANCH  23  24
ENDBRANCH   6  23
BRANCH  10  26
ATOM     26  O   UNL     1      46.534 130.147  16.549  1.00  0.00    -0.567 OA
BRANCH  26  27
ATOM     27  C   UNL     1      46.102 129.363  15.471  1.00  0.00     0.053 C 
ATOM     28  O   UNL     1      45.061 128.452  15.615  1.00  0.00    -0.547 OA
BRANCH  27  29
ATOM     29  C   UNL     1      46.692 129.490  14.280  1.00  0.00    -0.003 C 
BRANCH  29  30
ATOM     30  C   UNL     1      46.168 130.405  13.208  1.00  0.00     0.026 C 
ATOM     31  C   UNL     1      47.215 130.658  12.125  1.00  0.00     0.008 C 
ENDBRANCH  29  30
ENDBRANCH  27  29
ENDBRANCH  26  27
ENDBRANCH  10  26
TORSDOF 11
ENDMDL
MODEL 2
REMARK VINA RESULT:      -7.1      3.140      5.696
REMARK SMILES C#CCOC(=O)C[C@@H]1CC[C@H]2C(O/C([O-])=C\CC)=NC(=O)c3c(N=[N+]=[N-])cc(Cl)c1c32
REMARK SMILES IDX 8 1 30 2 28 3 29 4 27 5 23 6 22 7 31 8 11 9 12 10 19 11
REMARK SMILES IDX 20 12 21 13 10 14 9 15 7 16 5 17 6 18 4 19 3 20 2 21 1 22
REMARK SMILES IDX 24 23 25 24 26 25 13 26 14 27 15 28 16 29 17 30 18 31
REMARK H PARENT
ROOT
ATOM      1  C   UNL     1      44.610 132.234  20.374  1.00  0.00     0.032 C 
ATOM      2  C   UNL     1      43.375 132.534  19.519  1.00  0.00    -0.021 A 
ATOM      3  C   UNL     1      42.164 132.934  20.124  1.00  0.00     0.045 A 
ATOM      4  Cl  UNL     1      41.971 133.034  21.873  1.00  0.00    -0.084 Cl
ATOM      5  C   UNL     1      41.058 133.256  19.337  1.00  0.00     0.032 A 
ATOM      6  C   UNL     1      41.114 133.169  17.938  1.00  0.00     0.052 A 
ATOM      7  C   UNL     1      42.311 132.746  17.319  1.00  0.00     0.056 A 
ATOM      8  C   UNL     1      43.440 132.440  18.108  1.00  0.00    -0.020 A 
ATOM      9  C   UNL     1      44.745 132.006  17.470  1.00  0.00     0.077 C 
ATOM     10  C   UNL     1      44.641 131.649  16.002  1.00  0.00     0.091 C 
ATOM     11  N   UNL     1      43.586 131.940  15.304  1.00  0.00    -0.205 NA
ATOM     12  C   UNL     1      42.421 132.550  15.854  1.00  0.00     0.278 C 
ATOM     13  O   UNL     1      41.493 132.893  15.074  1.00  0.00    -0.267 OA
ATOM     14  C   UNL     1      45.310 130.838  18.283  1.00  0.00     0.016 C 
ATOM     15  C   UNL     1      45.668 131.300  19.701  1.00  0.00     0.010 C 
ENDROOT
BRANCH   1  16
ATOM     16  C   UNL     1      45.259 133.540  20.901  1.00  0.00     0.131 C 
BRANCH  16  17
ATOM     17  C   UNL     1      45.206 133.664  22.395  1.00  0.00     0.307 C 
ATOM     18  O   UNL     1      45.344 132.636  23.112  1.00  0.00    -0.252 OA
BRANCH  17  19
ATOM     19  O   UNL     1      44.974 134.911  22.979  1.00  0.00    -0.452 OA
BRANCH  19  20
ATOM     20  C   UNL     1      44.845 136.106  22.218  1.00  0.00     0.322 C 
BRANCH  20  21
ATOM     21  C   UNL     1      43.426 136.405  22.031  1.00  0.00    -0.065 C 
ATOM     22  C   UNL     1      42.256 136.647  21.871  1.00  0.00     0.007 C 
ENDBRANCH  20  21
ENDBRANCH  19  20
ENDBRANCH  17  19
ENDBRANCH  16  17
ENDBRANCH   1  16
BRANCH   6  23
ATOM     23  N   UNL     1      39.959 133.488  17.142  1.00  0.00    -0.060 NA
BRANCH  23  24
ATOM     24  N   UNL     1      38.831 133.604  17.623  1.00  0.00     0.005 N 
ATOM     25  N   UNL     1      37.703 133.720  18.102  1.00  0.00    -0.003 NA
ENDBRANCH  23  24
ENDBRANCH   6  23
BRANCH  10  26
ATOM     26  O   UNL     1      45.763 131.072  15.391  1.00  0.00    -0.567 OA
BRANCH  26  27
ATOM     27  C   UNL     1      45.749 130.006  14.482  1.00  0.00     0.053 C 
ATOM     28  O   UNL     1      45.419 128.718  14.889  1.00  0.00    -0.547 OA
BRANCH  27  29
ATOM     29  C   UNL     1      46.053 130.222  13.200  1.00  0.00    -0.003 C 
BRANCH  29  30
ATOM     30  C   UNL     1      47.458 130.484  12.731  1.00  0.00     0.026 C 
ATOM     31  C   UNL     1      48.467 129.599  13.460  1.00  0.00     0.008 C 
ENDBRANCH  29  30
ENDBRANCH  27  29
ENDBRANCH  26  27
ENDBRANCH  10  26
TORSDOF 11
ENDMDL
MODEL 3
REMARK VINA RESULT:      -7.0      1.037      1.381
REMARK SMILES C#CCOC(=O)C[C@@H]1CC[C@H]2C(O/C([O-])=C\CC)=NC(=O)c3c(N=[N+]=[N-])cc(Cl)c1c32
REMARK SMILES IDX 8 1 30 2 28 3 29 4 27 5 23 6 22 7 31 8 11 9 12 10 19 11
REMARK SMILES IDX 20 12 21 13 10 14 9 15 7 16 5 17 6 18 4 19 3 20 2 21 1 22
REMARK SMILES IDX 24 23 25 24 26 25 13 26 14 27 15 28 16 29 17 30 18 31
REMARK H PARENT
ROOT
ATOM      1  C   UNL     1      42.900 134.010  16.366  1.00  0.00     0.032 C 
ATOM      2  C   UNL     1      43.148 133.676  17.840  1.00  0.00    -0.021 A 
ATOM      3  C   UNL     1      42.522 134.425  18.860  1.00  0.00     0.045 A 
ATOM      4  Cl  UNL     1      41.499 135.819  18.515  1.00  0.00    -0.084 Cl
ATOM      5  C   UNL     1      42.709 134.084  20.199  1.00  0.00     0.032 A 
ATOM      6  C   UNL     1      43.536 133.011  20.564  1.00  0.00     0.052 A 
ATOM      7  C   UNL     1      44.190 132.267  19.556  1.00  0.00     0.056 A 
ATOM      8  C   UNL     1      43.986 132.594  18.198  1.00  0.00    -0.020 A 
ATOM      9  C   UNL     1      44.656 131.799  17.095  1.00  0.00     0.077 C 
ATOM     10  C   UNL     1      45.752 130.866  17.566  1.00  0.00     0.091 C 
ATOM     11  N   UNL     1      45.916 130.589  18.823  1.00  0.00    -0.205 NA
ATOM     12  C   UNL     1      45.142 131.175  19.867  1.00  0.00     0.278 C 
ATOM     13  O   UNL     1      45.302 130.759  21.045  1.00  0.00    -0.267 OA
ATOM     14  C   UNL     1      45.182 132.784  16.047  1.00  0.00     0.016 C 
ATOM     15  C   UNL     1      44.017 133.529  15.383  1.00  0.00     0.010 C 
ENDROOT
BRANCH   1  16
ATOM     16  C   UNL     1      41.497 133.533  15.909  1.00  0.00     0.131 C 
BRANCH  16  17
ATOM     17  C   UNL     1      40.700 134.609  15.232  1.00  0.00     0.307 C 
ATOM     18  O   UNL     1      41.234 135.306  14.327  1.00  0.00    -0.252 OA
BRANCH  17  19
ATOM     19  O   UNL     1      39.383 134.850  15.630  1.00  0.00    -0.452 OA
BRANCH  19  20
ATOM     20  C   UNL     1      38.555 133.844  16.202  1.00  0.00     0.322 C 
BRANCH  20  21
ATOM     21  C   UNL     1      37.938 134.365  17.420  1.00  0.00    -0.065 C 
ATOM     22  C   UNL     1      37.429 134.800  18.422  1.00  0.00     0.007 C 
ENDBRANCH  20  21
ENDBRANCH  19  20
ENDBRANCH  17  19
ENDBRANCH  16  17
ENDBRANCH   1  16
BRANCH   6  23
ATOM     23  N   UNL     1      43.732 132.682  21.950  1.00  0.00    -0.060 NA
BRANCH  23  24
ATOM     24  N   UNL     1      42.799 132.566  22.746  1.00  0.00     0.005 N 
ATOM     25  N   UNL     1      41.866 132.451  23.540  1.00  0.00    -0.003 NA
ENDBRANCH  23  24
ENDBRANCH   6  23
BRANCH  10  26
ATOM     26  O   UNL     1      46.532 130.233  16.588  1.00  0.00    -0.567 OA
BRANCH  26  27
ATOM     27  C   UNL     1      46.049 129.486  15.505  1.00  0.00     0.053 C 
ATOM     28  O   UNL     1      44.913 128.693  15.628  1.00  0.00    -0.547 OA
BRANCH  27  29
ATOM     29  C   UNL     1      46.682 129.534  14.331  1.00  0.00    -0.003 C 
BRANCH  29  30
ATOM     30  C   UNL     1      46.984 130.827  13.624  1.00  0.00     0.026 C 
ATOM     31  C   UNL     1      47.125 130.622  12.116  1.00  0.00     0.008 C 
ENDBRANCH  29  30
ENDBRANCH  27  29
ENDBRANCH  26  27
ENDBRANCH  10  26
TORSDOF 11
ENDMDL
MODEL 4
REMARK VINA RESULT:      -6.8      1.386      1.608
REMARK SMILES C#CCOC(=O)C[C@@H]1CC[C@H]2C(O/C([O-])=C\CC)=NC(=O)c3c(N=[N+]=[N-])cc(Cl)c1c32
REMARK SMILES IDX 8 1 30 2 28 3 29 4 27 5 23 6 22 7 31 8 11 9 12 10 19 11
REMARK SMILES IDX 20 12 21 13 10 14 9 15 7 16 5 17 6 18 4 19 3 20 2 21 1 22
REMARK SMILES IDX 24 23 25 24 26 25 13 26 14 27 15 28 16 29 17 30 18 31
REMARK H PARENT
ROOT
ATOM      1  C   UNL     1      43.071 135.463  16.761  1.00  0.00     0.032 C 
ATOM      2  C   UNL     1      43.455 134.837  18.105  1.00  0.00    -0.021 A 
ATOM      3  C   UNL     1      43.291 135.561  19.306  1.00  0.00     0.045 A 
ATOM      4  Cl  UNL     1      42.722 137.229  19.333  1.00  0.00    -0.084 Cl
ATOM      5  C   UNL     1      43.593 134.967  20.532  1.00  0.00     0.032 A 
ATOM      6  C   UNL     1      44.085 133.654  20.599  1.00  0.00     0.052 A 
ATOM      7  C   UNL     1      44.279 132.926  19.404  1.00  0.00     0.056 A 
ATOM      8  C   UNL     1      43.953 133.514  18.163  1.00  0.00    -0.020 A 
ATOM      9  C   UNL     1      44.129 132.748  16.867  1.00  0.00     0.077 C 
ATOM     10  C   UNL     1      44.935 131.472  16.991  1.00  0.00     0.091 C 
ATOM     11  N   UNL     1      45.222 130.959  18.149  1.00  0.00    -0.205 NA
ATOM     12  C   UNL     1      44.871 131.568  19.390  1.00  0.00     0.278 C 
ATOM     13  O   UNL     1      45.096 130.938  20.456  1.00  0.00    -0.267 OA
ATOM     14  C   UNL     1      44.748 133.693  15.832  1.00  0.00     0.016 C 
ATOM     15  C   UNL     1      43.784 134.843  15.516  1.00  0.00     0.010 C 
ENDROOT
BRANCH   1  16
ATOM     16  C   UNL     1      41.531 135.498  16.576  1.00  0.00     0.131 C 
BRANCH  16  17
ATOM     17  C   UNL     1      41.006 134.338  15.783  1.00  0.00     0.307 C 
ATOM     18  O   UNL     1      40.714 133.260  16.370  1.00  0.00    -0.252 OA
BRANCH  17  19
ATOM     19  O   UNL     1      40.873 134.450  14.398  1.00  0.00    -0.452 OA
BRANCH  19  20
ATOM     20  C   UNL     1      39.915 135.301  13.782  1.00  0.00     0.322 C 
BRANCH  20  21
ATOM     21  C   UNL     1      38.571 134.809  14.082  1.00  0.00    -0.065 C 
ATOM     22  C   UNL     1      37.462 134.404  14.323  1.00  0.00     0.007 C 
ENDBRANCH  20  21
ENDBRANCH  19  20
ENDBRANCH  17  19
ENDBRANCH  16  17
ENDBRANCH   1  16
BRANCH   6  23
ATOM     23  N   UNL     1      44.408 133.063  21.869  1.00  0.00    -0.060 NA
BRANCH  23  24
ATOM     24  N   UNL     1      44.359 133.691  22.928  1.00  0.00     0.005 N 
ATOM     25  N   UNL     1      44.310 134.320  23.985  1.00  0.00    -0.003 NA
ENDBRANCH  23  24
ENDBRANCH   6  23
BRANCH  10  26
ATOM     26  O   UNL     1      45.287 130.806  15.809  1.00  0.00    -0.567 OA
BRANCH  26  27
ATOM     27  C   UNL     1      46.584 130.668  15.297  1.00  0.00     0.053 C 
ATOM     28  O   UNL     1      47.506 129.816  15.893  1.00  0.00    -0.547 OA
BRANCH  27  29
ATOM     29  C   UNL     1      46.947 131.360  14.215  1.00  0.00    -0.003 C 
BRANCH  29  30
ATOM     30  C   UNL     1      47.184 130.712  12.878  1.00  0.00     0.026 C 
ATOM     31  C   UNL     1      48.085 129.485  13.001  1.00  0.00     0.008 C 
ENDBRANCH  29  30
ENDBRANCH  27  29
ENDBRANCH  26  27
ENDBRANCH  10  26
TORSDOF 11
ENDMDL
MODEL 5
REMARK VINA RESULT:      -6.8      1.046      1.367
REMARK SMILES C#CCOC(=O)C[C@@H]1CC[C@H]2C(O/C([O-])=C\CC)=NC(=O)c3c(N=[N+]=[N-])cc(Cl)c1c32
REMARK SMILES IDX 8 1 30 2 28 3 29 4 27 5 23 6 22 7 31 8 11 9 12 10 19 11
REMARK SMILES IDX 20 12 21 13 10 14 9 15 7 16 5 17 6 18 4 19 3 20 2 21 1 22
REMARK SMILES IDX 24 23 25 24 26 25 13 26 14 27 15 28 16 29 17 30 18 31
REMARK H PARENT
ROOT
ATOM      1  C   UNL     1      41.994 134.037  16.107  1.00  0.00     0.032 C 
ATOM      2  C   UNL     1      42.318 133.668  17.558  1.00  0.00    -0.021 A 
ATOM      3  C   UNL     1      41.644 134.298  18.626  1.00  0.00     0.045 A 
ATOM      4  Cl  UNL     1      40.466 135.585  18.371  1.00  0.00    -0.084 Cl
ATOM      5  C   UNL     1      41.905 133.922  19.943  1.00  0.00     0.032 A 
ATOM      6  C   UNL     1      42.855 132.931  20.238  1.00  0.00     0.052 A 
ATOM      7  C   UNL     1      43.557 132.309  19.181  1.00  0.00     0.056 A 
ATOM      8  C   UNL     1      43.279 132.670  17.846  1.00  0.00    -0.020 A 
ATOM      9  C   UNL     1      44.000 132.003  16.691  1.00  0.00     0.077 C 
ATOM     10  C   UNL     1      45.204 131.177  17.091  1.00  0.00     0.091 C 
ATOM     11  N   UNL     1      45.434 130.865  18.330  1.00  0.00    -0.205 NA
ATOM     12  C   UNL     1      44.630 131.316  19.418  1.00  0.00     0.278 C 
ATOM     13  O   UNL     1      44.869 130.868  20.571  1.00  0.00    -0.267 OA
ATOM     14  C   UNL     1      44.385 133.085  15.678  1.00  0.00     0.016 C 
ATOM     15  C   UNL     1      43.128 133.726  15.077  1.00  0.00     0.010 C 
ENDROOT
BRANCH   1  16
ATOM     16  C   UNL     1      40.638 133.429  15.662  1.00  0.00     0.131 C 
BRANCH  16  17
ATOM     17  C   UNL     1      39.744 134.420  14.978  1.00  0.00     0.307 C 
ATOM     18  O   UNL     1      40.197 135.551  14.653  1.00  0.00    -0.252 OA
BRANCH  17  19
ATOM     19  O   UNL     1      38.408 134.094  14.734  1.00  0.00    -0.452 OA
BRANCH  19  20
ATOM     20  C   UNL     1      37.335 134.987  15.006  1.00  0.00     0.322 C 
BRANCH  20  21
ATOM     21  C   UNL     1      37.033 134.952  16.436  1.00  0.00    -0.065 C 
ATOM     22  C   UNL     1      36.780 134.930  17.615  1.00  0.00     0.007 C 
ENDBRANCH  20  21
ENDBRANCH  19  20
ENDBRANCH  17  19
ENDBRANCH  16  17
ENDBRANCH   1  16
BRANCH   6  23
ATOM     23  N   UNL     1      43.125 132.566  21.602  1.00  0.00    -0.060 NA
BRANCH  23  24
ATOM     24  N   UNL     1      42.620 133.152  22.561  1.00  0.00     0.005 N 
ATOM     25  N   UNL     1      42.115 133.739  23.518  1.00  0.00    -0.003 NA
ENDBRANCH  23  24
ENDBRANCH   6  23
BRANCH  10  26
ATOM     26  O   UNL     1      46.021 130.677  16.067  1.00  0.00    -0.567 OA
BRANCH  26  27
ATOM     27  C   UNL     1      45.629 129.777  15.067  1.00  0.00     0.053 C 
ATOM     28  O   UNL     1      45.034 128.562  15.385  1.00  0.00    -0.547 OA
BRANCH  27  29
ATOM     29  C   UNL     1      45.822 130.088  13.783  1.00  0.00    -0.003 C 
BRANCH  29  30
ATOM     30  C   UNL     1      47.089 130.725  13.282  1.00  0.00     0.026 C 
ATOM     31  C   UNL     1      48.238 129.720  13.222  1.00  0.00     0.008 C 
ENDBRANCH  29  30
ENDBRANCH  27  29
ENDBRANCH  26  27
ENDBRANCH  10  26
TORSDOF 11
ENDMDL
MODEL 6
REMARK VINA RESULT:      -6.8      2.021      2.568
REMARK SMILES C#CCOC(=O)C[C@@H]1CC[C@H]2C(O/C([O-])=C\CC)=NC(=O)c3c(N=[N+]=[N-])cc(Cl)c1c32
REMARK SMILES IDX 8 1 30 2 28 3 29 4 27 5 23 6 22 7 31 8 11 9 12 10 19 11
REMARK SMILES IDX 20 12 21 13 10 14 9 15 7 16 5 17 6 18 4 19 3 20 2 21 1 22
REMARK SMILES IDX 24 23 25 24 26 25 13 26 14 27 15 28 16 29 17 30 18 31
REMARK H PARENT
ROOT
ATOM      1  C   UNL     1      42.135 134.860  16.490  1.00  0.00     0.032 C 
ATOM      2  C   UNL     1      42.999 134.432  17.680  1.00  0.00    -0.021 A 
ATOM      3  C   UNL     1      43.149 135.279  18.799  1.00  0.00     0.045 A 
ATOM      4  Cl  UNL     1      42.432 136.888  18.867  1.00  0.00    -0.084 Cl
ATOM      5  C   UNL     1      43.894 134.863  19.902  1.00  0.00     0.032 A 
ATOM      6  C   UNL     1      44.529 133.611  19.917  1.00  0.00     0.052 A 
ATOM      7  C   UNL     1      44.410 132.763  18.794  1.00  0.00     0.056 A 
ATOM      8  C   UNL     1      43.638 133.169  17.685  1.00  0.00    -0.020 A 
ATOM      9  C   UNL     1      43.474 132.269  16.476  1.00  0.00     0.077 C 
ATOM     10  C   UNL     1      44.417 131.085  16.437  1.00  0.00     0.091 C 
ATOM     11  N   UNL     1      45.118 130.740  17.475  1.00  0.00    -0.205 NA
ATOM     12  C   UNL     1      45.118 131.464  18.702  1.00  0.00     0.278 C 
ATOM     13  O   UNL     1      45.744 130.986  19.685  1.00  0.00    -0.267 OA
ATOM     14  C   UNL     1      43.615 133.129  15.216  1.00  0.00     0.016 C 
ATOM     15  C   UNL     1      42.476 134.152  15.138  1.00  0.00     0.010 C 
ENDROOT
BRANCH   1  16
ATOM     16  C   UNL     1      40.624 134.750  16.824  1.00  0.00     0.131 C 
BRANCH  16  17
ATOM     17  C   UNL     1      39.800 135.830  16.189  1.00  0.00     0.307 C 
ATOM     18  O   UNL     1      38.727 135.530  15.597  1.00  0.00    -0.252 OA
BRANCH  17  19
ATOM     19  O   UNL     1      40.241 137.154  16.232  1.00  0.00    -0.452 OA
BRANCH  19  20
ATOM     20  C   UNL     1      40.871 137.792  15.128  1.00  0.00     0.322 C 
BRANCH  20  21
ATOM     21  C   UNL     1      42.006 138.577  15.610  1.00  0.00    -0.065 C 
ATOM     22  C   UNL     1      42.940 139.229  16.004  1.00  0.00     0.007 C 
ENDBRANCH  20  21
ENDBRANCH  19  20
ENDBRANCH  17  19
ENDBRANCH  16  17
ENDBRANCH   1  16
BRANCH   6  23
ATOM     23  N   UNL     1      45.308 133.205  21.055  1.00  0.00    -0.060 NA
BRANCH  23  24
ATOM     24  N   UNL     1      45.210 133.746  22.157  1.00  0.00     0.005 N 
ATOM     25  N   UNL     1      45.112 134.288  23.257  1.00  0.00    -0.003 NA
ENDBRANCH  23  24
ENDBRANCH   6  23
BRANCH  10  26
ATOM     26  O   UNL     1      44.444 130.312  15.269  1.00  0.00    -0.567 OA
BRANCH  26  27
ATOM     27  C   UNL     1      45.310 129.241  15.010  1.00  0.00     0.053 C 
ATOM     28  O   UNL     1      45.076 127.981  15.549  1.00  0.00    -0.547 OA
BRANCH  27  29
ATOM     29  C   UNL     1      46.377 129.423  14.229  1.00  0.00    -0.003 C 
BRANCH  29  30
ATOM     30  C   UNL     1      46.433 130.486  13.165  1.00  0.00     0.026 C 
ATOM     31  C   UNL     1      47.755 131.250  13.203  1.00  0.00     0.008 C 
ENDBRANCH  29  30
ENDBRANCH  27  29
ENDBRANCH  26  27
ENDBRANCH  10  26
TORSDOF 11
ENDMDL
MODEL 7
REMARK VINA RESULT:      -6.6      2.572      6.713
REMARK SMILES C#CCOC(=O)C[C@@H]1CC[C@H]2C(O/C([O-])=C\CC)=NC(=O)c3c(N=[N+]=[N-])cc(Cl)c1c32
REMARK SMILES IDX 8 1 30 2 28 3 29 4 27 5 23 6 22 7 31 8 11 9 12 10 19 11
REMARK SMILES IDX 20 12 21 13 10 14 9 15 7 16 5 17 6 18 4 19 3 20 2 21 1 22
REMARK SMILES IDX 24 23 25 24 26 25 13 26 14 27 15 28 16 29 17 30 18 31
REMARK H PARENT
ROOT
ATOM      1  C   UNL     1      44.354 131.704  16.350  1.00  0.00     0.032 C 
ATOM      2  C   UNL     1      44.234 132.700  17.507  1.00  0.00    -0.021 A 
ATOM      3  C   UNL     1      44.708 132.365  18.794  1.00  0.00     0.045 A 
ATOM      4  Cl  UNL     1      45.381 130.780  19.169  1.00  0.00    -0.084 Cl
ATOM      5  C   UNL     1      44.644 133.296  19.832  1.00  0.00     0.032 A 
ATOM      6  C   UNL     1      44.090 134.569  19.629  1.00  0.00     0.052 A 
ATOM      7  C   UNL     1      43.588 134.910  18.353  1.00  0.00     0.056 A 
ATOM      8  C   UNL     1      43.671 133.981  17.294  1.00  0.00    -0.020 A 
ATOM      9  C   UNL     1      43.162 134.329  15.910  1.00  0.00     0.077 C 
ATOM     10  C   UNL     1      42.318 135.584  15.843  1.00  0.00     0.091 C 
ATOM     11  N   UNL     1      42.259 136.417  16.838  1.00  0.00    -0.205 NA
ATOM     12  C   UNL     1      42.915 136.203  18.085  1.00  0.00     0.278 C 
ATOM     13  O   UNL     1      42.889 137.121  18.947  1.00  0.00    -0.267 OA
ATOM     14  C   UNL     1      42.396 133.120  15.364  1.00  0.00     0.016 C 
ATOM     15  C   UNL     1      43.343 131.927  15.179  1.00  0.00     0.010 C 
ENDROOT
BRANCH   1  16
ATOM     16  C   UNL     1      45.813 131.616  15.833  1.00  0.00     0.131 C 
BRANCH  16  17
ATOM     17  C   UNL     1      46.325 130.208  15.748  1.00  0.00     0.307 C 
ATOM     18  O   UNL     1      45.569 129.248  16.061  1.00  0.00    -0.252 OA
BRANCH  17  19
ATOM     19  O   UNL     1      47.643 129.973  15.352  1.00  0.00    -0.452 OA
BRANCH  19  20
ATOM     20  C   UNL     1      47.977 129.310  14.139  1.00  0.00     0.322 C 
BRANCH  20  21
ATOM     21  C   UNL     1      47.416 130.055  13.014  1.00  0.00    -0.065 C 
ATOM     22  C   UNL     1      46.949 130.671  12.089  1.00  0.00     0.007 C 
ENDBRANCH  20  21
ENDBRANCH  19  20
ENDBRANCH  17  19
ENDBRANCH  16  17
ENDBRANCH   1  16
BRANCH   6  23
ATOM     23  N   UNL     1      44.016 135.510  20.713  1.00  0.00    -0.060 NA
BRANCH  23  24
ATOM     24  N   UNL     1      44.997 135.829  21.387  1.00  0.00     0.005 N 
ATOM     25  N   UNL     1      45.976 136.148  22.062  1.00  0.00    -0.003 NA
ENDBRANCH  23  24
ENDBRANCH   6  23
BRANCH  10  26
ATOM     26  O   UNL     1      41.669 135.870  14.634  1.00  0.00    -0.567 OA
BRANCH  26  27
ATOM     27  C   UNL     1      40.331 135.588  14.331  1.00  0.00     0.053 C 
ATOM     28  O   UNL     1      39.895 135.492  13.014  1.00  0.00    -0.547 OA
BRANCH  27  29
ATOM     29  C   UNL     1      39.452 135.400  15.319  1.00  0.00    -0.003 C 
BRANCH  29  30
ATOM     30  C   UNL     1      38.462 136.453  15.736  1.00  0.00     0.026 C 
ATOM     31  C   UNL     1      39.031 137.860  15.561  1.00  0.00     0.008 C 
ENDBRANCH  29  30
ENDBRANCH  27  29
ENDBRANCH  26  27
ENDBRANCH  10  26
TORSDOF 11
ENDMDL
MODEL 8
REMARK VINA RESULT:      -6.6      2.394      6.453
REMARK SMILES C#CCOC(=O)C[C@@H]1CC[C@H]2C(O/C([O-])=C\CC)=NC(=O)c3c(N=[N+]=[N-])cc(Cl)c1c32
REMARK SMILES IDX 8 1 30 2 28 3 29 4 27 5 23 6 22 7 31 8 11 9 12 10 19 11
REMARK SMILES IDX 20 12 21 13 10 14 9 15 7 16 5 17 6 18 4 19 3 20 2 21 1 22
REMARK SMILES IDX 24 23 25 24 26 25 13 26 14 27 15 28 16 29 17 30 18 31
REMARK H PARENT
ROOT
ATOM      1  C   UNL     1      44.464 131.596  16.306  1.00  0.00     0.032 C 
ATOM      2  C   UNL     1      44.351 132.582  17.472  1.00  0.00    -0.021 A 
ATOM      3  C   UNL     1      44.757 132.207  18.771  1.00  0.00     0.045 A 
ATOM      4  Cl  UNL     1      45.333 130.584  19.147  1.00  0.00    -0.084 Cl
ATOM      5  C   UNL     1      44.700 133.126  19.819  1.00  0.00     0.032 A 
ATOM      6  C   UNL     1      44.221 134.429  19.615  1.00  0.00     0.052 A 
ATOM      7  C   UNL     1      43.786 134.812  18.326  1.00  0.00     0.056 A 
ATOM      8  C   UNL     1      43.863 133.893  17.257  1.00  0.00    -0.020 A 
ATOM      9  C   UNL     1      43.426 134.284  15.860  1.00  0.00     0.077 C 
ATOM     10  C   UNL     1      42.650 135.582  15.780  1.00  0.00     0.091 C 
ATOM     11  N   UNL     1      42.596 136.405  16.784  1.00  0.00    -0.205 NA
ATOM     12  C   UNL     1      43.191 136.141  18.052  1.00  0.00     0.278 C 
ATOM     13  O   UNL     1      43.179 137.048  18.925  1.00  0.00    -0.267 OA
ATOM     14  C   UNL     1      42.621 133.124  15.267  1.00  0.00     0.016 C 
ATOM     15  C   UNL     1      43.512 131.886  15.101  1.00  0.00     0.010 C 
ENDROOT
BRANCH   1  16
ATOM     16  C   UNL     1      45.936 131.440  15.843  1.00  0.00     0.131 C 
BRANCH  16  17
ATOM     17  C   UNL     1      46.306 130.021  15.523  1.00  0.00     0.307 C 
ATOM     18  O   UNL     1      45.424 129.121  15.564  1.00  0.00    -0.252 OA
BRANCH  17  19
ATOM     19  O   UNL     1      47.630 129.704  15.212  1.00  0.00    -0.452 OA
BRANCH  19  20
ATOM     20  C   UNL     1      48.298 130.226  14.070  1.00  0.00     0.322 C 
BRANCH  20  21
ATOM     21  C   UNL     1      47.339 130.370  12.976  1.00  0.00    -0.065 C 
ATOM     22  C   UNL     1      46.544 130.490  12.078  1.00  0.00     0.007 C 
ENDBRANCH  20  21
ENDBRANCH  19  20
ENDBRANCH  17  19
ENDBRANCH  16  17
ENDBRANCH   1  16
BRANCH   6  23
ATOM     23  N   UNL     1      44.153 135.358  20.709  1.00  0.00    -0.060 NA
BRANCH  23  24
ATOM     24  N   UNL     1      43.717 135.049  21.820  1.00  0.00     0.005 N 
ATOM     25  N   UNL     1      43.281 134.740  22.928  1.00  0.00    -0.003 NA
ENDBRANCH  23  24
ENDBRANCH   6  23
BRANCH  10  26
ATOM     26  O   UNL     1      42.064 135.917  14.552  1.00  0.00    -0.567 OA
BRANCH  26  27
ATOM     27  C   UNL     1      40.690 135.989  14.288  1.00  0.00     0.053 C 
ATOM     28  O   UNL     1      39.923 137.054  14.748  1.00  0.00    -0.547 OA
BRANCH  27  29
ATOM     29  C   UNL     1      40.099 135.025  13.579  1.00  0.00    -0.003 C 
BRANCH  29  30
ATOM     30  C   UNL     1      38.808 134.378  14.003  1.00  0.00     0.026 C 
ATOM     31  C   UNL     1      38.882 133.868  15.441  1.00  0.00     0.008 C 
ENDBRANCH  29  30
ENDBRANCH  27  29
ENDBRANCH  26  27
ENDBRANCH  10  26
TORSDOF 11
ENDMDL
MODEL 9
REMARK VINA RESULT:      -6.5      2.093      2.637
REMARK SMILES C#CCOC(=O)C[C@@H]1CC[C@H]2C(O/C([O-])=C\CC)=NC(=O)c3c(N=[N+]=[N-])cc(Cl)c1c32
REMARK SMILES IDX 8 1 30 2 28 3 29 4 27 5 23 6 22 7 31 8 11 9 12 10 19 11
REMARK SMILES IDX 20 12 21 13 10 14 9 15 7 16 5 17 6 18 4 19 3 20 2 21 1 22
REMARK SMILES IDX 24 23 25 24 26 25 13 26 14 27 15 28 16 29 17 30 18 31
REMARK H PARENT
ROOT
ATOM      1  C   UNL     1      41.378 133.918  17.299  1.00  0.00     0.032 C 
ATOM      2  C   UNL     1      42.362 133.573  18.421  1.00  0.00    -0.021 A 
ATOM      3  C   UNL     1      42.279 134.221  19.672  1.00  0.00     0.045 A 
ATOM      4  Cl  UNL     1      41.115 135.505  19.994  1.00  0.00    -0.084 Cl
ATOM      5  C   UNL     1      43.144 133.866  20.707  1.00  0.00     0.032 A 
ATOM      6  C   UNL     1      44.125 132.879  20.525  1.00  0.00     0.052 A 
ATOM      7  C   UNL     1      44.237 132.239  19.270  1.00  0.00     0.056 A 
ATOM      8  C   UNL     1      43.350 132.578  18.227  1.00  0.00    -0.020 A 
ATOM      9  C   UNL     1      43.432 131.891  16.878  1.00  0.00     0.077 C 
ATOM     10  C   UNL     1      44.686 131.070  16.663  1.00  0.00     0.091 C 
ATOM     11  N   UNL     1      45.485 130.778  17.644  1.00  0.00    -0.205 NA
ATOM     12  C   UNL     1      45.300 131.248  18.977  1.00  0.00     0.278 C 
ATOM     13  O   UNL     1      46.066 130.820  19.880  1.00  0.00    -0.267 OA
ATOM     14  C   UNL     1      43.276 132.955  15.788  1.00  0.00     0.016 C 
ATOM     15  C   UNL     1      41.880 133.587  15.856  1.00  0.00     0.010 C 
ENDROOT
BRANCH   1  16
ATOM     16  C   UNL     1      39.980 133.304  17.569  1.00  0.00     0.131 C 
BRANCH  16  17
ATOM     17  C   UNL     1      38.867 134.304  17.464  1.00  0.00     0.307 C 
ATOM     18  O   UNL     1      37.670 133.921  17.576  1.00  0.00    -0.252 OA
BRANCH  17  19
ATOM     19  O   UNL     1      39.162 135.646  17.215  1.00  0.00    -0.452 OA
BRANCH  19  20
ATOM     20  C   UNL     1      38.248 136.700  17.490  1.00  0.00     0.322 C 
BRANCH  20  21
ATOM     21  C   UNL     1      38.955 137.978  17.426  1.00  0.00    -0.065 C 
ATOM     22  C   UNL     1      39.538 139.032  17.380  1.00  0.00     0.007 C 
ENDBRANCH  20  21
ENDBRANCH  19  20
ENDBRANCH  17  19
ENDBRANCH  16  17
ENDBRANCH   1  16
BRANCH   6  23
ATOM     23  N   UNL     1      45.020 132.537  21.596  1.00  0.00    -0.060 NA
BRANCH  23  24
ATOM     24  N   UNL     1      45.629 133.384  22.252  1.00  0.00     0.005 N 
ATOM     25  N   UNL     1      46.237 134.231  22.906  1.00  0.00    -0.003 NA
ENDBRANCH  23  24
ENDBRANCH   6  23
BRANCH  10  26
ATOM     26  O   UNL     1      44.914 130.552  15.380  1.00  0.00    -0.567 OA
BRANCH  26  27
ATOM     27  C   UNL     1      45.790 131.079  14.423  1.00  0.00     0.053 C 
ATOM     28  O   UNL     1      46.595 132.176  14.711  1.00  0.00    -0.547 OA
BRANCH  27  29
ATOM     29  C   UNL     1      45.865 130.521  13.213  1.00  0.00    -0.003 C 
BRANCH  29  30
ATOM     30  C   UNL     1      47.163 130.369  12.467  1.00  0.00     0.026 C 
ATOM     31  C   UNL     1      48.180 129.558  13.268  1.00  0.00     0.008 C 
ENDBRANCH  29  30
ENDBRANCH  27  29
ENDBRANCH  26  27
ENDBRANCH  10  26
TORSDOF 11
ENDMDL


