MODEL 1
REMARK VINA RESULT:      -5.9      0.000      0.000
REMARK SMILES C[N+]1(C)Cc2cc3ccc(-n4cc(CCN5C[C@H](CN=[N+]=[N-])CN5C(=O)c5ccc(N)cc5)n[nH+]4)cc3cc2C1
REMARK SMILES IDX 24 1 16 2 17 3 18 4 23 5 25 6 26 7 27 8 28 9 29 10 30 11
REMARK SMILES IDX 33 12 32 13 31 14 15 17 14 18 13 19 34 20 12 21 35 22 11 23
REMARK SMILES IDX 10 25 9 26 36 27 8 28 37 29 7 30 38 31 6 32 39 33 5 34 40 35
REMARK SMILES IDX 4 36 2 37 1 38 3 39 19 40 20 41 21 42 22 43
REMARK H PARENT 31 15 31 16 35 24
ROOT
ATOM      1  N   UNL     1      45.964 136.096  22.379  1.00  0.00    -0.271 N 
ATOM      2  N   UNL     1      44.765 136.625  21.865  1.00  0.00    -0.218 NA
ATOM      3  C   UNL     1      45.185 137.829  21.129  1.00  0.00     0.114 C 
ATOM      4  C   UNL     1      46.536 138.266  21.706  1.00  0.00     0.032 C 
ATOM      5  C   UNL     1      47.110 136.982  22.286  1.00  0.00     0.145 C 
ENDROOT
BRANCH   1   6
ATOM      6  C   UNL     1      46.080 134.737  22.837  1.00  0.00     0.268 C 
ATOM      7  O   UNL     1      47.027 134.422  23.610  1.00  0.00    -0.268 OA
BRANCH   6   8
ATOM      8  C   UNL     1      45.098 133.701  22.444  1.00  0.00     0.041 A 
ATOM      9  C   UNL     1      43.997 133.430  23.274  1.00  0.00     0.016 A 
ATOM     10  C   UNL     1      43.055 132.464  22.908  1.00  0.00     0.026 A 
ATOM     11  C   UNL     1      43.206 131.749  21.711  1.00  0.00     0.031 A 
ATOM     12  C   UNL     1      45.258 132.964  21.258  1.00  0.00     0.016 A 
ATOM     13  C   UNL     1      44.313 132.001  20.891  1.00  0.00     0.026 A 
BRANCH  11  14
ATOM     14  N   UNL     1      42.239 130.766  21.335  1.00  0.00    -0.399 N 
ATOM     15  H   UNL     1      41.970 130.637  20.334  1.00  0.00     0.156 HD
ATOM     16  H   UNL     1      41.783 130.160  22.054  1.00  0.00     0.156 HD
ENDBRANCH  11  14
ENDBRANCH   6   8
ENDBRANCH   1   6
BRANCH   2  17
ATOM     17  C   UNL     1      43.853 136.946  22.988  1.00  0.00     0.115 C 
BRANCH  17  18
ATOM     18  C   UNL     1      42.393 136.892  22.524  1.00  0.00     0.082 C 
BRANCH  18  19
ATOM     19  C   UNL     1      42.280 136.618  21.057  1.00  0.00     0.134 A 
ATOM     20  N   UNL     1      41.987 137.545  20.126  1.00  0.00     0.020 NA
ATOM     21  C   UNL     1      42.551 135.424  20.419  1.00  0.00     0.190 A 
ATOM     22  N   UNL     1      42.069 136.930  18.956  1.00  0.00    -0.012 N 
ATOM     23  N   UNL     1      42.413 135.657  19.100  1.00  0.00    -0.104 N 
ATOM     24  H   UNL     1      41.871 137.404  18.047  1.00  0.00     0.527 HD
BRANCH  23  25
ATOM     25  C   UNL     1      42.640 134.722  18.023  1.00  0.00     0.107 A 
ATOM     26  C   UNL     1      41.601 134.389  17.133  1.00  0.00     0.033 A 
ATOM     27  C   UNL     1      43.910 134.145  17.833  1.00  0.00     0.041 A 
ATOM     28  C   UNL     1      41.817 133.496  16.081  1.00  0.00     0.011 A 
ATOM     29  C   UNL     1      44.143 133.257  16.774  1.00  0.00    -0.016 A 
ATOM     30  C   UNL     1      43.082 132.925  15.887  1.00  0.00    -0.018 A 
ATOM     31  C   UNL     1      45.418 132.690  16.580  1.00  0.00     0.019 A 
ATOM     32  C   UNL     1      43.309 132.030  14.823  1.00  0.00     0.018 A 
ATOM     33  C   UNL     1      45.608 131.817  15.507  1.00  0.00     0.016 A 
ATOM     34  C   UNL     1      44.589 131.498  14.661  1.00  0.00     0.016 A 
ATOM     35  C   UNL     1      46.845 131.103  15.124  1.00  0.00     0.301 C 
ATOM     36  C   UNL     1      45.050 130.537  13.635  1.00  0.00     0.301 C 
ATOM     37  N   UNL     1      46.531 130.420  13.829  1.00  0.00    -0.321 N 
ATOM     38  C   UNL     1      46.943 128.998  13.874  1.00  0.00     0.334 C 
ATOM     39  C   UNL     1      47.243 131.093  12.716  1.00  0.00     0.334 C 
ENDBRANCH  23  25
ENDBRANCH  18  19
ENDBRANCH  17  18
ENDBRANCH   2  17
BRANCH   4  40
ATOM     40  C   UNL     1      47.439 138.923  20.654  1.00  0.00     0.097 C 
BRANCH  40  41
ATOM     41  N   UNL     1      47.505 138.088  19.462  1.00  0.00    -0.094 NA
BRANCH  41  42
ATOM     42  N   UNL     1      48.468 138.160  18.700  1.00  0.00     0.001 N 
ATOM     43  N   UNL     1      49.433 138.233  17.938  1.00  0.00    -0.003 NA
ENDBRANCH  41  42
ENDBRANCH  40  41
ENDBRANCH   4  40
TORSDOF 10
ENDMDL
MODEL 2
REMARK VINA RESULT:      -5.6      2.207      2.772
REMARK SMILES C[N+]1(C)Cc2cc3ccc(-n4cc(CCN5C[C@H](CN=[N+]=[N-])CN5C(=O)c5ccc(N)cc5)n[nH+]4)cc3cc2C1
REMARK SMILES IDX 24 1 16 2 17 3 18 4 23 5 25 6 26 7 27 8 28 9 29 10 30 11
REMARK SMILES IDX 33 12 32 13 31 14 15 17 14 18 13 19 34 20 12 21 35 22 11 23
REMARK SMILES IDX 10 25 9 26 36 27 8 28 37 29 7 30 38 31 6 32 39 33 5 34 40 35
REMARK SMILES IDX 4 36 2 37 1 38 3 39 19 40 20 41 21 42 22 43
REMARK H PARENT 31 15 31 16 35 24
ROOT
ATOM      1  N   UNL     1      42.718 134.397  22.890  1.00  0.00    -0.271 N 
ATOM      2  N   UNL     1      42.182 135.576  22.336  1.00  0.00    -0.218 NA
ATOM      3  C   UNL     1      43.067 136.645  22.832  1.00  0.00     0.114 C 
ATOM      4  C   UNL     1      43.748 136.119  24.101  1.00  0.00     0.032 C 
ATOM      5  C   UNL     1      43.712 134.607  23.927  1.00  0.00     0.145 C 
ENDROOT
BRANCH   1   6
ATOM      6  C   UNL     1      42.408 133.089  22.377  1.00  0.00     0.268 C 
ATOM      7  O   UNL     1      41.332 132.527  22.723  1.00  0.00    -0.268 OA
BRANCH   6   8
ATOM      8  C   UNL     1      43.311 132.394  21.431  1.00  0.00     0.041 A 
ATOM      9  C   UNL     1      44.701 132.442  21.629  1.00  0.00     0.016 A 
ATOM     10  C   UNL     1      45.564 131.781  20.751  1.00  0.00     0.026 A 
ATOM     11  C   UNL     1      45.050 131.070  19.657  1.00  0.00     0.031 A 
ATOM     12  C   UNL     1      42.802 131.702  20.319  1.00  0.00     0.016 A 
ATOM     13  C   UNL     1      43.666 131.037  19.444  1.00  0.00     0.026 A 
BRANCH  11  14
ATOM     14  N   UNL     1      45.933 130.389  18.763  1.00  0.00    -0.399 N 
ATOM     15  H   UNL     1      45.563 129.892  17.922  1.00  0.00     0.156 HD
ATOM     16  H   UNL     1      46.963 130.373  18.936  1.00  0.00     0.156 HD
ENDBRANCH  11  14
ENDBRANCH   6   8
ENDBRANCH   1   6
BRANCH   2  17
ATOM     17  C   UNL     1      40.786 135.744  22.806  1.00  0.00     0.115 C 
BRANCH  17  18
ATOM     18  C   UNL     1      39.935 136.419  21.724  1.00  0.00     0.082 C 
BRANCH  18  19
ATOM     19  C   UNL     1      40.537 136.270  20.362  1.00  0.00     0.134 A 
ATOM     20  N   UNL     1      41.082 137.276  19.652  1.00  0.00     0.020 NA
ATOM     21  C   UNL     1      40.724 135.091  19.669  1.00  0.00     0.190 A 
ATOM     22  N   UNL     1      41.577 136.725  18.554  1.00  0.00    -0.012 N 
ATOM     23  N   UNL     1      41.384 135.412  18.540  1.00  0.00    -0.104 N 
ATOM     24  H   UNL     1      42.045 137.275  17.800  1.00  0.00     0.527 HD
BRANCH  23  25
ATOM     25  C   UNL     1      41.846 134.508  17.514  1.00  0.00     0.107 A 
ATOM     26  C   UNL     1      40.990 134.110  16.470  1.00  0.00     0.033 A 
ATOM     27  C   UNL     1      43.169 134.025  17.532  1.00  0.00     0.041 A 
ATOM     28  C   UNL     1      41.435 133.245  15.467  1.00  0.00     0.011 A 
ATOM     29  C   UNL     1      43.631 133.166  16.524  1.00  0.00    -0.016 A 
ATOM     30  C   UNL     1      42.752 132.769  15.480  1.00  0.00    -0.018 A 
ATOM     31  C   UNL     1      44.959 132.694  16.538  1.00  0.00     0.019 A 
ATOM     32  C   UNL     1      43.211 131.902  14.467  1.00  0.00     0.018 A 
ATOM     33  C   UNL     1      45.380 131.847  15.511  1.00  0.00     0.016 A 
ATOM     34  C   UNL     1      44.536 131.465  14.513  1.00  0.00     0.016 A 
ATOM     35  C   UNL     1      46.711 131.228  15.332  1.00  0.00     0.301 C 
ATOM     36  C   UNL     1      45.222 130.550  13.575  1.00  0.00     0.301 C 
ATOM     37  N   UNL     1      46.658 130.537  14.004  1.00  0.00    -0.321 N 
ATOM     38  C   UNL     1      47.159 129.148  14.117  1.00  0.00     0.334 C 
ATOM     39  C   UNL     1      47.488 131.270  13.018  1.00  0.00     0.334 C 
ENDBRANCH  23  25
ENDBRANCH  18  19
ENDBRANCH  17  18
ENDBRANCH   2  17
BRANCH   4  40
ATOM     40  C   UNL     1      45.163 136.682  24.284  1.00  0.00     0.097 C 
BRANCH  40  41
ATOM     41  N   UNL     1      45.693 137.126  23.002  1.00  0.00    -0.094 NA
BRANCH  41  42
ATOM     42  N   UNL     1      45.907 136.317  22.099  1.00  0.00     0.001 N 
ATOM     43  N   UNL     1      46.123 135.506  21.198  1.00  0.00    -0.003 NA
ENDBRANCH  41  42
ENDBRANCH  40  41
ENDBRANCH   4  40
TORSDOF 10
ENDMDL
MODEL 3
REMARK VINA RESULT:      -4.9      2.824      3.489
REMARK SMILES C[N+]1(C)Cc2cc3ccc(-n4cc(CCN5C[C@H](CN=[N+]=[N-])CN5C(=O)c5ccc(N)cc5)n[nH+]4)cc3cc2C1
REMARK SMILES IDX 24 1 16 2 17 3 18 4 23 5 25 6 26 7 27 8 28 9 29 10 30 11
REMARK SMILES IDX 33 12 32 13 31 14 15 17 14 18 13 19 34 20 12 21 35 22 11 23
REMARK SMILES IDX 10 25 9 26 36 27 8 28 37 29 7 30 38 31 6 32 39 33 5 34 40 35
REMARK SMILES IDX 4 36 2 37 1 38 3 39 19 40 20 41 21 42 22 43
REMARK H PARENT 31 15 31 16 35 24
ROOT
ATOM      1  N   UNL     1      42.974 138.366  23.153  1.00  0.00    -0.271 N 
ATOM      2  N   UNL     1      43.173 138.320  21.759  1.00  0.00    -0.218 NA
ATOM      3  C   UNL     1      44.613 138.053  21.607  1.00  0.00     0.114 C 
ATOM      4  C   UNL     1      45.299 138.506  22.901  1.00  0.00     0.032 C 
ATOM      5  C   UNL     1      44.191 138.425  23.941  1.00  0.00     0.145 C 
ENDROOT
BRANCH   1   6
ATOM      6  C   UNL     1      41.674 138.226  23.756  1.00  0.00     0.268 C 
ATOM      7  O   UNL     1      41.299 139.067  24.619  1.00  0.00    -0.268 OA
BRANCH   6   8
ATOM      8  C   UNL     1      40.755 137.132  23.368  1.00  0.00     0.041 A 
ATOM      9  C   UNL     1      40.992 136.403  22.191  1.00  0.00     0.016 A 
ATOM     10  C   UNL     1      40.140 135.359  21.821  1.00  0.00     0.026 A 
ATOM     11  C   UNL     1      39.031 135.037  22.617  1.00  0.00     0.031 A 
ATOM     12  C   UNL     1      39.628 136.822  24.149  1.00  0.00     0.016 A 
ATOM     13  C   UNL     1      38.778 135.775  23.779  1.00  0.00     0.026 A 
BRANCH  11  14
ATOM     14  N   UNL     1      38.163 133.966  22.240  1.00  0.00    -0.399 N 
ATOM     15  H   UNL     1      38.054 133.694  21.237  1.00  0.00     0.156 HD
ATOM     16  H   UNL     1      37.620 133.437  22.960  1.00  0.00     0.156 HD
ENDBRANCH  11  14
ENDBRANCH   6   8
ENDBRANCH   1   6
BRANCH   2  17
ATOM     17  C   UNL     1      42.781 139.622  21.169  1.00  0.00     0.115 C 
BRANCH  17  18
ATOM     18  C   UNL     1      41.642 139.431  20.160  1.00  0.00     0.082 C 
BRANCH  18  19
ATOM     19  C   UNL     1      42.106 138.740  18.916  1.00  0.00     0.134 A 
ATOM     20  N   UNL     1      42.895 139.299  17.979  1.00  0.00     0.020 NA
ATOM     21  C   UNL     1      41.893 137.418  18.581  1.00  0.00     0.190 A 
ATOM     22  N   UNL     1      43.147 138.346  17.095  1.00  0.00    -0.012 N 
ATOM     23  N   UNL     1      42.565 137.202  17.433  1.00  0.00    -0.104 N 
ATOM     24  H   UNL     1      43.724 138.500  16.238  1.00  0.00     0.527 HD
BRANCH  23  25
ATOM     25  C   UNL     1      42.682 135.956  16.714  1.00  0.00     0.107 A 
ATOM     26  C   UNL     1      41.586 135.432  16.005  1.00  0.00     0.033 A 
ATOM     27  C   UNL     1      43.904 135.256  16.694  1.00  0.00     0.041 A 
ATOM     28  C   UNL     1      41.696 134.234  15.296  1.00  0.00     0.011 A 
ATOM     29  C   UNL     1      44.031 134.058  15.976  1.00  0.00    -0.016 A 
ATOM     30  C   UNL     1      42.912 133.538  15.270  1.00  0.00    -0.018 A 
ATOM     31  C   UNL     1      45.258 133.365  15.949  1.00  0.00     0.019 A 
ATOM     32  C   UNL     1      43.034 132.332  14.551  1.00  0.00     0.018 A 
ATOM     33  C   UNL     1      45.343 132.181  15.215  1.00  0.00     0.016 A 
ATOM     34  C   UNL     1      44.269 131.683  14.542  1.00  0.00     0.016 A 
ATOM     35  C   UNL     1      46.513 131.291  15.057  1.00  0.00     0.301 C 
ATOM     36  C   UNL     1      44.620 130.410  13.874  1.00  0.00     0.301 C 
ATOM     37  N   UNL     1      46.098 130.251  14.062  1.00  0.00    -0.321 N 
ATOM     38  C   UNL     1      46.421 128.894  14.558  1.00  0.00     0.334 C 
ATOM     39  C   UNL     1      46.799 130.474  12.775  1.00  0.00     0.334 C 
ENDBRANCH  23  25
ENDBRANCH  18  19
ENDBRANCH  17  18
ENDBRANCH   2  17
BRANCH   4  40
ATOM     40  C   UNL     1      46.527 137.653  23.245  1.00  0.00     0.097 C 
BRANCH  40  41
ATOM     41  N   UNL     1      46.526 136.434  22.448  1.00  0.00    -0.094 NA
BRANCH  41  42
ATOM     42  N   UNL     1      47.488 136.152  21.734  1.00  0.00     0.001 N 
ATOM     43  N   UNL     1      48.451 135.870  21.021  1.00  0.00    -0.003 NA
ENDBRANCH  41  42
ENDBRANCH  40  41
ENDBRANCH   4  40
TORSDOF 10
ENDMDL
MODEL 4
REMARK VINA RESULT:      -4.8      1.902      2.267
REMARK SMILES C[N+]1(C)Cc2cc3ccc(-n4cc(CCN5C[C@H](CN=[N+]=[N-])CN5C(=O)c5ccc(N)cc5)n[nH+]4)cc3cc2C1
REMARK SMILES IDX 24 1 16 2 17 3 18 4 23 5 25 6 26 7 27 8 28 9 29 10 30 11
REMARK SMILES IDX 33 12 32 13 31 14 15 17 14 18 13 19 34 20 12 21 35 22 11 23
REMARK SMILES IDX 10 25 9 26 36 27 8 28 37 29 7 30 38 31 6 32 39 33 5 34 40 35
REMARK SMILES IDX 4 36 2 37 1 38 3 39 19 40 20 41 21 42 22 43
REMARK H PARENT 31 15 31 16 35 24
ROOT
ATOM      1  N   UNL     1      44.767 135.980  22.739  1.00  0.00    -0.271 N 
ATOM      2  N   UNL     1      44.491 137.172  22.041  1.00  0.00    -0.218 NA
ATOM      3  C   UNL     1      45.617 138.059  22.379  1.00  0.00     0.114 C 
ATOM      4  C   UNL     1      46.213 137.554  23.697  1.00  0.00     0.032 C 
ATOM      5  C   UNL     1      45.826 136.082  23.726  1.00  0.00     0.145 C 
ENDROOT
BRANCH   1   6
ATOM      6  C   UNL     1      44.144 134.725  22.408  1.00  0.00     0.268 C 
ATOM      7  O   UNL     1      44.769 133.894  21.694  1.00  0.00    -0.268 OA
BRANCH   6   8
ATOM      8  C   UNL     1      42.795 134.375  22.909  1.00  0.00     0.041 A 
ATOM      9  C   UNL     1      42.661 133.537  24.029  1.00  0.00     0.016 A 
ATOM     10  C   UNL     1      41.394 133.209  24.519  1.00  0.00     0.026 A 
ATOM     11  C   UNL     1      40.243 133.706  23.891  1.00  0.00     0.031 A 
ATOM     12  C   UNL     1      41.639 134.849  22.267  1.00  0.00     0.016 A 
ATOM     13  C   UNL     1      40.372 134.523  22.761  1.00  0.00     0.026 A 
BRANCH  11  14
ATOM     14  N   UNL     1      38.948 133.374  24.396  1.00  0.00    -0.399 N 
ATOM     15  H   UNL     1      38.193 134.095  24.447  1.00  0.00     0.156 HD
ATOM     16  H   UNL     1      38.733 132.406  24.727  1.00  0.00     0.156 HD
ENDBRANCH  11  14
ENDBRANCH   6   8
ENDBRANCH   1   6
BRANCH   2  17
ATOM     17  C   UNL     1      43.192 137.716  22.501  1.00  0.00     0.115 C 
BRANCH  17  18
ATOM     18  C   UNL     1      42.658 138.746  21.499  1.00  0.00     0.082 C 
BRANCH  18  19
ATOM     19  C   UNL     1      42.627 138.206  20.103  1.00  0.00     0.134 A 
ATOM     20  N   UNL     1      42.719 138.958  18.990  1.00  0.00     0.020 NA
ATOM     21  C   UNL     1      42.606 136.876  19.735  1.00  0.00     0.190 A 
ATOM     22  N   UNL     1      42.743 138.109  17.974  1.00  0.00    -0.012 N 
ATOM     23  N   UNL     1      42.684 136.851  18.390  1.00  0.00    -0.104 N 
ATOM     24  H   UNL     1      42.788 138.414  16.976  1.00  0.00     0.527 HD
BRANCH  23  25
ATOM     25  C   UNL     1      42.743 135.683  17.543  1.00  0.00     0.107 A 
ATOM     26  C   UNL     1      41.576 135.173  16.945  1.00  0.00     0.033 A 
ATOM     27  C   UNL     1      43.974 135.049  17.286  1.00  0.00     0.041 A 
ATOM     28  C   UNL     1      41.627 134.051  16.114  1.00  0.00     0.011 A 
ATOM     29  C   UNL     1      44.040 133.930  16.444  1.00  0.00    -0.016 A 
ATOM     30  C   UNL     1      42.851 133.422  15.852  1.00  0.00    -0.018 A 
ATOM     31  C   UNL     1      45.275 133.304  16.179  1.00  0.00     0.019 A 
ATOM     32  C   UNL     1      42.913 132.295  15.008  1.00  0.00     0.018 A 
ATOM     33  C   UNL     1      45.297 132.198  15.329  1.00  0.00     0.016 A 
ATOM     34  C   UNL     1      44.156 131.711  14.765  1.00  0.00     0.016 A 
ATOM     35  C   UNL     1      46.464 131.385  14.924  1.00  0.00     0.301 C 
ATOM     36  C   UNL     1      44.455 130.524  13.934  1.00  0.00     0.301 C 
ATOM     37  N   UNL     1      45.949 130.422  13.899  1.00  0.00    -0.321 N 
ATOM     38  C   UNL     1      46.388 129.043  14.210  1.00  0.00     0.334 C 
ATOM     39  C   UNL     1      46.452 130.796  12.555  1.00  0.00     0.334 C 
ENDBRANCH  23  25
ENDBRANCH  18  19
ENDBRANCH  17  18
ENDBRANCH   2  17
BRANCH   4  40
ATOM     40  C   UNL     1      47.727 137.791  23.786  1.00  0.00     0.097 C 
BRANCH  40  41
ATOM     41  N   UNL     1      48.277 138.008  22.455  1.00  0.00    -0.094 NA
BRANCH  41  42
ATOM     42  N   UNL     1      49.188 137.298  22.031  1.00  0.00     0.001 N 
ATOM     43  N   UNL     1      50.100 136.588  21.608  1.00  0.00    -0.003 NA
ENDBRANCH  41  42
ENDBRANCH  40  41
ENDBRANCH   4  40
TORSDOF 10
ENDMDL
MODEL 5
REMARK VINA RESULT:      -4.5      3.163      5.618
REMARK SMILES C[N+]1(C)Cc2cc3ccc(-n4cc(CCN5C[C@H](CN=[N+]=[N-])CN5C(=O)c5ccc(N)cc5)n[nH+]4)cc3cc2C1
REMARK SMILES IDX 24 1 16 2 17 3 18 4 23 5 25 6 26 7 27 8 28 9 29 10 30 11
REMARK SMILES IDX 33 12 32 13 31 14 15 17 14 18 13 19 34 20 12 21 35 22 11 23
REMARK SMILES IDX 10 25 9 26 36 27 8 28 37 29 7 30 38 31 6 32 39 33 5 34 40 35
REMARK SMILES IDX 4 36 2 37 1 38 3 39 19 40 20 41 21 42 22 43
REMARK H PARENT 31 15 31 16 35 24
ROOT
ATOM      1  N   UNL     1      40.004 137.280  21.583  1.00  0.00    -0.271 N 
ATOM      2  N   UNL     1      40.259 136.001  22.113  1.00  0.00    -0.218 NA
ATOM      3  C   UNL     1      38.930 135.497  22.499  1.00  0.00     0.114 C 
ATOM      4  C   UNL     1      38.021 136.716  22.695  1.00  0.00     0.032 C 
ATOM      5  C   UNL     1      38.667 137.787  21.829  1.00  0.00     0.145 C 
ENDROOT
BRANCH   1   6
ATOM      6  C   UNL     1      40.947 137.976  20.747  1.00  0.00     0.268 C 
ATOM      7  O   UNL     1      41.186 139.195  20.965  1.00  0.00    -0.268 OA
BRANCH   6   8
ATOM      8  C   UNL     1      41.665 137.286  19.650  1.00  0.00     0.041 A 
ATOM      9  C   UNL     1      43.029 137.545  19.435  1.00  0.00     0.016 A 
ATOM     10  C   UNL     1      43.721 136.891  18.412  1.00  0.00     0.026 A 
ATOM     11  C   UNL     1      43.056 135.976  17.583  1.00  0.00     0.031 A 
ATOM     12  C   UNL     1      40.997 136.387  18.801  1.00  0.00     0.016 A 
ATOM     13  C   UNL     1      41.692 135.731  17.780  1.00  0.00     0.026 A 
BRANCH  11  14
ATOM     14  N   UNL     1      43.766 135.303  16.541  1.00  0.00    -0.399 N 
ATOM     15  H   UNL     1      43.340 135.184  15.594  1.00  0.00     0.156 HD
ATOM     16  H   UNL     1      44.723 134.916  16.707  1.00  0.00     0.156 HD
ENDBRANCH  11  14
ENDBRANCH   6   8
ENDBRANCH   1   6
BRANCH   2  17
ATOM     17  C   UNL     1      41.168 136.128  23.277  1.00  0.00     0.115 C 
BRANCH  17  18
ATOM     18  C   UNL     1      42.567 135.613  22.922  1.00  0.00     0.082 C 
BRANCH  18  19
ATOM     19  C   UNL     1      42.514 134.409  22.035  1.00  0.00     0.134 A 
ATOM     20  N   UNL     1      41.830 133.283  22.315  1.00  0.00     0.020 NA
ATOM     21  C   UNL     1      43.055 134.292  20.771  1.00  0.00     0.190 A 
ATOM     22  N   UNL     1      41.961 132.501  21.254  1.00  0.00    -0.012 N 
ATOM     23  N   UNL     1      42.685 133.083  20.307  1.00  0.00    -0.104 N 
ATOM     24  H   UNL     1      41.548 131.543  21.196  1.00  0.00     0.527 HD
BRANCH  23  25
ATOM     25  C   UNL     1      42.971 132.524  19.007  1.00  0.00     0.107 A 
ATOM     26  C   UNL     1      41.933 132.272  18.091  1.00  0.00     0.033 A 
ATOM     27  C   UNL     1      44.298 132.242  18.627  1.00  0.00     0.041 A 
ATOM     28  C   UNL     1      42.204 131.744  16.826  1.00  0.00     0.011 A 
ATOM     29  C   UNL     1      44.584 131.723  17.357  1.00  0.00    -0.016 A 
ATOM     30  C   UNL     1      43.523 131.468  16.445  1.00  0.00    -0.018 A 
ATOM     31  C   UNL     1      45.913 131.452  16.975  1.00  0.00     0.019 A 
ATOM     32  C   UNL     1      43.805 130.943  15.168  1.00  0.00     0.018 A 
ATOM     33  C   UNL     1      46.154 130.944  15.697  1.00  0.00     0.016 A 
ATOM     34  C   UNL     1      45.136 130.697  14.827  1.00  0.00     0.016 A 
ATOM     35  C   UNL     1      47.454 130.578  15.095  1.00  0.00     0.301 C 
ATOM     36  C   UNL     1      45.660 130.139  13.561  1.00  0.00     0.301 C 
ATOM     37  N   UNL     1      47.152 130.225  13.670  1.00  0.00    -0.321 N 
ATOM     38  C   UNL     1      47.780 128.935  13.308  1.00  0.00     0.334 C 
ATOM     39  C   UNL     1      47.667 131.283  12.767  1.00  0.00     0.334 C 
ENDBRANCH  23  25
ENDBRANCH  18  19
ENDBRANCH  17  18
ENDBRANCH   2  17
BRANCH   4  40
ATOM     40  C   UNL     1      36.561 136.425  22.325  1.00  0.00     0.097 C 
BRANCH  40  41
ATOM     41  N   UNL     1      36.505 135.581  21.139  1.00  0.00    -0.094 NA
BRANCH  41  42
ATOM     42  N   UNL     1      36.963 135.976  20.067  1.00  0.00     0.001 N 
ATOM     43  N   UNL     1      37.423 136.372  18.996  1.00  0.00    -0.003 NA
ENDBRANCH  41  42
ENDBRANCH  40  41
ENDBRANCH   4  40
TORSDOF 10
ENDMDL
MODEL 6
REMARK VINA RESULT:      -4.4      3.605      6.245
REMARK SMILES C[N+]1(C)Cc2cc3ccc(-n4cc(CCN5C[C@H](CN=[N+]=[N-])CN5C(=O)c5ccc(N)cc5)n[nH+]4)cc3cc2C1
REMARK SMILES IDX 24 1 16 2 17 3 18 4 23 5 25 6 26 7 27 8 28 9 29 10 30 11
REMARK SMILES IDX 33 12 32 13 31 14 15 17 14 18 13 19 34 20 12 21 35 22 11 23
REMARK SMILES IDX 10 25 9 26 36 27 8 28 37 29 7 30 38 31 6 32 39 33 5 34 40 35
REMARK SMILES IDX 4 36 2 37 1 38 3 39 19 40 20 41 21 42 22 43
REMARK H PARENT 31 15 31 16 35 24
ROOT
ATOM      1  N   UNL     1      44.623 134.481  22.684  1.00  0.00    -0.271 N 
ATOM      2  N   UNL     1      45.795 134.731  21.944  1.00  0.00    -0.218 NA
ATOM      3  C   UNL     1      46.183 133.409  21.422  1.00  0.00     0.114 C 
ATOM      4  C   UNL     1      45.544 132.355  22.333  1.00  0.00     0.032 C 
ATOM      5  C   UNL     1      44.345 133.078  22.931  1.00  0.00     0.145 C 
ENDROOT
BRANCH   1   6
ATOM      6  C   UNL     1      43.700 135.523  23.050  1.00  0.00     0.268 C 
ATOM      7  O   UNL     1      43.765 136.031  24.203  1.00  0.00    -0.268 OA
BRANCH   6   8
ATOM      8  C   UNL     1      42.689 136.032  22.095  1.00  0.00     0.041 A 
ATOM      9  C   UNL     1      42.601 137.411  21.839  1.00  0.00     0.016 A 
ATOM     10  C   UNL     1      41.660 137.904  20.930  1.00  0.00     0.026 A 
ATOM     11  C   UNL     1      40.788 137.025  20.271  1.00  0.00     0.031 A 
ATOM     12  C   UNL     1      41.796 135.159  21.451  1.00  0.00     0.016 A 
ATOM     13  C   UNL     1      40.859 135.653  20.539  1.00  0.00     0.026 A 
BRANCH  11  14
ATOM     14  N   UNL     1      39.831 137.530  19.338  1.00  0.00    -0.399 N 
ATOM     15  H   UNL     1      39.865 137.247  18.332  1.00  0.00     0.156 HD
ATOM     16  H   UNL     1      39.081 138.191  19.643  1.00  0.00     0.156 HD
ENDBRANCH  11  14
ENDBRANCH   6   8
ENDBRANCH   1   6
BRANCH   2  17
ATOM     17  C   UNL     1      46.826 135.302  22.842  1.00  0.00     0.115 C 
BRANCH  17  18
ATOM     18  C   UNL     1      47.932 135.980  22.026  1.00  0.00     0.082 C 
BRANCH  18  19
ATOM     19  C   UNL     1      47.377 136.820  20.918  1.00  0.00     0.134 A 
ATOM     20  N   UNL     1      48.117 137.594  20.101  1.00  0.00     0.020 NA
ATOM     21  C   UNL     1      46.065 136.859  20.493  1.00  0.00     0.190 A 
ATOM     22  N   UNL     1      47.275 138.097  19.211  1.00  0.00    -0.012 N 
ATOM     23  N   UNL     1      46.036 137.668  19.416  1.00  0.00    -0.104 N 
ATOM     24  H   UNL     1      47.569 138.759  18.458  1.00  0.00     0.527 HD
BRANCH  23  25
ATOM     25  C   UNL     1      44.892 137.985  18.595  1.00  0.00     0.107 A 
ATOM     26  C   UNL     1      44.636 139.313  18.204  1.00  0.00     0.033 A 
ATOM     27  C   UNL     1      44.025 136.966  18.155  1.00  0.00     0.041 A 
ATOM     28  C   UNL     1      43.538 139.625  17.399  1.00  0.00     0.011 A 
ATOM     29  C   UNL     1      42.926 137.265  17.337  1.00  0.00    -0.016 A 
ATOM     30  C   UNL     1      42.678 138.612  16.955  1.00  0.00    -0.018 A 
ATOM     31  C   UNL     1      42.067 136.242  16.888  1.00  0.00     0.019 A 
ATOM     32  C   UNL     1      41.573 138.917  16.136  1.00  0.00     0.018 A 
ATOM     33  C   UNL     1      40.990 136.582  16.068  1.00  0.00     0.016 A 
ATOM     34  C   UNL     1      40.752 137.874  15.707  1.00  0.00     0.016 A 
ATOM     35  C   UNL     1      39.964 135.685  15.496  1.00  0.00     0.301 C 
ATOM     36  C   UNL     1      39.540 137.961  14.863  1.00  0.00     0.301 C 
ATOM     37  N   UNL     1      39.138 136.544  14.588  1.00  0.00    -0.321 N 
ATOM     38  C   UNL     1      37.695 136.347  14.853  1.00  0.00     0.334 C 
ATOM     39  C   UNL     1      39.420 136.201  13.173  1.00  0.00     0.334 C 
ENDBRANCH  23  25
ENDBRANCH  18  19
ENDBRANCH  17  18
ENDBRANCH   2  17
BRANCH   4  40
ATOM     40  C   UNL     1      45.172 131.073  21.577  1.00  0.00     0.097 C 
BRANCH  40  41
ATOM     41  N   UNL     1      43.790 131.145  21.123  1.00  0.00    -0.094 NA
BRANCH  41  42
ATOM     42  N   UNL     1      43.516 131.632  20.026  1.00  0.00     0.001 N 
ATOM     43  N   UNL     1      43.242 132.121  18.931  1.00  0.00    -0.003 NA
ENDBRANCH  41  42
ENDBRANCH  40  41
ENDBRANCH   4  40
TORSDOF 10
ENDMDL
MODEL 7
REMARK VINA RESULT:      -4.1      2.848      4.872
REMARK SMILES C[N+]1(C)Cc2cc3ccc(-n4cc(CCN5C[C@H](CN=[N+]=[N-])CN5C(=O)c5ccc(N)cc5)n[nH+]4)cc3cc2C1
REMARK SMILES IDX 24 1 16 2 17 3 18 4 23 5 25 6 26 7 27 8 28 9 29 10 30 11
REMARK SMILES IDX 33 12 32 13 31 14 15 17 14 18 13 19 34 20 12 21 35 22 11 23
REMARK SMILES IDX 10 25 9 26 36 27 8 28 37 29 7 30 38 31 6 32 39 33 5 34 40 35
REMARK SMILES IDX 4 36 2 37 1 38 3 39 19 40 20 41 21 42 22 43
REMARK H PARENT 31 15 31 16 35 24
ROOT
ATOM      1  N   UNL     1      41.114 137.774  22.548  1.00  0.00    -0.271 N 
ATOM      2  N   UNL     1      41.419 137.905  23.917  1.00  0.00    -0.218 NA
ATOM      3  C   UNL     1      42.876 138.119  23.945  1.00  0.00     0.114 C 
ATOM      4  C   UNL     1      43.444 137.548  22.641  1.00  0.00     0.032 C 
ATOM      5  C   UNL     1      42.265 137.607  21.680  1.00  0.00     0.145 C 
ENDROOT
BRANCH   1   6
ATOM      6  C   UNL     1      39.780 137.929  22.031  1.00  0.00     0.268 C 
ATOM      7  O   UNL     1      38.923 138.560  22.709  1.00  0.00    -0.268 OA
BRANCH   6   8
ATOM      8  C   UNL     1      39.394 137.386  20.709  1.00  0.00     0.041 A 
ATOM      9  C   UNL     1      39.404 135.998  20.492  1.00  0.00     0.016 A 
ATOM     10  C   UNL     1      39.030 135.472  19.253  1.00  0.00     0.026 A 
ATOM     11  C   UNL     1      38.649 136.327  18.209  1.00  0.00     0.031 A 
ATOM     12  C   UNL     1      39.036 138.240  19.652  1.00  0.00     0.016 A 
ATOM     13  C   UNL     1      38.657 137.713  18.414  1.00  0.00     0.026 A 
BRANCH  11  14
ATOM     14  N   UNL     1      38.260 135.788  16.944  1.00  0.00    -0.399 N 
ATOM     15  H   UNL     1      37.453 136.190  16.417  1.00  0.00     0.156 HD
ATOM     16  H   UNL     1      38.775 134.981  16.524  1.00  0.00     0.156 HD
ENDBRANCH  11  14
ENDBRANCH   6   8
ENDBRANCH   1   6
BRANCH   2  17
ATOM     17  C   UNL     1      41.021 136.666  24.625  1.00  0.00     0.115 C 
BRANCH  17  18
ATOM     18  C   UNL     1      40.648 135.571  23.619  1.00  0.00     0.082 C 
BRANCH  18  19
ATOM     19  C   UNL     1      41.811 134.685  23.296  1.00  0.00     0.134 A 
ATOM     20  N   UNL     1      42.618 134.119  24.213  1.00  0.00     0.020 NA
ATOM     21  C   UNL     1      42.176 134.229  22.046  1.00  0.00     0.190 A 
ATOM     22  N   UNL     1      43.457 133.348  23.538  1.00  0.00    -0.012 N 
ATOM     23  N   UNL     1      43.212 133.388  22.234  1.00  0.00    -0.104 N 
ATOM     24  H   UNL     1      44.218 132.797  23.993  1.00  0.00     0.527 HD
BRANCH  23  25
ATOM     25  C   UNL     1      43.907 132.624  21.226  1.00  0.00     0.107 A 
ATOM     26  C   UNL     1      44.593 131.444  21.567  1.00  0.00     0.033 A 
ATOM     27  C   UNL     1      43.894 133.040  19.880  1.00  0.00     0.041 A 
ATOM     28  C   UNL     1      45.257 130.693  20.594  1.00  0.00     0.011 A 
ATOM     29  C   UNL     1      44.547 132.288  18.893  1.00  0.00    -0.016 A 
ATOM     30  C   UNL     1      45.240 131.101  19.255  1.00  0.00    -0.018 A 
ATOM     31  C   UNL     1      44.521 132.699  17.545  1.00  0.00     0.019 A 
ATOM     32  C   UNL     1      45.901 130.344  18.266  1.00  0.00     0.018 A 
ATOM     33  C   UNL     1      45.177 131.917  16.593  1.00  0.00     0.016 A 
ATOM     34  C   UNL     1      45.844 130.782  16.942  1.00  0.00     0.016 A 
ATOM     35  C   UNL     1      45.291 132.161  15.139  1.00  0.00     0.301 C 
ATOM     36  C   UNL     1      46.469 130.162  15.753  1.00  0.00     0.301 C 
ATOM     37  N   UNL     1      45.972 130.949  14.580  1.00  0.00    -0.321 N 
ATOM     38  C   UNL     1      47.094 131.341  13.697  1.00  0.00     0.334 C 
ATOM     39  C   UNL     1      45.004 130.140  13.800  1.00  0.00     0.334 C 
ENDBRANCH  23  25
ENDBRANCH  18  19
ENDBRANCH  17  18
ENDBRANCH   2  17
BRANCH   4  40
ATOM     40  C   UNL     1      44.676 138.320  22.149  1.00  0.00     0.097 C 
BRANCH  40  41
ATOM     41  N   UNL     1      45.586 137.419  21.456  1.00  0.00    -0.094 NA
BRANCH  41  42
ATOM     42  N   UNL     1      45.310 136.992  20.335  1.00  0.00     0.001 N 
ATOM     43  N   UNL     1      45.033 136.565  19.214  1.00  0.00    -0.003 NA
ENDBRANCH  41  42
ENDBRANCH  40  41
ENDBRANCH   4  40
TORSDOF 10
ENDMDL
MODEL 8
REMARK VINA RESULT:      -4.0      2.093      2.673
REMARK SMILES C[N+]1(C)Cc2cc3ccc(-n4cc(CCN5C[C@H](CN=[N+]=[N-])CN5C(=O)c5ccc(N)cc5)n[nH+]4)cc3cc2C1
REMARK SMILES IDX 24 1 16 2 17 3 18 4 23 5 25 6 26 7 27 8 28 9 29 10 30 11
REMARK SMILES IDX 33 12 32 13 31 14 15 17 14 18 13 19 34 20 12 21 35 22 11 23
REMARK SMILES IDX 10 25 9 26 36 27 8 28 37 29 7 30 38 31 6 32 39 33 5 34 40 35
REMARK SMILES IDX 4 36 2 37 1 38 3 39 19 40 20 41 21 42 22 43
REMARK H PARENT 31 15 31 16 35 24
ROOT
ATOM      1  N   UNL     1      42.894 135.116  21.627  1.00  0.00    -0.271 N 
ATOM      2  N   UNL     1      42.302 136.062  20.768  1.00  0.00    -0.218 NA
ATOM      3  C   UNL     1      43.361 137.060  20.541  1.00  0.00     0.114 C 
ATOM      4  C   UNL     1      44.343 136.955  21.714  1.00  0.00     0.032 C 
ATOM      5  C   UNL     1      44.157 135.529  22.211  1.00  0.00     0.145 C 
ENDROOT
BRANCH   1   6
ATOM      6  C   UNL     1      42.362 133.790  21.805  1.00  0.00     0.268 C 
ATOM      7  O   UNL     1      41.186 133.539  21.423  1.00  0.00    -0.268 OA
BRANCH   6   8
ATOM      8  C   UNL     1      43.172 132.706  22.405  1.00  0.00     0.041 A 
ATOM      9  C   UNL     1      44.287 133.023  23.201  1.00  0.00     0.016 A 
ATOM     10  C   UNL     1      45.052 132.009  23.783  1.00  0.00     0.026 A 
ATOM     11  C   UNL     1      44.720 130.664  23.571  1.00  0.00     0.031 A 
ATOM     12  C   UNL     1      42.859 131.355  22.175  1.00  0.00     0.016 A 
ATOM     13  C   UNL     1      43.623 130.343  22.762  1.00  0.00     0.026 A 
BRANCH  11  14
ATOM     14  N   UNL     1      45.500 129.628  24.172  1.00  0.00    -0.399 N 
ATOM     15  H   UNL     1      45.193 129.176  25.063  1.00  0.00     0.156 HD
ATOM     16  H   UNL     1      46.392 129.306  23.734  1.00  0.00     0.156 HD
ENDBRANCH  11  14
ENDBRANCH   6   8
ENDBRANCH   1   6
BRANCH   2  17
ATOM     17  C   UNL     1      41.116 136.649  21.436  1.00  0.00     0.115 C 
BRANCH  17  18
ATOM     18  C   UNL     1      40.267 137.432  20.427  1.00  0.00     0.082 C 
BRANCH  18  19
ATOM     19  C   UNL     1      40.226 136.763  19.089  1.00  0.00     0.134 A 
ATOM     20  N   UNL     1      39.431 137.139  18.070  1.00  0.00     0.020 NA
ATOM     21  C   UNL     1      41.047 135.743  18.653  1.00  0.00     0.190 A 
ATOM     22  N   UNL     1      39.753 136.363  17.046  1.00  0.00    -0.012 N 
ATOM     23  N   UNL     1      40.726 135.519  17.364  1.00  0.00    -0.104 N 
ATOM     24  H   UNL     1      39.279 136.416  16.117  1.00  0.00     0.527 HD
BRANCH  23  25
ATOM     25  C   UNL     1      41.345 134.575  16.464  1.00  0.00     0.107 A 
ATOM     26  C   UNL     1      40.673 134.143  15.306  1.00  0.00     0.033 A 
ATOM     27  C   UNL     1      42.641 134.087  16.722  1.00  0.00     0.041 A 
ATOM     28  C   UNL     1      41.272 133.241  14.423  1.00  0.00     0.011 A 
ATOM     29  C   UNL     1      43.257 133.190  15.838  1.00  0.00    -0.016 A 
ATOM     30  C   UNL     1      42.563 132.759  14.675  1.00  0.00    -0.018 A 
ATOM     31  C   UNL     1      44.559 132.712  16.092  1.00  0.00     0.019 A 
ATOM     32  C   UNL     1      43.177 131.854  13.785  1.00  0.00     0.018 A 
ATOM     33  C   UNL     1      45.138 131.827  15.182  1.00  0.00     0.016 A 
ATOM     34  C   UNL     1      44.470 131.412  14.070  1.00  0.00     0.016 A 
ATOM     35  C   UNL     1      46.473 131.195  15.252  1.00  0.00     0.301 C 
ATOM     36  C   UNL     1      45.294 130.460  13.294  1.00  0.00     0.301 C 
ATOM     37  N   UNL     1      46.637 130.456  13.959  1.00  0.00    -0.321 N 
ATOM     38  C   UNL     1      47.097 129.070  14.204  1.00  0.00     0.334 C 
ATOM     39  C   UNL     1      47.630 131.149  13.103  1.00  0.00     0.334 C 
ENDBRANCH  23  25
ENDBRANCH  18  19
ENDBRANCH  17  18
ENDBRANCH   2  17
BRANCH   4  40
ATOM     40  C   UNL     1      45.785 137.278  21.304  1.00  0.00     0.097 C 
BRANCH  40  41
ATOM     41  N   UNL     1      46.586 137.574  22.484  1.00  0.00    -0.094 NA
BRANCH  41  42
ATOM     42  N   UNL     1      47.310 138.569  22.516  1.00  0.00     0.001 N 
ATOM     43  N   UNL     1      48.032 139.565  22.549  1.00  0.00    -0.003 NA
ENDBRANCH  41  42
ENDBRANCH  40  41
ENDBRANCH   4  40
TORSDOF 10
ENDMDL
MODEL 9
REMARK VINA RESULT:      -3.7      3.271      5.761
REMARK SMILES C[N+]1(C)Cc2cc3ccc(-n4cc(CCN5C[C@H](CN=[N+]=[N-])CN5C(=O)c5ccc(N)cc5)n[nH+]4)cc3cc2C1
REMARK SMILES IDX 24 1 16 2 17 3 18 4 23 5 25 6 26 7 27 8 28 9 29 10 30 11
REMARK SMILES IDX 33 12 32 13 31 14 15 17 14 18 13 19 34 20 12 21 35 22 11 23
REMARK SMILES IDX 10 25 9 26 36 27 8 28 37 29 7 30 38 31 6 32 39 33 5 34 40 35
REMARK SMILES IDX 4 36 2 37 1 38 3 39 19 40 20 41 21 42 22 43
REMARK H PARENT 31 15 31 16 35 24
ROOT
ATOM      1  N   UNL     1      48.197 137.269  22.468  1.00  0.00    -0.271 N 
ATOM      2  N   UNL     1      47.986 135.897  22.706  1.00  0.00    -0.218 NA
ATOM      3  C   UNL     1      49.338 135.314  22.687  1.00  0.00     0.114 C 
ATOM      4  C   UNL     1      50.233 136.268  21.887  1.00  0.00     0.032 C 
ATOM      5  C   UNL     1      49.534 137.613  22.022  1.00  0.00     0.145 C 
ENDROOT
BRANCH   1   6
ATOM      6  C   UNL     1      47.209 138.271  22.774  1.00  0.00     0.268 C 
ATOM      7  O   UNL     1      47.583 139.435  23.085  1.00  0.00    -0.268 OA
BRANCH   6   8
ATOM      8  C   UNL     1      45.760 137.974  22.706  1.00  0.00     0.041 A 
ATOM      9  C   UNL     1      45.077 138.097  21.484  1.00  0.00     0.016 A 
ATOM     10  C   UNL     1      43.712 137.808  21.403  1.00  0.00     0.026 A 
ATOM     11  C   UNL     1      43.008 137.400  22.545  1.00  0.00     0.031 A 
ATOM     12  C   UNL     1      45.044 137.590  23.853  1.00  0.00     0.016 A 
ATOM     13  C   UNL     1      43.680 137.296  23.770  1.00  0.00     0.026 A 
BRANCH  11  14
ATOM     14  N   UNL     1      41.614 137.098  22.460  1.00  0.00    -0.399 N 
ATOM     15  H   UNL     1      41.281 136.108  22.452  1.00  0.00     0.156 HD
ATOM     16  H   UNL     1      40.903 137.862  22.403  1.00  0.00     0.156 HD
ENDBRANCH  11  14
ENDBRANCH   6   8
ENDBRANCH   1   6
BRANCH   2  17
ATOM     17  C   UNL     1      47.124 135.345  21.635  1.00  0.00     0.115 C 
BRANCH  17  18
ATOM     18  C   UNL     1      46.718 133.904  21.965  1.00  0.00     0.082 C 
BRANCH  18  19
ATOM     19  C   UNL     1      45.845 133.310  20.904  1.00  0.00     0.134 A 
ATOM     20  N   UNL     1      45.475 132.016  20.854  1.00  0.00     0.020 NA
ATOM     21  C   UNL     1      45.208 133.989  19.887  1.00  0.00     0.190 A 
ATOM     22  N   UNL     1      44.643 131.911  19.829  1.00  0.00    -0.012 N 
ATOM     23  N   UNL     1      44.457 133.082  19.233  1.00  0.00    -0.104 N 
ATOM     24  H   UNL     1      44.209 131.008  19.536  1.00  0.00     0.527 HD
BRANCH  23  25
ATOM     25  C   UNL     1      43.571 133.325  18.119  1.00  0.00     0.107 A 
ATOM     26  C   UNL     1      43.343 132.326  17.154  1.00  0.00     0.033 A 
ATOM     27  C   UNL     1      42.905 134.559  17.993  1.00  0.00     0.041 A 
ATOM     28  C   UNL     1      42.477 132.549  16.081  1.00  0.00     0.011 A 
ATOM     29  C   UNL     1      42.024 134.791  16.927  1.00  0.00    -0.016 A 
ATOM     30  C   UNL     1      41.809 133.774  15.957  1.00  0.00    -0.018 A 
ATOM     31  C   UNL     1      41.349 136.023  16.809  1.00  0.00     0.019 A 
ATOM     32  C   UNL     1      40.927 134.004  14.881  1.00  0.00     0.018 A 
ATOM     33  C   UNL     1      40.474 136.208  15.737  1.00  0.00     0.016 A 
ATOM     34  C   UNL     1      40.273 135.235  14.807  1.00  0.00     0.016 A 
ATOM     35  C   UNL     1      39.678 137.411  15.412  1.00  0.00     0.301 C 
ATOM     36  C   UNL     1      39.325 135.697  13.769  1.00  0.00     0.301 C 
ATOM     37  N   UNL     1      38.816 137.021  14.250  1.00  0.00    -0.321 N 
ATOM     38  C   UNL     1      38.896 138.036  13.176  1.00  0.00     0.334 C 
ATOM     39  C   UNL     1      37.405 136.893  14.689  1.00  0.00     0.334 C 
ENDBRANCH  23  25
ENDBRANCH  18  19
ENDBRANCH  17  18
ENDBRANCH   2  17
BRANCH   4  40
ATOM     40  C   UNL     1      51.682 136.276  22.392  1.00  0.00     0.097 C 
BRANCH  40  41
ATOM     41  N   UNL     1      51.715 136.613  23.809  1.00  0.00    -0.094 NA
BRANCH  41  42
ATOM     42  N   UNL     1      52.325 137.607  24.202  1.00  0.00     0.001 N 
ATOM     43  N   UNL     1      52.935 138.600  24.596  1.00  0.00    -0.003 NA
ENDBRANCH  41  42
ENDBRANCH  40  41
ENDBRANCH   4  40
TORSDOF 10
ENDMDL


