MODEL 1
REMARK VINA RESULT:      -6.4      0.000      0.000
REMARK SMILES C#C[C@@](O[C@H](C(=O)OC)[C@](C#N)(CC)c1ccc(C#N)cc1)(c1ccc2ccccc2c1)C(C)(C)C
REMARK SMILES IDX 5 1 4 2 3 3 2 4 1 5 23 6 24 7 32 8 25 9 31 10 26 11 30 12
REMARK SMILES IDX 27 13 29 14 28 15 33 16 34 17 35 18 36 19 6 20 7 21 8 22
REMARK SMILES IDX 9 23 10 24 11 25 12 26 13 27 14 28 15 29 16 30 22 31 17 32
REMARK SMILES IDX 21 33 18 34 19 35 20 36
REMARK H PARENT
ROOT
ATOM      1  C   UNL     1      42.678 133.892  17.093  1.00  0.00     0.254 C 
ENDROOT
BRANCH   1   2
ATOM      2  O   UNL     1      42.296 134.899  18.037  1.00  0.00    -0.341 OA
BRANCH   2   3
ATOM      3  C   UNL     1      42.793 136.227  17.781  1.00  0.00     0.159 C 
BRANCH   3   4
ATOM      4  C   UNL     1      43.172 136.369  16.343  1.00  0.00    -0.066 C 
ATOM      5  C   UNL     1      43.469 136.473  15.177  1.00  0.00     0.007 C 
ENDBRANCH   3   4
BRANCH   3   6
ATOM      6  C   UNL     1      44.014 136.550  18.680  1.00  0.00    -0.003 A 
ATOM      7  C   UNL     1      44.095 136.025  19.984  1.00  0.00     0.008 A 
ATOM      8  C   UNL     1      45.049 137.420  18.255  1.00  0.00     0.016 A 
ATOM      9  C   UNL     1      45.183 136.296  20.814  1.00  0.00     0.009 A 
ATOM     10  C   UNL     1      46.148 137.698  19.082  1.00  0.00    -0.018 A 
ATOM     11  C   UNL     1      46.218 137.125  20.372  1.00  0.00    -0.018 A 
ATOM     12  C   UNL     1      47.177 138.547  18.643  1.00  0.00     0.009 A 
ATOM     13  C   UNL     1      47.318 137.403  21.199  1.00  0.00     0.009 A 
ATOM     14  C   UNL     1      48.268 138.816  19.475  1.00  0.00     0.001 A 
ATOM     15  C   UNL     1      48.338 138.247  20.749  1.00  0.00     0.001 A 
ENDBRANCH   3   6
BRANCH   3  16
ATOM     16  C   UNL     1      41.600 137.239  18.071  1.00  0.00     0.007 C 
ATOM     17  C   UNL     1      40.443 137.066  17.056  1.00  0.00     0.015 C 
ATOM     18  C   UNL     1      41.013 137.052  19.495  1.00  0.00     0.015 C 
ATOM     19  C   UNL     1      42.096 138.706  17.944  1.00  0.00     0.015 C 
ENDBRANCH   3  16
ENDBRANCH   2   3
ENDBRANCH   1   2
BRANCH   1  20
ATOM     20  C   UNL     1      41.498 133.495  16.231  1.00  0.00     0.337 C 
ATOM     21  O   UNL     1      41.687 132.995  15.088  1.00  0.00    -0.249 OA
BRANCH  20  22
ATOM     22  O   UNL     1      40.202 133.724  16.702  1.00  0.00    -0.467 OA
ATOM     23  C   UNL     1      39.098 133.937  15.830  1.00  0.00     0.282 C 
ENDBRANCH  20  22
ENDBRANCH   1  20
BRANCH   1  24
ATOM     24  C   UNL     1      43.225 132.620  17.837  1.00  0.00     0.119 C 
BRANCH  24  25
ATOM     25  C   UNL     1      42.092 131.683  18.058  1.00  0.00     0.077 C 
ATOM     26  N   UNL     1      41.210 130.955  18.235  1.00  0.00    -0.197 NA
ENDBRANCH  24  25
BRANCH  24  27
ATOM     27  C   UNL     1      43.769 132.999  19.246  1.00  0.00     0.027 C 
ATOM     28  C   UNL     1      43.626 131.888  20.294  1.00  0.00     0.006 C 
ENDBRANCH  24  27
BRANCH  24  29
ATOM     29  C   UNL     1      44.348 131.980  16.989  1.00  0.00    -0.024 A 
ATOM     30  C   UNL     1      44.685 130.609  17.085  1.00  0.00     0.007 A 
ATOM     31  C   UNL     1      45.029 132.763  16.030  1.00  0.00     0.007 A 
ATOM     32  C   UNL     1      45.678 130.056  16.270  1.00  0.00     0.020 A 
ATOM     33  C   UNL     1      46.022 132.205  15.219  1.00  0.00     0.020 A 
ATOM     34  C   UNL     1      46.349 130.852  15.339  1.00  0.00     0.052 A 
BRANCH  34  35
ATOM     35  C   UNL     1      47.368 130.278  14.500  1.00  0.00     0.099 C 
ATOM     36  N   UNL     1      48.187 129.817  13.825  1.00  0.00    -0.192 NA
ENDBRANCH  34  35
ENDBRANCH  24  29
ENDBRANCH   1  24
TORSDOF 12
ENDMDL
MODEL 2
REMARK VINA RESULT:      -6.3      2.570      5.685
REMARK SMILES C#C[C@@](O[C@H](C(=O)OC)[C@](C#N)(CC)c1ccc(C#N)cc1)(c1ccc2ccccc2c1)C(C)(C)C
REMARK SMILES IDX 5 1 4 2 3 3 2 4 1 5 23 6 24 7 32 8 25 9 31 10 26 11 30 12
REMARK SMILES IDX 27 13 29 14 28 15 33 16 34 17 35 18 36 19 6 20 7 21 8 22
REMARK SMILES IDX 9 23 10 24 11 25 12 26 13 27 14 28 15 29 16 30 22 31 17 32
REMARK SMILES IDX 21 33 18 34 19 35 20 36
REMARK H PARENT
ROOT
ATOM      1  C   UNL     1      43.357 132.569  17.166  1.00  0.00     0.254 C 
ENDROOT
BRANCH   1   2
ATOM      2  O   UNL     1      43.541 133.752  17.951  1.00  0.00    -0.341 OA
BRANCH   2   3
ATOM      3  C   UNL     1      42.478 134.073  18.870  1.00  0.00     0.159 C 
BRANCH   3   4
ATOM      4  C   UNL     1      42.366 133.017  19.920  1.00  0.00    -0.066 C 
ATOM      5  C   UNL     1      42.287 132.168  20.776  1.00  0.00     0.007 C 
ENDBRANCH   3   4
BRANCH   3   6
ATOM      6  C   UNL     1      41.125 134.224  18.129  1.00  0.00    -0.003 A 
ATOM      7  C   UNL     1      40.103 133.275  18.318  1.00  0.00     0.008 A 
ATOM      8  C   UNL     1      40.889 135.271  17.204  1.00  0.00     0.016 A 
ATOM      9  C   UNL     1      38.873 133.387  17.668  1.00  0.00     0.009 A 
ATOM     10  C   UNL     1      39.656 135.392  16.545  1.00  0.00    -0.018 A 
ATOM     11  C   UNL     1      38.636 134.445  16.785  1.00  0.00    -0.018 A 
ATOM     12  C   UNL     1      39.427 136.445  15.644  1.00  0.00     0.009 A 
ATOM     13  C   UNL     1      37.403 134.566  16.126  1.00  0.00     0.009 A 
ATOM     14  C   UNL     1      38.194 136.557  14.994  1.00  0.00     0.001 A 
ATOM     15  C   UNL     1      37.186 135.621  15.233  1.00  0.00     0.001 A 
ENDBRANCH   3   6
BRANCH   3  16
ATOM     16  C   UNL     1      42.877 135.434  19.592  1.00  0.00     0.007 C 
ATOM     17  C   UNL     1      43.316 136.515  18.573  1.00  0.00     0.015 C 
ATOM     18  C   UNL     1      41.704 136.016  20.424  1.00  0.00     0.015 C 
ATOM     19  C   UNL     1      44.078 135.203  20.550  1.00  0.00     0.015 C 
ENDBRANCH   3  16
ENDBRANCH   2   3
ENDBRANCH   1   2
BRANCH   1  20
ATOM     20  C   UNL     1      44.377 131.516  17.542  1.00  0.00     0.337 C 
ATOM     21  O   UNL     1      44.297 130.353  17.057  1.00  0.00    -0.249 OA
BRANCH  20  22
ATOM     22  O   UNL     1      45.381 131.835  18.461  1.00  0.00    -0.467 OA
ATOM     23  C   UNL     1      45.588 131.094  19.657  1.00  0.00     0.282 C 
ENDBRANCH  20  22
ENDBRANCH   1  20
BRANCH   1  24
ATOM     24  C   UNL     1      43.497 132.899  15.635  1.00  0.00     0.119 C 
BRANCH  24  25
ATOM     25  C   UNL     1      43.807 134.346  15.493  1.00  0.00     0.077 C 
ATOM     26  N   UNL     1      44.049 135.473  15.387  1.00  0.00    -0.197 NA
ENDBRANCH  24  25
BRANCH  24  27
ATOM     27  C   UNL     1      42.146 132.660  14.896  1.00  0.00     0.027 C 
ATOM     28  C   UNL     1      41.750 133.787  13.933  1.00  0.00     0.006 C 
ENDBRANCH  24  27
BRANCH  24  29
ATOM     29  C   UNL     1      44.601 132.007  15.023  1.00  0.00    -0.024 A 
ATOM     30  C   UNL     1      44.310 130.878  14.222  1.00  0.00     0.007 A 
ATOM     31  C   UNL     1      45.958 132.355  15.205  1.00  0.00     0.007 A 
ATOM     32  C   UNL     1      45.336 130.120  13.650  1.00  0.00     0.020 A 
ATOM     33  C   UNL     1      46.980 131.594  14.631  1.00  0.00     0.020 A 
ATOM     34  C   UNL     1      46.671 130.475  13.854  1.00  0.00     0.052 A 
BRANCH  34  35
ATOM     35  C   UNL     1      47.725 129.695  13.260  1.00  0.00     0.099 C 
ATOM     36  N   UNL     1      48.571 129.067  12.783  1.00  0.00    -0.192 NA
ENDBRANCH  34  35
ENDBRANCH  24  29
ENDBRANCH   1  24
TORSDOF 12
ENDMDL
MODEL 3
REMARK VINA RESULT:      -6.2      2.498      5.722
REMARK SMILES C#C[C@@](O[C@H](C(=O)OC)[C@](C#N)(CC)c1ccc(C#N)cc1)(c1ccc2ccccc2c1)C(C)(C)C
REMARK SMILES IDX 5 1 4 2 3 3 2 4 1 5 23 6 24 7 32 8 25 9 31 10 26 11 30 12
REMARK SMILES IDX 27 13 29 14 28 15 33 16 34 17 35 18 36 19 6 20 7 21 8 22
REMARK SMILES IDX 9 23 10 24 11 25 12 26 13 27 14 28 15 29 16 30 22 31 17 32
REMARK SMILES IDX 21 33 18 34 19 35 20 36
REMARK H PARENT
ROOT
ATOM      1  C   UNL     1      43.151 132.742  16.930  1.00  0.00     0.254 C 
ENDROOT
BRANCH   1   2
ATOM      2  O   UNL     1      43.402 133.926  17.696  1.00  0.00    -0.341 OA
BRANCH   2   3
ATOM      3  C   UNL     1      42.384 134.289  18.650  1.00  0.00     0.159 C 
BRANCH   3   4
ATOM      4  C   UNL     1      42.316 133.275  19.745  1.00  0.00    -0.066 C 
ATOM      5  C   UNL     1      42.252 132.464  20.637  1.00  0.00     0.007 C 
ENDBRANCH   3   4
BRANCH   3   6
ATOM      6  C   UNL     1      40.998 134.419  17.968  1.00  0.00    -0.003 A 
ATOM      7  C   UNL     1      40.018 133.428  18.158  1.00  0.00     0.008 A 
ATOM      8  C   UNL     1      40.691 135.492  17.093  1.00  0.00     0.016 A 
ATOM      9  C   UNL     1      38.760 133.520  17.559  1.00  0.00     0.009 A 
ATOM     10  C   UNL     1      39.430 135.593  16.486  1.00  0.00    -0.018 A 
ATOM     11  C   UNL     1      38.453 134.602  16.728  1.00  0.00    -0.018 A 
ATOM     12  C   UNL     1      39.130 136.670  15.636  1.00  0.00     0.009 A 
ATOM     13  C   UNL     1      37.191 134.704  16.122  1.00  0.00     0.009 A 
ATOM     14  C   UNL     1      37.869 136.762  15.039  1.00  0.00     0.001 A 
ATOM     15  C   UNL     1      36.903 135.783  15.280  1.00  0.00     0.001 A 
ENDBRANCH   3   6
BRANCH   3  16
ATOM     16  C   UNL     1      42.823 135.675  19.299  1.00  0.00     0.007 C 
ATOM     17  C   UNL     1      41.727 136.240  20.236  1.00  0.00     0.015 C 
ATOM     18  C   UNL     1      44.129 135.542  20.124  1.00  0.00     0.015 C 
ATOM     19  C   UNL     1      43.060 136.736  18.189  1.00  0.00     0.015 C 
ENDBRANCH   3  16
ENDBRANCH   2   3
ENDBRANCH   1   2
BRANCH   1  20
ATOM     20  C   UNL     1      44.083 131.626  17.353  1.00  0.00     0.337 C 
ATOM     21  O   UNL     1      43.907 130.454  16.919  1.00  0.00    -0.249 OA
BRANCH  20  22
ATOM     22  O   UNL     1      45.112 131.903  18.258  1.00  0.00    -0.467 OA
ATOM     23  C   UNL     1      45.536 130.970  19.243  1.00  0.00     0.282 C 
ENDBRANCH  20  22
ENDBRANCH   1  20
BRANCH   1  24
ATOM     24  C   UNL     1      43.350 133.027  15.397  1.00  0.00     0.119 C 
BRANCH  24  25
ATOM     25  C   UNL     1      43.600 134.482  15.219  1.00  0.00     0.077 C 
ATOM     26  N   UNL     1      43.789 135.615  15.079  1.00  0.00    -0.197 NA
ENDBRANCH  24  25
BRANCH  24  27
ATOM     27  C   UNL     1      42.050 132.699  14.604  1.00  0.00     0.027 C 
ATOM     28  C   UNL     1      41.430 133.906  13.888  1.00  0.00     0.006 C 
ENDBRANCH  24  27
BRANCH  24  29
ATOM     29  C   UNL     1      44.523 132.170  14.871  1.00  0.00    -0.024 A 
ATOM     30  C   UNL     1      45.870 132.427  15.222  1.00  0.00     0.007 A 
ATOM     31  C   UNL     1      44.256 131.044  14.060  1.00  0.00     0.007 A 
ATOM     32  C   UNL     1      46.901 131.604  14.760  1.00  0.00     0.020 A 
ATOM     33  C   UNL     1      45.291 130.225  13.601  1.00  0.00     0.020 A 
ATOM     34  C   UNL     1      46.615 130.504  13.949  1.00  0.00     0.052 A 
BRANCH  34  35
ATOM     35  C   UNL     1      47.679 129.656  13.478  1.00  0.00     0.099 C 
ATOM     36  N   UNL     1      48.534 128.975  13.100  1.00  0.00    -0.192 NA
ENDBRANCH  34  35
ENDBRANCH  24  29
ENDBRANCH   1  24
TORSDOF 12
ENDMDL
MODEL 4
REMARK VINA RESULT:      -6.1      2.195      4.304
REMARK SMILES C#C[C@@](O[C@H](C(=O)OC)[C@](C#N)(CC)c1ccc(C#N)cc1)(c1ccc2ccccc2c1)C(C)(C)C
REMARK SMILES IDX 5 1 4 2 3 3 2 4 1 5 23 6 24 7 32 8 25 9 31 10 26 11 30 12
REMARK SMILES IDX 27 13 29 14 28 15 33 16 34 17 35 18 36 19 6 20 7 21 8 22
REMARK SMILES IDX 9 23 10 24 11 25 12 26 13 27 14 28 15 29 16 30 22 31 17 32
REMARK SMILES IDX 21 33 18 34 19 35 20 36
REMARK H PARENT
ROOT
ATOM      1  C   UNL     1      42.103 134.965  17.142  1.00  0.00     0.254 C 
ENDROOT
BRANCH   1   2
ATOM      2  O   UNL     1      41.740 135.140  18.516  1.00  0.00    -0.341 OA
BRANCH   2   3
ATOM      3  C   UNL     1      42.783 135.614  19.389  1.00  0.00     0.159 C 
BRANCH   3   4
ATOM      4  C   UNL     1      43.825 136.340  18.603  1.00  0.00    -0.066 C 
ATOM      5  C   UNL     1      44.674 136.914  17.964  1.00  0.00     0.007 C 
ENDBRANCH   3   4
BRANCH   3   6
ATOM      6  C   UNL     1      43.434 134.444  20.171  1.00  0.00    -0.003 A 
ATOM      7  C   UNL     1      44.832 134.375  20.311  1.00  0.00     0.008 A 
ATOM      8  C   UNL     1      42.663 133.385  20.713  1.00  0.00     0.016 A 
ATOM      9  C   UNL     1      45.446 133.335  21.012  1.00  0.00     0.009 A 
ATOM     10  C   UNL     1      43.271 132.335  21.420  1.00  0.00    -0.018 A 
ATOM     11  C   UNL     1      44.675 132.315  21.576  1.00  0.00    -0.018 A 
ATOM     12  C   UNL     1      42.496 131.301  21.970  1.00  0.00     0.009 A 
ATOM     13  C   UNL     1      45.282 131.265  22.283  1.00  0.00     0.009 A 
ATOM     14  C   UNL     1      43.112 130.261  22.673  1.00  0.00     0.001 A 
ATOM     15  C   UNL     1      44.500 130.242  22.829  1.00  0.00     0.001 A 
ENDBRANCH   3   6
BRANCH   3  16
ATOM     16  C   UNL     1      42.118 136.656  20.392  1.00  0.00     0.007 C 
ATOM     17  C   UNL     1      40.795 136.114  20.988  1.00  0.00     0.015 C 
ATOM     18  C   UNL     1      43.060 137.008  21.572  1.00  0.00     0.015 C 
ATOM     19  C   UNL     1      41.770 137.973  19.644  1.00  0.00     0.015 C 
ENDBRANCH   3  16
ENDBRANCH   2   3
ENDBRANCH   1   2
BRANCH   1  20
ATOM     20  C   UNL     1      41.444 136.020  16.278  1.00  0.00     0.337 C 
ATOM     21  O   UNL     1      40.280 136.427  16.550  1.00  0.00    -0.249 OA
BRANCH  20  22
ATOM     22  O   UNL     1      42.124 136.507  15.158  1.00  0.00    -0.467 OA
ATOM     23  C   UNL     1      42.459 137.880  15.003  1.00  0.00     0.282 C 
ENDBRANCH  20  22
ENDBRANCH   1  20
BRANCH   1  24
ATOM     24  C   UNL     1      41.669 133.541  16.636  1.00  0.00     0.119 C 
BRANCH  24  25
ATOM     25  C   UNL     1      40.793 133.713  15.446  1.00  0.00     0.077 C 
ATOM     26  N   UNL     1      40.115 133.848  14.518  1.00  0.00    -0.197 NA
ENDBRANCH  24  25
BRANCH  24  27
ATOM     27  C   UNL     1      40.815 132.811  17.714  1.00  0.00     0.027 C 
ATOM     28  C   UNL     1      39.350 133.267  17.770  1.00  0.00     0.006 C 
ENDBRANCH  24  27
BRANCH  24  29
ATOM     29  C   UNL     1      42.932 132.712  16.309  1.00  0.00    -0.024 A 
ATOM     30  C   UNL     1      43.235 132.272  14.999  1.00  0.00     0.007 A 
ATOM     31  C   UNL     1      43.864 132.430  17.333  1.00  0.00     0.007 A 
ATOM     32  C   UNL     1      44.409 131.561  14.735  1.00  0.00     0.020 A 
ATOM     33  C   UNL     1      45.036 131.718  17.063  1.00  0.00     0.020 A 
ATOM     34  C   UNL     1      45.310 131.281  15.765  1.00  0.00     0.052 A 
BRANCH  34  35
ATOM     35  C   UNL     1      46.520 130.552  15.488  1.00  0.00     0.099 C 
ATOM     36  N   UNL     1      47.492 129.966  15.265  1.00  0.00    -0.192 NA
ENDBRANCH  34  35
ENDBRANCH  24  29
ENDBRANCH   1  24
TORSDOF 12
ENDMDL
MODEL 5
REMARK VINA RESULT:      -6.1      2.984      5.091
REMARK SMILES C#C[C@@](O[C@H](C(=O)OC)[C@](C#N)(CC)c1ccc(C#N)cc1)(c1ccc2ccccc2c1)C(C)(C)C
REMARK SMILES IDX 5 1 4 2 3 3 2 4 1 5 23 6 24 7 32 8 25 9 31 10 26 11 30 12
REMARK SMILES IDX 27 13 29 14 28 15 33 16 34 17 35 18 36 19 6 20 7 21 8 22
REMARK SMILES IDX 9 23 10 24 11 25 12 26 13 27 14 28 15 29 16 30 22 31 17 32
REMARK SMILES IDX 21 33 18 34 19 35 20 36
REMARK H PARENT
ROOT
ATOM      1  C   UNL     1      40.179 135.668  18.123  1.00  0.00     0.254 C 
ENDROOT
BRANCH   1   2
ATOM      2  O   UNL     1      40.615 136.923  17.591  1.00  0.00    -0.341 OA
BRANCH   2   3
ATOM      3  C   UNL     1      41.147 136.892  16.252  1.00  0.00     0.159 C 
BRANCH   3   4
ATOM      4  C   UNL     1      40.053 136.635  15.268  1.00  0.00    -0.066 C 
ATOM      5  C   UNL     1      39.161 136.437  14.478  1.00  0.00     0.007 C 
ENDBRANCH   3   4
BRANCH   3   6
ATOM      6  C   UNL     1      42.246 135.808  16.111  1.00  0.00    -0.003 A 
ATOM      7  C   UNL     1      43.542 136.042  16.609  1.00  0.00     0.008 A 
ATOM      8  C   UNL     1      42.011 134.585  15.435  1.00  0.00     0.016 A 
ATOM      9  C   UNL     1      44.551 135.084  16.500  1.00  0.00     0.009 A 
ATOM     10  C   UNL     1      43.019 133.615  15.319  1.00  0.00    -0.018 A 
ATOM     11  C   UNL     1      44.298 133.865  15.864  1.00  0.00    -0.018 A 
ATOM     12  C   UNL     1      42.769 132.399  14.663  1.00  0.00     0.009 A 
ATOM     13  C   UNL     1      45.305 132.894  15.749  1.00  0.00     0.009 A 
ATOM     14  C   UNL     1      43.780 131.439  14.556  1.00  0.00     0.001 A 
ATOM     15  C   UNL     1      45.044 131.685  15.096  1.00  0.00     0.001 A 
ENDBRANCH   3   6
BRANCH   3  16
ATOM     16  C   UNL     1      41.742 138.337  15.949  1.00  0.00     0.007 C 
ATOM     17  C   UNL     1      42.560 138.355  14.634  1.00  0.00     0.015 C 
ATOM     18  C   UNL     1      40.628 139.410  15.830  1.00  0.00     0.015 C 
ATOM     19  C   UNL     1      42.707 138.770  17.088  1.00  0.00     0.015 C 
ENDBRANCH   3  16
ENDBRANCH   2   3
ENDBRANCH   1   2
BRANCH   1  20
ATOM     20  C   UNL     1      38.671 135.641  18.257  1.00  0.00     0.337 C 
ATOM     21  O   UNL     1      38.078 136.527  18.934  1.00  0.00    -0.249 OA
BRANCH  20  22
ATOM     22  O   UNL     1      37.951 134.603  17.657  1.00  0.00    -0.467 OA
ATOM     23  C   UNL     1      37.984 133.268  18.144  1.00  0.00     0.282 C 
ENDBRANCH  20  22
ENDBRANCH   1  20
BRANCH   1  24
ATOM     24  C   UNL     1      40.826 135.413  19.533  1.00  0.00     0.119 C 
BRANCH  24  25
ATOM     25  C   UNL     1      39.760 134.958  20.464  1.00  0.00     0.077 C 
ATOM     26  N   UNL     1      38.928 134.600  21.185  1.00  0.00    -0.197 NA
ENDBRANCH  24  25
BRANCH  24  27
ATOM     27  C   UNL     1      41.395 136.738  20.123  1.00  0.00     0.027 C 
ATOM     28  C   UNL     1      41.003 136.993  21.585  1.00  0.00     0.006 C 
ENDBRANCH  24  27
BRANCH  24  29
ATOM     29  C   UNL     1      41.956 134.368  19.392  1.00  0.00    -0.024 A 
ATOM     30  C   UNL     1      43.254 134.576  19.915  1.00  0.00     0.007 A 
ATOM     31  C   UNL     1      41.682 133.124  18.780  1.00  0.00     0.007 A 
ATOM     32  C   UNL     1      44.238 133.589  19.805  1.00  0.00     0.020 A 
ATOM     33  C   UNL     1      42.670 132.141  18.673  1.00  0.00     0.020 A 
ATOM     34  C   UNL     1      43.949 132.372  19.184  1.00  0.00     0.052 A 
BRANCH  34  35
ATOM     35  C   UNL     1      44.964 131.357  19.076  1.00  0.00     0.099 C 
ATOM     36  N   UNL     1      45.779 130.541  18.991  1.00  0.00    -0.192 NA
ENDBRANCH  34  35
ENDBRANCH  24  29
ENDBRANCH   1  24
TORSDOF 12
ENDMDL
MODEL 6
REMARK VINA RESULT:      -6.1      2.629      4.592
REMARK SMILES C#C[C@@](O[C@H](C(=O)OC)[C@](C#N)(CC)c1ccc(C#N)cc1)(c1ccc2ccccc2c1)C(C)(C)C
REMARK SMILES IDX 5 1 4 2 3 3 2 4 1 5 23 6 24 7 32 8 25 9 31 10 26 11 30 12
REMARK SMILES IDX 27 13 29 14 28 15 33 16 34 17 35 18 36 19 6 20 7 21 8 22
REMARK SMILES IDX 9 23 10 24 11 25 12 26 13 27 14 28 15 29 16 30 22 31 17 32
REMARK SMILES IDX 21 33 18 34 19 35 20 36
REMARK H PARENT
ROOT
ATOM      1  C   UNL     1      41.051 136.376  16.862  1.00  0.00     0.254 C 
ENDROOT
BRANCH   1   2
ATOM      2  O   UNL     1      40.570 136.405  18.210  1.00  0.00    -0.341 OA
BRANCH   2   3
ATOM      3  C   UNL     1      41.569 136.586  19.234  1.00  0.00     0.159 C 
BRANCH   3   4
ATOM      4  C   UNL     1      42.688 137.432  18.719  1.00  0.00    -0.066 C 
ATOM      5  C   UNL     1      43.602 138.106  18.310  1.00  0.00     0.007 C 
ENDBRANCH   3   4
BRANCH   3   6
ATOM      6  C   UNL     1      42.122 135.224  19.724  1.00  0.00    -0.003 A 
ATOM      7  C   UNL     1      41.242 134.166  20.021  1.00  0.00     0.008 A 
ATOM      8  C   UNL     1      43.506 135.013  19.947  1.00  0.00     0.016 A 
ATOM      9  C   UNL     1      41.711 132.927  20.462  1.00  0.00     0.009 A 
ATOM     10  C   UNL     1      43.987 133.771  20.389  1.00  0.00    -0.018 A 
ATOM     11  C   UNL     1      43.082 132.717  20.642  1.00  0.00    -0.018 A 
ATOM     12  C   UNL     1      45.363 133.567  20.588  1.00  0.00     0.009 A 
ATOM     13  C   UNL     1      43.564 131.475  21.084  1.00  0.00     0.009 A 
ATOM     14  C   UNL     1      45.831 132.325  21.028  1.00  0.00     0.001 A 
ATOM     15  C   UNL     1      44.936 131.283  21.275  1.00  0.00     0.001 A 
ENDBRANCH   3   6
BRANCH   3  16
ATOM     16  C   UNL     1      40.876 137.374  20.431  1.00  0.00     0.007 C 
ATOM     17  C   UNL     1      41.732 137.323  21.720  1.00  0.00     0.015 C 
ATOM     18  C   UNL     1      40.635 138.866  20.081  1.00  0.00     0.015 C 
ATOM     19  C   UNL     1      39.504 136.732  20.774  1.00  0.00     0.015 C 
ENDBRANCH   3  16
ENDBRANCH   2   3
ENDBRANCH   1   2
BRANCH   1  20
ATOM     20  C   UNL     1      40.409 137.477  16.044  1.00  0.00     0.337 C 
ATOM     21  O   UNL     1      39.154 137.615  16.041  1.00  0.00    -0.249 OA
BRANCH  20  22
ATOM     22  O   UNL     1      41.218 138.309  15.265  1.00  0.00    -0.467 OA
ATOM     23  C   UNL     1      42.519 137.928  14.837  1.00  0.00     0.282 C 
ENDBRANCH  20  22
ENDBRANCH   1  20
BRANCH   1  24
ATOM     24  C   UNL     1      40.736 134.988  16.195  1.00  0.00     0.119 C 
BRANCH  24  25
ATOM     25  C   UNL     1      40.502 135.207  14.743  1.00  0.00     0.077 C 
ATOM     26  N   UNL     1      40.315 135.375  13.613  1.00  0.00    -0.197 NA
ENDBRANCH  24  25
BRANCH  24  27
ATOM     27  C   UNL     1      39.420 134.388  16.772  1.00  0.00     0.027 C 
ATOM     28  C   UNL     1      38.340 134.114  15.717  1.00  0.00     0.006 C 
ENDBRANCH  24  27
BRANCH  24  29
ATOM     29  C   UNL     1      41.916 134.023  16.451  1.00  0.00    -0.024 A 
ATOM     30  C   UNL     1      43.267 134.424  16.329  1.00  0.00     0.007 A 
ATOM     31  C   UNL     1      41.656 132.705  16.889  1.00  0.00     0.007 A 
ATOM     32  C   UNL     1      44.308 133.535  16.611  1.00  0.00     0.020 A 
ATOM     33  C   UNL     1      42.700 131.820  17.169  1.00  0.00     0.020 A 
ATOM     34  C   UNL     1      44.028 132.232  17.029  1.00  0.00     0.052 A 
BRANCH  34  35
ATOM     35  C   UNL     1      45.102 131.320  17.322  1.00  0.00     0.099 C 
ATOM     36  N   UNL     1      45.965 130.587  17.557  1.00  0.00    -0.192 NA
ENDBRANCH  34  35
ENDBRANCH  24  29
ENDBRANCH   1  24
TORSDOF 12
ENDMDL
MODEL 7
REMARK VINA RESULT:      -6.0      1.326      2.303
REMARK SMILES C#C[C@@](O[C@H](C(=O)OC)[C@](C#N)(CC)c1ccc(C#N)cc1)(c1ccc2ccccc2c1)C(C)(C)C
REMARK SMILES IDX 5 1 4 2 3 3 2 4 1 5 23 6 24 7 32 8 25 9 31 10 26 11 30 12
REMARK SMILES IDX 27 13 29 14 28 15 33 16 34 17 35 18 36 19 6 20 7 21 8 22
REMARK SMILES IDX 9 23 10 24 11 25 12 26 13 27 14 28 15 29 16 30 22 31 17 32
REMARK SMILES IDX 21 33 18 34 19 35 20 36
REMARK H PARENT
ROOT
ATOM      1  C   UNL     1      42.920 134.302  17.386  1.00  0.00     0.254 C 
ENDROOT
BRANCH   1   2
ATOM      2  O   UNL     1      41.807 134.690  18.199  1.00  0.00    -0.341 OA
BRANCH   2   3
ATOM      3  C   UNL     1      41.845 136.031  18.725  1.00  0.00     0.159 C 
BRANCH   3   4
ATOM      4  C   UNL     1      41.288 136.993  17.728  1.00  0.00    -0.066 C 
ATOM      5  C   UNL     1      40.837 137.782  16.932  1.00  0.00     0.007 C 
ENDBRANCH   3   4
BRANCH   3   6
ATOM      6  C   UNL     1      43.291 136.443  19.102  1.00  0.00    -0.003 A 
ATOM      7  C   UNL     1      43.905 137.539  18.467  1.00  0.00     0.008 A 
ATOM      8  C   UNL     1      44.059 135.710  20.041  1.00  0.00     0.016 A 
ATOM      9  C   UNL     1      45.204 137.935  18.788  1.00  0.00     0.009 A 
ATOM     10  C   UNL     1      45.366 136.101  20.371  1.00  0.00    -0.018 A 
ATOM     11  C   UNL     1      45.941 137.228  19.743  1.00  0.00    -0.018 A 
ATOM     12  C   UNL     1      46.111 135.378  21.317  1.00  0.00     0.009 A 
ATOM     13  C   UNL     1      47.248 137.619  20.074  1.00  0.00     0.009 A 
ATOM     14  C   UNL     1      47.412 135.777  21.639  1.00  0.00     0.001 A 
ATOM     15  C   UNL     1      47.979 136.893  21.020  1.00  0.00     0.001 A 
ENDBRANCH   3   6
BRANCH   3  16
ATOM     16  C   UNL     1      40.902 136.059  20.006  1.00  0.00     0.007 C 
ATOM     17  C   UNL     1      39.404 135.989  19.616  1.00  0.00     0.015 C 
ATOM     18  C   UNL     1      41.196 134.880  20.970  1.00  0.00     0.015 C 
ATOM     19  C   UNL     1      41.103 137.384  20.792  1.00  0.00     0.015 C 
ENDBRANCH   3  16
ENDBRANCH   2   3
ENDBRANCH   1   2
BRANCH   1  20
ATOM     20  C   UNL     1      42.625 134.554  15.923  1.00  0.00     0.337 C 
ATOM     21  O   UNL     1      41.553 134.129  15.409  1.00  0.00    -0.249 OA
BRANCH  20  22
ATOM     22  O   UNL     1      43.569 135.228  15.142  1.00  0.00    -0.467 OA
ATOM     23  C   UNL     1      43.348 136.537  14.632  1.00  0.00     0.282 C 
ENDBRANCH  20  22
ENDBRANCH   1  20
BRANCH   1  24
ATOM     24  C   UNL     1      43.246 132.778  17.590  1.00  0.00     0.119 C 
BRANCH  24  25
ATOM     25  C   UNL     1      41.963 132.036  17.715  1.00  0.00     0.077 C 
ATOM     26  N   UNL     1      40.963 131.462  17.815  1.00  0.00    -0.197 NA
ENDBRANCH  24  25
BRANCH  24  27
ATOM     27  C   UNL     1      44.019 132.555  18.925  1.00  0.00     0.027 C 
ATOM     28  C   UNL     1      43.235 131.764  19.979  1.00  0.00     0.006 C 
ENDBRANCH  24  27
BRANCH  24  29
ATOM     29  C   UNL     1      44.091 132.276  16.398  1.00  0.00    -0.024 A 
ATOM     30  C   UNL     1      45.466 132.583  16.257  1.00  0.00     0.007 A 
ATOM     31  C   UNL     1      43.504 131.421  15.438  1.00  0.00     0.007 A 
ATOM     32  C   UNL     1      46.208 132.074  15.187  1.00  0.00     0.020 A 
ATOM     33  C   UNL     1      44.251 130.916  14.370  1.00  0.00     0.020 A 
ATOM     34  C   UNL     1      45.603 131.243  14.242  1.00  0.00     0.052 A 
BRANCH  34  35
ATOM     35  C   UNL     1      46.372 130.718  13.144  1.00  0.00     0.099 C 
ATOM     36  N   UNL     1      46.991 130.296  12.262  1.00  0.00    -0.192 NA
ENDBRANCH  34  35
ENDBRANCH  24  29
ENDBRANCH   1  24
TORSDOF 12
ENDMDL
MODEL 8
REMARK VINA RESULT:      -6.0      2.290      5.922
REMARK SMILES C#C[C@@](O[C@H](C(=O)OC)[C@](C#N)(CC)c1ccc(C#N)cc1)(c1ccc2ccccc2c1)C(C)(C)C
REMARK SMILES IDX 5 1 4 2 3 3 2 4 1 5 23 6 24 7 32 8 25 9 31 10 26 11 30 12
REMARK SMILES IDX 27 13 29 14 28 15 33 16 34 17 35 18 36 19 6 20 7 21 8 22
REMARK SMILES IDX 9 23 10 24 11 25 12 26 13 27 14 28 15 29 16 30 22 31 17 32
REMARK SMILES IDX 21 33 18 34 19 35 20 36
REMARK H PARENT
ROOT
ATOM      1  C   UNL     1      43.224 133.557  18.085  1.00  0.00     0.254 C 
ENDROOT
BRANCH   1   2
ATOM      2  O   UNL     1      43.898 134.795  18.338  1.00  0.00    -0.341 OA
BRANCH   2   3
ATOM      3  C   UNL     1      43.066 135.895  18.756  1.00  0.00     0.159 C 
BRANCH   3   4
ATOM      4  C   UNL     1      42.013 135.415  19.701  1.00  0.00    -0.066 C 
ATOM      5  C   UNL     1      41.153 135.025  20.454  1.00  0.00     0.007 C 
ENDBRANCH   3   4
BRANCH   3   6
ATOM      6  C   UNL     1      42.402 136.589  17.539  1.00  0.00    -0.003 A 
ATOM      7  C   UNL     1      43.188 137.033  16.459  1.00  0.00     0.008 A 
ATOM      8  C   UNL     1      41.010 136.854  17.494  1.00  0.00     0.016 A 
ATOM      9  C   UNL     1      42.619 137.659  15.349  1.00  0.00     0.009 A 
ATOM     10  C   UNL     1      40.428 137.482  16.383  1.00  0.00    -0.018 A 
ATOM     11  C   UNL     1      41.239 137.882  15.297  1.00  0.00    -0.018 A 
ATOM     12  C   UNL     1      39.045 137.723  16.340  1.00  0.00     0.009 A 
ATOM     13  C   UNL     1      40.657 138.509  14.185  1.00  0.00     0.009 A 
ATOM     14  C   UNL     1      38.475 138.348  15.227  1.00  0.00     0.001 A 
ATOM     15  C   UNL     1      39.278 138.741  14.153  1.00  0.00     0.001 A 
ENDBRANCH   3   6
BRANCH   3  16
ATOM     16  C   UNL     1      43.998 136.915  19.545  1.00  0.00     0.007 C 
ATOM     17  C   UNL     1      45.142 137.454  18.651  1.00  0.00     0.015 C 
ATOM     18  C   UNL     1      43.201 138.134  20.080  1.00  0.00     0.015 C 
ATOM     19  C   UNL     1      44.665 136.207  20.756  1.00  0.00     0.015 C 
ENDBRANCH   3  16
ENDBRANCH   2   3
ENDBRANCH   1   2
BRANCH   1  20
ATOM     20  C   UNL     1      43.765 132.464  18.982  1.00  0.00     0.337 C 
ATOM     21  O   UNL     1      45.011 132.310  19.114  1.00  0.00    -0.249 OA
BRANCH  20  22
ATOM     22  O   UNL     1      42.870 131.605  19.627  1.00  0.00    -0.467 OA
ATOM     23  C   UNL     1      42.642 131.652  21.030  1.00  0.00     0.282 C 
ENDBRANCH  20  22
ENDBRANCH   1  20
BRANCH   1  24
ATOM     24  C   UNL     1      43.404 133.129  16.584  1.00  0.00     0.119 C 
BRANCH  24  25
ATOM     25  C   UNL     1      43.610 131.657  16.537  1.00  0.00     0.077 C 
ATOM     26  N   UNL     1      43.765 130.510  16.501  1.00  0.00    -0.197 NA
ENDBRANCH  24  25
BRANCH  24  27
ATOM     27  C   UNL     1      44.686 133.776  15.978  1.00  0.00     0.027 C 
ATOM     28  C   UNL     1      45.719 132.763  15.467  1.00  0.00     0.006 C 
ENDBRANCH  24  27
BRANCH  24  29
ATOM     29  C   UNL     1      42.159 133.565  15.778  1.00  0.00    -0.024 A 
ATOM     30  C   UNL     1      40.858 133.574  16.335  1.00  0.00     0.007 A 
ATOM     31  C   UNL     1      42.315 134.039  14.456  1.00  0.00     0.007 A 
ATOM     32  C   UNL     1      39.762 134.016  15.589  1.00  0.00     0.020 A 
ATOM     33  C   UNL     1      41.215 134.479  13.715  1.00  0.00     0.020 A 
ATOM     34  C   UNL     1      39.937 134.467  14.279  1.00  0.00     0.052 A 
BRANCH  34  35
ATOM     35  C   UNL     1      38.806 134.924  13.515  1.00  0.00     0.099 C 
ATOM     36  N   UNL     1      37.897 135.292  12.902  1.00  0.00    -0.192 NA
ENDBRANCH  34  35
ENDBRANCH  24  29
ENDBRANCH   1  24
TORSDOF 12
ENDMDL
MODEL 9
REMARK VINA RESULT:      -6.0      2.363      4.071
REMARK SMILES C#C[C@@](O[C@H](C(=O)OC)[C@](C#N)(CC)c1ccc(C#N)cc1)(c1ccc2ccccc2c1)C(C)(C)C
REMARK SMILES IDX 5 1 4 2 3 3 2 4 1 5 23 6 24 7 32 8 25 9 31 10 26 11 30 12
REMARK SMILES IDX 27 13 29 14 28 15 33 16 34 17 35 18 36 19 6 20 7 21 8 22
REMARK SMILES IDX 9 23 10 24 11 25 12 26 13 27 14 28 15 29 16 30 22 31 17 32
REMARK SMILES IDX 21 33 18 34 19 35 20 36
REMARK H PARENT
ROOT
ATOM      1  C   UNL     1      42.021 135.272  17.032  1.00  0.00     0.254 C 
ENDROOT
BRANCH   1   2
ATOM      2  O   UNL     1      41.121 135.778  18.024  1.00  0.00    -0.341 OA
BRANCH   2   3
ATOM      3  C   UNL     1      41.727 136.270  19.235  1.00  0.00     0.159 C 
BRANCH   3   4
ATOM      4  C   UNL     1      42.448 137.551  18.969  1.00  0.00    -0.066 C 
ATOM      5  C   UNL     1      43.027 138.585  18.740  1.00  0.00     0.007 C 
ENDBRANCH   3   4
BRANCH   3   6
ATOM      6  C   UNL     1      42.708 135.229  19.833  1.00  0.00    -0.003 A 
ATOM      7  C   UNL     1      44.087 135.504  19.889  1.00  0.00     0.008 A 
ATOM      8  C   UNL     1      42.270 133.959  20.285  1.00  0.00     0.016 A 
ATOM      9  C   UNL     1      44.993 134.587  20.425  1.00  0.00     0.009 A 
ATOM     10  C   UNL     1      43.173 133.031  20.825  1.00  0.00    -0.018 A 
ATOM     11  C   UNL     1      44.547 133.352  20.902  1.00  0.00    -0.018 A 
ATOM     12  C   UNL     1      42.725 131.783  21.287  1.00  0.00     0.009 A 
ATOM     13  C   UNL     1      45.450 132.424  21.444  1.00  0.00     0.009 A 
ATOM     14  C   UNL     1      43.633 130.866  21.826  1.00  0.00     0.001 A 
ATOM     15  C   UNL     1      44.991 131.185  21.903  1.00  0.00     0.001 A 
ENDBRANCH   3   6
BRANCH   3  16
ATOM     16  C   UNL     1      40.547 136.581  20.257  1.00  0.00     0.007 C 
ATOM     17  C   UNL     1      39.570 135.386  20.384  1.00  0.00     0.015 C 
ATOM     18  C   UNL     1      41.080 136.910  21.676  1.00  0.00     0.015 C 
ATOM     19  C   UNL     1      39.714 137.795  19.763  1.00  0.00     0.015 C 
ENDBRANCH   3  16
ENDBRANCH   2   3
ENDBRANCH   1   2
BRANCH   1  20
ATOM     20  C   UNL     1      42.103 136.221  15.854  1.00  0.00     0.337 C 
ATOM     21  O   UNL     1      43.067 136.145  15.044  1.00  0.00    -0.249 OA
BRANCH  20  22
ATOM     22  O   UNL     1      41.120 137.204  15.700  1.00  0.00    -0.467 OA
ATOM     23  C   UNL     1      41.352 138.413  14.988  1.00  0.00     0.282 C 
ENDBRANCH  20  22
ENDBRANCH   1  20
BRANCH   1  24
ATOM     24  C   UNL     1      41.546 133.862  16.525  1.00  0.00     0.119 C 
BRANCH  24  25
ATOM     25  C   UNL     1      40.731 134.055  15.296  1.00  0.00     0.077 C 
ATOM     26  N   UNL     1      40.102 134.206  14.336  1.00  0.00    -0.197 NA
ENDBRANCH  24  25
BRANCH  24  27
ATOM     27  C   UNL     1      40.614 133.187  17.574  1.00  0.00     0.027 C 
ATOM     28  C   UNL     1      39.117 133.327  17.266  1.00  0.00     0.006 C 
ENDBRANCH  24  27
BRANCH  24  29
ATOM     29  C   UNL     1      42.783 132.973  16.265  1.00  0.00    -0.024 A 
ATOM     30  C   UNL     1      43.136 132.520  14.972  1.00  0.00     0.007 A 
ATOM     31  C   UNL     1      43.644 132.646  17.337  1.00  0.00     0.007 A 
ATOM     32  C   UNL     1      44.286 131.752  14.770  1.00  0.00     0.020 A 
ATOM     33  C   UNL     1      44.793 131.878  17.129  1.00  0.00     0.020 A 
ATOM     34  C   UNL     1      45.115 131.429  15.846  1.00  0.00     0.052 A 
BRANCH  34  35
ATOM     35  C   UNL     1      46.301 130.642  15.633  1.00  0.00     0.099 C 
ATOM     36  N   UNL     1      47.255 130.009  15.462  1.00  0.00    -0.192 NA
ENDBRANCH  34  35
ENDBRANCH  24  29
ENDBRANCH   1  24
TORSDOF 12
ENDMDL


