REMARK SMILES Cc1cc(-n2cc(C[C@@H](C)/N=C(\O)[C@H](C)C#N)nn2)[nH+]c2ccc3ccccc3c12
REMARK SMILES IDX 11 1 12 2 13 3 14 5 15 6 16 7 17 8 9 9 10 10 8 11 7 12 18 13
REMARK SMILES IDX 6 14 19 15 5 16 4 17 3 18 20 19 2 20 21 21 30 22 22 23 29 24
REMARK SMILES IDX 23 25 28 26 24 27 27 28 25 29 26 30 1 32
REMARK H PARENT 13 4 20 31
ROOT
ATOM      1  N   UNL     1       3.973   0.342  -2.800  1.00  0.00    -0.251 NA
ENDROOT
BRANCH   1   2
ATOM      2  C   UNL     1       4.140   1.283  -3.683  1.00  0.00     0.198 C 
BRANCH   2   3
ATOM      3  O   UNL     1       4.893   2.416  -3.371  1.00  0.00    -0.496 OA
ATOM      4  H   UNL     1       5.029   3.163  -4.040  1.00  0.00     0.295 HD
ENDBRANCH   2   3
BRANCH   2   5
ATOM      5  C   UNL     1       3.509   1.150  -5.044  1.00  0.00     0.175 C 
ATOM      6  C   UNL     1       1.983   1.140  -4.937  1.00  0.00     0.034 C 
BRANCH   5   7
ATOM      7  C   UNL     1       3.983  -0.076  -5.704  1.00  0.00     0.075 C 
ATOM      8  N   UNL     1       4.356  -1.040  -6.224  1.00  0.00    -0.197 NA
ENDBRANCH   5   7
ENDBRANCH   2   5
ENDBRANCH   1   2
BRANCH   1   9
ATOM      9  C   UNL     1       4.514   0.372  -1.440  1.00  0.00     0.112 C 
ATOM     10  C   UNL     1       4.502  -1.046  -0.863  1.00  0.00     0.034 C 
BRANCH   9  11
ATOM     11  C   UNL     1       3.726   1.357  -0.550  1.00  0.00     0.089 C 
BRANCH  11  12
ATOM     12  C   UNL     1       2.252   1.078  -0.540  1.00  0.00     0.111 A 
ATOM     13  N   UNL     1       1.385   1.518  -1.472  1.00  0.00    -0.112 NA
ATOM     14  C   UNL     1       1.567   0.282   0.351  1.00  0.00     0.260 A 
ATOM     15  N   UNL     1       0.201   1.013  -1.158  1.00  0.00     0.032 NA
ATOM     16  N   UNL     1       0.285   0.269  -0.064  1.00  0.00    -0.084 N 
BRANCH  16  17
ATOM     17  C   UNL     1      -0.827  -0.442   0.517  1.00  0.00     0.306 A 
ATOM     18  C   UNL     1      -0.747  -0.969   1.809  1.00  0.00     0.105 A 
ATOM     19  N   UNL     1      -1.997  -0.549  -0.170  1.00  0.00    -0.238 N 
ATOM     20  C   UNL     1      -1.836  -1.648   2.373  1.00  0.00    -0.031 A 
ATOM     21  C   UNL     1      -3.066  -1.242   0.318  1.00  0.00     0.133 A 
ATOM     22  C   UNL     1      -2.983  -1.922   1.566  1.00  0.00     0.032 A 
ATOM     23  C   UNL     1      -4.257  -1.258  -0.418  1.00  0.00     0.053 A 
ATOM     24  C   UNL     1      -4.066  -2.790   1.935  1.00  0.00    -0.007 A 
ATOM     25  C   UNL     1      -5.368  -1.951   0.042  1.00  0.00     0.013 A 
ATOM     26  C   UNL     1      -3.961  -3.783   2.938  1.00  0.00     0.009 A 
ATOM     27  C   UNL     1      -5.280  -2.738   1.192  1.00  0.00    -0.017 A 
ATOM     28  C   UNL     1      -5.062  -4.564   3.298  1.00  0.00     0.001 A 
ATOM     29  C   UNL     1      -6.383  -3.519   1.574  1.00  0.00     0.009 A 
ATOM     30  C   UNL     1      -6.277  -4.413   2.637  1.00  0.00     0.001 A 
ATOM     31  H   UNL     1      -2.072  -0.096  -1.109  1.00  0.00     0.312 HD
ATOM     32  C   UNL     1      -1.763  -1.901   3.860  1.00  0.00     0.045 C 
ENDBRANCH  16  17
ENDBRANCH  11  12
ENDBRANCH   9  11
ENDBRANCH   1   9
TORSDOF 8


