MODEL 1
REMARK VINA RESULT:      -8.2      0.000      0.000
REMARK SMILES C/C(=C\n1nnc(C)c1-c1c2ccccc2cc2c(N=[N+]=[N-])cccc12)C(=O)N(C=N)C(O)=C1CC1
REMARK SMILES IDX 2 1 1 2 27 3 28 4 29 5 30 6 31 7 32 9 33 10 34 12 35 13
REMARK SMILES IDX 36 14 3 15 4 16 5 17 9 18 6 19 7 20 8 21 10 22 11 23 26 24
REMARK SMILES IDX 12 25 16 26 25 27 18 28 13 29 15 30 17 31 24 32 19 33 14 34
REMARK SMILES IDX 23 35 20 36 21 37 22 38
REMARK H PARENT 31 8 33 11
ROOT
ATOM      1  C   UNL     1      43.921 131.931  17.098  1.00  0.00     0.033 C 
ATOM      2  C   UNL     1      44.346 132.053  18.539  1.00  0.00     0.052 C 
ENDROOT
BRANCH   1   3
ATOM      3  C   UNL     1      44.969 131.851  16.044  1.00  0.00     0.263 C 
ATOM      4  O   UNL     1      45.631 132.881  15.744  1.00  0.00    -0.268 OA
BRANCH   3   5
ATOM      5  N   UNL     1      45.233 130.616  15.345  1.00  0.00    -0.238 N 
BRANCH   5   6
ATOM      6  C   UNL     1      45.527 129.416  16.084  1.00  0.00     0.201 C 
BRANCH   6   7
ATOM      7  N   UNL     1      45.285 128.250  15.581  1.00  0.00    -0.291 NA
ATOM      8  H   UNL     1      45.412 127.385  16.154  1.00  0.00     0.189 HD
ENDBRANCH   6   7
ENDBRANCH   5   6
BRANCH   5   9
ATOM      9  C   UNL     1      45.216 130.555  13.903  1.00  0.00     0.198 C 
BRANCH   9  10
ATOM     10  O   UNL     1      44.012 130.711  13.216  1.00  0.00    -0.494 OA
ATOM     11  H   UNL     1      43.553 129.929  12.764  1.00  0.00     0.295 HD
ENDBRANCH   9  10
BRANCH   9  12
ATOM     12  C   UNL     1      46.339 130.364  13.212  1.00  0.00    -0.009 C 
ATOM     13  C   UNL     1      47.225 130.612  11.997  1.00  0.00     0.041 C 
ATOM     14  C   UNL     1      47.724 129.752  13.019  1.00  0.00     0.041 C 
ENDBRANCH   9  12
ENDBRANCH   5   9
ENDBRANCH   3   5
ENDBRANCH   1   3
BRANCH   1  15
ATOM     15  C   UNL     1      42.621 131.909  16.727  1.00  0.00     0.124 C 
BRANCH  15  16
ATOM     16  N   UNL     1      42.024 132.757  15.728  1.00  0.00    -0.219 N 
ATOM     17  N   UNL     1      41.999 132.549  14.418  1.00  0.00    -0.062 NA
ATOM     18  C   UNL     1      41.380 133.913  15.968  1.00  0.00     0.098 A 
ATOM     19  N   UNL     1      41.365 133.535  13.798  1.00  0.00    -0.135 NA
ATOM     20  C   UNL     1      40.960 134.399  14.751  1.00  0.00     0.088 A 
ATOM     21  C   UNL     1      40.259 135.690  14.488  1.00  0.00     0.071 C 
BRANCH  18  22
ATOM     22  C   UNL     1      41.216 134.548  17.299  1.00  0.00     0.018 A 
ATOM     23  C   UNL     1      40.001 134.388  18.012  1.00  0.00    -0.008 A 
ATOM     24  C   UNL     1      42.245 135.367  17.830  1.00  0.00    -0.008 A 
ATOM     25  C   UNL     1      38.950 133.579  17.524  1.00  0.00     0.009 A 
ATOM     26  C   UNL     1      39.827 135.050  19.252  1.00  0.00    -0.017 A 
ATOM     27  C   UNL     1      43.460 135.561  17.138  1.00  0.00     0.009 A 
ATOM     28  C   UNL     1      42.056 136.024  19.077  1.00  0.00    -0.008 A 
ATOM     29  C   UNL     1      37.768 133.429  18.254  1.00  0.00     0.001 A 
ATOM     30  C   UNL     1      38.626 134.899  19.967  1.00  0.00     0.009 A 
ATOM     31  C   UNL     1      40.846 135.854  19.768  1.00  0.00     0.018 A 
ATOM     32  C   UNL     1      44.461 136.373  17.664  1.00  0.00     0.001 A 
ATOM     33  C   UNL     1      43.079 136.850  19.606  1.00  0.00     0.045 A 
ATOM     34  C   UNL     1      37.606 134.090  19.468  1.00  0.00     0.001 A 
ATOM     35  C   UNL     1      44.276 137.013  18.886  1.00  0.00     0.011 A 
BRANCH  33  36
ATOM     36  N   UNL     1      42.888 137.517  20.864  1.00  0.00    -0.060 NA
BRANCH  36  37
ATOM     37  N   UNL     1      43.364 137.095  21.919  1.00  0.00     0.005 N 
ATOM     38  N   UNL     1      43.840 136.675  22.973  1.00  0.00    -0.003 NA
ENDBRANCH  36  37
ENDBRANCH  33  36
ENDBRANCH  18  22
ENDBRANCH  15  16
ENDBRANCH   1  15
TORSDOF 12
ENDMDL
MODEL 2
REMARK VINA RESULT:      -7.8      1.954      3.472
REMARK SMILES C/C(=C\n1nnc(C)c1-c1c2ccccc2cc2c(N=[N+]=[N-])cccc12)C(=O)N(C=N)C(O)=C1CC1
REMARK SMILES IDX 2 1 1 2 27 3 28 4 29 5 30 6 31 7 32 9 33 10 34 12 35 13
REMARK SMILES IDX 36 14 3 15 4 16 5 17 9 18 6 19 7 20 8 21 10 22 11 23 26 24
REMARK SMILES IDX 12 25 16 26 25 27 18 28 13 29 15 30 17 31 24 32 19 33 14 34
REMARK SMILES IDX 23 35 20 36 21 37 22 38
REMARK H PARENT 31 8 33 11
ROOT
ATOM      1  C   UNL     1      43.989 131.841  14.757  1.00  0.00     0.033 C 
ATOM      2  C   UNL     1      43.618 130.880  13.657  1.00  0.00     0.052 C 
ENDROOT
BRANCH   1   3
ATOM      3  C   UNL     1      44.977 131.410  15.785  1.00  0.00     0.263 C 
ATOM      4  O   UNL     1      45.295 132.201  16.714  1.00  0.00    -0.268 OA
BRANCH   3   5
ATOM      5  N   UNL     1      45.590 130.104  15.730  1.00  0.00    -0.238 N 
BRANCH   5   6
ATOM      6  C   UNL     1      44.847 128.939  16.130  1.00  0.00     0.201 C 
BRANCH   6   7
ATOM      7  N   UNL     1      45.136 127.771  15.656  1.00  0.00    -0.291 NA
ATOM      8  H   UNL     1      45.561 127.037  16.267  1.00  0.00     0.189 HD
ENDBRANCH   6   7
ENDBRANCH   5   6
BRANCH   5   9
ATOM      9  C   UNL     1      46.953 129.938  15.284  1.00  0.00     0.198 C 
BRANCH   9  10
ATOM     10  O   UNL     1      47.933 129.526  16.187  1.00  0.00    -0.494 OA
ATOM     11  H   UNL     1      47.976 129.896  17.128  1.00  0.00     0.295 HD
ENDBRANCH   9  10
BRANCH   9  12
ATOM     12  C   UNL     1      47.290 130.160  14.014  1.00  0.00    -0.009 C 
ATOM     13  C   UNL     1      47.981 129.750  12.719  1.00  0.00     0.041 C 
ATOM     14  C   UNL     1      47.282 130.993  12.735  1.00  0.00     0.041 C 
ENDBRANCH   9  12
ENDBRANCH   5   9
ENDBRANCH   3   5
ENDBRANCH   1   3
BRANCH   1  15
ATOM     15  C   UNL     1      43.445 133.074  14.855  1.00  0.00     0.124 C 
BRANCH  15  16
ATOM     16  N   UNL     1      42.040 133.358  14.997  1.00  0.00    -0.219 N 
ATOM     17  N   UNL     1      41.072 133.028  14.153  1.00  0.00    -0.062 NA
ATOM     18  C   UNL     1      41.476 134.009  16.030  1.00  0.00     0.098 A 
ATOM     19  N   UNL     1      39.896 133.449  14.599  1.00  0.00    -0.135 NA
ATOM     20  C   UNL     1      40.123 134.061  15.780  1.00  0.00     0.088 A 
ATOM     21  C   UNL     1      39.079 134.740  16.602  1.00  0.00     0.071 C 
BRANCH  18  22
ATOM     22  C   UNL     1      42.204 134.598  17.180  1.00  0.00     0.018 A 
ATOM     23  C   UNL     1      42.616 135.954  17.135  1.00  0.00    -0.008 A 
ATOM     24  C   UNL     1      42.547 133.792  18.295  1.00  0.00    -0.008 A 
ATOM     25  C   UNL     1      42.295 136.797  16.046  1.00  0.00     0.009 A 
ATOM     26  C   UNL     1      43.368 136.492  18.208  1.00  0.00    -0.017 A 
ATOM     27  C   UNL     1      42.167 132.435  18.364  1.00  0.00     0.009 A 
ATOM     28  C   UNL     1      43.300 134.346  19.366  1.00  0.00    -0.008 A 
ATOM     29  C   UNL     1      42.703 138.132  16.034  1.00  0.00     0.001 A 
ATOM     30  C   UNL     1      43.782 137.835  18.173  1.00  0.00     0.009 A 
ATOM     31  C   UNL     1      43.700 135.691  19.304  1.00  0.00     0.018 A 
ATOM     32  C   UNL     1      42.515 131.650  19.460  1.00  0.00     0.001 A 
ATOM     33  C   UNL     1      43.652 133.541  20.478  1.00  0.00     0.045 A 
ATOM     34  C   UNL     1      43.447 138.648  17.091  1.00  0.00     0.001 A 
ATOM     35  C   UNL     1      43.250 132.193  20.509  1.00  0.00     0.011 A 
BRANCH  33  36
ATOM     36  N   UNL     1      44.417 134.099  21.559  1.00  0.00    -0.060 NA
BRANCH  36  37
ATOM     37  N   UNL     1      45.649 134.098  21.571  1.00  0.00     0.005 N 
ATOM     38  N   UNL     1      46.879 134.098  21.584  1.00  0.00    -0.003 NA
ENDBRANCH  36  37
ENDBRANCH  33  36
ENDBRANCH  18  22
ENDBRANCH  15  16
ENDBRANCH   1  15
TORSDOF 12
ENDMDL
MODEL 3
REMARK VINA RESULT:      -7.7      2.588      3.924
REMARK SMILES C/C(=C\n1nnc(C)c1-c1c2ccccc2cc2c(N=[N+]=[N-])cccc12)C(=O)N(C=N)C(O)=C1CC1
REMARK SMILES IDX 2 1 1 2 27 3 28 4 29 5 30 6 31 7 32 9 33 10 34 12 35 13
REMARK SMILES IDX 36 14 3 15 4 16 5 17 9 18 6 19 7 20 8 21 10 22 11 23 26 24
REMARK SMILES IDX 12 25 16 26 25 27 18 28 13 29 15 30 17 31 24 32 19 33 14 34
REMARK SMILES IDX 23 35 20 36 21 37 22 38
REMARK H PARENT 31 8 33 11
ROOT
ATOM      1  C   UNL     1      44.036 132.239  16.107  1.00  0.00     0.033 C 
ATOM      2  C   UNL     1      44.591 133.601  15.778  1.00  0.00     0.052 C 
ENDROOT
BRANCH   1   3
ATOM      3  C   UNL     1      44.244 131.125  15.142  1.00  0.00     0.263 C 
ATOM      4  O   UNL     1      43.610 131.119  14.052  1.00  0.00    -0.268 OA
BRANCH   3   5
ATOM      5  N   UNL     1      45.151 130.041  15.436  1.00  0.00    -0.238 N 
BRANCH   5   6
ATOM      6  C   UNL     1      44.657 128.827  16.030  1.00  0.00     0.201 C 
BRANCH   6   7
ATOM      7  N   UNL     1      45.157 127.679  15.708  1.00  0.00    -0.291 NA
ATOM      8  H   UNL     1      46.006 127.617  15.102  1.00  0.00     0.189 HD
ENDBRANCH   6   7
ENDBRANCH   5   6
BRANCH   5   9
ATOM      9  C   UNL     1      46.562 130.150  15.153  1.00  0.00     0.198 C 
BRANCH   9  10
ATOM     10  O   UNL     1      47.495 129.828  16.139  1.00  0.00    -0.494 OA
ATOM     11  H   UNL     1      47.604 128.880  16.477  1.00  0.00     0.295 HD
ENDBRANCH   9  10
BRANCH   9  12
ATOM     12  C   UNL     1      46.992 130.543  13.955  1.00  0.00    -0.009 C 
ATOM     13  C   UNL     1      47.947 131.329  13.064  1.00  0.00     0.041 C 
ATOM     14  C   UNL     1      46.932 130.554  12.429  1.00  0.00     0.041 C 
ENDBRANCH   9  12
ENDBRANCH   5   9
ENDBRANCH   3   5
ENDBRANCH   1   3
BRANCH   1  15
ATOM     15  C   UNL     1      43.341 131.996  17.241  1.00  0.00     0.124 C 
BRANCH  15  16
ATOM     16  N   UNL     1      42.222 132.768  17.715  1.00  0.00    -0.219 N 
ATOM     17  N   UNL     1      41.026 132.868  17.150  1.00  0.00    -0.062 NA
ATOM     18  C   UNL     1      42.209 133.521  18.830  1.00  0.00     0.098 A 
ATOM     19  N   UNL     1      40.237 133.666  17.858  1.00  0.00    -0.135 NA
ATOM     20  C   UNL     1      40.955 134.082  18.921  1.00  0.00     0.088 A 
ATOM     21  C   UNL     1      40.471 135.049  19.950  1.00  0.00     0.071 C 
BRANCH  18  22
ATOM     22  C   UNL     1      43.361 133.733  19.741  1.00  0.00     0.018 A 
ATOM     23  C   UNL     1      43.637 132.788  20.761  1.00  0.00    -0.008 A 
ATOM     24  C   UNL     1      44.146 134.910  19.636  1.00  0.00    -0.008 A 
ATOM     25  C   UNL     1      42.884 131.599  20.901  1.00  0.00     0.009 A 
ATOM     26  C   UNL     1      44.698 133.028  21.667  1.00  0.00    -0.017 A 
ATOM     27  C   UNL     1      43.887 135.879  18.643  1.00  0.00     0.009 A 
ATOM     28  C   UNL     1      45.209 135.136  20.552  1.00  0.00    -0.008 A 
ATOM     29  C   UNL     1      43.186 130.679  21.908  1.00  0.00     0.001 A 
ATOM     30  C   UNL     1      44.980 132.098  22.683  1.00  0.00     0.009 A 
ATOM     31  C   UNL     1      45.467 134.190  21.556  1.00  0.00     0.018 A 
ATOM     32  C   UNL     1      44.659 137.033  18.553  1.00  0.00     0.001 A 
ATOM     33  C   UNL     1      45.989 136.315  20.456  1.00  0.00     0.045 A 
ATOM     34  C   UNL     1      44.228 130.930  22.797  1.00  0.00     0.001 A 
ATOM     35  C   UNL     1      45.701 137.254  19.449  1.00  0.00     0.011 A 
BRANCH  33  36
ATOM     36  N   UNL     1      47.062 136.548  21.384  1.00  0.00    -0.060 NA
BRANCH  36  37
ATOM     37  N   UNL     1      48.205 136.832  21.021  1.00  0.00     0.005 N 
ATOM     38  N   UNL     1      49.345 137.117  20.657  1.00  0.00    -0.003 NA
ENDBRANCH  36  37
ENDBRANCH  33  36
ENDBRANCH  18  22
ENDBRANCH  15  16
ENDBRANCH   1  15
TORSDOF 12
ENDMDL
MODEL 4
REMARK VINA RESULT:      -7.5      2.601      3.726
REMARK SMILES C/C(=C\n1nnc(C)c1-c1c2ccccc2cc2c(N=[N+]=[N-])cccc12)C(=O)N(C=N)C(O)=C1CC1
REMARK SMILES IDX 2 1 1 2 27 3 28 4 29 5 30 6 31 7 32 9 33 10 34 12 35 13
REMARK SMILES IDX 36 14 3 15 4 16 5 17 9 18 6 19 7 20 8 21 10 22 11 23 26 24
REMARK SMILES IDX 12 25 16 26 25 27 18 28 13 29 15 30 17 31 24 32 19 33 14 34
REMARK SMILES IDX 23 35 20 36 21 37 22 38
REMARK H PARENT 31 8 33 11
ROOT
ATOM      1  C   UNL     1      44.973 131.793  16.768  1.00  0.00     0.033 C 
ATOM      2  C   UNL     1      45.143 133.115  16.065  1.00  0.00     0.052 C 
ENDROOT
BRANCH   1   3
ATOM      3  C   UNL     1      45.669 130.595  16.224  1.00  0.00     0.263 C 
ATOM      4  O   UNL     1      46.745 130.205  16.753  1.00  0.00    -0.268 OA
BRANCH   3   5
ATOM      5  N   UNL     1      45.141 129.876  15.089  1.00  0.00    -0.238 N 
BRANCH   5   6
ATOM      6  C   UNL     1      44.568 128.567  15.265  1.00  0.00     0.201 C 
BRANCH   6   7
ATOM      7  N   UNL     1      45.209 127.641  15.902  1.00  0.00    -0.291 NA
ATOM      8  H   UNL     1      45.463 126.746  15.427  1.00  0.00     0.189 HD
ENDBRANCH   6   7
ENDBRANCH   5   6
BRANCH   5   9
ATOM      9  C   UNL     1      45.180 130.442  13.762  1.00  0.00     0.198 C 
BRANCH   9  10
ATOM     10  O   UNL     1      43.992 130.800  13.125  1.00  0.00    -0.494 OA
ATOM     11  H   UNL     1      43.154 131.020  13.650  1.00  0.00     0.295 HD
ENDBRANCH   9  10
BRANCH   9  12
ATOM     12  C   UNL     1      46.339 130.642  13.136  1.00  0.00    -0.009 C 
ATOM     13  C   UNL     1      47.247 130.506  11.920  1.00  0.00     0.041 C 
ATOM     14  C   UNL     1      47.765 131.184  13.063  1.00  0.00     0.041 C 
ENDBRANCH   9  12
ENDBRANCH   5   9
ENDBRANCH   3   5
ENDBRANCH   1   3
BRANCH   1  15
ATOM     15  C   UNL     1      44.198 131.653  17.866  1.00  0.00     0.124 C 
BRANCH  15  16
ATOM     16  N   UNL     1      42.875 132.198  18.030  1.00  0.00    -0.219 N 
ATOM     17  N   UNL     1      41.803 131.919  17.301  1.00  0.00    -0.062 NA
ATOM     18  C   UNL     1      42.509 133.090  18.968  1.00  0.00     0.098 A 
ATOM     19  N   UNL     1      40.752 132.604  17.730  1.00  0.00    -0.135 NA
ATOM     20  C   UNL     1      41.168 133.340  18.781  1.00  0.00     0.088 A 
ATOM     21  C   UNL     1      40.318 134.311  19.531  1.00  0.00     0.071 C 
BRANCH  18  22
ATOM     22  C   UNL     1      43.412 133.711  19.967  1.00  0.00     0.018 A 
ATOM     23  C   UNL     1      43.581 133.105  21.238  1.00  0.00    -0.008 A 
ATOM     24  C   UNL     1      44.056 134.941  19.679  1.00  0.00    -0.008 A 
ATOM     25  C   UNL     1      42.962 131.878  21.569  1.00  0.00     0.009 A 
ATOM     26  C   UNL     1      44.394 133.737  22.211  1.00  0.00    -0.017 A 
ATOM     27  C   UNL     1      43.896 135.579  18.430  1.00  0.00     0.009 A 
ATOM     28  C   UNL     1      44.871 135.563  20.665  1.00  0.00    -0.008 A 
ATOM     29  C   UNL     1      43.155 131.298  22.824  1.00  0.00     0.001 A 
ATOM     30  C   UNL     1      44.567 133.146  23.474  1.00  0.00     0.009 A 
ATOM     31  C   UNL     1      45.026 134.949  21.918  1.00  0.00     0.018 A 
ATOM     32  C   UNL     1      44.527 136.790  18.160  1.00  0.00     0.001 A 
ATOM     33  C   UNL     1      45.509 136.797  20.383  1.00  0.00     0.045 A 
ATOM     34  C   UNL     1      43.951 131.932  23.774  1.00  0.00     0.001 A 
ATOM     35  C   UNL     1      45.327 137.396  19.124  1.00  0.00     0.011 A 
BRANCH  33  36
ATOM     36  N   UNL     1      46.330 137.428  21.380  1.00  0.00    -0.060 NA
BRANCH  36  37
ATOM     37  N   UNL     1      47.554 137.517  21.273  1.00  0.00     0.005 N 
ATOM     38  N   UNL     1      48.776 137.605  21.166  1.00  0.00    -0.003 NA
ENDBRANCH  36  37
ENDBRANCH  33  36
ENDBRANCH  18  22
ENDBRANCH  15  16
ENDBRANCH   1  15
TORSDOF 12
ENDMDL
MODEL 5
REMARK VINA RESULT:      -7.4      2.420      3.894
REMARK SMILES C/C(=C\n1nnc(C)c1-c1c2ccccc2cc2c(N=[N+]=[N-])cccc12)C(=O)N(C=N)C(O)=C1CC1
REMARK SMILES IDX 2 1 1 2 27 3 28 4 29 5 30 6 31 7 32 9 33 10 34 12 35 13
REMARK SMILES IDX 36 14 3 15 4 16 5 17 9 18 6 19 7 20 8 21 10 22 11 23 26 24
REMARK SMILES IDX 12 25 16 26 25 27 18 28 13 29 15 30 17 31 24 32 19 33 14 34
REMARK SMILES IDX 23 35 20 36 21 37 22 38
REMARK H PARENT 31 8 33 11
ROOT
ATOM      1  C   UNL     1      43.226 132.363  15.488  1.00  0.00     0.033 C 
ATOM      2  C   UNL     1      42.689 133.477  14.627  1.00  0.00     0.052 C 
ENDROOT
BRANCH   1   3
ATOM      3  C   UNL     1      43.968 131.247  14.840  1.00  0.00     0.263 C 
ATOM      4  O   UNL     1      43.611 130.839  13.701  1.00  0.00    -0.268 OA
BRANCH   3   5
ATOM      5  N   UNL     1      45.084 130.610  15.498  1.00  0.00    -0.238 N 
BRANCH   5   6
ATOM      6  C   UNL     1      45.508 131.058  16.798  1.00  0.00     0.201 C 
BRANCH   6   7
ATOM      7  N   UNL     1      46.214 130.294  17.566  1.00  0.00    -0.291 NA
ATOM      8  H   UNL     1      47.155 129.956  17.263  1.00  0.00     0.189 HD
ENDBRANCH   6   7
ENDBRANCH   5   6
BRANCH   5   9
ATOM      9  C   UNL     1      45.800 129.524  14.871  1.00  0.00     0.198 C 
BRANCH   9  10
ATOM     10  O   UNL     1      45.585 128.214  15.298  1.00  0.00    -0.494 OA
ATOM     11  H   UNL     1      46.281 127.490  15.161  1.00  0.00     0.295 HD
ENDBRANCH   9  10
BRANCH   9  12
ATOM     12  C   UNL     1      46.657 129.752  13.877  1.00  0.00    -0.009 C 
ATOM     13  C   UNL     1      48.022 129.586  13.218  1.00  0.00     0.041 C 
ATOM     14  C   UNL     1      47.040 130.357  12.528  1.00  0.00     0.041 C 
ENDBRANCH   9  12
ENDBRANCH   5   9
ENDBRANCH   3   5
ENDBRANCH   1   3
BRANCH   1  15
ATOM     15  C   UNL     1      43.043 132.331  16.827  1.00  0.00     0.124 C 
BRANCH  15  16
ATOM     16  N   UNL     1      41.876 132.812  17.521  1.00  0.00    -0.219 N 
ATOM     17  N   UNL     1      40.612 132.660  17.154  1.00  0.00    -0.062 NA
ATOM     18  C   UNL     1      41.885 133.501  18.677  1.00  0.00     0.098 A 
ATOM     19  N   UNL     1      39.796 133.233  18.030  1.00  0.00    -0.135 NA
ATOM     20  C   UNL     1      40.571 133.760  18.999  1.00  0.00     0.088 A 
ATOM     21  C   UNL     1      40.066 134.553  20.157  1.00  0.00     0.071 C 
BRANCH  18  22
ATOM     22  C   UNL     1      43.097 133.933  19.415  1.00  0.00     0.018 A 
ATOM     23  C   UNL     1      43.675 133.076  20.386  1.00  0.00    -0.008 A 
ATOM     24  C   UNL     1      43.641 135.225  19.199  1.00  0.00    -0.008 A 
ATOM     25  C   UNL     1      43.169 131.779  20.633  1.00  0.00     0.009 A 
ATOM     26  C   UNL     1      44.793 133.520  21.133  1.00  0.00    -0.017 A 
ATOM     27  C   UNL     1      43.080 136.108  18.252  1.00  0.00     0.009 A 
ATOM     28  C   UNL     1      44.765 135.656  19.955  1.00  0.00    -0.008 A 
ATOM     29  C   UNL     1      43.766 130.952  21.587  1.00  0.00     0.001 A 
ATOM     30  C   UNL     1      45.373 132.680  22.099  1.00  0.00     0.009 A 
ATOM     31  C   UNL     1      45.323 134.795  20.912  1.00  0.00     0.018 A 
ATOM     32  C   UNL     1      43.617 137.377  18.052  1.00  0.00     0.001 A 
ATOM     33  C   UNL     1      45.305 136.950  19.747  1.00  0.00     0.045 A 
ATOM     34  C   UNL     1      44.861 131.402  22.319  1.00  0.00     0.001 A 
ATOM     35  C   UNL     1      44.719 137.798  18.790  1.00  0.00     0.011 A 
BRANCH  33  36
ATOM     36  N   UNL     1      46.439 137.389  20.513  1.00  0.00    -0.060 NA
BRANCH  36  37
ATOM     37  N   UNL     1      47.531 137.641  20.000  1.00  0.00     0.005 N 
ATOM     38  N   UNL     1      48.620 137.894  19.487  1.00  0.00    -0.003 NA
ENDBRANCH  36  37
ENDBRANCH  33  36
ENDBRANCH  18  22
ENDBRANCH  15  16
ENDBRANCH   1  15
TORSDOF 12
ENDMDL
MODEL 6
REMARK VINA RESULT:      -7.1      2.195      3.415
REMARK SMILES C/C(=C\n1nnc(C)c1-c1c2ccccc2cc2c(N=[N+]=[N-])cccc12)C(=O)N(C=N)C(O)=C1CC1
REMARK SMILES IDX 2 1 1 2 27 3 28 4 29 5 30 6 31 7 32 9 33 10 34 12 35 13
REMARK SMILES IDX 36 14 3 15 4 16 5 17 9 18 6 19 7 20 8 21 10 22 11 23 26 24
REMARK SMILES IDX 12 25 16 26 25 27 18 28 13 29 15 30 17 31 24 32 19 33 14 34
REMARK SMILES IDX 23 35 20 36 21 37 22 38
REMARK H PARENT 31 8 33 11
ROOT
ATOM      1  C   UNL     1      43.548 132.291  16.375  1.00  0.00     0.033 C 
ATOM      2  C   UNL     1      43.374 133.430  15.403  1.00  0.00     0.052 C 
ENDROOT
BRANCH   1   3
ATOM      3  C   UNL     1      44.836 131.545  16.384  1.00  0.00     0.263 C 
ATOM      4  O   UNL     1      45.761 131.908  17.161  1.00  0.00    -0.268 OA
BRANCH   3   5
ATOM      5  N   UNL     1      45.054 130.419  15.508  1.00  0.00    -0.238 N 
BRANCH   5   6
ATOM      6  C   UNL     1      45.262 129.105  16.057  1.00  0.00     0.201 C 
BRANCH   6   7
ATOM      7  N   UNL     1      45.137 128.049  15.321  1.00  0.00    -0.291 NA
ATOM      8  H   UNL     1      45.957 127.430  15.133  1.00  0.00     0.189 HD
ENDBRANCH   6   7
ENDBRANCH   5   6
BRANCH   5   9
ATOM      9  C   UNL     1      45.076 130.582  14.074  1.00  0.00     0.198 C 
BRANCH   9  10
ATOM     10  O   UNL     1      43.877 130.615  13.361  1.00  0.00    -0.494 OA
ATOM     11  H   UNL     1      43.845 130.894  12.388  1.00  0.00     0.295 HD
ENDBRANCH   9  10
BRANCH   9  12
ATOM     12  C   UNL     1      46.227 130.714  13.417  1.00  0.00    -0.009 C 
ATOM     13  C   UNL     1      47.624 131.303  13.265  1.00  0.00     0.041 C 
ATOM     14  C   UNL     1      47.172 130.397  12.260  1.00  0.00     0.041 C 
ENDBRANCH   9  12
ENDBRANCH   5   9
ENDBRANCH   3   5
ENDBRANCH   1   3
BRANCH   1  15
ATOM     15  C   UNL     1      42.570 131.911  17.227  1.00  0.00     0.124 C 
BRANCH  15  16
ATOM     16  N   UNL     1      41.498 132.752  17.695  1.00  0.00    -0.219 N 
ATOM     17  N   UNL     1      40.261 132.802  17.221  1.00  0.00    -0.062 NA
ATOM     18  C   UNL     1      41.582 133.632  18.709  1.00  0.00     0.098 A 
ATOM     19  N   UNL     1      39.537 133.691  17.890  1.00  0.00    -0.135 NA
ATOM     20  C   UNL     1      40.343 134.219  18.835  1.00  0.00     0.088 A 
ATOM     21  C   UNL     1      39.952 135.308  19.776  1.00  0.00     0.071 C 
BRANCH  18  22
ATOM     22  C   UNL     1      42.806 133.932  19.491  1.00  0.00     0.018 A 
ATOM     23  C   UNL     1      43.193 133.076  20.554  1.00  0.00    -0.008 A 
ATOM     24  C   UNL     1      43.554 135.107  19.222  1.00  0.00    -0.008 A 
ATOM     25  C   UNL     1      42.480 131.893  20.856  1.00  0.00     0.009 A 
ATOM     26  C   UNL     1      44.326 133.403  21.338  1.00  0.00    -0.017 A 
ATOM     27  C   UNL     1      43.187 135.989  18.184  1.00  0.00     0.009 A 
ATOM     28  C   UNL     1      44.690 135.421  20.017  1.00  0.00    -0.008 A 
ATOM     29  C   UNL     1      42.890 131.061  21.900  1.00  0.00     0.001 A 
ATOM     30  C   UNL     1      44.716 132.562  22.394  1.00  0.00     0.009 A 
ATOM     31  C   UNL     1      45.057 134.562  21.065  1.00  0.00     0.018 A 
ATOM     32  C   UNL     1      43.924 137.143  17.933  1.00  0.00     0.001 A 
ATOM     33  C   UNL     1      45.435 136.599  19.757  1.00  0.00     0.045 A 
ATOM     34  C   UNL     1      44.002 131.397  22.669  1.00  0.00     0.001 A 
ATOM     35  C   UNL     1      45.038 137.449  18.709  1.00  0.00     0.011 A 
BRANCH  33  36
ATOM     36  N   UNL     1      46.581 136.920  20.562  1.00  0.00    -0.060 NA
BRANCH  36  37
ATOM     37  N   UNL     1      46.567 137.810  21.414  1.00  0.00     0.005 N 
ATOM     38  N   UNL     1      46.551 138.699  22.264  1.00  0.00    -0.003 NA
ENDBRANCH  36  37
ENDBRANCH  33  36
ENDBRANCH  18  22
ENDBRANCH  15  16
ENDBRANCH   1  15
TORSDOF 12
ENDMDL
MODEL 7
REMARK VINA RESULT:      -7.0      2.186      3.860
REMARK SMILES C/C(=C\n1nnc(C)c1-c1c2ccccc2cc2c(N=[N+]=[N-])cccc12)C(=O)N(C=N)C(O)=C1CC1
REMARK SMILES IDX 2 1 1 2 27 3 28 4 29 5 30 6 31 7 32 9 33 10 34 12 35 13
REMARK SMILES IDX 36 14 3 15 4 16 5 17 9 18 6 19 7 20 8 21 10 22 11 23 26 24
REMARK SMILES IDX 12 25 16 26 25 27 18 28 13 29 15 30 17 31 24 32 19 33 14 34
REMARK SMILES IDX 23 35 20 36 21 37 22 38
REMARK H PARENT 31 8 33 11
ROOT
ATOM      1  C   UNL     1      43.477 132.295  15.706  1.00  0.00     0.033 C 
ATOM      2  C   UNL     1      42.785 132.163  14.374  1.00  0.00     0.052 C 
ENDROOT
BRANCH   1   3
ATOM      3  C   UNL     1      44.437 131.236  16.126  1.00  0.00     0.263 C 
ATOM      4  O   UNL     1      44.543 130.940  17.346  1.00  0.00    -0.268 OA
BRANCH   3   5
ATOM      5  N   UNL     1      45.261 130.550  15.159  1.00  0.00    -0.238 N 
BRANCH   5   6
ATOM      6  C   UNL     1      45.043 129.155  14.884  1.00  0.00     0.201 C 
BRANCH   6   7
ATOM      7  N   UNL     1      45.315 128.252  15.769  1.00  0.00    -0.291 NA
ATOM      8  H   UNL     1      46.268 128.191  16.193  1.00  0.00     0.189 HD
ENDBRANCH   6   7
ENDBRANCH   5   6
BRANCH   5   9
ATOM      9  C   UNL     1      46.319 131.238  14.458  1.00  0.00     0.198 C 
BRANCH   9  10
ATOM     10  O   UNL     1      46.681 132.529  14.843  1.00  0.00    -0.494 OA
ATOM     11  H   UNL     1      46.938 133.234  14.163  1.00  0.00     0.295 HD
ENDBRANCH   9  10
BRANCH   9  12
ATOM     12  C   UNL     1      46.966 130.654  13.451  1.00  0.00    -0.009 C 
ATOM     13  C   UNL     1      47.285 130.505  11.968  1.00  0.00     0.041 C 
ATOM     14  C   UNL     1      47.959 129.642  12.882  1.00  0.00     0.041 C 
ENDBRANCH   9  12
ENDBRANCH   5   9
ENDBRANCH   3   5
ENDBRANCH   1   3
BRANCH   1  15
ATOM     15  C   UNL     1      43.246 133.331  16.542  1.00  0.00     0.124 C 
BRANCH  15  16
ATOM     16  N   UNL     1      42.098 133.471  17.401  1.00  0.00    -0.219 N 
ATOM     17  N   UNL     1      40.932 132.851  17.279  1.00  0.00    -0.062 NA
ATOM     18  C   UNL     1      42.026 134.262  18.486  1.00  0.00     0.098 A 
ATOM     19  N   UNL     1      40.101 133.218  18.246  1.00  0.00    -0.135 NA
ATOM     20  C   UNL     1      40.769 134.097  19.021  1.00  0.00     0.088 A 
ATOM     21  C   UNL     1      40.186 134.812  20.194  1.00  0.00     0.071 C 
BRANCH  18  22
ATOM     22  C   UNL     1      43.097 135.172  18.962  1.00  0.00     0.018 A 
ATOM     23  C   UNL     1      43.204 136.479  18.423  1.00  0.00    -0.008 A 
ATOM     24  C   UNL     1      44.053 134.716  19.905  1.00  0.00    -0.008 A 
ATOM     25  C   UNL     1      42.273 136.978  17.483  1.00  0.00     0.009 A 
ATOM     26  C   UNL     1      44.267 137.320  18.834  1.00  0.00    -0.017 A 
ATOM     27  C   UNL     1      43.985 133.415  20.449  1.00  0.00     0.009 A 
ATOM     28  C   UNL     1      45.114 135.572  20.310  1.00  0.00    -0.008 A 
ATOM     29  C   UNL     1      42.395 138.274  16.978  1.00  0.00     0.001 A 
ATOM     30  C   UNL     1      44.383 138.617  18.305  1.00  0.00     0.009 A 
ATOM     31  C   UNL     1      45.204 136.862  19.765  1.00  0.00     0.018 A 
ATOM     32  C   UNL     1      44.933 132.975  21.369  1.00  0.00     0.001 A 
ATOM     33  C   UNL     1      46.076 135.116  21.246  1.00  0.00     0.045 A 
ATOM     34  C   UNL     1      43.449 139.088  17.385  1.00  0.00     0.001 A 
ATOM     35  C   UNL     1      45.969 133.814  21.766  1.00  0.00     0.011 A 
BRANCH  33  36
ATOM     36  N   UNL     1      47.151 135.979  21.653  1.00  0.00    -0.060 NA
BRANCH  36  37
ATOM     37  N   UNL     1      47.137 136.603  22.715  1.00  0.00     0.005 N 
ATOM     38  N   UNL     1      47.123 137.225  23.776  1.00  0.00    -0.003 NA
ENDBRANCH  36  37
ENDBRANCH  33  36
ENDBRANCH  18  22
ENDBRANCH  15  16
ENDBRANCH   1  15
TORSDOF 12
ENDMDL
MODEL 8
REMARK VINA RESULT:      -6.9      2.172      3.798
REMARK SMILES C/C(=C\n1nnc(C)c1-c1c2ccccc2cc2c(N=[N+]=[N-])cccc12)C(=O)N(C=N)C(O)=C1CC1
REMARK SMILES IDX 2 1 1 2 27 3 28 4 29 5 30 6 31 7 32 9 33 10 34 12 35 13
REMARK SMILES IDX 36 14 3 15 4 16 5 17 9 18 6 19 7 20 8 21 10 22 11 23 26 24
REMARK SMILES IDX 12 25 16 26 25 27 18 28 13 29 15 30 17 31 24 32 19 33 14 34
REMARK SMILES IDX 23 35 20 36 21 37 22 38
REMARK H PARENT 31 8 33 11
ROOT
ATOM      1  C   UNL     1      42.999 132.443  15.847  1.00  0.00     0.033 C 
ATOM      2  C   UNL     1      42.348 131.985  17.127  1.00  0.00     0.052 C 
ENDROOT
BRANCH   1   3
ATOM      3  C   UNL     1      43.801 131.467  15.059  1.00  0.00     0.263 C 
ATOM      4  O   UNL     1      43.472 131.208  13.869  1.00  0.00    -0.268 OA
BRANCH   3   5
ATOM      5  N   UNL     1      44.942 130.799  15.636  1.00  0.00    -0.238 N 
BRANCH   5   6
ATOM      6  C   UNL     1      45.476 131.240  16.898  1.00  0.00     0.201 C 
BRANCH   6   7
ATOM      7  N   UNL     1      45.971 130.394  17.742  1.00  0.00    -0.291 NA
ATOM      8  H   UNL     1      46.282 130.706  18.690  1.00  0.00     0.189 HD
ENDBRANCH   6   7
ENDBRANCH   5   6
BRANCH   5   9
ATOM      9  C   UNL     1      45.576 129.689  14.965  1.00  0.00     0.198 C 
BRANCH   9  10
ATOM     10  O   UNL     1      45.302 128.384  15.374  1.00  0.00    -0.494 OA
ATOM     11  H   UNL     1      44.984 127.678  14.721  1.00  0.00     0.295 HD
ENDBRANCH   9  10
BRANCH   9  12
ATOM     12  C   UNL     1      46.413 129.889  13.949  1.00  0.00    -0.009 C 
ATOM     13  C   UNL     1      46.837 130.631  12.686  1.00  0.00     0.041 C 
ATOM     14  C   UNL     1      47.680 129.580  13.154  1.00  0.00     0.041 C 
ENDBRANCH   9  12
ENDBRANCH   5   9
ENDBRANCH   3   5
ENDBRANCH   1   3
BRANCH   1  15
ATOM     15  C   UNL     1      42.895 133.714  15.398  1.00  0.00     0.124 C 
BRANCH  15  16
ATOM     16  N   UNL     1      41.832 134.222  14.570  1.00  0.00    -0.219 N 
ATOM     17  N   UNL     1      41.616 133.945  13.292  1.00  0.00    -0.062 NA
ATOM     18  C   UNL     1      40.868 135.071  14.971  1.00  0.00     0.098 A 
ATOM     19  N   UNL     1      40.546 134.589  12.845  1.00  0.00    -0.135 NA
ATOM     20  C   UNL     1      40.055 135.296  13.884  1.00  0.00     0.088 A 
ATOM     21  C   UNL     1      38.884 136.220  13.808  1.00  0.00     0.071 C 
BRANCH  18  22
ATOM     22  C   UNL     1      40.758 135.676  16.321  1.00  0.00     0.018 A 
ATOM     23  C   UNL     1      41.540 136.812  16.651  1.00  0.00    -0.008 A 
ATOM     24  C   UNL     1      39.924 135.082  17.303  1.00  0.00    -0.008 A 
ATOM     25  C   UNL     1      42.383 137.438  15.705  1.00  0.00     0.009 A 
ATOM     26  C   UNL     1      41.480 137.345  17.962  1.00  0.00    -0.017 A 
ATOM     27  C   UNL     1      39.146 133.942  17.012  1.00  0.00     0.009 A 
ATOM     28  C   UNL     1      39.872 135.630  18.614  1.00  0.00    -0.008 A 
ATOM     29  C   UNL     1      43.133 138.564  16.054  1.00  0.00     0.001 A 
ATOM     30  C   UNL     1      42.252 138.470  18.299  1.00  0.00     0.009 A 
ATOM     31  C   UNL     1      40.654 136.755  18.922  1.00  0.00     0.018 A 
ATOM     32  C   UNL     1      38.335 133.363  17.985  1.00  0.00     0.001 A 
ATOM     33  C   UNL     1      39.046 135.035  19.599  1.00  0.00     0.045 A 
ATOM     34  C   UNL     1      43.070 139.074  17.347  1.00  0.00     0.001 A 
ATOM     35  C   UNL     1      38.282 133.901  19.267  1.00  0.00     0.011 A 
BRANCH  33  36
ATOM     36  N   UNL     1      38.995 135.585  20.926  1.00  0.00    -0.060 NA
BRANCH  36  37
ATOM     37  N   UNL     1      37.951 135.654  21.578  1.00  0.00     0.005 N 
ATOM     38  N   UNL     1      36.909 135.724  22.227  1.00  0.00    -0.003 NA
ENDBRANCH  36  37
ENDBRANCH  33  36
ENDBRANCH  18  22
ENDBRANCH  15  16
ENDBRANCH   1  15
TORSDOF 12
ENDMDL
MODEL 9
REMARK VINA RESULT:      -6.9      2.500      3.482
REMARK SMILES C/C(=C\n1nnc(C)c1-c1c2ccccc2cc2c(N=[N+]=[N-])cccc12)C(=O)N(C=N)C(O)=C1CC1
REMARK SMILES IDX 2 1 1 2 27 3 28 4 29 5 30 6 31 7 32 9 33 10 34 12 35 13
REMARK SMILES IDX 36 14 3 15 4 16 5 17 9 18 6 19 7 20 8 21 10 22 11 23 26 24
REMARK SMILES IDX 12 25 16 26 25 27 18 28 13 29 15 30 17 31 24 32 19 33 14 34
REMARK SMILES IDX 23 35 20 36 21 37 22 38
REMARK H PARENT 31 8 33 11
ROOT
ATOM      1  C   UNL     1      43.452 131.625  16.778  1.00  0.00     0.033 C 
ATOM      2  C   UNL     1      42.424 131.275  17.824  1.00  0.00     0.052 C 
ENDROOT
BRANCH   1   3
ATOM      3  C   UNL     1      44.823 131.060  16.901  1.00  0.00     0.263 C 
ATOM      4  O   UNL     1      45.582 131.458  17.826  1.00  0.00    -0.268 OA
BRANCH   3   5
ATOM      5  N   UNL     1      45.309 130.070  15.968  1.00  0.00    -0.238 N 
BRANCH   5   6
ATOM      6  C   UNL     1      44.447 129.004  15.532  1.00  0.00     0.201 C 
BRANCH   6   7
ATOM      7  N   UNL     1      44.854 127.776  15.538  1.00  0.00    -0.291 NA
ATOM      8  H   UNL     1      44.193 126.996  15.755  1.00  0.00     0.189 HD
ENDBRANCH   6   7
ENDBRANCH   5   6
BRANCH   5   9
ATOM      9  C   UNL     1      46.660 130.121  15.462  1.00  0.00     0.198 C 
BRANCH   9  10
ATOM     10  O   UNL     1      47.722 129.738  16.281  1.00  0.00    -0.494 OA
ATOM     11  H   UNL     1      47.571 129.400  17.223  1.00  0.00     0.295 HD
ENDBRANCH   9  10
BRANCH   9  12
ATOM     12  C   UNL     1      46.910 130.518  14.215  1.00  0.00    -0.009 C 
ATOM     13  C   UNL     1      46.579 130.555  12.728  1.00  0.00     0.041 C 
ATOM     14  C   UNL     1      47.722 131.284  13.173  1.00  0.00     0.041 C 
ENDBRANCH   9  12
ENDBRANCH   5   9
ENDBRANCH   3   5
ENDBRANCH   1   3
BRANCH   1  15
ATOM     15  C   UNL     1      43.177 132.448  15.742  1.00  0.00     0.124 C 
BRANCH  15  16
ATOM     16  N   UNL     1      43.449 133.862  15.705  1.00  0.00    -0.219 N 
ATOM     17  N   UNL     1      44.584 134.446  15.346  1.00  0.00    -0.062 NA
ATOM     18  C   UNL     1      42.576 134.834  16.031  1.00  0.00     0.098 A 
ATOM     19  N   UNL     1      44.481 135.766  15.432  1.00  0.00    -0.135 NA
ATOM     20  C   UNL     1      43.227 136.034  15.852  1.00  0.00     0.088 A 
ATOM     21  C   UNL     1      42.700 137.399  16.145  1.00  0.00     0.071 C 
BRANCH  18  22
ATOM     22  C   UNL     1      41.198 134.621  16.535  1.00  0.00     0.018 A 
ATOM     23  C   UNL     1      40.117 134.536  15.622  1.00  0.00    -0.008 A 
ATOM     24  C   UNL     1      40.950 134.567  17.931  1.00  0.00    -0.008 A 
ATOM     25  C   UNL     1      40.316 134.582  14.223  1.00  0.00     0.009 A 
ATOM     26  C   UNL     1      38.796 134.398  16.113  1.00  0.00    -0.017 A 
ATOM     27  C   UNL     1      42.001 134.665  18.867  1.00  0.00     0.009 A 
ATOM     28  C   UNL     1      39.618 134.426  18.409  1.00  0.00    -0.008 A 
ATOM     29  C   UNL     1      39.234 134.484  13.346  1.00  0.00     0.001 A 
ATOM     30  C   UNL     1      37.717 134.315  15.216  1.00  0.00     0.009 A 
ATOM     31  C   UNL     1      38.561 134.345  17.490  1.00  0.00     0.018 A 
ATOM     32  C   UNL     1      41.746 134.618  20.235  1.00  0.00     0.001 A 
ATOM     33  C   UNL     1      39.367 134.381  19.803  1.00  0.00     0.045 A 
ATOM     34  C   UNL     1      37.940 134.355  13.841  1.00  0.00     0.001 A 
ATOM     35  C   UNL     1      40.443 134.477  20.703  1.00  0.00     0.011 A 
BRANCH  33  36
ATOM     36  N   UNL     1      38.020 134.242  20.288  1.00  0.00    -0.060 NA
BRANCH  36  37
ATOM     37  N   UNL     1      37.453 135.124  20.936  1.00  0.00     0.005 N 
ATOM     38  N   UNL     1      36.888 136.006  21.581  1.00  0.00    -0.003 NA
ENDBRANCH  36  37
ENDBRANCH  33  36
ENDBRANCH  18  22
ENDBRANCH  15  16
ENDBRANCH   1  15
TORSDOF 12
ENDMDL


