REMARK SMILES Cc1n[nH+]n(/C=C2\C[C@@H](C)OC2=O)c1-c1c2ccccc2cc2c(N=[N+]=[N-])cccc12
REMARK SMILES IDX 15 1 16 2 17 3 18 4 19 5 20 6 21 7 22 8 23 9 24 10 28 11
REMARK SMILES IDX 29 12 30 13 31 14 14 15 5 16 4 17 2 18 3 19 1 21 6 22 7 23
REMARK SMILES IDX 12 24 8 25 11 26 9 27 13 28 10 29 25 30 26 31 27 32
REMARK H PARENT 4 20
ROOT
ATOM      1  C   UNL     1       0.671   0.345  -0.585  1.00  0.00     0.022 A 
ATOM      2  C   UNL     1       0.884   0.412   0.816  1.00  0.00    -0.008 A 
ATOM      3  C   UNL     1       0.785  -0.731   1.642  1.00  0.00     0.009 A 
ATOM      4  C   UNL     1       0.984  -0.634   3.021  1.00  0.00     0.001 A 
ATOM      5  C   UNL     1       1.298   0.594   3.600  1.00  0.00     0.001 A 
ATOM      6  C   UNL     1       1.419   1.732   2.802  1.00  0.00     0.009 A 
ATOM      7  C   UNL     1       1.217   1.652   1.414  1.00  0.00    -0.017 A 
ATOM      8  C   UNL     1       1.350   2.800   0.627  1.00  0.00     0.018 A 
ATOM      9  C   UNL     1       1.145   2.753  -0.762  1.00  0.00    -0.008 A 
ATOM     10  C   UNL     1       1.276   3.924  -1.548  1.00  0.00     0.045 A 
ATOM     11  C   UNL     1       1.043   3.857  -2.932  1.00  0.00     0.011 A 
ATOM     12  C   UNL     1       0.680   2.654  -3.531  1.00  0.00     0.001 A 
ATOM     13  C   UNL     1       0.551   1.498  -2.766  1.00  0.00     0.009 A 
ATOM     14  C   UNL     1       0.793   1.520  -1.375  1.00  0.00    -0.008 A 
ENDROOT
BRANCH   1  15
ATOM     15  C   UNL     1       0.301  -0.947  -1.215  1.00  0.00     0.142 A 
ATOM     16  N   UNL     1      -0.877  -1.579  -1.068  1.00  0.00    -0.103 N 
ATOM     17  N   UNL     1      -0.811  -2.708  -1.757  1.00  0.00    -0.012 N 
ATOM     18  C   UNL     1       1.098  -1.767  -1.992  1.00  0.00     0.137 A 
ATOM     19  N   UNL     1       0.373  -2.853  -2.335  1.00  0.00     0.020 NA
ATOM     20  H   UNL     1      -1.599  -3.381  -1.879  1.00  0.00     0.527 HD
ATOM     21  C   UNL     1       2.492  -1.501  -2.454  1.00  0.00     0.076 C 
BRANCH  16  22
ATOM     22  C   UNL     1      -2.029  -1.084  -0.372  1.00  0.00     0.171 C 
BRANCH  22  23
ATOM     23  C   UNL     1      -2.717  -1.838   0.493  1.00  0.00     0.063 C 
ATOM     24  C   UNL     1      -3.796  -1.368   1.328  1.00  0.00     0.336 C 
ATOM     25  C   UNL     1      -2.420  -3.247   0.899  1.00  0.00     0.090 C 
ATOM     26  O   UNL     1      -4.162  -2.329   2.243  1.00  0.00    -0.459 OA
ATOM     27  C   UNL     1      -3.350  -3.495   2.120  1.00  0.00     0.178 C 
ATOM     28  O   UNL     1      -4.334  -0.232   1.259  1.00  0.00    -0.247 OA
ATOM     29  C   UNL     1      -2.556  -3.706   3.408  1.00  0.00     0.053 C 
ENDBRANCH  22  23
ENDBRANCH  16  22
ENDBRANCH   1  15
BRANCH  10  30
ATOM     30  N   UNL     1       1.641   5.170  -0.928  1.00  0.00    -0.060 NA
BRANCH  30  31
ATOM     31  N   UNL     1       1.767   6.217  -1.565  1.00  0.00     0.005 N 
ATOM     32  N   UNL     1       1.893   7.263  -2.200  1.00  0.00    -0.003 NA
ENDBRANCH  30  31
ENDBRANCH  10  30
TORSDOF 5


