REMARK SMILES C[C@@H](C#N)N(C)CCCCc1cn(-c2cc(N=C=O)c3c4c(cccc24)C(=O)[N-]3)nn1
REMARK SMILES IDX 9 1 10 2 11 3 13 4 30 5 12 6 31 7 14 8 24 9 23 10 25 11
REMARK SMILES IDX 22 12 26 13 21 14 27 15 20 16 29 17 15 18 16 19 28 20 17 21
REMARK SMILES IDX 18 22 19 23 8 24 7 25 5 26 6 27 2 28 1 29 3 30 4 31
REMARK H PARENT
ROOT
ATOM      1  C   UNL     1      -0.671  -3.757   2.357  1.00  0.00     0.008 C 
ENDROOT
BRANCH   1   2
ATOM      2  C   UNL     1      -1.179  -4.509   1.117  1.00  0.00     0.060 C 
BRANCH   2   3
ATOM      3  C   UNL     1      -0.795  -3.813  -0.155  1.00  0.00     0.083 A 
ATOM      4  N   UNL     1      -0.511  -2.318  -1.709  1.00  0.00    -0.220 N 
ATOM      5  N   UNL     1       0.005  -3.468  -2.117  1.00  0.00    -0.062 NA
ATOM      6  C   UNL     1      -1.046  -2.502  -0.489  1.00  0.00     0.140 A 
ATOM      7  N   UNL     1      -0.148  -4.398  -1.184  1.00  0.00    -0.135 NA
BRANCH   4   8
ATOM      8  C   UNL     1      -0.547  -1.122  -2.500  1.00  0.00     0.076 A 
ATOM      9  C   UNL     1       0.611   1.719  -0.254  1.00  0.00     0.001 A 
ATOM     10  C   UNL     1       0.459   2.800  -1.149  1.00  0.00     0.011 A 
ATOM     11  C   UNL     1       0.290   0.395  -0.650  1.00  0.00     0.011 A 
ATOM     12  C   UNL     1      -0.013   2.515  -2.429  1.00  0.00     0.006 A 
ATOM     13  C   UNL     1      -0.203   0.145  -1.956  1.00  0.00     0.007 A 
ATOM     14  C   UNL     1      -0.317   1.242  -2.796  1.00  0.00    -0.019 A 
ATOM     15  C   UNL     1      -0.256   3.317  -3.621  1.00  0.00     0.086 C 
ATOM     16  C   UNL     1      -0.711   1.184  -4.103  1.00  0.00    -0.098 A 
ATOM     17  N   UNL     1      -0.704   2.487  -4.704  1.00  0.00    -0.620 NA
ATOM     18  C   UNL     1      -0.940  -1.208  -3.865  1.00  0.00     0.057 A 
ATOM     19  C   UNL     1      -1.030  -0.057  -4.684  1.00  0.00     0.064 A 
ATOM     20  O   UNL     1      -0.106   4.563  -3.709  1.00  0.00    -0.315 OA
BRANCH  19  21
ATOM     21  N   UNL     1      -1.437  -0.211  -6.054  1.00  0.00    -0.169 NA
BRANCH  21  22
ATOM     22  C   UNL     1      -1.516   0.746  -6.890  1.00  0.00     0.240 C 
ATOM     23  O   UNL     1      -1.594   1.676  -7.704  1.00  0.00    -0.211 OA
ENDBRANCH  21  22
ENDBRANCH  19  21
ENDBRANCH   4   8
ENDBRANCH   2   3
ENDBRANCH   1   2
BRANCH   1  24
ATOM     24  C   UNL     1       0.863  -3.784   2.466  1.00  0.00     0.016 C 
BRANCH  24  25
ATOM     25  C   UNL     1       1.358  -2.881   3.600  1.00  0.00     0.085 C 
BRANCH  25  26
ATOM     26  N   UNL     1       1.089  -1.460   3.274  1.00  0.00    -0.291 NA
ATOM     27  C   UNL     1       2.253  -0.819   2.627  1.00  0.00     0.106 C 
BRANCH  26  28
ATOM     28  C   UNL     1       0.542  -0.695   4.423  1.00  0.00     0.157 C 
ATOM     29  C   UNL     1       1.597  -0.349   5.485  1.00  0.00     0.041 C 
BRANCH  28  30
ATOM     30  C   UNL     1      -0.126   0.528   3.946  1.00  0.00     0.081 C 
ATOM     31  N   UNL     1      -0.653   1.487   3.568  1.00  0.00    -0.197 NA
ENDBRANCH  28  30
ENDBRANCH  26  28
ENDBRANCH  25  26
ENDBRANCH  24  25
ENDBRANCH   1  24
TORSDOF 10


