MODEL 1
REMARK VINA RESULT:      -7.0      0.000      0.000
REMARK SMILES Cc1cc(-n2cc(C[C@@H](C)/N=C(\O)[C@H](C)C#N)nn2)[nH+]c2ccc3ccccc3c12
REMARK SMILES IDX 11 1 12 2 13 3 14 5 15 6 16 7 17 8 9 9 10 10 8 11 7 12 18 13
REMARK SMILES IDX 6 14 19 15 5 16 4 17 3 18 20 19 2 20 21 21 30 22 22 23 29 24
REMARK SMILES IDX 23 25 28 26 24 27 27 28 25 29 26 30 1 32
REMARK H PARENT 13 4 20 31
ROOT
ATOM      1  N   UNL     1      47.006 130.592  16.059  1.00  0.00    -0.251 NA
ENDROOT
BRANCH   1   2
ATOM      2  C   UNL     1      46.964 130.844  14.783  1.00  0.00     0.198 C 
BRANCH   2   3
ATOM      3  O   UNL     1      46.549 132.096  14.326  1.00  0.00    -0.496 OA
ATOM      4  H   UNL     1      46.297 132.250  13.358  1.00  0.00     0.295 HD
ENDBRANCH   2   3
BRANCH   2   5
ATOM      5  C   UNL     1      47.357 129.775  13.798  1.00  0.00     0.175 C 
ATOM      6  C   UNL     1      48.812 129.352  14.007  1.00  0.00     0.034 C 
BRANCH   5   7
ATOM      7  C   UNL     1      47.158 130.257  12.422  1.00  0.00     0.075 C 
ATOM      8  N   UNL     1      47.001 130.636  11.340  1.00  0.00    -0.197 NA
ENDBRANCH   5   7
ENDBRANCH   2   5
ENDBRANCH   1   2
BRANCH   1   9
ATOM      9  C   UNL     1      45.974 129.860  16.796  1.00  0.00     0.112 C 
ATOM     10  C   UNL     1      44.745 129.685  15.901  1.00  0.00     0.034 C 
BRANCH   9  11
ATOM     11  C   UNL     1      45.621 130.577  18.117  1.00  0.00     0.089 C 
BRANCH  11  12
ATOM     12  C   UNL     1      44.498 131.560  17.961  1.00  0.00     0.111 A 
ATOM     13  N   UNL     1      43.699 131.972  18.964  1.00  0.00    -0.112 NA
ATOM     14  C   UNL     1      44.154 132.248  16.819  1.00  0.00     0.260 A 
ATOM     15  N   UNL     1      42.884 132.882  18.451  1.00  0.00     0.032 NA
ATOM     16  N   UNL     1      43.136 133.062  17.162  1.00  0.00    -0.084 N 
BRANCH  16  17
ATOM     17  C   UNL     1      42.438 134.007  16.326  1.00  0.00     0.306 A 
ATOM     18  C   UNL     1      42.906 135.315  16.175  1.00  0.00     0.105 A 
ATOM     19  N   UNL     1      41.344 133.610  15.620  1.00  0.00    -0.238 N 
ATOM     20  C   UNL     1      42.230 136.226  15.351  1.00  0.00    -0.031 A 
ATOM     21  C   UNL     1      40.626 134.473  14.845  1.00  0.00     0.133 A 
ATOM     22  C   UNL     1      40.977 135.851  14.775  1.00  0.00     0.032 A 
ATOM     23  C   UNL     1      39.549 133.980  14.100  1.00  0.00     0.053 A 
ATOM     24  C   UNL     1      40.076 136.744  14.102  1.00  0.00    -0.007 A 
ATOM     25  C   UNL     1      38.792 134.823  13.299  1.00  0.00     0.013 A 
ATOM     26  C   UNL     1      40.105 138.150  14.266  1.00  0.00     0.009 A 
ATOM     27  C   UNL     1      39.023 136.200  13.311  1.00  0.00    -0.017 A 
ATOM     28  C   UNL     1      39.242 138.978  13.544  1.00  0.00     0.001 A 
ATOM     29  C   UNL     1      38.172 137.045  12.580  1.00  0.00     0.009 A 
ATOM     30  C   UNL     1      38.297 138.429  12.683  1.00  0.00     0.001 A 
ATOM     31  H   UNL     1      41.038 132.613  15.687  1.00  0.00     0.312 HD
ATOM     32  C   UNL     1      42.975 137.495  15.013  1.00  0.00     0.045 C 
ENDBRANCH  16  17
ENDBRANCH  11  12
ENDBRANCH   9  11
ENDBRANCH   1   9
TORSDOF 8
ENDMDL
MODEL 2
REMARK VINA RESULT:      -6.9      4.313      7.955
REMARK SMILES Cc1cc(-n2cc(C[C@@H](C)/N=C(\O)[C@H](C)C#N)nn2)[nH+]c2ccc3ccccc3c12
REMARK SMILES IDX 11 1 12 2 13 3 14 5 15 6 16 7 17 8 9 9 10 10 8 11 7 12 18 13
REMARK SMILES IDX 6 14 19 15 5 16 4 17 3 18 20 19 2 20 21 21 30 22 22 23 29 24
REMARK SMILES IDX 23 25 28 26 24 27 27 28 25 29 26 30 1 32
REMARK H PARENT 13 4 20 31
ROOT
ATOM      1  N   UNL     1      41.602 137.026  20.624  1.00  0.00    -0.251 NA
ENDROOT
BRANCH   1   2
ATOM      2  C   UNL     1      42.634 137.794  20.433  1.00  0.00     0.198 C 
BRANCH   2   3
ATOM      3  O   UNL     1      42.800 138.952  21.194  1.00  0.00    -0.496 OA
ATOM      4  H   UNL     1      42.017 139.546  21.433  1.00  0.00     0.295 HD
ENDBRANCH   2   3
BRANCH   2   5
ATOM      5  C   UNL     1      43.649 137.434  19.380  1.00  0.00     0.175 C 
ATOM      6  C   UNL     1      45.068 137.730  19.868  1.00  0.00     0.034 C 
BRANCH   5   7
ATOM      7  C   UNL     1      43.372 138.170  18.138  1.00  0.00     0.075 C 
ATOM      8  N   UNL     1      43.154 138.750  17.160  1.00  0.00    -0.197 NA
ENDBRANCH   5   7
ENDBRANCH   2   5
ENDBRANCH   1   2
BRANCH   1   9
ATOM      9  C   UNL     1      41.342 136.271  21.851  1.00  0.00     0.112 C 
ATOM     10  C   UNL     1      42.668 135.747  22.409  1.00  0.00     0.034 C 
BRANCH   9  11
ATOM     11  C   UNL     1      40.337 135.126  21.597  1.00  0.00     0.089 C 
BRANCH  11  12
ATOM     12  C   UNL     1      40.606 134.392  20.316  1.00  0.00     0.111 A 
ATOM     13  N   UNL     1      39.720 134.262  19.310  1.00  0.00    -0.112 NA
ATOM     14  C   UNL     1      41.794 133.813  19.928  1.00  0.00     0.260 A 
ATOM     15  N   UNL     1      40.344 133.615  18.336  1.00  0.00     0.032 NA
ATOM     16  N   UNL     1      41.591 133.333  18.686  1.00  0.00    -0.084 N 
BRANCH  16  17
ATOM     17  C   UNL     1      42.537 132.660  17.831  1.00  0.00     0.306 A 
ATOM     18  C   UNL     1      43.695 132.080  18.356  1.00  0.00     0.105 A 
ATOM     19  N   UNL     1      42.274 132.525  16.502  1.00  0.00    -0.238 N 
ATOM     20  C   UNL     1      44.605 131.416  17.521  1.00  0.00    -0.031 A 
ATOM     21  C   UNL     1      43.152 131.931  15.644  1.00  0.00     0.133 A 
ATOM     22  C   UNL     1      44.412 131.456  16.106  1.00  0.00     0.032 A 
ATOM     23  C   UNL     1      42.787 131.774  14.301  1.00  0.00     0.053 A 
ATOM     24  C   UNL     1      45.369 131.018  15.128  1.00  0.00    -0.007 A 
ATOM     25  C   UNL     1      43.650 131.175  13.394  1.00  0.00     0.013 A 
ATOM     26  C   UNL     1      46.750 130.872  15.401  1.00  0.00     0.009 A 
ATOM     27  C   UNL     1      44.944 130.821  13.783  1.00  0.00    -0.017 A 
ATOM     28  C   UNL     1      47.630 130.389  14.429  1.00  0.00     0.001 A 
ATOM     29  C   UNL     1      45.836 130.322  12.820  1.00  0.00     0.009 A 
ATOM     30  C   UNL     1      47.169 130.088  13.151  1.00  0.00     0.001 A 
ATOM     31  H   UNL     1      41.375 132.904  16.127  1.00  0.00     0.312 HD
ATOM     32  C   UNL     1      45.646 130.570  18.214  1.00  0.00     0.045 C 
ENDBRANCH  16  17
ENDBRANCH  11  12
ENDBRANCH   9  11
ENDBRANCH   1   9
TORSDOF 8
ENDMDL
MODEL 3
REMARK VINA RESULT:      -6.8      1.887      3.548
REMARK SMILES Cc1cc(-n2cc(C[C@@H](C)/N=C(\O)[C@H](C)C#N)nn2)[nH+]c2ccc3ccccc3c12
REMARK SMILES IDX 11 1 12 2 13 3 14 5 15 6 16 7 17 8 9 9 10 10 8 11 7 12 18 13
REMARK SMILES IDX 6 14 19 15 5 16 4 17 3 18 20 19 2 20 21 21 30 22 22 23 29 24
REMARK SMILES IDX 23 25 28 26 24 27 27 28 25 29 26 30 1 32
REMARK H PARENT 13 4 20 31
ROOT
ATOM      1  N   UNL     1      44.940 132.135  17.218  1.00  0.00    -0.251 NA
ENDROOT
BRANCH   1   2
ATOM      2  C   UNL     1      45.399 130.987  16.813  1.00  0.00     0.198 C 
BRANCH   2   3
ATOM      3  O   UNL     1      46.461 130.377  17.483  1.00  0.00    -0.496 OA
ATOM      4  H   UNL     1      47.400 130.386  17.107  1.00  0.00     0.295 HD
ENDBRANCH   2   3
BRANCH   2   5
ATOM      5  C   UNL     1      44.786 130.319  15.611  1.00  0.00     0.175 C 
ATOM      6  C   UNL     1      45.870 129.828  14.650  1.00  0.00     0.034 C 
BRANCH   5   7
ATOM      7  C   UNL     1      43.878 131.250  14.923  1.00  0.00     0.075 C 
ATOM      8  N   UNL     1      43.164 131.982  14.383  1.00  0.00    -0.197 NA
ENDBRANCH   5   7
ENDBRANCH   2   5
ENDBRANCH   1   2
BRANCH   1   9
ATOM      9  C   UNL     1      44.732 132.500  18.620  1.00  0.00     0.112 C 
ATOM     10  C   UNL     1      44.216 131.279  19.386  1.00  0.00     0.034 C 
BRANCH   9  11
ATOM     11  C   UNL     1      43.769 133.701  18.744  1.00  0.00     0.089 C 
BRANCH  11  12
ATOM     12  C   UNL     1      42.651 133.654  17.745  1.00  0.00     0.111 A 
ATOM     13  N   UNL     1      41.775 132.638  17.626  1.00  0.00    -0.112 NA
ATOM     14  C   UNL     1      42.290 134.646  16.860  1.00  0.00     0.260 A 
ATOM     15  N   UNL     1      40.906 132.992  16.691  1.00  0.00     0.032 NA
ATOM     16  N   UNL     1      41.198 134.194  16.214  1.00  0.00    -0.084 N 
BRANCH  16  17
ATOM     17  C   UNL     1      40.422 134.873  15.204  1.00  0.00     0.306 A 
ATOM     18  C   UNL     1      39.536 134.168  14.385  1.00  0.00     0.105 A 
ATOM     19  N   UNL     1      40.500 136.226  15.085  1.00  0.00    -0.238 N 
ATOM     20  C   UNL     1      38.775 134.835  13.415  1.00  0.00    -0.031 A 
ATOM     21  C   UNL     1      39.817 136.912  14.124  1.00  0.00     0.133 A 
ATOM     22  C   UNL     1      39.015 136.223  13.171  1.00  0.00     0.032 A 
ATOM     23  C   UNL     1      39.899 138.310  14.100  1.00  0.00     0.053 A 
ATOM     24  C   UNL     1      38.478 136.974  12.071  1.00  0.00    -0.007 A 
ATOM     25  C   UNL     1      39.220 139.046  13.139  1.00  0.00     0.013 A 
ATOM     26  C   UNL     1      37.987 136.377  10.886  1.00  0.00     0.009 A 
ATOM     27  C   UNL     1      38.535 138.397  12.110  1.00  0.00    -0.017 A 
ATOM     28  C   UNL     1      37.423 137.151   9.868  1.00  0.00     0.001 A 
ATOM     29  C   UNL     1      37.952 139.162  11.087  1.00  0.00     0.009 A 
ATOM     30  C   UNL     1      37.380 138.537   9.981  1.00  0.00     0.001 A 
ATOM     31  H   UNL     1      41.116 136.754  15.744  1.00  0.00     0.312 HD
ATOM     32  C   UNL     1      37.639 134.049  12.805  1.00  0.00     0.045 C 
ENDBRANCH  16  17
ENDBRANCH  11  12
ENDBRANCH   9  11
ENDBRANCH   1   9
TORSDOF 8
ENDMDL
MODEL 4
REMARK VINA RESULT:      -6.7      4.507      8.532
REMARK SMILES Cc1cc(-n2cc(C[C@@H](C)/N=C(\O)[C@H](C)C#N)nn2)[nH+]c2ccc3ccccc3c12
REMARK SMILES IDX 11 1 12 2 13 3 14 5 15 6 16 7 17 8 9 9 10 10 8 11 7 12 18 13
REMARK SMILES IDX 6 14 19 15 5 16 4 17 3 18 20 19 2 20 21 21 30 22 22 23 29 24
REMARK SMILES IDX 23 25 28 26 24 27 27 28 25 29 26 30 1 32
REMARK H PARENT 13 4 20 31
ROOT
ATOM      1  N   UNL     1      38.396 134.459  21.259  1.00  0.00    -0.251 NA
ENDROOT
BRANCH   1   2
ATOM      2  C   UNL     1      37.979 135.075  20.192  1.00  0.00     0.198 C 
BRANCH   2   3
ATOM      3  O   UNL     1      37.970 136.470  20.143  1.00  0.00    -0.496 OA
ATOM      4  H   UNL     1      37.579 137.025  20.893  1.00  0.00     0.295 HD
ENDBRANCH   2   3
BRANCH   2   5
ATOM      5  C   UNL     1      37.495 134.277  19.010  1.00  0.00     0.175 C 
ATOM      6  C   UNL     1      36.391 133.304  19.427  1.00  0.00     0.034 C 
BRANCH   5   7
ATOM      7  C   UNL     1      38.616 133.548  18.399  1.00  0.00     0.075 C 
ATOM      8  N   UNL     1      39.498 132.973  17.918  1.00  0.00    -0.197 NA
ENDBRANCH   5   7
ENDBRANCH   2   5
ENDBRANCH   1   2
BRANCH   1   9
ATOM      9  C   UNL     1      39.320 135.029  22.242  1.00  0.00     0.112 C 
ATOM     10  C   UNL     1      38.518 135.776  23.310  1.00  0.00     0.034 C 
BRANCH   9  11
ATOM     11  C   UNL     1      40.358 135.947  21.561  1.00  0.00     0.089 C 
BRANCH  11  12
ATOM     12  C   UNL     1      41.560 135.197  21.067  1.00  0.00     0.111 A 
ATOM     13  N   UNL     1      42.669 134.967  21.795  1.00  0.00    -0.112 NA
ATOM     14  C   UNL     1      41.698 134.565  19.851  1.00  0.00     0.260 A 
ATOM     15  N   UNL     1      43.468 134.222  21.045  1.00  0.00     0.032 NA
ATOM     16  N   UNL     1      42.907 133.970  19.871  1.00  0.00    -0.084 N 
BRANCH  16  17
ATOM     17  C   UNL     1      43.512 133.160  18.842  1.00  0.00     0.306 A 
ATOM     18  C   UNL     1      44.508 132.231  19.153  1.00  0.00     0.105 A 
ATOM     19  N   UNL     1      43.068 133.250  17.559  1.00  0.00    -0.238 N 
ATOM     20  C   UNL     1      45.084 131.437  18.151  1.00  0.00    -0.031 A 
ATOM     21  C   UNL     1      43.631 132.534  16.543  1.00  0.00     0.133 A 
ATOM     22  C   UNL     1      44.747 131.683  16.785  1.00  0.00     0.032 A 
ATOM     23  C   UNL     1      43.081 132.632  15.259  1.00  0.00     0.053 A 
ATOM     24  C   UNL     1      45.415 131.109  15.651  1.00  0.00    -0.007 A 
ATOM     25  C   UNL     1      43.624 131.921  14.197  1.00  0.00     0.013 A 
ATOM     26  C   UNL     1      46.718 130.559  15.711  1.00  0.00     0.009 A 
ATOM     27  C   UNL     1      44.797 131.185  14.370  1.00  0.00    -0.017 A 
ATOM     28  C   UNL     1      47.301 129.961  14.592  1.00  0.00     0.001 A 
ATOM     29  C   UNL     1      45.389 130.567  13.256  1.00  0.00     0.009 A 
ATOM     30  C   UNL     1      46.627 129.941  13.375  1.00  0.00     0.001 A 
ATOM     31  H   UNL     1      42.278 133.900  17.345  1.00  0.00     0.312 HD
ATOM     32  C   UNL     1      45.912 130.266  18.625  1.00  0.00     0.045 C 
ENDBRANCH  16  17
ENDBRANCH  11  12
ENDBRANCH   9  11
ENDBRANCH   1   9
TORSDOF 8
ENDMDL
MODEL 5
REMARK VINA RESULT:      -6.5      3.465      8.225
REMARK SMILES Cc1cc(-n2cc(C[C@@H](C)/N=C(\O)[C@H](C)C#N)nn2)[nH+]c2ccc3ccccc3c12
REMARK SMILES IDX 11 1 12 2 13 3 14 5 15 6 16 7 17 8 9 9 10 10 8 11 7 12 18 13
REMARK SMILES IDX 6 14 19 15 5 16 4 17 3 18 20 19 2 20 21 21 30 22 22 23 29 24
REMARK SMILES IDX 23 25 28 26 24 27 27 28 25 29 26 30 1 32
REMARK H PARENT 13 4 20 31
ROOT
ATOM      1  N   UNL     1      38.640 135.052  18.599  1.00  0.00    -0.251 NA
ENDROOT
BRANCH   1   2
ATOM      2  C   UNL     1      38.435 136.053  17.794  1.00  0.00     0.198 C 
BRANCH   2   3
ATOM      3  O   UNL     1      37.134 136.477  17.515  1.00  0.00    -0.496 OA
ATOM      4  H   UNL     1      36.424 135.832  17.193  1.00  0.00     0.295 HD
ENDBRANCH   2   3
BRANCH   2   5
ATOM      5  C   UNL     1      39.607 136.749  17.153  1.00  0.00     0.175 C 
ATOM      6  C   UNL     1      39.141 137.951  16.329  1.00  0.00     0.034 C 
BRANCH   5   7
ATOM      7  C   UNL     1      40.353 135.806  16.306  1.00  0.00     0.075 C 
ATOM      8  N   UNL     1      40.940 135.065  15.638  1.00  0.00    -0.197 NA
ENDBRANCH   5   7
ENDBRANCH   2   5
ENDBRANCH   1   2
BRANCH   1   9
ATOM      9  C   UNL     1      38.363 135.071  20.037  1.00  0.00     0.112 C 
ATOM     10  C   UNL     1      37.157 135.974  20.304  1.00  0.00     0.034 C 
BRANCH   9  11
ATOM     11  C   UNL     1      39.604 135.523  20.836  1.00  0.00     0.089 C 
BRANCH  11  12
ATOM     12  C   UNL     1      40.817 134.691  20.545  1.00  0.00     0.111 A 
ATOM     13  N   UNL     1      41.651 134.201  21.482  1.00  0.00    -0.112 NA
ATOM     14  C   UNL     1      41.229 134.232  19.313  1.00  0.00     0.260 A 
ATOM     15  N   UNL     1      42.552 133.468  20.844  1.00  0.00     0.032 NA
ATOM     16  N   UNL     1      42.321 133.475  19.539  1.00  0.00    -0.084 N 
BRANCH  16  17
ATOM     17  C   UNL     1      43.109 132.747  18.575  1.00  0.00     0.306 A 
ATOM     18  C   UNL     1      44.195 131.966  18.979  1.00  0.00     0.105 A 
ATOM     19  N   UNL     1      42.757 132.763  17.261  1.00  0.00    -0.238 N 
ATOM     20  C   UNL     1      44.950 131.250  18.038  1.00  0.00    -0.031 A 
ATOM     21  C   UNL     1      43.490 132.123  16.304  1.00  0.00     0.133 A 
ATOM     22  C   UNL     1      44.689 131.436  16.646  1.00  0.00     0.032 A 
ATOM     23  C   UNL     1      43.033 132.133  14.981  1.00  0.00     0.053 A 
ATOM     24  C   UNL     1      45.515 130.949  15.577  1.00  0.00    -0.007 A 
ATOM     25  C   UNL     1      43.748 131.495  13.977  1.00  0.00     0.013 A 
ATOM     26  C   UNL     1      46.872 130.584  15.746  1.00  0.00     0.009 A 
ATOM     27  C   UNL     1      44.994 130.928  14.252  1.00  0.00    -0.017 A 
ATOM     28  C   UNL     1      47.617 130.063  14.685  1.00  0.00     0.001 A 
ATOM     29  C   UNL     1      45.749 130.388  13.197  1.00  0.00     0.009 A 
ATOM     30  C   UNL     1      47.048 129.939  13.421  1.00  0.00     0.001 A 
ATOM     31  H   UNL     1      41.905 133.296  16.975  1.00  0.00     0.312 HD
ATOM     32  C   UNL     1      45.890 130.208  18.595  1.00  0.00     0.045 C 
ENDBRANCH  16  17
ENDBRANCH  11  12
ENDBRANCH   9  11
ENDBRANCH   1   9
TORSDOF 8
ENDMDL
MODEL 6
REMARK VINA RESULT:      -6.5      4.770      8.613
REMARK SMILES Cc1cc(-n2cc(C[C@@H](C)/N=C(\O)[C@H](C)C#N)nn2)[nH+]c2ccc3ccccc3c12
REMARK SMILES IDX 11 1 12 2 13 3 14 5 15 6 16 7 17 8 9 9 10 10 8 11 7 12 18 13
REMARK SMILES IDX 6 14 19 15 5 16 4 17 3 18 20 19 2 20 21 21 30 22 22 23 29 24
REMARK SMILES IDX 23 25 28 26 24 27 27 28 25 29 26 30 1 32
REMARK H PARENT 13 4 20 31
ROOT
ATOM      1  N   UNL     1      42.286 135.519  23.531  1.00  0.00    -0.251 NA
ENDROOT
BRANCH   1   2
ATOM      2  C   UNL     1      42.387 136.796  23.758  1.00  0.00     0.198 C 
BRANCH   2   3
ATOM      3  O   UNL     1      41.298 137.510  24.262  1.00  0.00    -0.496 OA
ATOM      4  H   UNL     1      41.111 137.559  25.256  1.00  0.00     0.295 HD
ENDBRANCH   2   3
BRANCH   2   5
ATOM      5  C   UNL     1      43.682 137.506  23.466  1.00  0.00     0.175 C 
ATOM      6  C   UNL     1      43.420 138.904  22.902  1.00  0.00     0.034 C 
BRANCH   5   7
ATOM      7  C   UNL     1      44.490 136.718  22.523  1.00  0.00     0.075 C 
ATOM      8  N   UNL     1      45.126 136.097  21.781  1.00  0.00    -0.197 NA
ENDBRANCH   5   7
ENDBRANCH   2   5
ENDBRANCH   1   2
BRANCH   1   9
ATOM      9  C   UNL     1      41.029 134.769  23.539  1.00  0.00     0.112 C 
ATOM     10  C   UNL     1      41.336 133.274  23.664  1.00  0.00     0.034 C 
BRANCH   9  11
ATOM     11  C   UNL     1      40.191 135.076  22.280  1.00  0.00     0.089 C 
BRANCH  11  12
ATOM     12  C   UNL     1      40.978 134.935  21.010  1.00  0.00     0.111 A 
ATOM     13  N   UNL     1      41.368 135.965  20.235  1.00  0.00    -0.112 NA
ATOM     14  C   UNL     1      41.490 133.772  20.480  1.00  0.00     0.260 A 
ATOM     15  N   UNL     1      42.092 135.448  19.253  1.00  0.00     0.032 NA
ATOM     16  N   UNL     1      42.177 134.131  19.377  1.00  0.00    -0.084 N 
BRANCH  16  17
ATOM     17  C   UNL     1      42.921 133.281  18.482  1.00  0.00     0.306 A 
ATOM     18  C   UNL     1      43.964 132.478  18.953  1.00  0.00     0.105 A 
ATOM     19  N   UNL     1      42.567 133.203  17.170  1.00  0.00    -0.238 N 
ATOM     20  C   UNL     1      44.676 131.645  18.079  1.00  0.00    -0.031 A 
ATOM     21  C   UNL     1      43.261 132.443  16.273  1.00  0.00     0.133 A 
ATOM     22  C   UNL     1      44.421 131.723  16.675  1.00  0.00     0.032 A 
ATOM     23  C   UNL     1      42.802 132.364  14.953  1.00  0.00     0.053 A 
ATOM     24  C   UNL     1      45.217 131.101  15.654  1.00  0.00    -0.007 A 
ATOM     25  C   UNL     1      43.478 131.603  14.009  1.00  0.00     0.013 A 
ATOM     26  C   UNL     1      46.552 130.679  15.857  1.00  0.00     0.009 A 
ATOM     27  C   UNL     1      44.692 130.995  14.335  1.00  0.00    -0.017 A 
ATOM     28  C   UNL     1      47.264 130.027  14.846  1.00  0.00     0.001 A 
ATOM     29  C   UNL     1      45.413 130.325  13.332  1.00  0.00     0.009 A 
ATOM     30  C   UNL     1      46.686 129.827  13.597  1.00  0.00     0.001 A 
ATOM     31  H   UNL     1      41.745 133.755  16.837  1.00  0.00     0.312 HD
ATOM     32  C   UNL     1      45.559 130.604  18.726  1.00  0.00     0.045 C 
ENDBRANCH  16  17
ENDBRANCH  11  12
ENDBRANCH   9  11
ENDBRANCH   1   9
TORSDOF 8
ENDMDL
MODEL 7
REMARK VINA RESULT:      -6.5      4.792      8.929
REMARK SMILES Cc1cc(-n2cc(C[C@@H](C)/N=C(\O)[C@H](C)C#N)nn2)[nH+]c2ccc3ccccc3c12
REMARK SMILES IDX 11 1 12 2 13 3 14 5 15 6 16 7 17 8 9 9 10 10 8 11 7 12 18 13
REMARK SMILES IDX 6 14 19 15 5 16 4 17 3 18 20 19 2 20 21 21 30 22 22 23 29 24
REMARK SMILES IDX 23 25 28 26 24 27 27 28 25 29 26 30 1 32
REMARK H PARENT 13 4 20 31
ROOT
ATOM      1  N   UNL     1      39.044 134.788  22.134  1.00  0.00    -0.251 NA
ENDROOT
BRANCH   1   2
ATOM      2  C   UNL     1      39.602 134.883  23.306  1.00  0.00     0.198 C 
BRANCH   2   3
ATOM      3  O   UNL     1      39.015 134.275  24.417  1.00  0.00    -0.496 OA
ATOM      4  H   UNL     1      38.171 133.722  24.334  1.00  0.00     0.295 HD
ENDBRANCH   2   3
BRANCH   2   5
ATOM      5  C   UNL     1      40.882 135.660  23.463  1.00  0.00     0.175 C 
ATOM      6  C   UNL     1      40.599 137.161  23.553  1.00  0.00     0.034 C 
BRANCH   5   7
ATOM      7  C   UNL     1      41.787 135.377  22.338  1.00  0.00     0.075 C 
ATOM      8  N   UNL     1      42.498 135.155  21.453  1.00  0.00    -0.197 NA
ENDBRANCH   5   7
ENDBRANCH   2   5
ENDBRANCH   1   2
BRANCH   1   9
ATOM      9  C   UNL     1      37.937 135.626  21.670  1.00  0.00     0.112 C 
ATOM     10  C   UNL     1      36.620 134.868  21.856  1.00  0.00     0.034 C 
BRANCH   9  11
ATOM     11  C   UNL     1      38.144 136.058  20.202  1.00  0.00     0.089 C 
BRANCH  11  12
ATOM     12  C   UNL     1      38.731 134.968  19.355  1.00  0.00     0.111 A 
ATOM     13  N   UNL     1      38.025 133.955  18.816  1.00  0.00    -0.112 NA
ATOM     14  C   UNL     1      40.036 134.864  18.928  1.00  0.00     0.260 A 
ATOM     15  N   UNL     1      38.874 133.246  18.087  1.00  0.00     0.032 NA
ATOM     16  N   UNL     1      40.090 133.772  18.141  1.00  0.00    -0.084 N 
BRANCH  16  17
ATOM     17  C   UNL     1      41.229 133.247  17.429  1.00  0.00     0.306 A 
ATOM     18  C   UNL     1      41.337 133.386  16.043  1.00  0.00     0.105 A 
ATOM     19  N   UNL     1      42.250 132.666  18.117  1.00  0.00    -0.238 N 
ATOM     20  C   UNL     1      42.453 132.886  15.358  1.00  0.00    -0.031 A 
ATOM     21  C   UNL     1      43.332 132.122  17.490  1.00  0.00     0.133 A 
ATOM     22  C   UNL     1      43.417 132.107  16.069  1.00  0.00     0.032 A 
ATOM     23  C   UNL     1      44.371 131.595  18.266  1.00  0.00     0.053 A 
ATOM     24  C   UNL     1      44.479 131.352  15.464  1.00  0.00    -0.007 A 
ATOM     25  C   UNL     1      45.490 131.031  17.668  1.00  0.00     0.013 A 
ATOM     26  C   UNL     1      44.476 130.955  14.106  1.00  0.00     0.009 A 
ATOM     27  C   UNL     1      45.545 130.878  16.281  1.00  0.00    -0.017 A 
ATOM     28  C   UNL     1      45.561 130.270  13.552  1.00  0.00     0.001 A 
ATOM     29  C   UNL     1      46.636 130.203  15.709  1.00  0.00     0.009 A 
ATOM     30  C   UNL     1      46.650 129.920  14.345  1.00  0.00     0.001 A 
ATOM     31  H   UNL     1      42.193 132.624  19.160  1.00  0.00     0.312 HD
ATOM     32  C   UNL     1      42.622 133.353  13.932  1.00  0.00     0.045 C 
ENDBRANCH  16  17
ENDBRANCH  11  12
ENDBRANCH   9  11
ENDBRANCH   1   9
TORSDOF 8
ENDMDL
MODEL 8
REMARK VINA RESULT:      -6.3      5.205      8.697
REMARK SMILES Cc1cc(-n2cc(C[C@@H](C)/N=C(\O)[C@H](C)C#N)nn2)[nH+]c2ccc3ccccc3c12
REMARK SMILES IDX 11 1 12 2 13 3 14 5 15 6 16 7 17 8 9 9 10 10 8 11 7 12 18 13
REMARK SMILES IDX 6 14 19 15 5 16 4 17 3 18 20 19 2 20 21 21 30 22 22 23 29 24
REMARK SMILES IDX 23 25 28 26 24 27 27 28 25 29 26 30 1 32
REMARK H PARENT 13 4 20 31
ROOT
ATOM      1  N   UNL     1      41.576 134.556  15.266  1.00  0.00    -0.251 NA
ENDROOT
BRANCH   1   2
ATOM      2  C   UNL     1      42.762 134.021  15.272  1.00  0.00     0.198 C 
BRANCH   2   3
ATOM      3  O   UNL     1      43.897 134.822  15.135  1.00  0.00    -0.496 OA
ATOM      4  H   UNL     1      43.980 135.710  15.613  1.00  0.00     0.295 HD
ENDBRANCH   2   3
BRANCH   2   5
ATOM      5  C   UNL     1      42.906 132.529  15.419  1.00  0.00     0.175 C 
ATOM      6  C   UNL     1      42.631 132.095  16.860  1.00  0.00     0.034 C 
BRANCH   5   7
ATOM      7  C   UNL     1      44.254 132.108  15.007  1.00  0.00     0.075 C 
ATOM      8  N   UNL     1      45.315 131.777  14.684  1.00  0.00    -0.197 NA
ENDBRANCH   5   7
ENDBRANCH   2   5
ENDBRANCH   1   2
BRANCH   1   9
ATOM      9  C   UNL     1      40.755 134.773  16.459  1.00  0.00     0.112 C 
ATOM     10  C   UNL     1      39.385 134.121  16.251  1.00  0.00     0.034 C 
BRANCH   9  11
ATOM     11  C   UNL     1      40.628 136.277  16.781  1.00  0.00     0.089 C 
BRANCH  11  12
ATOM     12  C   UNL     1      41.927 136.889  17.215  1.00  0.00     0.111 A 
ATOM     13  N   UNL     1      42.344 138.122  16.869  1.00  0.00    -0.112 NA
ATOM     14  C   UNL     1      42.850 136.344  18.080  1.00  0.00     0.260 A 
ATOM     15  N   UNL     1      43.493 138.325  17.497  1.00  0.00     0.032 NA
ATOM     16  N   UNL     1      43.819 137.269  18.228  1.00  0.00    -0.084 N 
BRANCH  16  17
ATOM     17  C   UNL     1      44.999 137.190  19.054  1.00  0.00     0.306 A 
ATOM     18  C   UNL     1      46.019 138.139  18.941  1.00  0.00     0.105 A 
ATOM     19  N   UNL     1      45.099 136.221  20.004  1.00  0.00    -0.238 N 
ATOM     20  C   UNL     1      47.158 138.065  19.755  1.00  0.00    -0.031 A 
ATOM     21  C   UNL     1      46.208 136.081  20.786  1.00  0.00     0.133 A 
ATOM     22  C   UNL     1      47.336 136.931  20.607  1.00  0.00     0.032 A 
ATOM     23  C   UNL     1      46.214 135.099  21.784  1.00  0.00     0.053 A 
ATOM     24  C   UNL     1      48.541 136.613  21.321  1.00  0.00    -0.007 A 
ATOM     25  C   UNL     1      47.323 134.922  22.600  1.00  0.00     0.013 A 
ATOM     26  C   UNL     1      49.811 137.132  20.974  1.00  0.00     0.009 A 
ATOM     27  C   UNL     1      48.493 135.645  22.364  1.00  0.00    -0.017 A 
ATOM     28  C   UNL     1      50.944 136.836  21.736  1.00  0.00     0.001 A 
ATOM     29  C   UNL     1      49.637 135.368  23.131  1.00  0.00     0.009 A 
ATOM     30  C   UNL     1      50.852 135.978  22.828  1.00  0.00     0.001 A 
ATOM     31  H   UNL     1      44.303 135.555  20.128  1.00  0.00     0.312 HD
ATOM     32  C   UNL     1      48.041 139.289  19.775  1.00  0.00     0.045 C 
ENDBRANCH  16  17
ENDBRANCH  11  12
ENDBRANCH   9  11
ENDBRANCH   1   9
TORSDOF 8
ENDMDL
MODEL 9
REMARK VINA RESULT:      -6.2      2.767      8.451
REMARK SMILES Cc1cc(-n2cc(C[C@@H](C)/N=C(\O)[C@H](C)C#N)nn2)[nH+]c2ccc3ccccc3c12
REMARK SMILES IDX 11 1 12 2 13 3 14 5 15 6 16 7 17 8 9 9 10 10 8 11 7 12 18 13
REMARK SMILES IDX 6 14 19 15 5 16 4 17 3 18 20 19 2 20 21 21 30 22 22 23 29 24
REMARK SMILES IDX 23 25 28 26 24 27 27 28 25 29 26 30 1 32
REMARK H PARENT 13 4 20 31
ROOT
ATOM      1  N   UNL     1      39.723 136.157  15.880  1.00  0.00    -0.251 NA
ENDROOT
BRANCH   1   2
ATOM      2  C   UNL     1      39.359 136.529  14.688  1.00  0.00     0.198 C 
BRANCH   2   3
ATOM      3  O   UNL     1      40.185 137.357  13.926  1.00  0.00    -0.496 OA
ATOM      4  H   UNL     1      39.857 138.241  13.559  1.00  0.00     0.295 HD
ENDBRANCH   2   3
BRANCH   2   5
ATOM      5  C   UNL     1      38.036 136.070  14.133  1.00  0.00     0.175 C 
ATOM      6  C   UNL     1      38.223 135.382  12.780  1.00  0.00     0.034 C 
BRANCH   5   7
ATOM      7  C   UNL     1      37.118 137.212  14.004  1.00  0.00     0.075 C 
ATOM      8  N   UNL     1      36.396 138.110  13.901  1.00  0.00    -0.197 NA
ENDBRANCH   5   7
ENDBRANCH   2   5
ENDBRANCH   1   2
BRANCH   1   9
ATOM      9  C   UNL     1      39.253 136.772  17.123  1.00  0.00     0.112 C 
ATOM     10  C   UNL     1      40.271 137.820  17.581  1.00  0.00     0.034 C 
BRANCH   9  11
ATOM     11  C   UNL     1      39.002 135.706  18.211  1.00  0.00     0.089 C 
BRANCH  11  12
ATOM     12  C   UNL     1      40.128 134.721  18.329  1.00  0.00     0.111 A 
ATOM     13  N   UNL     1      40.453 134.064  19.458  1.00  0.00    -0.112 NA
ATOM     14  C   UNL     1      40.946 134.275  17.315  1.00  0.00     0.260 A 
ATOM     15  N   UNL     1      41.446 133.243  19.148  1.00  0.00     0.032 NA
ATOM     16  N   UNL     1      41.762 133.355  17.866  1.00  0.00    -0.084 N 
BRANCH  16  17
ATOM     17  C   UNL     1      42.784 132.573  17.214  1.00  0.00     0.306 A 
ATOM     18  C   UNL     1      43.821 131.992  17.949  1.00  0.00     0.105 A 
ATOM     19  N   UNL     1      42.709 132.339  15.876  1.00  0.00    -0.238 N 
ATOM     20  C   UNL     1      44.805 131.223  17.311  1.00  0.00    -0.031 A 
ATOM     21  C   UNL     1      43.668 131.638  15.205  1.00  0.00     0.133 A 
ATOM     22  C   UNL     1      44.821 131.152  15.884  1.00  0.00     0.032 A 
ATOM     23  C   UNL     1      43.492 131.385  13.839  1.00  0.00     0.053 A 
ATOM     24  C   UNL     1      45.883 130.594  15.096  1.00  0.00    -0.007 A 
ATOM     25  C   UNL     1      44.444 130.676  13.120  1.00  0.00     0.013 A 
ATOM     26  C   UNL     1      47.201 130.413  15.580  1.00  0.00     0.009 A 
ATOM     27  C   UNL     1      45.647 130.302  13.722  1.00  0.00    -0.017 A 
ATOM     28  C   UNL     1      48.184 129.814  14.790  1.00  0.00     0.001 A 
ATOM     29  C   UNL     1      46.641 129.687  12.943  1.00  0.00     0.009 A 
ATOM     30  C   UNL     1      47.898 129.426  13.485  1.00  0.00     0.001 A 
ATOM     31  H   UNL     1      41.894 132.722  15.343  1.00  0.00     0.312 HD
ATOM     32  C   UNL     1      45.688 130.394  18.214  1.00  0.00     0.045 C 
ENDBRANCH  16  17
ENDBRANCH  11  12
ENDBRANCH   9  11
ENDBRANCH   1   9
TORSDOF 8
ENDMDL


