MODEL 1
REMARK VINA RESULT:      -5.9      0.000      0.000
REMARK SMILES CCN(CC/N=C(/OC(=O)[C@H]1C[C@@H]1CO)C1(C#N)CC1)c1cc(N=[N+]=[N-])c2c3c(cccc13)C(O)=N2
REMARK SMILES IDX 6 1 5 2 4 3 3 4 21 5 34 6 36 7 29 8 27 9 30 10 28 11 23 12
REMARK SMILES IDX 31 13 33 14 22 15 32 16 35 17 24 19 25 20 26 21 2 22 1 23
REMARK SMILES IDX 7 24 8 25 9 26 10 27 11 28 12 29 13 30 14 31 15 32 16 34
REMARK SMILES IDX 19 35 20 36 17 37 18 38
REMARK H PARENT 35 18 15 33
ROOT
ATOM      1  N   UNL     1      43.638 133.966  15.754  1.00  0.00    -0.252 NA
ENDROOT
BRANCH   1   2
ATOM      2  C   UNL     1      44.171 135.326  15.714  1.00  0.00     0.167 C 
BRANCH   2   3
ATOM      3  C   UNL     1      43.047 136.303  15.354  1.00  0.00     0.140 C 
BRANCH   3   4
ATOM      4  N   UNL     1      42.747 137.221  16.467  1.00  0.00    -0.369 N 
BRANCH   4   5
ATOM      5  C   UNL     1      43.167 136.899  17.804  1.00  0.00     0.045 A 
ATOM      6  C   UNL     1      43.026 135.300  22.066  1.00  0.00     0.219 C 
ATOM      7  N   UNL     1      44.070 136.049  21.832  1.00  0.00    -0.213 NA
ATOM      8  C   UNL     1      42.185 135.154  20.870  1.00  0.00     0.047 A 
ATOM      9  C   UNL     1      43.942 136.426  20.457  1.00  0.00     0.085 A 
ATOM     10  C   UNL     1      40.982 134.512  20.570  1.00  0.00     0.014 A 
ATOM     11  C   UNL     1      42.825 135.879  19.929  1.00  0.00     0.023 A 
ATOM     12  C   UNL     1      44.749 137.261  19.683  1.00  0.00     0.066 A 
ATOM     13  C   UNL     1      40.479 134.648  19.253  1.00  0.00     0.002 A 
ATOM     14  C   UNL     1      42.380 136.066  18.635  1.00  0.00     0.008 A 
ATOM     15  C   UNL     1      44.353 137.489  18.334  1.00  0.00     0.039 A 
ATOM     16  C   UNL     1      41.173 135.422  18.282  1.00  0.00     0.011 A 
BRANCH   6  17
ATOM     17  O   UNL     1      42.769 134.730  23.308  1.00  0.00    -0.493 OA
ATOM     18  H   UNL     1      43.229 135.075  24.141  1.00  0.00     0.295 HD
ENDBRANCH   6  17
BRANCH  12  19
ATOM     19  N   UNL     1      45.913 137.867  20.260  1.00  0.00    -0.058 NA
BRANCH  19  20
ATOM     20  N   UNL     1      46.889 137.203  20.612  1.00  0.00     0.005 N 
ATOM     21  N   UNL     1      47.863 136.540  20.964  1.00  0.00    -0.003 NA
ENDBRANCH  19  20
ENDBRANCH  12  19
ENDBRANCH   4   5
BRANCH   4  22
ATOM     22  C   UNL     1      42.150 138.536  16.205  1.00  0.00     0.113 C 
ATOM     23  C   UNL     1      41.917 138.737  14.712  1.00  0.00     0.027 C 
ENDBRANCH   4  22
ENDBRANCH   3   4
ENDBRANCH   2   3
ENDBRANCH   1   2
BRANCH   1  24
ATOM     24  C   UNL     1      44.329 132.870  15.886  1.00  0.00     0.214 C 
BRANCH  24  25
ATOM     25  O   UNL     1      45.064 132.364  14.803  1.00  0.00    -0.410 OA
BRANCH  25  26
ATOM     26  C   UNL     1      44.705 131.251  14.024  1.00  0.00     0.315 C 
ATOM     27  O   UNL     1      43.517 131.083  13.640  1.00  0.00    -0.251 OA
BRANCH  26  28
ATOM     28  C   UNL     1      45.734 130.230  13.639  1.00  0.00     0.105 C 
ATOM     29  C   UNL     1      46.479 130.564  12.349  1.00  0.00     0.022 C 
ATOM     30  C   UNL     1      47.193 130.675  13.690  1.00  0.00     0.030 C 
BRANCH  30  31
ATOM     31  C   UNL     1      48.207 129.560  13.966  1.00  0.00     0.160 C 
BRANCH  31  32
ATOM     32  O   UNL     1      48.286 129.318  15.345  1.00  0.00    -0.396 OA
ATOM     33  H   UNL     1      49.075 128.728  15.484  1.00  0.00     0.210 HD
ENDBRANCH  31  32
ENDBRANCH  30  31
ENDBRANCH  26  28
ENDBRANCH  25  26
ENDBRANCH  24  25
BRANCH  24  34
ATOM     34  C   UNL     1      44.366 132.110  17.183  1.00  0.00     0.133 C 
ATOM     35  C   UNL     1      44.301 132.966  18.445  1.00  0.00     0.034 C 
ATOM     36  C   UNL     1      43.110 132.109  18.039  1.00  0.00     0.034 C 
BRANCH  34  37
ATOM     37  C   UNL     1      45.246 130.940  17.289  1.00  0.00     0.079 C 
ATOM     38  N   UNL     1      45.944 130.020  17.373  1.00  0.00    -0.197 NA
ENDBRANCH  34  37
ENDBRANCH  24  34
ENDBRANCH   1  24
TORSDOF 16
ENDMDL
MODEL 2
REMARK VINA RESULT:      -5.8      2.789      5.050
REMARK SMILES CCN(CC/N=C(/OC(=O)[C@H]1C[C@@H]1CO)C1(C#N)CC1)c1cc(N=[N+]=[N-])c2c3c(cccc13)C(O)=N2
REMARK SMILES IDX 6 1 5 2 4 3 3 4 21 5 34 6 36 7 29 8 27 9 30 10 28 11 23 12
REMARK SMILES IDX 31 13 33 14 22 15 32 16 35 17 24 19 25 20 26 21 2 22 1 23
REMARK SMILES IDX 7 24 8 25 9 26 10 27 11 28 12 29 13 30 14 31 15 32 16 34
REMARK SMILES IDX 19 35 20 36 17 37 18 38
REMARK H PARENT 35 18 15 33
ROOT
ATOM      1  N   UNL     1      43.813 131.626  18.156  1.00  0.00    -0.252 NA
ENDROOT
BRANCH   1   2
ATOM      2  C   UNL     1      44.973 131.725  19.039  1.00  0.00     0.167 C 
BRANCH   2   3
ATOM      3  C   UNL     1      44.612 131.170  20.419  1.00  0.00     0.140 C 
BRANCH   3   4
ATOM      4  N   UNL     1      44.344 132.249  21.387  1.00  0.00    -0.369 N 
BRANCH   4   5
ATOM      5  C   UNL     1      44.570 133.621  21.021  1.00  0.00     0.045 A 
ATOM      6  C   UNL     1      46.640 137.657  20.611  1.00  0.00     0.219 C 
ATOM      7  N   UNL     1      45.379 137.689  20.271  1.00  0.00    -0.213 NA
ATOM      8  C   UNL     1      47.059 136.307  21.014  1.00  0.00     0.047 A 
ATOM      9  C   UNL     1      44.925 136.342  20.446  1.00  0.00     0.085 A 
ATOM     10  C   UNL     1      48.240 135.728  21.479  1.00  0.00     0.014 A 
ATOM     11  C   UNL     1      45.941 135.564  20.880  1.00  0.00     0.023 A 
ATOM     12  C   UNL     1      43.649 135.803  20.275  1.00  0.00     0.066 A 
ATOM     13  C   UNL     1      48.213 134.346  21.791  1.00  0.00     0.002 A 
ATOM     14  C   UNL     1      45.842 134.220  21.184  1.00  0.00     0.008 A 
ATOM     15  C   UNL     1      43.479 134.418  20.562  1.00  0.00     0.039 A 
ATOM     16  C   UNL     1      47.018 133.588  21.645  1.00  0.00     0.011 A 
BRANCH   6  17
ATOM     17  O   UNL     1      47.456 138.783  20.589  1.00  0.00    -0.493 OA
ATOM     18  H   UNL     1      47.435 139.452  21.347  1.00  0.00     0.295 HD
ENDBRANCH   6  17
BRANCH  12  19
ATOM     19  N   UNL     1      42.568 136.644  19.849  1.00  0.00    -0.058 NA
BRANCH  19  20
ATOM     20  N   UNL     1      42.516 137.114  18.713  1.00  0.00     0.005 N 
ATOM     21  N   UNL     1      42.463 137.585  17.577  1.00  0.00    -0.003 NA
ENDBRANCH  19  20
ENDBRANCH  12  19
ENDBRANCH   4   5
BRANCH   4  22
ATOM     22  C   UNL     1      43.708 131.950  22.676  1.00  0.00     0.113 C 
ATOM     23  C   UNL     1      44.666 131.193  23.588  1.00  0.00     0.027 C 
ENDBRANCH   4  22
ENDBRANCH   3   4
ENDBRANCH   2   3
ENDBRANCH   1   2
BRANCH   1  24
ATOM     24  C   UNL     1      43.797 131.855  16.874  1.00  0.00     0.214 C 
BRANCH  24  25
ATOM     25  O   UNL     1      44.670 131.162  16.022  1.00  0.00    -0.410 OA
BRANCH  25  26
ATOM     26  C   UNL     1      45.794 131.713  15.383  1.00  0.00     0.315 C 
ATOM     27  O   UNL     1      45.987 132.959  15.369  1.00  0.00    -0.251 OA
BRANCH  26  28
ATOM     28  C   UNL     1      46.788 130.826  14.694  1.00  0.00     0.105 C 
ATOM     29  C   UNL     1      46.291 129.401  14.474  1.00  0.00     0.022 C 
ATOM     30  C   UNL     1      46.423 130.351  13.291  1.00  0.00     0.030 C 
BRANCH  30  31
ATOM     31  C   UNL     1      47.612 130.058  12.371  1.00  0.00     0.160 C 
BRANCH  31  32
ATOM     32  O   UNL     1      47.330 130.503  11.071  1.00  0.00    -0.396 OA
ATOM     33  H   UNL     1      47.316 129.694  10.492  1.00  0.00     0.210 HD
ENDBRANCH  31  32
ENDBRANCH  30  31
ENDBRANCH  26  28
ENDBRANCH  25  26
ENDBRANCH  24  25
BRANCH  24  34
ATOM     34  C   UNL     1      42.858 132.858  16.262  1.00  0.00     0.133 C 
ATOM     35  C   UNL     1      41.923 133.561  17.241  1.00  0.00     0.034 C 
ATOM     36  C   UNL     1      43.072 134.325  16.598  1.00  0.00     0.034 C 
BRANCH  34  37
ATOM     37  C   UNL     1      42.255 132.554  14.959  1.00  0.00     0.079 C 
ATOM     38  N   UNL     1      41.775 132.319  13.932  1.00  0.00    -0.197 NA
ENDBRANCH  34  37
ENDBRANCH  24  34
ENDBRANCH   1  24
TORSDOF 16
ENDMDL
MODEL 3
REMARK VINA RESULT:      -5.3      3.118      7.137
REMARK SMILES CCN(CC/N=C(/OC(=O)[C@H]1C[C@@H]1CO)C1(C#N)CC1)c1cc(N=[N+]=[N-])c2c3c(cccc13)C(O)=N2
REMARK SMILES IDX 6 1 5 2 4 3 3 4 21 5 34 6 36 7 29 8 27 9 30 10 28 11 23 12
REMARK SMILES IDX 31 13 33 14 22 15 32 16 35 17 24 19 25 20 26 21 2 22 1 23
REMARK SMILES IDX 7 24 8 25 9 26 10 27 11 28 12 29 13 30 14 31 15 32 16 34
REMARK SMILES IDX 19 35 20 36 17 37 18 38
REMARK H PARENT 35 18 15 33
ROOT
ATOM      1  N   UNL     1      39.402 133.808  19.472  1.00  0.00    -0.252 NA
ENDROOT
BRANCH   1   2
ATOM      2  C   UNL     1      40.816 133.723  19.113  1.00  0.00     0.167 C 
BRANCH   2   3
ATOM      3  C   UNL     1      41.672 134.163  20.303  1.00  0.00     0.140 C 
BRANCH   3   4
ATOM      4  N   UNL     1      43.033 134.544  19.883  1.00  0.00    -0.369 N 
BRANCH   4   5
ATOM      5  C   UNL     1      43.547 134.108  18.614  1.00  0.00     0.045 A 
ATOM      6  C   UNL     1      45.843 131.654  15.540  1.00  0.00     0.219 C 
ATOM      7  N   UNL     1      45.365 132.769  15.054  1.00  0.00    -0.213 NA
ATOM      8  C   UNL     1      45.485 131.481  16.954  1.00  0.00     0.047 A 
ATOM      9  C   UNL     1      44.671 133.372  16.153  1.00  0.00     0.085 A 
ATOM     10  C   UNL     1      45.743 130.524  17.937  1.00  0.00     0.014 A 
ATOM     11  C   UNL     1      44.763 132.583  17.247  1.00  0.00     0.023 A 
ATOM     12  C   UNL     1      44.007 134.597  16.223  1.00  0.00     0.066 A 
ATOM     13  C   UNL     1      45.215 130.757  19.231  1.00  0.00     0.002 A 
ATOM     14  C   UNL     1      44.237 132.879  18.489  1.00  0.00     0.008 A 
ATOM     15  C   UNL     1      43.432 134.959  17.474  1.00  0.00     0.039 A 
ATOM     16  C   UNL     1      44.462 131.931  19.512  1.00  0.00     0.011 A 
BRANCH   6  17
ATOM     17  O   UNL     1      46.600 130.766  14.783  1.00  0.00    -0.493 OA
ATOM     18  H   UNL     1      47.611 130.799  14.805  1.00  0.00     0.295 HD
ENDBRANCH   6  17
BRANCH  12  19
ATOM     19  N   UNL     1      43.945 135.444  15.068  1.00  0.00    -0.058 NA
BRANCH  19  20
ATOM     20  N   UNL     1      43.169 136.397  14.998  1.00  0.00     0.005 N 
ATOM     21  N   UNL     1      42.394 137.350  14.928  1.00  0.00    -0.003 NA
ENDBRANCH  19  20
ENDBRANCH  12  19
ENDBRANCH   4   5
BRANCH   4  22
ATOM     22  C   UNL     1      43.820 135.489  20.684  1.00  0.00     0.113 C 
ATOM     23  C   UNL     1      43.127 135.783  22.010  1.00  0.00     0.027 C 
ENDBRANCH   4  22
ENDBRANCH   3   4
ENDBRANCH   2   3
ENDBRANCH   1   2
BRANCH   1  24
ATOM     24  C   UNL     1      38.606 134.812  19.243  1.00  0.00     0.214 C 
BRANCH  24  25
ATOM     25  O   UNL     1      37.416 134.622  18.524  1.00  0.00    -0.410 OA
BRANCH  25  26
ATOM     26  C   UNL     1      37.300 134.632  17.124  1.00  0.00     0.315 C 
ATOM     27  O   UNL     1      36.393 135.295  16.552  1.00  0.00    -0.251 OA
BRANCH  26  28
ATOM     28  C   UNL     1      38.252 133.841  16.276  1.00  0.00     0.105 C 
ATOM     29  C   UNL     1      38.163 134.163  14.788  1.00  0.00     0.022 C 
ATOM     30  C   UNL     1      39.371 134.622  15.594  1.00  0.00     0.030 C 
BRANCH  30  31
ATOM     31  C   UNL     1      40.653 133.827  15.327  1.00  0.00     0.160 C 
BRANCH  31  32
ATOM     32  O   UNL     1      40.554 133.163  14.096  1.00  0.00    -0.396 OA
ATOM     33  H   UNL     1      40.685 133.852  13.391  1.00  0.00     0.210 HD
ENDBRANCH  31  32
ENDBRANCH  30  31
ENDBRANCH  26  28
ENDBRANCH  25  26
ENDBRANCH  24  25
BRANCH  24  34
ATOM     34  C   UNL     1      38.925 136.200  19.729  1.00  0.00     0.133 C 
ATOM     35  C   UNL     1      39.829 137.021  18.816  1.00  0.00     0.034 C 
ATOM     36  C   UNL     1      38.354 137.372  18.948  1.00  0.00     0.034 C 
BRANCH  34  37
ATOM     37  C   UNL     1      39.161 136.407  21.163  1.00  0.00     0.079 C 
ATOM     38  N   UNL     1      39.352 136.568  22.293  1.00  0.00    -0.197 NA
ENDBRANCH  34  37
ENDBRANCH  24  34
ENDBRANCH   1  24
TORSDOF 16
ENDMDL
MODEL 4
REMARK VINA RESULT:      -5.0      2.939      5.398
REMARK SMILES CCN(CC/N=C(/OC(=O)[C@H]1C[C@@H]1CO)C1(C#N)CC1)c1cc(N=[N+]=[N-])c2c3c(cccc13)C(O)=N2
REMARK SMILES IDX 6 1 5 2 4 3 3 4 21 5 34 6 36 7 29 8 27 9 30 10 28 11 23 12
REMARK SMILES IDX 31 13 33 14 22 15 32 16 35 17 24 19 25 20 26 21 2 22 1 23
REMARK SMILES IDX 7 24 8 25 9 26 10 27 11 28 12 29 13 30 14 31 15 32 16 34
REMARK SMILES IDX 19 35 20 36 17 37 18 38
REMARK H PARENT 35 18 15 33
ROOT
ATOM      1  N   UNL     1      44.917 131.437  18.614  1.00  0.00    -0.252 NA
ENDROOT
BRANCH   1   2
ATOM      2  C   UNL     1      44.313 132.461  19.464  1.00  0.00     0.167 C 
BRANCH   2   3
ATOM      3  C   UNL     1      42.954 131.968  19.969  1.00  0.00     0.140 C 
BRANCH   3   4
ATOM      4  N   UNL     1      42.026 133.087  20.214  1.00  0.00    -0.369 N 
BRANCH   4   5
ATOM      5  C   UNL     1      41.470 133.822  19.110  1.00  0.00     0.045 A 
ATOM      6  C   UNL     1      40.546 137.293  16.311  1.00  0.00     0.219 C 
ATOM      7  N   UNL     1      39.792 136.247  16.099  1.00  0.00    -0.213 NA
ATOM      8  C   UNL     1      41.514 137.054  17.390  1.00  0.00     0.047 A 
ATOM      9  C   UNL     1      40.248 135.277  17.048  1.00  0.00     0.085 A 
ATOM     10  C   UNL     1      42.505 137.806  18.024  1.00  0.00     0.014 A 
ATOM     11  C   UNL     1      41.260 135.789  17.784  1.00  0.00     0.023 A 
ATOM     12  C   UNL     1      39.773 133.990  17.305  1.00  0.00     0.066 A 
ATOM     13  C   UNL     1      43.222 137.186  19.077  1.00  0.00     0.002 A 
ATOM     14  C   UNL     1      41.909 135.134  18.812  1.00  0.00     0.008 A 
ATOM     15  C   UNL     1      40.405 133.254  18.348  1.00  0.00     0.039 A 
ATOM     16  C   UNL     1      42.929 135.852  19.474  1.00  0.00     0.011 A 
BRANCH   6  17
ATOM     17  O   UNL     1      40.416 138.475  15.589  1.00  0.00    -0.493 OA
ATOM     18  H   UNL     1      40.792 139.343  15.946  1.00  0.00     0.295 HD
ENDBRANCH   6  17
BRANCH  12  19
ATOM     19  N   UNL     1      38.675 133.468  16.545  1.00  0.00    -0.058 NA
BRANCH  19  20
ATOM     20  N   UNL     1      38.156 134.102  15.627  1.00  0.00     0.005 N 
ATOM     21  N   UNL     1      37.636 134.736  14.709  1.00  0.00    -0.003 NA
ENDBRANCH  19  20
ENDBRANCH  12  19
ENDBRANCH   4   5
BRANCH   4  22
ATOM     22  C   UNL     1      41.546 133.370  21.572  1.00  0.00     0.113 C 
ATOM     23  C   UNL     1      42.687 133.852  22.460  1.00  0.00     0.027 C 
ENDBRANCH   4  22
ENDBRANCH   3   4
ENDBRANCH   2   3
ENDBRANCH   1   2
BRANCH   1  24
ATOM     24  C   UNL     1      45.152 131.534  17.337  1.00  0.00     0.214 C 
BRANCH  24  25
ATOM     25  O   UNL     1      46.063 130.664  16.718  1.00  0.00    -0.410 OA
BRANCH  25  26
ATOM     26  C   UNL     1      45.730 129.655  15.799  1.00  0.00     0.315 C 
ATOM     27  O   UNL     1      44.966 128.707  16.124  1.00  0.00    -0.251 OA
BRANCH  26  28
ATOM     28  C   UNL     1      46.288 129.680  14.407  1.00  0.00     0.105 C 
ATOM     29  C   UNL     1      45.416 130.434  13.409  1.00  0.00     0.022 C 
ATOM     30  C   UNL     1      46.734 131.039  13.874  1.00  0.00     0.030 C 
BRANCH  30  31
ATOM     31  C   UNL     1      47.857 130.994  12.832  1.00  0.00     0.160 C 
BRANCH  31  32
ATOM     32  O   UNL     1      47.337 130.612  11.587  1.00  0.00    -0.396 OA
ATOM     33  H   UNL     1      47.805 131.161  10.903  1.00  0.00     0.210 HD
ENDBRANCH  31  32
ENDBRANCH  30  31
ENDBRANCH  26  28
ENDBRANCH  25  26
ENDBRANCH  24  25
BRANCH  24  34
ATOM     34  C   UNL     1      44.471 132.569  16.484  1.00  0.00     0.133 C 
ATOM     35  C   UNL     1      44.609 134.009  16.968  1.00  0.00     0.034 C 
ATOM     36  C   UNL     1      45.349 133.547  15.721  1.00  0.00     0.034 C 
BRANCH  34  37
ATOM     37  C   UNL     1      43.164 132.249  15.898  1.00  0.00     0.079 C 
ATOM     38  N   UNL     1      42.136 131.996  15.431  1.00  0.00    -0.197 NA
ENDBRANCH  34  37
ENDBRANCH  24  34
ENDBRANCH   1  24
TORSDOF 16
ENDMDL
MODEL 5
REMARK VINA RESULT:      -5.0      2.075      4.171
REMARK SMILES CCN(CC/N=C(/OC(=O)[C@H]1C[C@@H]1CO)C1(C#N)CC1)c1cc(N=[N+]=[N-])c2c3c(cccc13)C(O)=N2
REMARK SMILES IDX 6 1 5 2 4 3 3 4 21 5 34 6 36 7 29 8 27 9 30 10 28 11 23 12
REMARK SMILES IDX 31 13 33 14 22 15 32 16 35 17 24 19 25 20 26 21 2 22 1 23
REMARK SMILES IDX 7 24 8 25 9 26 10 27 11 28 12 29 13 30 14 31 15 32 16 34
REMARK SMILES IDX 19 35 20 36 17 37 18 38
REMARK H PARENT 35 18 15 33
ROOT
ATOM      1  N   UNL     1      44.778 133.274  15.241  1.00  0.00    -0.252 NA
ENDROOT
BRANCH   1   2
ATOM      2  C   UNL     1      43.382 133.601  15.523  1.00  0.00     0.167 C 
BRANCH   2   3
ATOM      3  C   UNL     1      43.100 135.046  15.098  1.00  0.00     0.140 C 
BRANCH   3   4
ATOM      4  N   UNL     1      41.838 135.545  15.671  1.00  0.00    -0.369 N 
BRANCH   4   5
ATOM      5  C   UNL     1      41.599 135.456  17.086  1.00  0.00     0.045 A 
ATOM      6  C   UNL     1      39.472 134.617  21.024  1.00  0.00     0.219 C 
ATOM      7  N   UNL     1      40.570 135.309  21.171  1.00  0.00    -0.213 NA
ATOM      8  C   UNL     1      39.231 134.273  19.616  1.00  0.00     0.047 A 
ATOM      9  C   UNL     1      41.090 135.444  19.843  1.00  0.00     0.085 A 
ATOM     10  C   UNL     1      38.234 133.595  18.913  1.00  0.00     0.014 A 
ATOM     11  C   UNL     1      40.277 134.820  18.962  1.00  0.00     0.023 A 
ATOM     12  C   UNL     1      42.221 136.127  19.395  1.00  0.00     0.066 A 
ATOM     13  C   UNL     1      38.373 133.505  17.505  1.00  0.00     0.002 A 
ATOM     14  C   UNL     1      40.462 134.784  17.594  1.00  0.00     0.008 A 
ATOM     15  C   UNL     1      42.477 136.121  17.994  1.00  0.00     0.039 A 
ATOM     16  C   UNL     1      39.485 134.096  16.842  1.00  0.00     0.011 A 
BRANCH   6  17
ATOM     17  O   UNL     1      38.650 134.272  22.092  1.00  0.00    -0.493 OA
ATOM     18  H   UNL     1      38.801 133.413  22.605  1.00  0.00     0.295 HD
ENDBRANCH   6  17
BRANCH  12  19
ATOM     19  N   UNL     1      43.059 136.817  20.332  1.00  0.00    -0.058 NA
BRANCH  19  20
ATOM     20  N   UNL     1      43.987 136.256  20.914  1.00  0.00     0.005 N 
ATOM     21  N   UNL     1      44.916 135.696  21.496  1.00  0.00    -0.003 NA
ENDBRANCH  19  20
ENDBRANCH  12  19
ENDBRANCH   4   5
BRANCH   4  22
ATOM     22  C   UNL     1      40.875 136.268  14.831  1.00  0.00     0.113 C 
ATOM     23  C   UNL     1      41.253 137.741  14.722  1.00  0.00     0.027 C 
ENDBRANCH   4  22
ENDBRANCH   3   4
ENDBRANCH   2   3
ENDBRANCH   1   2
BRANCH   1  24
ATOM     24  C   UNL     1      45.386 132.164  15.543  1.00  0.00     0.214 C 
BRANCH  24  25
ATOM     25  O   UNL     1      45.850 131.945  16.849  1.00  0.00    -0.410 OA
BRANCH  25  26
ATOM     26  C   UNL     1      45.100 131.389  17.899  1.00  0.00     0.315 C 
ATOM     27  O   UNL     1      44.905 130.146  17.970  1.00  0.00    -0.251 OA
BRANCH  26  28
ATOM     28  C   UNL     1      44.504 132.270  18.956  1.00  0.00     0.105 C 
ATOM     29  C   UNL     1      42.993 132.119  19.102  1.00  0.00     0.022 C 
ATOM     30  C   UNL     1      43.919 131.570  20.179  1.00  0.00     0.030 C 
BRANCH  30  31
ATOM     31  C   UNL     1      43.944 132.388  21.474  1.00  0.00     0.160 C 
BRANCH  31  32
ATOM     32  O   UNL     1      42.778 133.160  21.573  1.00  0.00    -0.396 OA
ATOM     33  H   UNL     1      43.014 133.962  22.113  1.00  0.00     0.210 HD
ENDBRANCH  31  32
ENDBRANCH  30  31
ENDBRANCH  26  28
ENDBRANCH  25  26
ENDBRANCH  24  25
BRANCH  24  34
ATOM     34  C   UNL     1      45.618 131.086  14.520  1.00  0.00     0.133 C 
ATOM     35  C   UNL     1      45.000 129.730  14.847  1.00  0.00     0.034 C 
ATOM     36  C   UNL     1      44.416 130.587  13.733  1.00  0.00     0.034 C 
BRANCH  34  37
ATOM     37  C   UNL     1      46.925 131.012  13.857  1.00  0.00     0.079 C 
ATOM     38  N   UNL     1      47.956 130.950  13.334  1.00  0.00    -0.197 NA
ENDBRANCH  34  37
ENDBRANCH  24  34
ENDBRANCH   1  24
TORSDOF 16
ENDMDL
MODEL 6
REMARK VINA RESULT:      -5.0      2.301      4.945
REMARK SMILES CCN(CC/N=C(/OC(=O)[C@H]1C[C@@H]1CO)C1(C#N)CC1)c1cc(N=[N+]=[N-])c2c3c(cccc13)C(O)=N2
REMARK SMILES IDX 6 1 5 2 4 3 3 4 21 5 34 6 36 7 29 8 27 9 30 10 28 11 23 12
REMARK SMILES IDX 31 13 33 14 22 15 32 16 35 17 24 19 25 20 26 21 2 22 1 23
REMARK SMILES IDX 7 24 8 25 9 26 10 27 11 28 12 29 13 30 14 31 15 32 16 34
REMARK SMILES IDX 19 35 20 36 17 37 18 38
REMARK H PARENT 35 18 15 33
ROOT
ATOM      1  N   UNL     1      45.739 130.925  17.254  1.00  0.00    -0.252 NA
ENDROOT
BRANCH   1   2
ATOM      2  C   UNL     1      45.447 131.674  18.474  1.00  0.00     0.167 C 
BRANCH   2   3
ATOM      3  C   UNL     1      43.939 131.655  18.736  1.00  0.00     0.140 C 
BRANCH   3   4
ATOM      4  N   UNL     1      43.619 132.089  20.107  1.00  0.00    -0.369 N 
BRANCH   4   5
ATOM      5  C   UNL     1      43.141 133.423  20.352  1.00  0.00     0.045 A 
ATOM      6  C   UNL     1      40.640 137.210  19.975  1.00  0.00     0.219 C 
ATOM      7  N   UNL     1      41.704 137.369  20.715  1.00  0.00    -0.213 NA
ATOM      8  C   UNL     1      40.524 135.831  19.480  1.00  0.00     0.047 A 
ATOM      9  C   UNL     1      42.331 136.081  20.726  1.00  0.00     0.085 A 
ATOM     10  C   UNL     1      39.633 135.139  18.659  1.00  0.00     0.014 A 
ATOM     11  C   UNL     1      41.605 135.208  19.993  1.00  0.00     0.023 A 
ATOM     12  C   UNL     1      43.526 135.677  21.321  1.00  0.00     0.066 A 
ATOM     13  C   UNL     1      39.908 133.774  18.399  1.00  0.00     0.002 A 
ATOM     14  C   UNL     1      41.941 133.888  19.764  1.00  0.00     0.008 A 
ATOM     15  C   UNL     1      43.927 134.323  21.134  1.00  0.00     0.039 A 
ATOM     16  C   UNL     1      41.059 133.144  18.949  1.00  0.00     0.011 A 
BRANCH   6  17
ATOM     17  O   UNL     1      39.749 138.243  19.703  1.00  0.00    -0.493 OA
ATOM     18  H   UNL     1      38.759 138.134  19.882  1.00  0.00     0.295 HD
ENDBRANCH   6  17
BRANCH  12  19
ATOM     19  N   UNL     1      44.308 136.619  22.068  1.00  0.00    -0.058 NA
BRANCH  19  20
ATOM     20  N   UNL     1      45.216 137.269  21.550  1.00  0.00     0.005 N 
ATOM     21  N   UNL     1      46.123 137.920  21.033  1.00  0.00    -0.003 NA
ENDBRANCH  19  20
ENDBRANCH  12  19
ENDBRANCH   4   5
BRANCH   4  22
ATOM     22  C   UNL     1      43.643 131.127  21.216  1.00  0.00     0.113 C 
ATOM     23  C   UNL     1      45.053 130.989  21.781  1.00  0.00     0.027 C 
ENDBRANCH   4  22
ENDBRANCH   3   4
ENDBRANCH   2   3
ENDBRANCH   1   2
BRANCH   1  24
ATOM     24  C   UNL     1      45.747 131.398  16.041  1.00  0.00     0.214 C 
BRANCH  24  25
ATOM     25  O   UNL     1      45.595 132.775  15.818  1.00  0.00    -0.410 OA
BRANCH  25  26
ATOM     26  C   UNL     1      44.374 133.471  15.820  1.00  0.00     0.315 C 
ATOM     27  O   UNL     1      43.285 132.872  15.612  1.00  0.00    -0.251 OA
BRANCH  26  28
ATOM     28  C   UNL     1      44.344 134.951  16.062  1.00  0.00     0.105 C 
ATOM     29  C   UNL     1      42.958 135.489  16.406  1.00  0.00     0.022 C 
ATOM     30  C   UNL     1      44.030 135.405  17.485  1.00  0.00     0.030 C 
BRANCH  30  31
ATOM     31  C   UNL     1      44.634 136.754  17.888  1.00  0.00     0.160 C 
BRANCH  31  32
ATOM     32  O   UNL     1      43.610 137.672  18.160  1.00  0.00    -0.396 OA
ATOM     33  H   UNL     1      43.458 137.643  19.143  1.00  0.00     0.210 HD
ENDBRANCH  31  32
ENDBRANCH  30  31
ENDBRANCH  26  28
ENDBRANCH  25  26
ENDBRANCH  24  25
BRANCH  24  34
ATOM     34  C   UNL     1      45.914 130.502  14.844  1.00  0.00     0.133 C 
ATOM     35  C   UNL     1      44.769 129.526  14.593  1.00  0.00     0.034 C 
ATOM     36  C   UNL     1      44.979 130.714  13.665  1.00  0.00     0.034 C 
BRANCH  34  37
ATOM     37  C   UNL     1      47.246 129.962  14.549  1.00  0.00     0.079 C 
ATOM     38  N   UNL     1      48.299 129.537  14.321  1.00  0.00    -0.197 NA
ENDBRANCH  34  37
ENDBRANCH  24  34
ENDBRANCH   1  24
TORSDOF 16
ENDMDL
MODEL 7
REMARK VINA RESULT:      -4.9      2.296      3.609
REMARK SMILES CCN(CC/N=C(/OC(=O)[C@H]1C[C@@H]1CO)C1(C#N)CC1)c1cc(N=[N+]=[N-])c2c3c(cccc13)C(O)=N2
REMARK SMILES IDX 6 1 5 2 4 3 3 4 21 5 34 6 36 7 29 8 27 9 30 10 28 11 23 12
REMARK SMILES IDX 31 13 33 14 22 15 32 16 35 17 24 19 25 20 26 21 2 22 1 23
REMARK SMILES IDX 7 24 8 25 9 26 10 27 11 28 12 29 13 30 14 31 15 32 16 34
REMARK SMILES IDX 19 35 20 36 17 37 18 38
REMARK H PARENT 35 18 15 33
ROOT
ATOM      1  N   UNL     1      44.657 133.182  16.274  1.00  0.00    -0.252 NA
ENDROOT
BRANCH   1   2
ATOM      2  C   UNL     1      44.345 134.604  16.403  1.00  0.00     0.167 C 
BRANCH   2   3
ATOM      3  C   UNL     1      43.015 134.900  15.702  1.00  0.00     0.140 C 
BRANCH   3   4
ATOM      4  N   UNL     1      42.466 136.205  16.108  1.00  0.00    -0.369 N 
BRANCH   4   5
ATOM      5  C   UNL     1      42.151 136.461  17.487  1.00  0.00     0.045 A 
ATOM      6  C   UNL     1      42.718 137.501  21.885  1.00  0.00     0.219 C 
ATOM      7  N   UNL     1      41.527 137.036  21.616  1.00  0.00    -0.213 NA
ATOM      8  C   UNL     1      43.551 137.587  20.678  1.00  0.00     0.047 A 
ATOM      9  C   UNL     1      41.545 136.796  20.204  1.00  0.00     0.085 A 
ATOM     10  C   UNL     1      44.863 137.974  20.399  1.00  0.00     0.014 A 
ATOM     11  C   UNL     1      42.749 137.135  19.692  1.00  0.00     0.023 A 
ATOM     12  C   UNL     1      40.557 136.255  19.380  1.00  0.00     0.066 A 
ATOM     13  C   UNL     1      45.302 137.877  19.055  1.00  0.00     0.002 A 
ATOM     14  C   UNL     1      43.119 136.999  18.369  1.00  0.00     0.008 A 
ATOM     15  C   UNL     1      40.870 136.097  17.999  1.00  0.00     0.039 A 
ATOM     16  C   UNL     1      44.435 137.391  18.037  1.00  0.00     0.011 A 
BRANCH   6  17
ATOM     17  O   UNL     1      43.116 137.856  23.169  1.00  0.00    -0.493 OA
ATOM     18  H   UNL     1      43.538 137.175  23.787  1.00  0.00     0.295 HD
ENDBRANCH   6  17
BRANCH  12  19
ATOM     19  N   UNL     1      39.295 135.864  19.937  1.00  0.00    -0.058 NA
BRANCH  19  20
ATOM     20  N   UNL     1      39.215 135.130  20.922  1.00  0.00     0.005 N 
ATOM     21  N   UNL     1      39.135 134.395  21.905  1.00  0.00    -0.003 NA
ENDBRANCH  19  20
ENDBRANCH  12  19
ENDBRANCH   4   5
BRANCH   4  22
ATOM     22  C   UNL     1      42.370 137.304  15.140  1.00  0.00     0.113 C 
ATOM     23  C   UNL     1      40.955 137.412  14.581  1.00  0.00     0.027 C 
ENDBRANCH   4  22
ENDBRANCH   3   4
ENDBRANCH   2   3
ENDBRANCH   1   2
BRANCH   1  24
ATOM     24  C   UNL     1      44.101 132.207  16.933  1.00  0.00     0.214 C 
BRANCH  24  25
ATOM     25  O   UNL     1      44.304 130.877  16.533  1.00  0.00    -0.410 OA
BRANCH  25  26
ATOM     26  C   UNL     1      45.536 130.319  16.152  1.00  0.00     0.315 C 
ATOM     27  O   UNL     1      46.467 130.169  16.989  1.00  0.00    -0.251 OA
BRANCH  26  28
ATOM     28  C   UNL     1      45.774 129.897  14.733  1.00  0.00     0.105 C 
ATOM     29  C   UNL     1      44.721 130.410  13.755  1.00  0.00     0.022 C 
ATOM     30  C   UNL     1      46.126 131.001  13.740  1.00  0.00     0.030 C 
BRANCH  30  31
ATOM     31  C   UNL     1      46.988 130.561  12.553  1.00  0.00     0.160 C 
BRANCH  31  32
ATOM     32  O   UNL     1      48.185 131.292  12.537  1.00  0.00    -0.396 OA
ATOM     33  H   UNL     1      48.050 132.041  11.897  1.00  0.00     0.210 HD
ENDBRANCH  31  32
ENDBRANCH  30  31
ENDBRANCH  26  28
ENDBRANCH  25  26
ENDBRANCH  24  25
BRANCH  24  34
ATOM     34  C   UNL     1      43.228 132.459  18.132  1.00  0.00     0.133 C 
ATOM     35  C   UNL     1      43.712 131.835  19.437  1.00  0.00     0.034 C 
ATOM     36  C   UNL     1      43.783 133.342  19.238  1.00  0.00     0.034 C 
BRANCH  34  37
ATOM     37  C   UNL     1      41.771 132.446  17.957  1.00  0.00     0.079 C 
ATOM     38  N   UNL     1      40.622 132.441  17.821  1.00  0.00    -0.197 NA
ENDBRANCH  34  37
ENDBRANCH  24  34
ENDBRANCH   1  24
TORSDOF 16
ENDMDL
MODEL 8
REMARK VINA RESULT:      -4.9      3.374      7.512
REMARK SMILES CCN(CC/N=C(/OC(=O)[C@H]1C[C@@H]1CO)C1(C#N)CC1)c1cc(N=[N+]=[N-])c2c3c(cccc13)C(O)=N2
REMARK SMILES IDX 6 1 5 2 4 3 3 4 21 5 34 6 36 7 29 8 27 9 30 10 28 11 23 12
REMARK SMILES IDX 31 13 33 14 22 15 32 16 35 17 24 19 25 20 26 21 2 22 1 23
REMARK SMILES IDX 7 24 8 25 9 26 10 27 11 28 12 29 13 30 14 31 15 32 16 34
REMARK SMILES IDX 19 35 20 36 17 37 18 38
REMARK H PARENT 35 18 15 33
ROOT
ATOM      1  N   UNL     1      45.425 134.849  20.626  1.00  0.00    -0.252 NA
ENDROOT
BRANCH   1   2
ATOM      2  C   UNL     1      45.219 134.048  21.831  1.00  0.00     0.167 C 
BRANCH   2   3
ATOM      3  C   UNL     1      45.619 132.596  21.553  1.00  0.00     0.140 C 
BRANCH   3   4
ATOM      4  N   UNL     1      44.484 131.808  21.039  1.00  0.00    -0.369 N 
BRANCH   4   5
ATOM      5  C   UNL     1      44.019 132.001  19.692  1.00  0.00     0.045 A 
ATOM      6  C   UNL     1      41.299 133.158  16.228  1.00  0.00     0.219 C 
ATOM      7  N   UNL     1      42.336 132.458  15.855  1.00  0.00    -0.213 NA
ATOM      8  C   UNL     1      41.305 133.407  17.676  1.00  0.00     0.047 A 
ATOM      9  C   UNL     1      43.063 132.219  17.065  1.00  0.00     0.085 A 
ATOM     10  C   UNL     1      40.459 134.052  18.579  1.00  0.00     0.014 A 
ATOM     11  C   UNL     1      42.426 132.795  18.109  1.00  0.00     0.023 A 
ATOM     12  C   UNL     1      44.231 131.484  17.273  1.00  0.00     0.066 A 
ATOM     13  C   UNL     1      40.830 134.040  19.947  1.00  0.00     0.002 A 
ATOM     14  C   UNL     1      42.835 132.730  19.427  1.00  0.00     0.008 A 
ATOM     15  C   UNL     1      44.715 131.385  18.609  1.00  0.00     0.039 A 
ATOM     16  C   UNL     1      42.017 133.382  20.375  1.00  0.00     0.011 A 
BRANCH   6  17
ATOM     17  O   UNL     1      40.324 133.594  15.338  1.00  0.00    -0.493 OA
ATOM     18  H   UNL     1      40.546 134.266  14.615  1.00  0.00     0.295 HD
ENDBRANCH   6  17
BRANCH  12  19
ATOM     19  N   UNL     1      44.881 130.846  16.166  1.00  0.00    -0.058 NA
BRANCH  19  20
ATOM     20  N   UNL     1      45.691 131.439  15.454  1.00  0.00     0.005 N 
ATOM     21  N   UNL     1      46.501 132.033  14.743  1.00  0.00    -0.003 NA
ENDBRANCH  19  20
ENDBRANCH  12  19
ENDBRANCH   4   5
BRANCH   4  22
ATOM     22  C   UNL     1      43.913 130.719  21.840  1.00  0.00     0.113 C 
ATOM     23  C   UNL     1      44.337 130.841  23.300  1.00  0.00     0.027 C 
ENDBRANCH   4  22
ENDBRANCH   3   4
ENDBRANCH   2   3
ENDBRANCH   1   2
BRANCH   1  24
ATOM     24  C   UNL     1      45.167 136.118  20.490  1.00  0.00     0.214 C 
BRANCH  24  25
ATOM     25  O   UNL     1      45.925 137.071  21.187  1.00  0.00    -0.410 OA
BRANCH  25  26
ATOM     26  C   UNL     1      47.200 137.530  20.815  1.00  0.00     0.315 C 
ATOM     27  O   UNL     1      47.336 138.547  20.083  1.00  0.00    -0.251 OA
BRANCH  26  28
ATOM     28  C   UNL     1      48.431 136.808  21.276  1.00  0.00     0.105 C 
ATOM     29  C   UNL     1      49.580 136.849  20.273  1.00  0.00     0.022 C 
ATOM     30  C   UNL     1      49.662 137.665  21.556  1.00  0.00     0.030 C 
BRANCH  30  31
ATOM     31  C   UNL     1      50.624 137.103  22.607  1.00  0.00     0.160 C 
BRANCH  31  32
ATOM     32  O   UNL     1      50.512 135.706  22.657  1.00  0.00    -0.396 OA
ATOM     33  H   UNL     1      50.158 135.483  23.560  1.00  0.00     0.210 HD
ENDBRANCH  31  32
ENDBRANCH  30  31
ENDBRANCH  26  28
ENDBRANCH  25  26
ENDBRANCH  24  25
BRANCH  24  34
ATOM     34  C   UNL     1      44.061 136.608  19.596  1.00  0.00     0.133 C 
ATOM     35  C   UNL     1      44.512 137.405  18.375  1.00  0.00     0.034 C 
ATOM     36  C   UNL     1      43.952 136.000  18.207  1.00  0.00     0.034 C 
BRANCH  34  37
ATOM     37  C   UNL     1      42.820 137.091  20.211  1.00  0.00     0.079 C 
ATOM     38  N   UNL     1      41.838 137.471  20.693  1.00  0.00    -0.197 NA
ENDBRANCH  34  37
ENDBRANCH  24  34
ENDBRANCH   1  24
TORSDOF 16
ENDMDL
MODEL 9
REMARK VINA RESULT:      -4.8      3.720      6.419
REMARK SMILES CCN(CC/N=C(/OC(=O)[C@H]1C[C@@H]1CO)C1(C#N)CC1)c1cc(N=[N+]=[N-])c2c3c(cccc13)C(O)=N2
REMARK SMILES IDX 6 1 5 2 4 3 3 4 21 5 34 6 36 7 29 8 27 9 30 10 28 11 23 12
REMARK SMILES IDX 31 13 33 14 22 15 32 16 35 17 24 19 25 20 26 21 2 22 1 23
REMARK SMILES IDX 7 24 8 25 9 26 10 27 11 28 12 29 13 30 14 31 15 32 16 34
REMARK SMILES IDX 19 35 20 36 17 37 18 38
REMARK H PARENT 35 18 15 33
ROOT
ATOM      1  N   UNL     1      39.900 133.633  16.847  1.00  0.00    -0.252 NA
ENDROOT
BRANCH   1   2
ATOM      2  C   UNL     1      40.824 134.665  17.311  1.00  0.00     0.167 C 
BRANCH   2   3
ATOM      3  C   UNL     1      41.933 134.862  16.274  1.00  0.00     0.140 C 
BRANCH   3   4
ATOM      4  N   UNL     1      43.116 134.037  16.578  1.00  0.00    -0.369 N 
BRANCH   4   5
ATOM      5  C   UNL     1      43.631 133.976  17.919  1.00  0.00     0.045 A 
ATOM      6  C   UNL     1      45.772 135.218  21.742  1.00  0.00     0.219 C 
ATOM      7  N   UNL     1      45.435 133.956  21.728  1.00  0.00    -0.213 NA
ATOM      8  C   UNL     1      45.341 135.908  20.518  1.00  0.00     0.047 A 
ATOM      9  C   UNL     1      44.767 133.775  20.475  1.00  0.00     0.085 A 
ATOM     10  C   UNL     1      45.457 137.203  20.011  1.00  0.00     0.014 A 
ATOM     11  C   UNL     1      44.731 134.945  19.797  1.00  0.00     0.023 A 
ATOM     12  C   UNL     1      44.235 132.617  19.907  1.00  0.00     0.066 A 
ATOM     13  C   UNL     1      44.906 137.456  18.731  1.00  0.00     0.002 A 
ATOM     14  C   UNL     1      44.190 135.120  18.538  1.00  0.00     0.008 A 
ATOM     15  C   UNL     1      43.652 132.729  18.612  1.00  0.00     0.039 A 
ATOM     16  C   UNL     1      44.271 136.419  17.991  1.00  0.00     0.011 A 
BRANCH   6  17
ATOM     17  O   UNL     1      46.459 135.804  22.800  1.00  0.00    -0.493 OA
ATOM     18  H   UNL     1      45.963 136.156  23.608  1.00  0.00     0.295 HD
ENDBRANCH   6  17
BRANCH  12  19
ATOM     19  N   UNL     1      44.309 131.374  20.617  1.00  0.00    -0.058 NA
BRANCH  19  20
ATOM     20  N   UNL     1      43.459 131.041  21.443  1.00  0.00     0.005 N 
ATOM     21  N   UNL     1      42.609 130.709  22.269  1.00  0.00    -0.003 NA
ENDBRANCH  19  20
ENDBRANCH  12  19
ENDBRANCH   4   5
BRANCH   4  22
ATOM     22  C   UNL     1      43.691 133.156  15.554  1.00  0.00     0.113 C 
ATOM     23  C   UNL     1      42.595 132.546  14.688  1.00  0.00     0.027 C 
ENDBRANCH   4  22
ENDBRANCH   3   4
ENDBRANCH   2   3
ENDBRANCH   1   2
BRANCH   1  24
ATOM     24  C   UNL     1      38.734 133.829  16.304  1.00  0.00     0.214 C 
BRANCH  24  25
ATOM     25  O   UNL     1      38.479 133.386  14.996  1.00  0.00    -0.410 OA
BRANCH  25  26
ATOM     26  C   UNL     1      38.480 134.195  13.848  1.00  0.00     0.315 C 
ATOM     27  O   UNL     1      37.592 134.066  12.962  1.00  0.00    -0.251 OA
BRANCH  26  28
ATOM     28  C   UNL     1      39.548 135.228  13.646  1.00  0.00     0.105 C 
ATOM     29  C   UNL     1      39.273 136.178  12.484  1.00  0.00     0.022 C 
ATOM     30  C   UNL     1      39.158 136.678  13.919  1.00  0.00     0.030 C 
BRANCH  30  31
ATOM     31  C   UNL     1      40.305 137.589  14.369  1.00  0.00     0.160 C 
BRANCH  31  32
ATOM     32  O   UNL     1      40.386 138.705  13.524  1.00  0.00    -0.396 OA
ATOM     33  H   UNL     1      40.886 139.404  14.026  1.00  0.00     0.210 HD
ENDBRANCH  31  32
ENDBRANCH  30  31
ENDBRANCH  26  28
ENDBRANCH  25  26
ENDBRANCH  24  25
BRANCH  24  34
ATOM     34  C   UNL     1      37.626 134.530  17.042  1.00  0.00     0.133 C 
ATOM     35  C   UNL     1      37.619 136.051  16.919  1.00  0.00     0.034 C 
ATOM     36  C   UNL     1      36.553 135.223  16.217  1.00  0.00     0.034 C 
BRANCH  34  37
ATOM     37  C   UNL     1      37.230 134.026  18.362  1.00  0.00     0.079 C 
ATOM     38  N   UNL     1      36.918 133.624  19.401  1.00  0.00    -0.197 NA
ENDBRANCH  34  37
ENDBRANCH  24  34
ENDBRANCH   1  24
TORSDOF 16
ENDMDL


