REMARK SMILES C#CCO/C([O-])=C\[C@@H]1CC[C@@H]2C(OC(=O)[C@H](C)C(F)(F)F)=Nc3c(N=[N+]=[N-])cc(Cl)c1c32
REMARK SMILES IDX 8 1 31 2 29 3 30 4 28 5 24 6 23 7 32 8 11 9 12 10 22 11
REMARK SMILES IDX 10 12 9 13 7 14 5 15 6 16 4 17 3 18 2 19 1 20 25 21 26 22
REMARK SMILES IDX 27 23 13 24 14 25 15 26 16 27 17 28 18 29 19 30 20 31 21 32
REMARK H PARENT
ROOT
ATOM      1  C   UNL     1       3.034   0.668   2.058  1.00  0.00     0.045 C 
ATOM      2  C   UNL     1       1.632   0.913   2.614  1.00  0.00    -0.016 A 
ATOM      3  C   UNL     1       1.314   1.988   3.481  1.00  0.00     0.045 A 
ATOM      4  Cl  UNL     1       2.566   2.886   4.330  1.00  0.00    -0.084 Cl
ATOM      5  C   UNL     1      -0.031   2.393   3.635  1.00  0.00     0.033 A 
ATOM      6  C   UNL     1      -1.062   1.762   2.912  1.00  0.00     0.065 A 
ATOM      7  C   UNL     1      -0.721   0.643   2.137  1.00  0.00     0.081 A 
ATOM      8  C   UNL     1       0.566   0.185   2.090  1.00  0.00    -0.004 A 
ATOM      9  C   UNL     1       0.651  -0.923   1.121  1.00  0.00     0.109 C 
ATOM     10  C   UNL     1      -0.727  -0.830   0.524  1.00  0.00     0.206 C 
ATOM     11  N   UNL     1      -1.508   0.013   1.136  1.00  0.00    -0.216 NA
ATOM     12  C   UNL     1       1.827  -0.686   0.176  1.00  0.00     0.019 C 
ATOM     13  C   UNL     1       3.110  -0.499   1.018  1.00  0.00     0.014 C 
ENDROOT
BRANCH   1  14
ATOM     14  C   UNL     1       3.651   1.924   1.470  1.00  0.00     0.005 C 
BRANCH  14  15
ATOM     15  C   UNL     1       3.028   2.767   0.637  1.00  0.00     0.049 C 
ATOM     16  O   UNL     1       3.721   3.873   0.152  1.00  0.00    -0.547 OA
BRANCH  15  17
ATOM     17  O   UNL     1       1.698   2.561   0.267  1.00  0.00    -0.601 OA
BRANCH  17  18
ATOM     18  C   UNL     1       0.996   3.447  -0.593  1.00  0.00     0.160 C 
BRANCH  18  19
ATOM     19  C   UNL     1      -0.364   2.946  -0.793  1.00  0.00    -0.095 C 
ATOM     20  C   UNL     1      -1.484   2.532  -0.958  1.00  0.00     0.005 C 
ENDBRANCH  18  19
ENDBRANCH  17  18
ENDBRANCH  15  17
ENDBRANCH  14  15
ENDBRANCH   1  14
BRANCH   6  21
ATOM     21  N   UNL     1      -2.393   2.294   2.978  1.00  0.00    -0.058 NA
BRANCH  21  22
ATOM     22  N   UNL     1      -3.342   1.784   2.380  1.00  0.00     0.005 N 
ATOM     23  N   UNL     1      -4.293   1.279   1.785  1.00  0.00    -0.003 NA
ENDBRANCH  21  22
ENDBRANCH   6  21
BRANCH  10  24
ATOM     24  O   UNL     1      -1.135  -1.614  -0.562  1.00  0.00    -0.410 OA
BRANCH  24  25
ATOM     25  C   UNL     1      -2.392  -1.541  -1.177  1.00  0.00     0.324 C 
ATOM     26  O   UNL     1      -3.274  -0.738  -0.765  1.00  0.00    -0.251 OA
BRANCH  25  27
ATOM     27  C   UNL     1      -2.684  -2.442  -2.347  1.00  0.00     0.201 C 
ATOM     28  C   UNL     1      -3.056  -1.611  -3.582  1.00  0.00     0.030 C 
BRANCH  27  29
ATOM     29  C   UNL     1      -3.780  -3.463  -1.997  1.00  0.00     0.401 C 
ATOM     30  F   UNL     1      -4.980  -2.825  -1.731  1.00  0.00    -0.170 F 
ATOM     31  F   UNL     1      -3.963  -4.339  -3.052  1.00  0.00    -0.170 F 
ATOM     32  F   UNL     1      -3.404  -4.193  -0.882  1.00  0.00    -0.170 F 
ENDBRANCH  27  29
ENDBRANCH  25  27
ENDBRANCH  24  25
ENDBRANCH  10  24
TORSDOF 11


