MODEL 1
REMARK VINA RESULT:      -7.0      0.000      0.000
REMARK SMILES [N-]=[N+]=Nc1c(Cl)c(Cl)c(OC(=O)[C@]2(N)C[C@H](CO)C2)ccccc([O-])c1NC1(CF)COC1
REMARK SMILES IDX 10 1 11 2 12 3 13 4 16 5 15 6 19 7 17 8 18 9 14 11 9 14
REMARK SMILES IDX 20 15 7 16 21 17 5 18 22 19 4 20 23 21 26 22 24 23 8 24 6 25
REMARK SMILES IDX 25 26 3 27 2 28 1 29 27 30 28 32 31 33 33 34 32 35 29 36
REMARK SMILES IDX 30 37
REMARK H PARENT 18 10 14 12 14 13 27 31
ROOT
ATOM      1  O   UNL     1      43.346 131.608  16.102  1.00  0.00    -0.424 OA
ENDROOT
BRANCH   1   2
ATOM      2  C   UNL     1      44.159 131.004  15.135  1.00  0.00     0.331 C 
ATOM      3  O   UNL     1      43.747 130.875  13.949  1.00  0.00    -0.250 OA
BRANCH   2   4
ATOM      4  C   UNL     1      45.572 130.607  15.491  1.00  0.00     0.116 C 
ATOM      5  C   UNL     1      47.160 130.330  14.044  1.00  0.00     0.019 C 
ATOM      6  C   UNL     1      46.109 129.421  14.680  1.00  0.00     0.040 C 
ATOM      7  C   UNL     1      46.647 131.510  14.873  1.00  0.00     0.040 C 
BRANCH   5   8
ATOM      8  C   UNL     1      46.968 130.504  12.528  1.00  0.00     0.159 C 
BRANCH   8   9
ATOM      9  O   UNL     1      47.939 129.777  11.827  1.00  0.00    -0.396 OA
ATOM     10  H   UNL     1      48.793 130.275  11.920  1.00  0.00     0.210 HD
ENDBRANCH   8   9
ENDBRANCH   5   8
BRANCH   4  11
ATOM     11  N   UNL     1      45.763 130.425  16.932  1.00  0.00    -0.316 NA
ATOM     12  H   UNL     1      45.246 131.184  17.433  1.00  0.00     0.119 HD
ATOM     13  H   UNL     1      45.324 129.516  17.211  1.00  0.00     0.119 HD
ENDBRANCH   4  11
ENDBRANCH   2   4
ENDBRANCH   1   2
BRANCH   1  14
ATOM     14  C   UNL     1      43.190 132.994  16.266  1.00  0.00     0.151 A 
ATOM     15  C   UNL     1      44.115 133.872  15.654  1.00  0.00     0.049 A 
ATOM     16  C   UNL     1      42.048 133.423  16.985  1.00  0.00     0.102 A 
ATOM     17  C   UNL     1      44.305 135.212  16.000  1.00  0.00     0.004 A 
ATOM     18  C   UNL     1      41.413 134.677  16.812  1.00  0.00     0.075 A 
ATOM     19  C   UNL     1      44.029 135.710  17.271  1.00  0.00    -0.000 A 
ATOM     20  C   UNL     1      41.473 135.412  15.604  1.00  0.00     0.080 A 
ATOM     21  C   UNL     1      43.373 136.925  17.477  1.00  0.00    -0.006 A 
ATOM     22  C   UNL     1      41.700 136.815  15.596  1.00  0.00     0.038 A 
ATOM     23  C   UNL     1      42.427 137.504  16.606  1.00  0.00    -0.084 A 
ATOM     24  Cl  UNL     1      41.369 132.297  18.161  1.00  0.00    -0.079 Cl
ATOM     25  Cl  UNL     1      40.445 135.338  18.130  1.00  0.00    -0.082 Cl
ATOM     26  O   UNL     1      42.189 138.865  16.766  1.00  0.00    -0.871 OA
BRANCH  20  27
ATOM     27  N   UNL     1      41.286 134.743  14.347  1.00  0.00    -0.057 NA
BRANCH  27  28
ATOM     28  N   UNL     1      40.315 134.023  14.108  1.00  0.00     0.005 N 
ATOM     29  N   UNL     1      39.349 133.301  13.868  1.00  0.00    -0.003 NA
ENDBRANCH  27  28
ENDBRANCH  20  27
BRANCH  22  30
ATOM     30  N   UNL     1      41.086 137.616  14.570  1.00  0.00    -0.373 N 
ATOM     31  H   UNL     1      41.666 137.798  13.719  1.00  0.00     0.161 HD
BRANCH  30  32
ATOM     32  C   UNL     1      39.645 137.928  14.516  1.00  0.00     0.113 C 
ATOM     33  C   UNL     1      39.293 139.239  15.206  1.00  0.00     0.193 C 
ATOM     34  C   UNL     1      38.865 137.325  15.666  1.00  0.00     0.193 C 
ATOM     35  O   UNL     1      38.575 138.585  16.226  1.00  0.00    -0.376 OA
BRANCH  32  36
ATOM     36  C   UNL     1      39.013 137.764  13.119  1.00  0.00     0.247 C 
ATOM     37  F   UNL     1      39.284 136.517  12.580  1.00  0.00    -0.248 F 
ENDBRANCH  32  36
ENDBRANCH  30  32
ENDBRANCH  22  30
ENDBRANCH   1  14
TORSDOF 11
ENDMDL
MODEL 2
REMARK VINA RESULT:      -6.9      1.539      1.640
REMARK SMILES [N-]=[N+]=Nc1c(Cl)c(Cl)c(OC(=O)[C@]2(N)C[C@H](CO)C2)ccccc([O-])c1NC1(CF)COC1
REMARK SMILES IDX 10 1 11 2 12 3 13 4 16 5 15 6 19 7 17 8 18 9 14 11 9 14
REMARK SMILES IDX 20 15 7 16 21 17 5 18 22 19 4 20 23 21 26 22 24 23 8 24 6 25
REMARK SMILES IDX 25 26 3 27 2 28 1 29 27 30 28 32 31 33 33 34 32 35 29 36
REMARK SMILES IDX 30 37
REMARK H PARENT 18 10 14 12 14 13 27 31
ROOT
ATOM      1  O   UNL     1      44.050 131.517  17.078  1.00  0.00    -0.424 OA
ENDROOT
BRANCH   1   2
ATOM      2  C   UNL     1      44.491 130.886  15.908  1.00  0.00     0.331 C 
ATOM      3  O   UNL     1      43.708 130.743  14.928  1.00  0.00    -0.250 OA
BRANCH   2   4
ATOM      4  C   UNL     1      45.938 130.474  15.784  1.00  0.00     0.116 C 
ATOM      5  C   UNL     1      46.992 130.281  13.901  1.00  0.00     0.019 C 
ATOM      6  C   UNL     1      46.179 129.335  14.785  1.00  0.00     0.040 C 
ATOM      7  C   UNL     1      46.780 131.412  14.909  1.00  0.00     0.040 C 
BRANCH   5   8
ATOM      8  C   UNL     1      46.340 130.536  12.532  1.00  0.00     0.159 C 
BRANCH   8   9
ATOM      9  O   UNL     1      47.322 130.676  11.542  1.00  0.00    -0.396 OA
ATOM     10  H   UNL     1      47.291 129.853  10.990  1.00  0.00     0.210 HD
ENDBRANCH   8   9
ENDBRANCH   5   8
BRANCH   4  11
ATOM     11  N   UNL     1      46.567 130.214  17.081  1.00  0.00    -0.316 NA
ATOM     12  H   UNL     1      45.995 130.676  17.825  1.00  0.00     0.119 HD
ATOM     13  H   UNL     1      46.535 129.183  17.263  1.00  0.00     0.119 HD
ENDBRANCH   4  11
ENDBRANCH   2   4
ENDBRANCH   1   2
BRANCH   1  14
ATOM     14  C   UNL     1      43.489 132.803  17.131  1.00  0.00     0.151 A 
ATOM     15  C   UNL     1      43.957 133.801  16.244  1.00  0.00     0.049 A 
ATOM     16  C   UNL     1      42.416 132.990  18.037  1.00  0.00     0.102 A 
ATOM     17  C   UNL     1      43.765 135.176  16.403  1.00  0.00     0.004 A 
ATOM     18  C   UNL     1      41.392 133.955  17.883  1.00  0.00     0.075 A 
ATOM     19  C   UNL     1      43.574 135.772  17.647  1.00  0.00    -0.000 A 
ATOM     20  C   UNL     1      40.996 134.466  16.623  1.00  0.00     0.080 A 
ATOM     21  C   UNL     1      42.611 136.758  17.869  1.00  0.00    -0.006 A 
ATOM     22  C   UNL     1      40.755 135.853  16.424  1.00  0.00     0.038 A 
ATOM     23  C   UNL     1      41.390 136.881  17.174  1.00  0.00    -0.084 A 
ATOM     24  Cl  UNL     1      42.356 131.924  19.441  1.00  0.00    -0.079 Cl
ATOM     25  Cl  UNL     1      40.514 134.510  19.308  1.00  0.00    -0.082 Cl
ATOM     26  O   UNL     1      40.759 138.119  17.244  1.00  0.00    -0.871 OA
BRANCH  20  27
ATOM     27  N   UNL     1      40.814 133.574  15.512  1.00  0.00    -0.057 NA
BRANCH  27  28
ATOM     28  N   UNL     1      41.026 133.906  14.345  1.00  0.00     0.005 N 
ATOM     29  N   UNL     1      41.235 134.242  13.180  1.00  0.00    -0.003 NA
ENDBRANCH  27  28
ENDBRANCH  20  27
BRANCH  22  30
ATOM     30  N   UNL     1      39.744 136.258  15.483  1.00  0.00    -0.373 N 
ATOM     31  H   UNL     1      40.076 136.470  14.515  1.00  0.00     0.161 HD
BRANCH  30  32
ATOM     32  C   UNL     1      38.295 136.104  15.710  1.00  0.00     0.113 C 
ATOM     33  C   UNL     1      37.586 137.431  15.948  1.00  0.00     0.193 C 
ATOM     34  C   UNL     1      37.944 135.866  17.165  1.00  0.00     0.193 C 
ATOM     35  O   UNL     1      37.294 137.110  17.288  1.00  0.00    -0.376 OA
BRANCH  32  36
ATOM     36  C   UNL     1      37.587 135.187  14.692  1.00  0.00     0.247 C 
ATOM     37  F   UNL     1      37.758 133.849  15.007  1.00  0.00    -0.248 F 
ENDBRANCH  32  36
ENDBRANCH  30  32
ENDBRANCH  22  30
ENDBRANCH   1  14
TORSDOF 11
ENDMDL
MODEL 3
REMARK VINA RESULT:      -6.9      2.447      2.847
REMARK SMILES [N-]=[N+]=Nc1c(Cl)c(Cl)c(OC(=O)[C@]2(N)C[C@H](CO)C2)ccccc([O-])c1NC1(CF)COC1
REMARK SMILES IDX 10 1 11 2 12 3 13 4 16 5 15 6 19 7 17 8 18 9 14 11 9 14
REMARK SMILES IDX 20 15 7 16 21 17 5 18 22 19 4 20 23 21 26 22 24 23 8 24 6 25
REMARK SMILES IDX 25 26 3 27 2 28 1 29 27 30 28 32 31 33 33 34 32 35 29 36
REMARK SMILES IDX 30 37
REMARK H PARENT 18 10 14 12 14 13 27 31
ROOT
ATOM      1  O   UNL     1      45.489 132.263  16.894  1.00  0.00    -0.424 OA
ENDROOT
BRANCH   1   2
ATOM      2  C   UNL     1      45.235 131.008  16.327  1.00  0.00     0.331 C 
ATOM      3  O   UNL     1      45.011 130.009  17.065  1.00  0.00    -0.250 OA
BRANCH   2   4
ATOM      4  C   UNL     1      45.121 130.877  14.827  1.00  0.00     0.116 C 
ATOM      5  C   UNL     1      46.665 130.045  13.556  1.00  0.00     0.019 C 
ATOM      6  C   UNL     1      46.320 131.447  14.058  1.00  0.00     0.040 C 
ATOM      7  C   UNL     1      45.453 129.476  14.297  1.00  0.00     0.040 C 
BRANCH   5   8
ATOM      8  C   UNL     1      48.016 129.531  14.085  1.00  0.00     0.159 C 
BRANCH   8   9
ATOM      9  O   UNL     1      48.755 128.947  13.048  1.00  0.00    -0.396 OA
ATOM     10  H   UNL     1      48.551 129.462  12.225  1.00  0.00     0.210 HD
ENDBRANCH   8   9
ENDBRANCH   5   8
BRANCH   4  11
ATOM     11  N   UNL     1      43.844 131.376  14.310  1.00  0.00    -0.316 NA
ATOM     12  H   UNL     1      43.787 132.403  14.502  1.00  0.00     0.119 HD
ATOM     13  H   UNL     1      43.839 131.255  13.270  1.00  0.00     0.119 HD
ENDBRANCH   4  11
ENDBRANCH   2   4
ENDBRANCH   1   2
BRANCH   1  14
ATOM     14  C   UNL     1      44.524 133.262  17.096  1.00  0.00     0.151 A 
ATOM     15  C   UNL     1      44.523 134.404  16.261  1.00  0.00     0.049 A 
ATOM     16  C   UNL     1      43.551 133.011  18.094  1.00  0.00     0.102 A 
ATOM     17  C   UNL     1      43.881 135.612  16.546  1.00  0.00     0.004 A 
ATOM     18  C   UNL     1      42.244 133.557  18.099  1.00  0.00     0.075 A 
ATOM     19  C   UNL     1      43.621 136.039  17.846  1.00  0.00    -0.000 A 
ATOM     20  C   UNL     1      41.571 133.956  16.920  1.00  0.00     0.080 A 
ATOM     21  C   UNL     1      42.402 136.606  18.222  1.00  0.00    -0.006 A 
ATOM     22  C   UNL     1      40.842 135.175  16.854  1.00  0.00     0.038 A 
ATOM     23  C   UNL     1      41.152 136.323  17.635  1.00  0.00    -0.084 A 
ATOM     24  Cl  UNL     1      44.008 131.925  19.406  1.00  0.00    -0.079 Cl
ATOM     25  Cl  UNL     1      41.376 133.693  19.628  1.00  0.00    -0.082 Cl
ATOM     26  O   UNL     1      40.140 137.252  17.855  1.00  0.00    -0.871 OA
BRANCH  20  27
ATOM     27  N   UNL     1      41.599 133.114  15.756  1.00  0.00    -0.057 NA
BRANCH  27  28
ATOM     28  N   UNL     1      41.420 133.542  14.616  1.00  0.00     0.005 N 
ATOM     29  N   UNL     1      41.234 133.971  13.477  1.00  0.00    -0.003 NA
ENDBRANCH  27  28
ENDBRANCH  20  27
BRANCH  22  30
ATOM     30  N   UNL     1      39.664 135.242  16.030  1.00  0.00    -0.373 N 
ATOM     31  H   UNL     1      39.810 135.555  15.044  1.00  0.00     0.161 HD
BRANCH  30  32
ATOM     32  C   UNL     1      38.369 134.633  16.388  1.00  0.00     0.113 C 
ATOM     33  C   UNL     1      37.492 134.343  15.178  1.00  0.00     0.193 C 
ATOM     34  C   UNL     1      37.295 135.659  16.690  1.00  0.00     0.193 C 
ATOM     35  O   UNL     1      36.541 135.311  15.552  1.00  0.00    -0.376 OA
BRANCH  32  36
ATOM     36  C   UNL     1      38.474 133.460  17.384  1.00  0.00     0.247 C 
ATOM     37  F   UNL     1      37.518 133.553  18.383  1.00  0.00    -0.248 F 
ENDBRANCH  32  36
ENDBRANCH  30  32
ENDBRANCH  22  30
ENDBRANCH   1  14
TORSDOF 11
ENDMDL
MODEL 4
REMARK VINA RESULT:      -6.8      2.058      2.497
REMARK SMILES [N-]=[N+]=Nc1c(Cl)c(Cl)c(OC(=O)[C@]2(N)C[C@H](CO)C2)ccccc([O-])c1NC1(CF)COC1
REMARK SMILES IDX 10 1 11 2 12 3 13 4 16 5 15 6 19 7 17 8 18 9 14 11 9 14
REMARK SMILES IDX 20 15 7 16 21 17 5 18 22 19 4 20 23 21 26 22 24 23 8 24 6 25
REMARK SMILES IDX 25 26 3 27 2 28 1 29 27 30 28 32 31 33 33 34 32 35 29 36
REMARK SMILES IDX 30 37
REMARK H PARENT 18 10 14 12 14 13 27 31
ROOT
ATOM      1  O   UNL     1      45.570 132.473  16.659  1.00  0.00    -0.424 OA
ENDROOT
BRANCH   1   2
ATOM      2  C   UNL     1      45.373 131.125  16.338  1.00  0.00     0.331 C 
ATOM      3  O   UNL     1      45.291 130.258  17.251  1.00  0.00    -0.250 OA
BRANCH   2   4
ATOM      4  C   UNL     1      45.150 130.727  14.898  1.00  0.00     0.116 C 
ATOM      5  C   UNL     1      46.674 129.869  13.622  1.00  0.00     0.019 C 
ATOM      6  C   UNL     1      46.195 131.288  13.926  1.00  0.00     0.040 C 
ATOM      7  C   UNL     1      45.613 129.302  14.568  1.00  0.00     0.040 C 
BRANCH   5   8
ATOM      8  C   UNL     1      48.120 129.608  14.080  1.00  0.00     0.159 C 
BRANCH   8   9
ATOM      9  O   UNL     1      48.827 128.912  13.092  1.00  0.00    -0.396 OA
ATOM     10  H   UNL     1      48.452 127.994  13.064  1.00  0.00     0.210 HD
ENDBRANCH   8   9
ENDBRANCH   5   8
BRANCH   4  11
ATOM     11  N   UNL     1      43.780 130.983  14.446  1.00  0.00    -0.316 NA
ATOM     12  H   UNL     1      43.130 130.377  14.999  1.00  0.00     0.119 HD
ATOM     13  H   UNL     1      43.540 131.978  14.668  1.00  0.00     0.119 HD
ENDBRANCH   4  11
ENDBRANCH   2   4
ENDBRANCH   1   2
BRANCH   1  14
ATOM     14  C   UNL     1      44.542 133.412  16.841  1.00  0.00     0.151 A 
ATOM     15  C   UNL     1      44.215 134.294  15.783  1.00  0.00     0.049 A 
ATOM     16  C   UNL     1      43.840 133.355  18.069  1.00  0.00     0.102 A 
ATOM     17  C   UNL     1      43.490 135.481  15.918  1.00  0.00     0.004 A 
ATOM     18  C   UNL     1      42.501 133.781  18.251  1.00  0.00     0.075 A 
ATOM     19  C   UNL     1      43.450 136.210  17.104  1.00  0.00    -0.000 A 
ATOM     20  C   UNL     1      41.551 133.805  17.203  1.00  0.00     0.080 A 
ATOM     21  C   UNL     1      42.270 136.760  17.610  1.00  0.00    -0.006 A 
ATOM     22  C   UNL     1      40.668 134.905  17.024  1.00  0.00     0.038 A 
ATOM     23  C   UNL     1      40.975 136.237  17.417  1.00  0.00    -0.084 A 
ATOM     24  Cl  UNL     1      44.701 132.687  19.456  1.00  0.00    -0.079 Cl
ATOM     25  Cl  UNL     1      41.959 134.242  19.865  1.00  0.00    -0.082 Cl
ATOM     26  O   UNL     1      39.915 137.110  17.642  1.00  0.00    -0.871 OA
BRANCH  20  27
ATOM     27  N   UNL     1      41.450 132.694  16.298  1.00  0.00    -0.057 NA
BRANCH  27  28
ATOM     28  N   UNL     1      41.477 132.823  15.074  1.00  0.00     0.005 N 
ATOM     29  N   UNL     1      41.499 132.953  13.850  1.00  0.00    -0.003 NA
ENDBRANCH  27  28
ENDBRANCH  20  27
BRANCH  22  30
ATOM     30  N   UNL     1      39.346 134.663  16.508  1.00  0.00    -0.373 N 
ATOM     31  H   UNL     1      38.646 134.292  17.189  1.00  0.00     0.161 HD
BRANCH  30  32
ATOM     32  C   UNL     1      38.861 135.170  15.210  1.00  0.00     0.113 C 
ATOM     33  C   UNL     1      37.483 135.812  15.299  1.00  0.00     0.193 C 
ATOM     34  C   UNL     1      38.118 134.123  14.404  1.00  0.00     0.193 C 
ATOM     35  O   UNL     1      36.887 134.796  14.527  1.00  0.00    -0.376 OA
BRANCH  32  36
ATOM     36  C   UNL     1      39.894 136.007  14.429  1.00  0.00     0.247 C 
ATOM     37  F   UNL     1      39.997 135.589  13.112  1.00  0.00    -0.248 F 
ENDBRANCH  32  36
ENDBRANCH  30  32
ENDBRANCH  22  30
ENDBRANCH   1  14
TORSDOF 11
ENDMDL
MODEL 5
REMARK VINA RESULT:      -6.8      1.975      2.260
REMARK SMILES [N-]=[N+]=Nc1c(Cl)c(Cl)c(OC(=O)[C@]2(N)C[C@H](CO)C2)ccccc([O-])c1NC1(CF)COC1
REMARK SMILES IDX 10 1 11 2 12 3 13 4 16 5 15 6 19 7 17 8 18 9 14 11 9 14
REMARK SMILES IDX 20 15 7 16 21 17 5 18 22 19 4 20 23 21 26 22 24 23 8 24 6 25
REMARK SMILES IDX 25 26 3 27 2 28 1 29 27 30 28 32 31 33 33 34 32 35 29 36
REMARK SMILES IDX 30 37
REMARK H PARENT 18 10 14 12 14 13 27 31
ROOT
ATOM      1  O   UNL     1      44.290 130.815  16.560  1.00  0.00    -0.424 OA
ENDROOT
BRANCH   1   2
ATOM      2  C   UNL     1      44.877 130.251  15.420  1.00  0.00     0.331 C 
ATOM      3  O   UNL     1      44.156 129.856  14.462  1.00  0.00    -0.250 OA
BRANCH   2   4
ATOM      4  C   UNL     1      46.381 130.218  15.296  1.00  0.00     0.116 C 
ATOM      5  C   UNL     1      47.454 130.449  13.428  1.00  0.00     0.019 C 
ATOM      6  C   UNL     1      46.897 129.262  14.213  1.00  0.00     0.040 C 
ATOM      7  C   UNL     1      46.968 131.405  14.520  1.00  0.00     0.040 C 
BRANCH   5   8
ATOM      8  C   UNL     1      46.762 130.652  12.069  1.00  0.00     0.159 C 
BRANCH   8   9
ATOM      9  O   UNL     1      47.671 130.448  11.023  1.00  0.00    -0.396 OA
ATOM     10  H   UNL     1      48.575 130.626  11.390  1.00  0.00     0.210 HD
ENDBRANCH   8   9
ENDBRANCH   5   8
BRANCH   4  11
ATOM     11  N   UNL     1      47.052 130.012  16.582  1.00  0.00    -0.316 NA
ATOM     12  H   UNL     1      46.323 129.836  17.311  1.00  0.00     0.119 HD
ATOM     13  H   UNL     1      47.637 129.146  16.513  1.00  0.00     0.119 HD
ENDBRANCH   4  11
ENDBRANCH   2   4
ENDBRANCH   1   2
BRANCH   1  14
ATOM     14  C   UNL     1      43.934 132.166  16.692  1.00  0.00     0.151 A 
ATOM     15  C   UNL     1      43.744 132.950  15.530  1.00  0.00     0.049 A 
ATOM     16  C   UNL     1      43.709 132.637  18.009  1.00  0.00     0.102 A 
ATOM     17  C   UNL     1      43.740 134.347  15.491  1.00  0.00     0.004 A 
ATOM     18  C   UNL     1      42.856 133.717  18.343  1.00  0.00     0.075 A 
ATOM     19  C   UNL     1      44.417 135.130  16.423  1.00  0.00    -0.000 A 
ATOM     20  C   UNL     1      41.754 134.105  17.544  1.00  0.00     0.080 A 
ATOM     21  C   UNL     1      43.855 136.272  16.996  1.00  0.00    -0.006 A 
ATOM     22  C   UNL     1      41.481 135.472  17.266  1.00  0.00     0.038 A 
ATOM     23  C   UNL     1      42.479 136.484  17.219  1.00  0.00    -0.084 A 
ATOM     24  Cl  UNL     1      44.542 131.795  19.316  1.00  0.00    -0.079 Cl
ATOM     25  Cl  UNL     1      43.126 134.589  19.852  1.00  0.00    -0.082 Cl
ATOM     26  O   UNL     1      42.079 137.802  17.418  1.00  0.00    -0.871 OA
BRANCH  20  27
ATOM     27  N   UNL     1      40.870 133.108  17.007  1.00  0.00    -0.057 NA
BRANCH  27  28
ATOM     28  N   UNL     1      39.704 132.977  17.380  1.00  0.00     0.005 N 
ATOM     29  N   UNL     1      38.538 132.840  17.751  1.00  0.00    -0.003 NA
ENDBRANCH  27  28
ENDBRANCH  20  27
BRANCH  22  30
ATOM     30  N   UNL     1      40.113 135.894  17.115  1.00  0.00    -0.373 N 
ATOM     31  H   UNL     1      39.597 136.108  17.998  1.00  0.00     0.161 HD
BRANCH  30  32
ATOM     32  C   UNL     1      39.515 136.316  15.833  1.00  0.00     0.113 C 
ATOM     33  C   UNL     1      38.347 135.439  15.404  1.00  0.00     0.193 C 
ATOM     34  C   UNL     1      40.189 135.689  14.630  1.00  0.00     0.193 C 
ATOM     35  O   UNL     1      39.053 134.924  14.299  1.00  0.00    -0.376 OA
BRANCH  32  36
ATOM     36  C   UNL     1      39.235 137.829  15.731  1.00  0.00     0.247 C 
ATOM     37  F   UNL     1      40.075 138.441  14.815  1.00  0.00    -0.248 F 
ENDBRANCH  32  36
ENDBRANCH  30  32
ENDBRANCH  22  30
ENDBRANCH   1  14
TORSDOF 11
ENDMDL
MODEL 6
REMARK VINA RESULT:      -6.6      1.255      1.548
REMARK SMILES [N-]=[N+]=Nc1c(Cl)c(Cl)c(OC(=O)[C@]2(N)C[C@H](CO)C2)ccccc([O-])c1NC1(CF)COC1
REMARK SMILES IDX 10 1 11 2 12 3 13 4 16 5 15 6 19 7 17 8 18 9 14 11 9 14
REMARK SMILES IDX 20 15 7 16 21 17 5 18 22 19 4 20 23 21 26 22 24 23 8 24 6 25
REMARK SMILES IDX 25 26 3 27 2 28 1 29 27 30 28 32 31 33 33 34 32 35 29 36
REMARK SMILES IDX 30 37
REMARK H PARENT 18 10 14 12 14 13 27 31
ROOT
ATOM      1  O   UNL     1      43.901 131.679  16.673  1.00  0.00    -0.424 OA
ENDROOT
BRANCH   1   2
ATOM      2  C   UNL     1      45.131 131.131  17.058  1.00  0.00     0.331 C 
ATOM      3  O   UNL     1      45.494 131.167  18.266  1.00  0.00    -0.250 OA
BRANCH   2   4
ATOM      4  C   UNL     1      45.973 130.401  16.038  1.00  0.00     0.116 C 
ATOM      5  C   UNL     1      45.524 130.319  13.921  1.00  0.00     0.019 C 
ATOM      6  C   UNL     1      45.176 129.454  15.133  1.00  0.00     0.040 C 
ATOM      7  C   UNL     1      46.345 131.250  14.816  1.00  0.00     0.040 C 
BRANCH   5   8
ATOM      8  C   UNL     1      44.294 130.990  13.287  1.00  0.00     0.159 C 
BRANCH   8   9
ATOM      9  O   UNL     1      43.173 130.839  14.114  1.00  0.00    -0.396 OA
ATOM     10  H   UNL     1      43.362 131.344  14.947  1.00  0.00     0.210 HD
ENDBRANCH   8   9
ENDBRANCH   5   8
BRANCH   4  11
ATOM     11  N   UNL     1      47.141 129.746  16.634  1.00  0.00    -0.316 NA
ATOM     12  H   UNL     1      47.495 129.026  15.963  1.00  0.00     0.119 HD
ATOM     13  H   UNL     1      47.897 130.461  16.748  1.00  0.00     0.119 HD
ENDBRANCH   4  11
ENDBRANCH   2   4
ENDBRANCH   1   2
BRANCH   1  14
ATOM     14  C   UNL     1      43.601 133.050  16.669  1.00  0.00     0.151 A 
ATOM     15  C   UNL     1      44.437 133.941  15.955  1.00  0.00     0.049 A 
ATOM     16  C   UNL     1      42.412 133.442  17.331  1.00  0.00     0.102 A 
ATOM     17  C   UNL     1      44.484 135.325  16.137  1.00  0.00     0.004 A 
ATOM     18  C   UNL     1      41.653 134.593  17.009  1.00  0.00     0.075 A 
ATOM     19  C   UNL     1      44.142 135.940  17.339  1.00  0.00    -0.000 A 
ATOM     20  C   UNL     1      41.651 135.180  15.721  1.00  0.00     0.080 A 
ATOM     21  C   UNL     1      43.362 137.096  17.398  1.00  0.00    -0.006 A 
ATOM     22  C   UNL     1      41.732 136.588  15.544  1.00  0.00     0.038 A 
ATOM     23  C   UNL     1      42.372 137.464  16.464  1.00  0.00    -0.084 A 
ATOM     24  Cl  UNL     1      41.839 132.401  18.635  1.00  0.00    -0.079 Cl
ATOM     25  Cl  UNL     1      40.606 135.303  18.239  1.00  0.00    -0.082 Cl
ATOM     26  O   UNL     1      41.993 138.803  16.458  1.00  0.00    -0.871 OA
BRANCH  20  27
ATOM     27  N   UNL     1      41.550 134.349  14.554  1.00  0.00    -0.057 NA
BRANCH  27  28
ATOM     28  N   UNL     1      40.519 133.751  14.245  1.00  0.00     0.005 N 
ATOM     29  N   UNL     1      39.486 133.158  13.935  1.00  0.00    -0.003 NA
ENDBRANCH  27  28
ENDBRANCH  20  27
BRANCH  22  30
ATOM     30  N   UNL     1      41.052 137.192  14.429  1.00  0.00    -0.373 N 
ATOM     31  H   UNL     1      41.619 137.329  13.563  1.00  0.00     0.161 HD
BRANCH  30  32
ATOM     32  C   UNL     1      39.587 137.346  14.339  1.00  0.00     0.113 C 
ATOM     33  C   UNL     1      39.117 138.763  14.639  1.00  0.00     0.193 C 
ATOM     34  C   UNL     1      38.877 137.032  15.641  1.00  0.00     0.193 C 
ATOM     35  O   UNL     1      38.473 138.369  15.828  1.00  0.00    -0.376 OA
BRANCH  32  36
ATOM     36  C   UNL     1      38.961 136.732  13.071  1.00  0.00     0.247 C 
ATOM     37  F   UNL     1      37.577 136.765  13.118  1.00  0.00    -0.248 F 
ENDBRANCH  32  36
ENDBRANCH  30  32
ENDBRANCH  22  30
ENDBRANCH   1  14
TORSDOF 11
ENDMDL
MODEL 7
REMARK VINA RESULT:      -6.5      1.561      1.778
REMARK SMILES [N-]=[N+]=Nc1c(Cl)c(Cl)c(OC(=O)[C@]2(N)C[C@H](CO)C2)ccccc([O-])c1NC1(CF)COC1
REMARK SMILES IDX 10 1 11 2 12 3 13 4 16 5 15 6 19 7 17 8 18 9 14 11 9 14
REMARK SMILES IDX 20 15 7 16 21 17 5 18 22 19 4 20 23 21 26 22 24 23 8 24 6 25
REMARK SMILES IDX 25 26 3 27 2 28 1 29 27 30 28 32 31 33 33 34 32 35 29 36
REMARK SMILES IDX 30 37
REMARK H PARENT 18 10 14 12 14 13 27 31
ROOT
ATOM      1  O   UNL     1      44.801 132.967  16.843  1.00  0.00    -0.424 OA
ENDROOT
BRANCH   1   2
ATOM      2  C   UNL     1      44.584 131.978  15.877  1.00  0.00     0.331 C 
ATOM      3  O   UNL     1      43.714 132.146  14.978  1.00  0.00    -0.250 OA
BRANCH   2   4
ATOM      4  C   UNL     1      45.469 130.755  15.849  1.00  0.00     0.116 C 
ATOM      5  C   UNL     1      46.358 129.935  14.053  1.00  0.00     0.019 C 
ATOM      6  C   UNL     1      45.052 129.705  14.811  1.00  0.00     0.040 C 
ATOM      7  C   UNL     1      46.793 130.961  15.102  1.00  0.00     0.040 C 
BRANCH   5   8
ATOM      8  C   UNL     1      46.145 130.530  12.650  1.00  0.00     0.159 C 
BRANCH   8   9
ATOM      9  O   UNL     1      47.330 130.463  11.906  1.00  0.00    -0.396 OA
ATOM     10  H   UNL     1      47.220 131.080  11.136  1.00  0.00     0.210 HD
ENDBRANCH   8   9
ENDBRANCH   5   8
BRANCH   4  11
ATOM     11  N   UNL     1      45.669 130.171  17.178  1.00  0.00    -0.316 NA
ATOM     12  H   UNL     1      45.889 130.942  17.850  1.00  0.00     0.119 HD
ATOM     13  H   UNL     1      44.766 129.739  17.487  1.00  0.00     0.119 HD
ENDBRANCH   4  11
ENDBRANCH   2   4
ENDBRANCH   1   2
BRANCH   1  14
ATOM     14  C   UNL     1      43.895 133.992  17.158  1.00  0.00     0.151 A 
ATOM     15  C   UNL     1      44.200 135.324  16.789  1.00  0.00     0.049 A 
ATOM     16  C   UNL     1      42.679 133.599  17.767  1.00  0.00     0.102 A 
ATOM     17  C   UNL     1      43.599 136.467  17.323  1.00  0.00     0.004 A 
ATOM     18  C   UNL     1      41.462 134.316  17.672  1.00  0.00     0.075 A 
ATOM     19  C   UNL     1      43.041 136.499  18.599  1.00  0.00    -0.000 A 
ATOM     20  C   UNL     1      41.152 135.168  16.584  1.00  0.00     0.080 A 
ATOM     21  C   UNL     1      41.813 137.106  18.868  1.00  0.00    -0.006 A 
ATOM     22  C   UNL     1      40.561 136.445  16.784  1.00  0.00     0.038 A 
ATOM     23  C   UNL     1      40.741 137.225  17.959  1.00  0.00    -0.084 A 
ATOM     24  Cl  UNL     1      42.693 132.097  18.692  1.00  0.00    -0.079 Cl
ATOM     25  Cl  UNL     1      40.237 134.101  18.923  1.00  0.00    -0.082 Cl
ATOM     26  O   UNL     1      39.781 138.186  18.256  1.00  0.00    -0.871 OA
BRANCH  20  27
ATOM     27  N   UNL     1      41.420 134.741  15.239  1.00  0.00    -0.057 NA
BRANCH  27  28
ATOM     28  N   UNL     1      40.714 133.929  14.641  1.00  0.00     0.005 N 
ATOM     29  N   UNL     1      40.004 133.117  14.048  1.00  0.00    -0.003 NA
ENDBRANCH  27  28
ENDBRANCH  20  27
BRANCH  22  30
ATOM     30  N   UNL     1      39.648 136.954  15.794  1.00  0.00    -0.373 N 
ATOM     31  H   UNL     1      38.639 136.725  15.938  1.00  0.00     0.161 HD
BRANCH  30  32
ATOM     32  C   UNL     1      39.998 137.988  14.801  1.00  0.00     0.113 C 
ATOM     33  C   UNL     1      39.125 139.232  14.904  1.00  0.00     0.193 C 
ATOM     34  C   UNL     1      39.272 137.813  13.482  1.00  0.00     0.193 C 
ATOM     35  O   UNL     1      38.518 138.990  13.657  1.00  0.00    -0.376 OA
BRANCH  32  36
ATOM     36  C   UNL     1      41.507 138.286  14.701  1.00  0.00     0.247 C 
ATOM     37  F   UNL     1      41.898 139.250  15.616  1.00  0.00    -0.248 F 
ENDBRANCH  32  36
ENDBRANCH  30  32
ENDBRANCH  22  30
ENDBRANCH   1  14
TORSDOF 11
ENDMDL
MODEL 8
REMARK VINA RESULT:      -6.5      3.269      4.316
REMARK SMILES [N-]=[N+]=Nc1c(Cl)c(Cl)c(OC(=O)[C@]2(N)C[C@H](CO)C2)ccccc([O-])c1NC1(CF)COC1
REMARK SMILES IDX 10 1 11 2 12 3 13 4 16 5 15 6 19 7 17 8 18 9 14 11 9 14
REMARK SMILES IDX 20 15 7 16 21 17 5 18 22 19 4 20 23 21 26 22 24 23 8 24 6 25
REMARK SMILES IDX 25 26 3 27 2 28 1 29 27 30 28 32 31 33 33 34 32 35 29 36
REMARK SMILES IDX 30 37
REMARK H PARENT 18 10 14 12 14 13 27 31
ROOT
ATOM      1  O   UNL     1      44.846 133.404  15.732  1.00  0.00    -0.424 OA
ENDROOT
BRANCH   1   2
ATOM      2  C   UNL     1      45.240 132.121  16.131  1.00  0.00     0.331 C 
ATOM      3  O   UNL     1      44.908 131.676  17.264  1.00  0.00    -0.250 OA
BRANCH   2   4
ATOM      4  C   UNL     1      45.971 131.229  15.156  1.00  0.00     0.116 C 
ATOM      5  C   UNL     1      45.732 129.078  15.058  1.00  0.00     0.019 C 
ATOM      6  C   UNL     1      46.665 130.027  15.809  1.00  0.00     0.040 C 
ATOM      7  C   UNL     1      45.056 130.272  14.380  1.00  0.00     0.040 C 
BRANCH   5   8
ATOM      8  C   UNL     1      44.803 128.283  15.990  1.00  0.00     0.159 C 
BRANCH   8   9
ATOM      9  O   UNL     1      44.978 126.906  15.796  1.00  0.00    -0.396 OA
ATOM     10  H   UNL     1      44.304 126.623  15.126  1.00  0.00     0.210 HD
ENDBRANCH   8   9
ENDBRANCH   5   8
BRANCH   4  11
ATOM     11  N   UNL     1      46.870 131.974  14.271  1.00  0.00    -0.316 NA
ATOM     12  H   UNL     1      46.508 132.951  14.178  1.00  0.00     0.119 HD
ATOM     13  H   UNL     1      47.809 132.034  14.730  1.00  0.00     0.119 HD
ENDBRANCH   4  11
ENDBRANCH   2   4
ENDBRANCH   1   2
BRANCH   1  14
ATOM     14  C   UNL     1      43.515 133.830  15.604  1.00  0.00     0.151 A 
ATOM     15  C   UNL     1      42.642 133.125  14.740  1.00  0.00     0.049 A 
ATOM     16  C   UNL     1      43.112 134.910  16.425  1.00  0.00     0.102 A 
ATOM     17  C   UNL     1      41.432 133.614  14.243  1.00  0.00     0.004 A 
ATOM     18  C   UNL     1      41.784 135.138  16.863  1.00  0.00     0.075 A 
ATOM     19  C   UNL     1      41.175 134.973  14.084  1.00  0.00    -0.000 A 
ATOM     20  C   UNL     1      40.830 134.101  17.003  1.00  0.00     0.080 A 
ATOM     21  C   UNL     1      39.960 135.558  14.447  1.00  0.00    -0.006 A 
ATOM     22  C   UNL     1      39.491 134.256  16.553  1.00  0.00     0.038 A 
ATOM     23  C   UNL     1      39.111 135.107  15.479  1.00  0.00    -0.084 A 
ATOM     24  Cl  UNL     1      44.367 136.034  16.947  1.00  0.00    -0.079 Cl
ATOM     25  Cl  UNL     1      41.298 136.770  17.321  1.00  0.00    -0.082 Cl
ATOM     26  O   UNL     1      37.793 135.549  15.433  1.00  0.00    -0.871 OA
BRANCH  20  27
ATOM     27  N   UNL     1      41.203 132.862  17.626  1.00  0.00    -0.057 NA
BRANCH  27  28
ATOM     28  N   UNL     1      41.886 132.806  18.649  1.00  0.00     0.005 N 
ATOM     29  N   UNL     1      42.573 132.747  19.669  1.00  0.00    -0.003 NA
ENDBRANCH  27  28
ENDBRANCH  20  27
BRANCH  22  30
ATOM     30  N   UNL     1      38.432 133.598  17.273  1.00  0.00    -0.373 N 
ATOM     31  H   UNL     1      38.218 132.617  16.983  1.00  0.00     0.161 HD
BRANCH  30  32
ATOM     32  C   UNL     1      37.861 134.095  18.540  1.00  0.00     0.113 C 
ATOM     33  C   UNL     1      37.630 135.600  18.539  1.00  0.00     0.193 C 
ATOM     34  C   UNL     1      38.917 134.443  19.569  1.00  0.00     0.193 C 
ATOM     35  O   UNL     1      38.622 135.820  19.513  1.00  0.00    -0.376 OA
BRANCH  32  36
ATOM     36  C   UNL     1      36.663 133.276  19.060  1.00  0.00     0.247 C 
ATOM     37  F   UNL     1      36.650 133.216  20.444  1.00  0.00    -0.248 F 
ENDBRANCH  32  36
ENDBRANCH  30  32
ENDBRANCH  22  30
ENDBRANCH   1  14
TORSDOF 11
ENDMDL
MODEL 9
REMARK VINA RESULT:      -6.5      1.928      2.225
REMARK SMILES [N-]=[N+]=Nc1c(Cl)c(Cl)c(OC(=O)[C@]2(N)C[C@H](CO)C2)ccccc([O-])c1NC1(CF)COC1
REMARK SMILES IDX 10 1 11 2 12 3 13 4 16 5 15 6 19 7 17 8 18 9 14 11 9 14
REMARK SMILES IDX 20 15 7 16 21 17 5 18 22 19 4 20 23 21 26 22 24 23 8 24 6 25
REMARK SMILES IDX 25 26 3 27 2 28 1 29 27 30 28 32 31 33 33 34 32 35 29 36
REMARK SMILES IDX 30 37
REMARK H PARENT 18 10 14 12 14 13 27 31
ROOT
ATOM      1  O   UNL     1      43.849 131.084  16.373  1.00  0.00    -0.424 OA
ENDROOT
BRANCH   1   2
ATOM      2  C   UNL     1      45.132 130.537  16.501  1.00  0.00     0.331 C 
ATOM      3  O   UNL     1      45.837 130.799  17.514  1.00  0.00    -0.250 OA
BRANCH   2   4
ATOM      4  C   UNL     1      45.626 129.546  15.474  1.00  0.00     0.116 C 
ATOM      5  C   UNL     1      46.978 130.042  13.856  1.00  0.00     0.019 C 
ATOM      6  C   UNL     1      45.459 130.016  14.023  1.00  0.00     0.040 C 
ATOM      7  C   UNL     1      47.149 129.545  15.293  1.00  0.00     0.040 C 
BRANCH   5   8
ATOM      8  C   UNL     1      47.534 131.455  13.615  1.00  0.00     0.159 C 
BRANCH   8   9
ATOM      9  O   UNL     1      48.187 131.519  12.377  1.00  0.00    -0.396 OA
ATOM     10  H   UNL     1      47.791 130.810  11.807  1.00  0.00     0.210 HD
ENDBRANCH   8   9
ENDBRANCH   5   8
BRANCH   4  11
ATOM     11  N   UNL     1      45.092 128.199  15.685  1.00  0.00    -0.316 NA
ATOM     12  H   UNL     1      45.649 127.736  16.439  1.00  0.00     0.119 HD
ATOM     13  H   UNL     1      44.108 128.285  16.035  1.00  0.00     0.119 HD
ENDBRANCH   4  11
ENDBRANCH   2   4
ENDBRANCH   1   2
BRANCH   1  14
ATOM     14  C   UNL     1      43.531 132.437  16.575  1.00  0.00     0.151 A 
ATOM     15  C   UNL     1      43.895 133.388  15.593  1.00  0.00     0.049 A 
ATOM     16  C   UNL     1      42.784 132.746  17.737  1.00  0.00     0.102 A 
ATOM     17  C   UNL     1      43.969 134.769  15.796  1.00  0.00     0.004 A 
ATOM     18  C   UNL     1      41.919 133.860  17.866  1.00  0.00     0.075 A 
ATOM     19  C   UNL     1      44.214 135.335  17.044  1.00  0.00    -0.000 A 
ATOM     20  C   UNL     1      41.286 134.476  16.760  1.00  0.00     0.080 A 
ATOM     21  C   UNL     1      43.512 136.445  17.518  1.00  0.00    -0.006 A 
ATOM     22  C   UNL     1      41.219 135.890  16.632  1.00  0.00     0.038 A 
ATOM     23  C   UNL     1      42.185 136.779  17.180  1.00  0.00    -0.084 A 
ATOM     24  Cl  UNL     1      42.937 131.645  19.107  1.00  0.00    -0.079 Cl
ATOM     25  Cl  UNL     1      41.554 134.482  19.475  1.00  0.00    -0.082 Cl
ATOM     26  O   UNL     1      41.797 138.094  17.417  1.00  0.00    -0.871 OA
BRANCH  20  27
ATOM     27  N   UNL     1      40.675 133.668  15.741  1.00  0.00    -0.057 NA
BRANCH  27  28
ATOM     28  N   UNL     1      40.618 134.010  14.560  1.00  0.00     0.005 N 
ATOM     29  N   UNL     1      40.559 134.347  13.378  1.00  0.00    -0.003 NA
ENDBRANCH  27  28
ENDBRANCH  20  27
BRANCH  22  30
ATOM     30  N   UNL     1      40.069 136.481  16.000  1.00  0.00    -0.373 N 
ATOM     31  H   UNL     1      40.117 136.583  14.961  1.00  0.00     0.161 HD
BRANCH  30  32
ATOM     32  C   UNL     1      38.764 136.664  16.663  1.00  0.00     0.113 C 
ATOM     33  C   UNL     1      38.670 135.944  18.002  1.00  0.00     0.193 C 
ATOM     34  C   UNL     1      37.736 135.632  16.244  1.00  0.00     0.193 C 
ATOM     35  O   UNL     1      37.705 135.039  17.522  1.00  0.00    -0.376 OA
BRANCH  32  36
ATOM     36  C   UNL     1      38.270 138.124  16.699  1.00  0.00     0.247 C 
ATOM     37  F   UNL     1      37.446 138.357  17.788  1.00  0.00    -0.248 F 
ENDBRANCH  32  36
ENDBRANCH  30  32
ENDBRANCH  22  30
ENDBRANCH   1  14
TORSDOF 11
ENDMDL


