MODEL 1
REMARK VINA RESULT:      -6.0      0.000      0.000
REMARK SMILES [N-]=[N+]=Nc1cc(Cl)cc2c(CNO)c(OCCc3cn(C[C@H]([NH3+])C(=O)[O-])nn3)ccc12
REMARK SMILES IDX 16 1 15 2 14 3 10 4 9 5 29 6 8 7 31 8 30 9 6 10 4 11 5 12
REMARK SMILES IDX 7 13 11 14 12 15 13 17 3 19 2 20 1 21 17 22 18 23 28 24
REMARK SMILES IDX 19 25 27 26 20 27 21 28 22 29 24 30 25 31 26 32 23 33
REMARK H PARENT 12 16 13 18 23 34 23 35 23 36
ROOT
ATOM      1  C   UNL     1      41.770 135.008  16.124  1.00  0.00     0.236 C 
ENDROOT
BRANCH   1   2
ATOM      2  O   UNL     1      41.417 134.973  17.506  1.00  0.00    -0.493 OA
BRANCH   2   3
ATOM      3  C   UNL     1      42.145 134.310  18.508  1.00  0.00     0.124 A 
ATOM      4  C   UNL     1      43.315 134.913  19.024  1.00  0.00     0.018 A 
ATOM      5  C   UNL     1      44.079 134.231  20.016  1.00  0.00    -0.008 A 
ATOM      6  C   UNL     1      41.728 133.064  19.003  1.00  0.00     0.047 A 
ATOM      7  C   UNL     1      45.281 134.769  20.527  1.00  0.00     0.029 A 
ATOM      8  C   UNL     1      43.634 132.972  20.507  1.00  0.00    -0.008 A 
ATOM      9  C   UNL     1      42.456 132.410  19.990  1.00  0.00     0.013 A 
ATOM     10  C   UNL     1      46.010 134.092  21.504  1.00  0.00     0.042 A 
ATOM     11  C   UNL     1      44.377 132.292  21.502  1.00  0.00     0.047 A 
ATOM     12  C   UNL     1      45.563 132.866  21.991  1.00  0.00     0.031 A 
ATOM     13  Cl  UNL     1      47.499 134.785  22.122  1.00  0.00    -0.084 Cl
BRANCH   4  14
ATOM     14  C   UNL     1      43.750 136.262  18.478  1.00  0.00     0.151 C 
BRANCH  14  15
ATOM     15  N   UNL     1      42.921 137.323  19.048  1.00  0.00    -0.201 NA
ATOM     16  H   UNL     1      42.695 137.086  20.046  1.00  0.00     0.155 HD
BRANCH  15  17
ATOM     17  O   UNL     1      43.622 138.490  19.012  1.00  0.00    -0.316 OA
ATOM     18  H   UNL     1      43.933 138.619  18.075  1.00  0.00     0.238 HD
ENDBRANCH  15  17
ENDBRANCH  14  15
ENDBRANCH   4  14
BRANCH  11  19
ATOM     19  N   UNL     1      43.918 131.023  21.999  1.00  0.00    -0.060 NA
BRANCH  19  20
ATOM     20  N   UNL     1      44.493 130.418  22.906  1.00  0.00     0.005 N 
ATOM     21  N   UNL     1      45.070 129.815  23.810  1.00  0.00    -0.003 NA
ENDBRANCH  19  20
ENDBRANCH  11  19
ENDBRANCH   2   3
ENDBRANCH   1   2
BRANCH   1  22
ATOM     22  C   UNL     1      41.885 133.585  15.582  1.00  0.00     0.101 C 
BRANCH  22  23
ATOM     23  C   UNL     1      43.318 133.155  15.520  1.00  0.00     0.086 A 
ATOM     24  N   UNL     1      44.366 133.998  15.432  1.00  0.00    -0.135 NA
ATOM     25  C   UNL     1      43.799 131.874  15.681  1.00  0.00     0.135 A 
ATOM     26  N   UNL     1      45.460 133.255  15.520  1.00  0.00    -0.067 NA
ATOM     27  N   UNL     1      45.138 131.980  15.671  1.00  0.00    -0.246 N 
BRANCH  27  28
ATOM     28  C   UNL     1      46.102 130.897  15.859  1.00  0.00     0.217 C 
BRANCH  28  29
ATOM     29  C   UNL     1      46.067 129.882  14.697  1.00  0.00     0.249 C 
BRANCH  29  30
ATOM     30  C   UNL     1      47.327 129.951  13.873  1.00  0.00     0.101 C 
ATOM     31  O   UNL     1      47.983 128.910  13.606  1.00  0.00    -0.544 OA
ATOM     32  O   UNL     1      47.802 131.184  13.444  1.00  0.00    -0.544 OA
ENDBRANCH  29  30
BRANCH  29  33
ATOM     33  N   UNL     1      45.814 128.516  15.174  1.00  0.00    -0.349 N 
ATOM     34  H   UNL     1      46.600 128.209  15.793  1.00  0.00     0.345 HD
ATOM     35  H   UNL     1      45.763 127.859  14.362  1.00  0.00     0.345 HD
ATOM     36  H   UNL     1      44.921 128.465  15.715  1.00  0.00     0.345 HD
ENDBRANCH  29  33
ENDBRANCH  28  29
ENDBRANCH  27  28
ENDBRANCH  22  23
ENDBRANCH   1  22
TORSDOF 13
ENDMDL
MODEL 2
REMARK VINA RESULT:      -5.6      2.606      2.907
REMARK SMILES [N-]=[N+]=Nc1cc(Cl)cc2c(CNO)c(OCCc3cn(C[C@H]([NH3+])C(=O)[O-])nn3)ccc12
REMARK SMILES IDX 16 1 15 2 14 3 10 4 9 5 29 6 8 7 31 8 30 9 6 10 4 11 5 12
REMARK SMILES IDX 7 13 11 14 12 15 13 17 3 19 2 20 1 21 17 22 18 23 28 24
REMARK SMILES IDX 19 25 27 26 20 27 21 28 22 29 24 30 25 31 26 32 23 33
REMARK H PARENT 12 16 13 18 23 34 23 35 23 36
ROOT
ATOM      1  C   UNL     1      41.530 133.933  15.649  1.00  0.00     0.236 C 
ENDROOT
BRANCH   1   2
ATOM      2  O   UNL     1      40.827 133.301  16.717  1.00  0.00    -0.493 OA
BRANCH   2   3
ATOM      3  C   UNL     1      41.370 133.006  17.979  1.00  0.00     0.124 A 
ATOM      4  C   UNL     1      40.946 133.752  19.103  1.00  0.00     0.018 A 
ATOM      5  C   UNL     1      41.518 133.483  20.381  1.00  0.00    -0.008 A 
ATOM      6  C   UNL     1      42.321 131.987  18.138  1.00  0.00     0.047 A 
ATOM      7  C   UNL     1      41.165 134.232  21.525  1.00  0.00     0.029 A 
ATOM      8  C   UNL     1      42.476 132.440  20.520  1.00  0.00    -0.008 A 
ATOM      9  C   UNL     1      42.860 131.703  19.388  1.00  0.00     0.013 A 
ATOM     10  C   UNL     1      41.727 133.948  22.769  1.00  0.00     0.042 A 
ATOM     11  C   UNL     1      43.041 132.155  21.787  1.00  0.00     0.047 A 
ATOM     12  C   UNL     1      42.655 132.917  22.902  1.00  0.00     0.031 A 
ATOM     13  Cl  UNL     1      41.268 134.894  24.174  1.00  0.00    -0.084 Cl
BRANCH   4  14
ATOM     14  C   UNL     1      39.915 134.850  18.912  1.00  0.00     0.151 C 
BRANCH  14  15
ATOM     15  N   UNL     1      40.545 136.029  18.318  1.00  0.00    -0.201 NA
ATOM     16  H   UNL     1      41.370 135.727  17.742  1.00  0.00     0.155 HD
BRANCH  15  17
ATOM     17  O   UNL     1      39.637 136.648  17.512  1.00  0.00    -0.316 OA
ATOM     18  H   UNL     1      38.803 136.763  18.042  1.00  0.00     0.238 HD
ENDBRANCH  15  17
ENDBRANCH  14  15
ENDBRANCH   4  14
BRANCH  11  19
ATOM     19  N   UNL     1      44.004 131.095  21.921  1.00  0.00    -0.060 NA
BRANCH  19  20
ATOM     20  N   UNL     1      45.130 131.155  21.426  1.00  0.00     0.005 N 
ATOM     21  N   UNL     1      46.254 131.213  20.929  1.00  0.00    -0.003 NA
ENDBRANCH  19  20
ENDBRANCH  11  19
ENDBRANCH   2   3
ENDBRANCH   1   2
BRANCH   1  22
ATOM     22  C   UNL     1      41.567 133.009  14.434  1.00  0.00     0.101 C 
BRANCH  22  23
ATOM     23  C   UNL     1      42.847 132.232  14.397  1.00  0.00     0.086 A 
ATOM     24  N   UNL     1      43.081 131.182  13.585  1.00  0.00    -0.135 NA
ATOM     25  C   UNL     1      44.014 132.539  15.062  1.00  0.00     0.135 A 
ATOM     26  N   UNL     1      44.350 130.842  13.758  1.00  0.00    -0.067 NA
ATOM     27  N   UNL     1      44.925 131.647  14.639  1.00  0.00    -0.246 N 
BRANCH  27  28
ATOM     28  C   UNL     1      46.335 131.590  15.018  1.00  0.00     0.217 C 
BRANCH  28  29
ATOM     29  C   UNL     1      46.767 130.166  15.431  1.00  0.00     0.249 C 
BRANCH  29  30
ATOM     30  C   UNL     1      45.814 129.578  16.440  1.00  0.00     0.101 C 
ATOM     31  O   UNL     1      45.160 128.534  16.179  1.00  0.00    -0.544 OA
ATOM     32  O   UNL     1      45.614 130.222  17.654  1.00  0.00    -0.544 OA
ENDBRANCH  29  30
BRANCH  29  33
ATOM     33  N   UNL     1      46.924 129.285  14.266  1.00  0.00    -0.349 N 
ATOM     34  H   UNL     1      47.938 129.068  14.124  1.00  0.00     0.345 HD
ATOM     35  H   UNL     1      46.570 129.766  13.407  1.00  0.00     0.345 HD
ATOM     36  H   UNL     1      46.403 128.389  14.397  1.00  0.00     0.345 HD
ENDBRANCH  29  33
ENDBRANCH  28  29
ENDBRANCH  27  28
ENDBRANCH  22  23
ENDBRANCH   1  22
TORSDOF 13
ENDMDL
MODEL 3
REMARK VINA RESULT:      -5.4      3.611      7.389
REMARK SMILES [N-]=[N+]=Nc1cc(Cl)cc2c(CNO)c(OCCc3cn(C[C@H]([NH3+])C(=O)[O-])nn3)ccc12
REMARK SMILES IDX 16 1 15 2 14 3 10 4 9 5 29 6 8 7 31 8 30 9 6 10 4 11 5 12
REMARK SMILES IDX 7 13 11 14 12 15 13 17 3 19 2 20 1 21 17 22 18 23 28 24
REMARK SMILES IDX 19 25 27 26 20 27 21 28 22 29 24 30 25 31 26 32 23 33
REMARK H PARENT 12 16 13 18 23 34 23 35 23 36
ROOT
ATOM      1  C   UNL     1      46.242 131.640  20.641  1.00  0.00     0.236 C 
ENDROOT
BRANCH   1   2
ATOM      2  O   UNL     1      44.917 131.597  20.113  1.00  0.00    -0.493 OA
BRANCH   2   3
ATOM      3  C   UNL     1      44.592 131.590  18.746  1.00  0.00     0.124 A 
ATOM      4  C   UNL     1      43.520 132.390  18.288  1.00  0.00     0.018 A 
ATOM      5  C   UNL     1      43.160 132.362  16.909  1.00  0.00    -0.008 A 
ATOM      6  C   UNL     1      45.313 130.804  17.833  1.00  0.00     0.047 A 
ATOM      7  C   UNL     1      42.067 133.105  16.412  1.00  0.00     0.029 A 
ATOM      8  C   UNL     1      43.910 131.563  16.001  1.00  0.00    -0.008 A 
ATOM      9  C   UNL     1      44.982 130.796  16.483  1.00  0.00     0.013 A 
ATOM     10  C   UNL     1      41.737 133.073  15.057  1.00  0.00     0.042 A 
ATOM     11  C   UNL     1      43.570 131.537  14.626  1.00  0.00     0.047 A 
ATOM     12  C   UNL     1      42.481 132.300  14.170  1.00  0.00     0.031 A 
ATOM     13  Cl  UNL     1      40.374 134.009  14.467  1.00  0.00    -0.084 Cl
BRANCH   4  14
ATOM     14  C   UNL     1      42.753 133.235  19.290  1.00  0.00     0.151 C 
BRANCH  14  15
ATOM     15  N   UNL     1      43.181 134.631  19.199  1.00  0.00    -0.201 NA
ATOM     16  H   UNL     1      42.979 135.113  20.110  1.00  0.00     0.155 HD
BRANCH  15  17
ATOM     17  O   UNL     1      44.522 134.660  18.962  1.00  0.00    -0.316 OA
ATOM     18  H   UNL     1      44.789 135.616  18.893  1.00  0.00     0.238 HD
ENDBRANCH  15  17
ENDBRANCH  14  15
ENDBRANCH   4  14
BRANCH  11  19
ATOM     19  N   UNL     1      44.335 130.733  13.712  1.00  0.00    -0.060 NA
BRANCH  19  20
ATOM     20  N   UNL     1      45.557 130.847  13.591  1.00  0.00     0.005 N 
ATOM     21  N   UNL     1      46.775 130.962  13.469  1.00  0.00    -0.003 NA
ENDBRANCH  19  20
ENDBRANCH  11  19
ENDBRANCH   2   3
ENDBRANCH   1   2
BRANCH   1  22
ATOM     22  C   UNL     1      46.233 132.323  22.007  1.00  0.00     0.101 C 
BRANCH  22  23
ATOM     23  C   UNL     1      45.937 133.784  21.868  1.00  0.00     0.086 A 
ATOM     24  N   UNL     1      44.704 134.324  21.931  1.00  0.00    -0.135 NA
ATOM     25  C   UNL     1      46.859 134.805  21.797  1.00  0.00     0.135 A 
ATOM     26  N   UNL     1      44.861 135.639  21.885  1.00  0.00    -0.067 NA
ATOM     27  N   UNL     1      46.148 135.945  21.805  1.00  0.00    -0.246 N 
BRANCH  27  28
ATOM     28  C   UNL     1      46.677 137.307  21.797  1.00  0.00     0.217 C 
BRANCH  28  29
ATOM     29  C   UNL     1      46.629 137.938  20.389  1.00  0.00     0.249 C 
BRANCH  29  30
ATOM     30  C   UNL     1      48.016 138.156  19.840  1.00  0.00     0.101 C 
ATOM     31  O   UNL     1      48.902 137.268  19.954  1.00  0.00    -0.544 OA
ATOM     32  O   UNL     1      48.338 139.369  19.247  1.00  0.00    -0.544 OA
ENDBRANCH  29  30
BRANCH  29  33
ATOM     33  N   UNL     1      45.805 137.147  19.465  1.00  0.00    -0.349 N 
ATOM     34  H   UNL     1      46.238 137.158  18.512  1.00  0.00     0.345 HD
ATOM     35  H   UNL     1      44.849 137.565  19.394  1.00  0.00     0.345 HD
ATOM     36  H   UNL     1      45.725 136.156  19.786  1.00  0.00     0.345 HD
ENDBRANCH  29  33
ENDBRANCH  28  29
ENDBRANCH  27  28
ENDBRANCH  22  23
ENDBRANCH   1  22
TORSDOF 13
ENDMDL
MODEL 4
REMARK VINA RESULT:      -5.3      3.700      6.758
REMARK SMILES [N-]=[N+]=Nc1cc(Cl)cc2c(CNO)c(OCCc3cn(C[C@H]([NH3+])C(=O)[O-])nn3)ccc12
REMARK SMILES IDX 16 1 15 2 14 3 10 4 9 5 29 6 8 7 31 8 30 9 6 10 4 11 5 12
REMARK SMILES IDX 7 13 11 14 12 15 13 17 3 19 2 20 1 21 17 22 18 23 28 24
REMARK SMILES IDX 19 25 27 26 20 27 21 28 22 29 24 30 25 31 26 32 23 33
REMARK H PARENT 12 16 13 18 23 34 23 35 23 36
ROOT
ATOM      1  C   UNL     1      41.828 135.131  14.251  1.00  0.00     0.236 C 
ENDROOT
BRANCH   1   2
ATOM      2  O   UNL     1      42.296 135.009  15.593  1.00  0.00    -0.493 OA
BRANCH   2   3
ATOM      3  C   UNL     1      43.101 133.963  16.076  1.00  0.00     0.124 A 
ATOM      4  C   UNL     1      43.248 133.795  17.473  1.00  0.00     0.018 A 
ATOM      5  C   UNL     1      44.090 132.759  17.972  1.00  0.00    -0.008 A 
ATOM      6  C   UNL     1      43.756 133.087  15.197  1.00  0.00     0.047 A 
ATOM      7  C   UNL     1      44.309 132.582  19.356  1.00  0.00     0.029 A 
ATOM      8  C   UNL     1      44.740 131.878  17.061  1.00  0.00    -0.008 A 
ATOM      9  C   UNL     1      44.556 132.058  15.681  1.00  0.00     0.013 A 
ATOM     10  C   UNL     1      45.128 131.556  19.825  1.00  0.00     0.042 A 
ATOM     11  C   UNL     1      45.569 130.837  17.546  1.00  0.00     0.047 A 
ATOM     12  C   UNL     1      45.751 130.688  18.931  1.00  0.00     0.031 A 
ATOM     13  Cl  UNL     1      45.380 131.357  21.551  1.00  0.00    -0.084 Cl
BRANCH   4  14
ATOM     14  C   UNL     1      42.530 134.752  18.409  1.00  0.00     0.151 C 
BRANCH  14  15
ATOM     15  N   UNL     1      41.094 134.476  18.400  1.00  0.00    -0.201 NA
ATOM     16  H   UNL     1      40.841 133.989  17.505  1.00  0.00     0.155 HD
BRANCH  15  17
ATOM     17  O   UNL     1      40.800 133.663  19.453  1.00  0.00    -0.316 OA
ATOM     18  H   UNL     1      41.664 133.402  19.873  1.00  0.00     0.238 HD
ENDBRANCH  15  17
ENDBRANCH  14  15
ENDBRANCH   4  14
BRANCH  11  19
ATOM     19  N   UNL     1      46.216 129.946  16.621  1.00  0.00    -0.060 NA
BRANCH  19  20
ATOM     20  N   UNL     1      45.610 129.055  16.024  1.00  0.00     0.005 N 
ATOM     21  N   UNL     1      45.007 128.164  15.427  1.00  0.00    -0.003 NA
ENDBRANCH  19  20
ENDBRANCH  11  19
ENDBRANCH   2   3
ENDBRANCH   1   2
BRANCH   1  22
ATOM     22  C   UNL     1      40.445 135.777  14.242  1.00  0.00     0.101 C 
BRANCH  22  23
ATOM     23  C   UNL     1      39.507 135.037  15.146  1.00  0.00     0.086 A 
ATOM     24  N   UNL     1      39.632 133.737  15.479  1.00  0.00    -0.135 NA
ATOM     25  C   UNL     1      38.475 135.579  15.879  1.00  0.00     0.135 A 
ATOM     26  N   UNL     1      38.693 133.483  16.378  1.00  0.00    -0.067 NA
ATOM     27  N   UNL     1      37.991 134.577  16.631  1.00  0.00    -0.246 N 
BRANCH  27  28
ATOM     28  C   UNL     1      36.916 134.663  17.618  1.00  0.00     0.217 C 
BRANCH  28  29
ATOM     29  C   UNL     1      36.986 135.970  18.437  1.00  0.00     0.249 C 
BRANCH  29  30
ATOM     30  C   UNL     1      38.244 136.028  19.265  1.00  0.00     0.101 C 
ATOM     31  O   UNL     1      39.110 136.920  19.064  1.00  0.00    -0.544 OA
ATOM     32  O   UNL     1      38.478 135.057  20.230  1.00  0.00    -0.544 OA
ENDBRANCH  29  30
BRANCH  29  33
ATOM     33  N   UNL     1      36.853 137.157  17.581  1.00  0.00    -0.349 N 
ATOM     34  H   UNL     1      37.615 137.159  16.863  1.00  0.00     0.345 HD
ATOM     35  H   UNL     1      36.947 138.024  18.159  1.00  0.00     0.345 HD
ATOM     36  H   UNL     1      35.930 137.168  17.091  1.00  0.00     0.345 HD
ENDBRANCH  29  33
ENDBRANCH  28  29
ENDBRANCH  27  28
ENDBRANCH  22  23
ENDBRANCH   1  22
TORSDOF 13
ENDMDL
MODEL 5
REMARK VINA RESULT:      -5.3      4.079      6.839
REMARK SMILES [N-]=[N+]=Nc1cc(Cl)cc2c(CNO)c(OCCc3cn(C[C@H]([NH3+])C(=O)[O-])nn3)ccc12
REMARK SMILES IDX 16 1 15 2 14 3 10 4 9 5 29 6 8 7 31 8 30 9 6 10 4 11 5 12
REMARK SMILES IDX 7 13 11 14 12 15 13 17 3 19 2 20 1 21 17 22 18 23 28 24
REMARK SMILES IDX 19 25 27 26 20 27 21 28 22 29 24 30 25 31 26 32 23 33
REMARK H PARENT 12 16 13 18 23 34 23 35 23 36
ROOT
ATOM      1  C   UNL     1      38.851 133.782  14.290  1.00  0.00     0.236 C 
ENDROOT
BRANCH   1   2
ATOM      2  O   UNL     1      40.143 134.321  14.560  1.00  0.00    -0.493 OA
BRANCH   2   3
ATOM      3  C   UNL     1      41.243 133.585  15.032  1.00  0.00     0.124 A 
ATOM      4  C   UNL     1      41.602 133.680  16.397  1.00  0.00     0.018 A 
ATOM      5  C   UNL     1      42.738 132.966  16.877  1.00  0.00    -0.008 A 
ATOM      6  C   UNL     1      41.987 132.762  14.173  1.00  0.00     0.047 A 
ATOM      7  C   UNL     1      43.166 133.066  18.219  1.00  0.00     0.029 A 
ATOM      8  C   UNL     1      43.473 132.131  15.989  1.00  0.00    -0.008 A 
ATOM      9  C   UNL     1      43.079 132.042  14.644  1.00  0.00     0.013 A 
ATOM     10  C   UNL     1      44.274 132.351  18.673  1.00  0.00     0.042 A 
ATOM     11  C   UNL     1      44.596 131.406  16.457  1.00  0.00     0.047 A 
ATOM     12  C   UNL     1      44.982 131.525  17.803  1.00  0.00     0.031 A 
ATOM     13  Cl  UNL     1      44.781 132.493  20.347  1.00  0.00    -0.084 Cl
BRANCH   4  14
ATOM     14  C   UNL     1      40.785 134.575  17.312  1.00  0.00     0.151 C 
BRANCH  14  15
ATOM     15  N   UNL     1      39.556 133.892  17.714  1.00  0.00    -0.201 NA
ATOM     16  H   UNL     1      39.653 132.864  17.517  1.00  0.00     0.155 HD
BRANCH  15  17
ATOM     17  O   UNL     1      39.370 134.079  19.050  1.00  0.00    -0.316 OA
ATOM     18  H   UNL     1      39.402 133.182  19.481  1.00  0.00     0.238 HD
ENDBRANCH  15  17
ENDBRANCH  14  15
ENDBRANCH   4  14
BRANCH  11  19
ATOM     19  N   UNL     1      45.330 130.559  15.556  1.00  0.00    -0.060 NA
BRANCH  19  20
ATOM     20  N   UNL     1      45.179 129.337  15.523  1.00  0.00     0.005 N 
ATOM     21  N   UNL     1      45.028 128.116  15.492  1.00  0.00    -0.003 NA
ENDBRANCH  19  20
ENDBRANCH  11  19
ENDBRANCH   2   3
ENDBRANCH   1   2
BRANCH   1  22
ATOM     22  C   UNL     1      37.882 134.909  13.940  1.00  0.00     0.101 C 
BRANCH  22  23
ATOM     23  C   UNL     1      38.136 136.112  14.793  1.00  0.00     0.086 A 
ATOM     24  N   UNL     1      37.922 136.165  16.124  1.00  0.00    -0.135 NA
ATOM     25  C   UNL     1      38.745 137.284  14.402  1.00  0.00     0.135 A 
ATOM     26  N   UNL     1      38.372 137.342  16.535  1.00  0.00    -0.067 NA
ATOM     27  N   UNL     1      38.870 138.025  15.515  1.00  0.00    -0.246 N 
BRANCH  27  28
ATOM     28  C   UNL     1      39.504 139.337  15.626  1.00  0.00     0.217 C 
BRANCH  28  29
ATOM     29  C   UNL     1      41.020 139.275  15.342  1.00  0.00     0.249 C 
BRANCH  29  30
ATOM     30  C   UNL     1      41.652 138.083  16.015  1.00  0.00     0.101 C 
ATOM     31  O   UNL     1      41.726 138.014  17.270  1.00  0.00    -0.544 OA
ATOM     32  O   UNL     1      42.207 137.071  15.242  1.00  0.00    -0.544 OA
ENDBRANCH  29  30
BRANCH  29  33
ATOM     33  N   UNL     1      41.305 139.290  13.901  1.00  0.00    -0.349 N 
ATOM     34  H   UNL     1      41.446 138.310  13.561  1.00  0.00     0.345 HD
ATOM     35  H   UNL     1      42.182 139.829  13.718  1.00  0.00     0.345 HD
ATOM     36  H   UNL     1      40.518 139.721  13.365  1.00  0.00     0.345 HD
ENDBRANCH  29  33
ENDBRANCH  28  29
ENDBRANCH  27  28
ENDBRANCH  22  23
ENDBRANCH   1  22
TORSDOF 13
ENDMDL
MODEL 6
REMARK VINA RESULT:      -5.2      3.207      6.536
REMARK SMILES [N-]=[N+]=Nc1cc(Cl)cc2c(CNO)c(OCCc3cn(C[C@H]([NH3+])C(=O)[O-])nn3)ccc12
REMARK SMILES IDX 16 1 15 2 14 3 10 4 9 5 29 6 8 7 31 8 30 9 6 10 4 11 5 12
REMARK SMILES IDX 7 13 11 14 12 15 13 17 3 19 2 20 1 21 17 22 18 23 28 24
REMARK SMILES IDX 19 25 27 26 20 27 21 28 22 29 24 30 25 31 26 32 23 33
REMARK H PARENT 12 16 13 18 23 34 23 35 23 36
ROOT
ATOM      1  C   UNL     1      42.860 132.515  14.641  1.00  0.00     0.236 C 
ENDROOT
BRANCH   1   2
ATOM      2  O   UNL     1      43.950 133.213  15.241  1.00  0.00    -0.493 OA
BRANCH   2   3
ATOM      3  C   UNL     1      44.063 133.512  16.610  1.00  0.00     0.124 A 
ATOM      4  C   UNL     1      44.434 132.487  17.511  1.00  0.00     0.018 A 
ATOM      5  C   UNL     1      44.516 132.772  18.905  1.00  0.00    -0.008 A 
ATOM      6  C   UNL     1      43.813 134.806  17.092  1.00  0.00     0.047 A 
ATOM      7  C   UNL     1      44.834 131.772  19.850  1.00  0.00     0.029 A 
ATOM      8  C   UNL     1      44.265 134.094  19.370  1.00  0.00    -0.008 A 
ATOM      9  C   UNL     1      43.920 135.094  18.448  1.00  0.00     0.013 A 
ATOM     10  C   UNL     1      44.920 132.072  21.209  1.00  0.00     0.042 A 
ATOM     11  C   UNL     1      44.357 134.392  20.752  1.00  0.00     0.047 A 
ATOM     12  C   UNL     1      44.687 133.370  21.658  1.00  0.00     0.031 A 
ATOM     13  Cl  UNL     1      45.320 130.810  22.360  1.00  0.00    -0.084 Cl
BRANCH   4  14
ATOM     14  C   UNL     1      44.701 131.093  16.970  1.00  0.00     0.151 C 
BRANCH  14  15
ATOM     15  N   UNL     1      45.967 131.075  16.237  1.00  0.00    -0.201 NA
ATOM     16  H   UNL     1      46.431 132.012  16.328  1.00  0.00     0.155 HD
BRANCH  15  17
ATOM     17  O   UNL     1      46.771 130.120  16.782  1.00  0.00    -0.316 OA
ATOM     18  H   UNL     1      47.644 130.551  16.987  1.00  0.00     0.238 HD
ENDBRANCH  15  17
ENDBRANCH  14  15
ENDBRANCH   4  14
BRANCH  11  19
ATOM     19  N   UNL     1      44.109 135.730  21.215  1.00  0.00    -0.060 NA
BRANCH  19  20
ATOM     20  N   UNL     1      45.008 136.468  21.624  1.00  0.00     0.005 N 
ATOM     21  N   UNL     1      45.907 137.202  22.032  1.00  0.00    -0.003 NA
ENDBRANCH  19  20
ENDBRANCH  11  19
ENDBRANCH   2   3
ENDBRANCH   1   2
BRANCH   1  22
ATOM     22  C   UNL     1      41.840 133.514  14.100  1.00  0.00     0.101 C 
BRANCH  22  23
ATOM     23  C   UNL     1      40.954 134.016  15.198  1.00  0.00     0.086 A 
ATOM     24  N   UNL     1      40.506 133.263  16.223  1.00  0.00    -0.135 NA
ATOM     25  C   UNL     1      40.575 135.322  15.416  1.00  0.00     0.135 A 
ATOM     26  N   UNL     1      39.856 134.080  17.039  1.00  0.00    -0.067 NA
ATOM     27  N   UNL     1      39.889 135.319  16.571  1.00  0.00    -0.246 N 
BRANCH  27  28
ATOM     28  C   UNL     1      39.321 136.479  17.254  1.00  0.00     0.217 C 
BRANCH  28  29
ATOM     29  C   UNL     1      37.798 136.341  17.461  1.00  0.00     0.249 C 
BRANCH  29  30
ATOM     30  C   UNL     1      37.081 136.176  16.146  1.00  0.00     0.101 C 
ATOM     31  O   UNL     1      36.412 135.138  15.900  1.00  0.00    -0.544 OA
ATOM     32  O   UNL     1      37.200 137.158  15.170  1.00  0.00    -0.544 OA
ENDBRANCH  29  30
BRANCH  29  33
ATOM     33  N   UNL     1      37.471 135.251  18.390  1.00  0.00    -0.349 N 
ATOM     34  H   UNL     1      36.444 135.261  18.595  1.00  0.00     0.345 HD
ATOM     35  H   UNL     1      37.984 135.385  19.291  1.00  0.00     0.345 HD
ATOM     36  H   UNL     1      37.724 134.321  17.985  1.00  0.00     0.345 HD
ENDBRANCH  29  33
ENDBRANCH  28  29
ENDBRANCH  27  28
ENDBRANCH  22  23
ENDBRANCH   1  22
TORSDOF 13
ENDMDL
MODEL 7
REMARK VINA RESULT:      -5.0      3.257      6.653
REMARK SMILES [N-]=[N+]=Nc1cc(Cl)cc2c(CNO)c(OCCc3cn(C[C@H]([NH3+])C(=O)[O-])nn3)ccc12
REMARK SMILES IDX 16 1 15 2 14 3 10 4 9 5 29 6 8 7 31 8 30 9 6 10 4 11 5 12
REMARK SMILES IDX 7 13 11 14 12 15 13 17 3 19 2 20 1 21 17 22 18 23 28 24
REMARK SMILES IDX 19 25 27 26 20 27 21 28 22 29 24 30 25 31 26 32 23 33
REMARK H PARENT 12 16 13 18 23 34 23 35 23 36
ROOT
ATOM      1  C   UNL     1      44.137 131.708  15.509  1.00  0.00     0.236 C 
ENDROOT
BRANCH   1   2
ATOM      2  O   UNL     1      43.962 133.055  15.073  1.00  0.00    -0.493 OA
BRANCH   2   3
ATOM      3  C   UNL     1      43.549 134.121  15.889  1.00  0.00     0.124 A 
ATOM      4  C   UNL     1      42.179 134.244  16.223  1.00  0.00     0.018 A 
ATOM      5  C   UNL     1      41.746 135.343  17.021  1.00  0.00    -0.008 A 
ATOM      6  C   UNL     1      44.470 135.061  16.376  1.00  0.00     0.047 A 
ATOM      7  C   UNL     1      40.384 135.537  17.340  1.00  0.00     0.029 A 
ATOM      8  C   UNL     1      42.700 136.280  17.508  1.00  0.00    -0.008 A 
ATOM      9  C   UNL     1      44.054 136.119  17.177  1.00  0.00     0.013 A 
ATOM     10  C   UNL     1      39.980 136.612  18.130  1.00  0.00     0.042 A 
ATOM     11  C   UNL     1      42.282 137.368  18.312  1.00  0.00     0.047 A 
ATOM     12  C   UNL     1      40.918 137.519  18.616  1.00  0.00     0.031 A 
ATOM     13  Cl  UNL     1      38.281 136.827  18.513  1.00  0.00    -0.084 Cl
BRANCH   4  14
ATOM     14  C   UNL     1      41.197 133.217  15.689  1.00  0.00     0.151 C 
BRANCH  14  15
ATOM     15  N   UNL     1      41.095 133.331  14.234  1.00  0.00    -0.201 NA
ATOM     16  H   UNL     1      41.645 134.167  13.914  1.00  0.00     0.155 HD
BRANCH  15  17
ATOM     17  O   UNL     1      41.618 132.206  13.671  1.00  0.00    -0.316 OA
ATOM     18  H   UNL     1      42.551 132.419  13.398  1.00  0.00     0.238 HD
ENDBRANCH  15  17
ENDBRANCH  14  15
ENDBRANCH   4  14
BRANCH  11  19
ATOM     19  N   UNL     1      43.252 138.308  18.808  1.00  0.00    -0.060 NA
BRANCH  19  20
ATOM     20  N   UNL     1      43.776 138.197  19.917  1.00  0.00     0.005 N 
ATOM     21  N   UNL     1      44.301 138.087  21.025  1.00  0.00    -0.003 NA
ENDBRANCH  19  20
ENDBRANCH  11  19
ENDBRANCH   2   3
ENDBRANCH   1   2
BRANCH   1  22
ATOM     22  C   UNL     1      45.438 131.584  16.299  1.00  0.00     0.101 C 
BRANCH  22  23
ATOM     23  C   UNL     1      45.161 131.495  17.768  1.00  0.00     0.086 A 
ATOM     24  N   UNL     1      45.705 130.579  18.594  1.00  0.00    -0.135 NA
ATOM     25  C   UNL     1      44.440 132.392  18.524  1.00  0.00     0.135 A 
ATOM     26  N   UNL     1      45.316 130.895  19.821  1.00  0.00    -0.067 NA
ATOM     27  N   UNL     1      44.557 131.980  19.797  1.00  0.00    -0.246 N 
BRANCH  27  28
ATOM     28  C   UNL     1      44.009 132.635  20.983  1.00  0.00     0.217 C 
BRANCH  28  29
ATOM     29  C   UNL     1      43.767 134.143  20.752  1.00  0.00     0.249 C 
BRANCH  29  30
ATOM     30  C   UNL     1      42.295 134.464  20.745  1.00  0.00     0.101 C 
ATOM     31  O   UNL     1      41.854 135.490  21.329  1.00  0.00    -0.544 OA
ATOM     32  O   UNL     1      41.403 133.594  20.131  1.00  0.00    -0.544 OA
ENDBRANCH  29  30
BRANCH  29  33
ATOM     33  N   UNL     1      44.491 134.966  21.730  1.00  0.00    -0.349 N 
ATOM     34  H   UNL     1      45.085 135.667  21.228  1.00  0.00     0.345 HD
ATOM     35  H   UNL     1      45.118 134.362  22.309  1.00  0.00     0.345 HD
ATOM     36  H   UNL     1      43.829 135.475  22.359  1.00  0.00     0.345 HD
ENDBRANCH  29  33
ENDBRANCH  28  29
ENDBRANCH  27  28
ENDBRANCH  22  23
ENDBRANCH   1  22
TORSDOF 13
ENDMDL
MODEL 8
REMARK VINA RESULT:      -4.9      3.582      7.363
REMARK SMILES [N-]=[N+]=Nc1cc(Cl)cc2c(CNO)c(OCCc3cn(C[C@H]([NH3+])C(=O)[O-])nn3)ccc12
REMARK SMILES IDX 16 1 15 2 14 3 10 4 9 5 29 6 8 7 31 8 30 9 6 10 4 11 5 12
REMARK SMILES IDX 7 13 11 14 12 15 13 17 3 19 2 20 1 21 17 22 18 23 28 24
REMARK SMILES IDX 19 25 27 26 20 27 21 28 22 29 24 30 25 31 26 32 23 33
REMARK H PARENT 12 16 13 18 23 34 23 35 23 36
ROOT
ATOM      1  C   UNL     1      45.289 130.854  19.174  1.00  0.00     0.236 C 
ENDROOT
BRANCH   1   2
ATOM      2  O   UNL     1      44.968 131.839  18.194  1.00  0.00    -0.493 OA
BRANCH   2   3
ATOM      3  C   UNL     1      43.668 132.268  17.875  1.00  0.00     0.124 A 
ATOM      4  C   UNL     1      43.496 133.292  16.915  1.00  0.00     0.018 A 
ATOM      5  C   UNL     1      42.184 133.758  16.612  1.00  0.00    -0.008 A 
ATOM      6  C   UNL     1      42.545 131.698  18.493  1.00  0.00     0.047 A 
ATOM      7  C   UNL     1      41.963 134.811  15.697  1.00  0.00     0.029 A 
ATOM      8  C   UNL     1      41.059 133.160  17.246  1.00  0.00    -0.008 A 
ATOM      9  C   UNL     1      41.262 132.131  18.179  1.00  0.00     0.013 A 
ATOM     10  C   UNL     1      40.671 135.247  15.405  1.00  0.00     0.042 A 
ATOM     11  C   UNL     1      39.749 133.606  16.943  1.00  0.00     0.047 A 
ATOM     12  C   UNL     1      39.572 134.650  16.018  1.00  0.00     0.031 A 
ATOM     13  Cl  UNL     1      40.427 136.556  14.262  1.00  0.00    -0.084 Cl
BRANCH   4  14
ATOM     14  C   UNL     1      44.724 133.896  16.256  1.00  0.00     0.151 C 
BRANCH  14  15
ATOM     15  N   UNL     1      45.510 132.847  15.607  1.00  0.00    -0.201 NA
ATOM     16  H   UNL     1      45.854 132.173  16.335  1.00  0.00     0.155 HD
BRANCH  15  17
ATOM     17  O   UNL     1      44.711 132.186  14.724  1.00  0.00    -0.316 OA
ATOM     18  H   UNL     1      44.453 132.836  14.016  1.00  0.00     0.238 HD
ENDBRANCH  15  17
ENDBRANCH  14  15
ENDBRANCH   4  14
BRANCH  11  19
ATOM     19  N   UNL     1      38.616 132.993  17.582  1.00  0.00    -0.060 NA
BRANCH  19  20
ATOM     20  N   UNL     1      37.965 133.559  18.462  1.00  0.00     0.005 N 
ATOM     21  N   UNL     1      37.314 134.121  19.341  1.00  0.00    -0.003 NA
ENDBRANCH  19  20
ENDBRANCH  11  19
ENDBRANCH   2   3
ENDBRANCH   1   2
BRANCH   1  22
ATOM     22  C   UNL     1      45.988 131.513  20.361  1.00  0.00     0.101 C 
BRANCH  22  23
ATOM     23  C   UNL     1      45.044 132.407  21.104  1.00  0.00     0.086 A 
ATOM     24  N   UNL     1      44.273 132.016  22.138  1.00  0.00    -0.135 NA
ATOM     25  C   UNL     1      44.913 133.770  20.952  1.00  0.00     0.135 A 
ATOM     26  N   UNL     1      43.673 133.104  22.599  1.00  0.00    -0.067 NA
ATOM     27  N   UNL     1      44.047 134.165  21.900  1.00  0.00    -0.246 N 
BRANCH  27  28
ATOM     28  C   UNL     1      43.622 135.535  22.181  1.00  0.00     0.217 C 
BRANCH  28  29
ATOM     29  C   UNL     1      42.090 135.699  22.074  1.00  0.00     0.249 C 
BRANCH  29  30
ATOM     30  C   UNL     1      41.570 135.136  20.776  1.00  0.00     0.101 C 
ATOM     31  O   UNL     1      41.965 135.591  19.670  1.00  0.00    -0.544 OA
ATOM     32  O   UNL     1      40.606 134.136  20.797  1.00  0.00    -0.544 OA
ENDBRANCH  29  30
BRANCH  29  33
ATOM     33  N   UNL     1      41.398 135.111  23.228  1.00  0.00    -0.349 N 
ATOM     34  H   UNL     1      40.832 134.287  22.916  1.00  0.00     0.345 HD
ATOM     35  H   UNL     1      40.747 135.814  23.648  1.00  0.00     0.345 HD
ATOM     36  H   UNL     1      42.078 134.794  23.956  1.00  0.00     0.345 HD
ENDBRANCH  29  33
ENDBRANCH  28  29
ENDBRANCH  27  28
ENDBRANCH  22  23
ENDBRANCH   1  22
TORSDOF 13
ENDMDL
MODEL 9
REMARK VINA RESULT:      -4.9      3.048      5.552
REMARK SMILES [N-]=[N+]=Nc1cc(Cl)cc2c(CNO)c(OCCc3cn(C[C@H]([NH3+])C(=O)[O-])nn3)ccc12
REMARK SMILES IDX 16 1 15 2 14 3 10 4 9 5 29 6 8 7 31 8 30 9 6 10 4 11 5 12
REMARK SMILES IDX 7 13 11 14 12 15 13 17 3 19 2 20 1 21 17 22 18 23 28 24
REMARK SMILES IDX 19 25 27 26 20 27 21 28 22 29 24 30 25 31 26 32 23 33
REMARK H PARENT 12 16 13 18 23 34 23 35 23 36
ROOT
ATOM      1  C   UNL     1      45.487 131.502  17.300  1.00  0.00     0.236 C 
ENDROOT
BRANCH   1   2
ATOM      2  O   UNL     1      44.827 131.109  18.502  1.00  0.00    -0.493 OA
BRANCH   2   3
ATOM      3  C   UNL     1      43.951 131.918  19.245  1.00  0.00     0.124 A 
ATOM      4  C   UNL     1      44.439 132.594  20.388  1.00  0.00     0.018 A 
ATOM      5  C   UNL     1      43.549 133.389  21.168  1.00  0.00    -0.008 A 
ATOM      6  C   UNL     1      42.607 132.064  18.871  1.00  0.00     0.047 A 
ATOM      7  C   UNL     1      43.975 134.044  22.344  1.00  0.00     0.029 A 
ATOM      8  C   UNL     1      42.191 133.528  20.765  1.00  0.00    -0.008 A 
ATOM      9  C   UNL     1      41.743 132.861  19.614  1.00  0.00     0.013 A 
ATOM     10  C   UNL     1      43.093 134.825  23.088  1.00  0.00     0.042 A 
ATOM     11  C   UNL     1      41.300 134.325  21.525  1.00  0.00     0.047 A 
ATOM     12  C   UNL     1      41.768 134.969  22.683  1.00  0.00     0.031 A 
ATOM     13  Cl  UNL     1      43.651 135.630  24.545  1.00  0.00    -0.084 Cl
BRANCH   4  14
ATOM     14  C   UNL     1      45.897 132.426  20.776  1.00  0.00     0.151 C 
BRANCH  14  15
ATOM     15  N   UNL     1      46.144 131.050  21.207  1.00  0.00    -0.201 NA
ATOM     16  H   UNL     1      47.175 130.854  21.162  1.00  0.00     0.155 HD
BRANCH  15  17
ATOM     17  O   UNL     1      45.715 130.913  22.492  1.00  0.00    -0.316 OA
ATOM     18  H   UNL     1      45.116 131.683  22.687  1.00  0.00     0.238 HD
ENDBRANCH  15  17
ENDBRANCH  14  15
ENDBRANCH   4  14
BRANCH  11  19
ATOM     19  N   UNL     1      39.931 134.467  21.109  1.00  0.00    -0.060 NA
BRANCH  19  20
ATOM     20  N   UNL     1      39.352 135.555  21.093  1.00  0.00     0.005 N 
ATOM     21  N   UNL     1      38.776 136.641  21.077  1.00  0.00    -0.003 NA
ENDBRANCH  19  20
ENDBRANCH  11  19
ENDBRANCH   2   3
ENDBRANCH   1   2
BRANCH   1  22
ATOM     22  C   UNL     1      44.602 131.184  16.096  1.00  0.00     0.101 C 
BRANCH  22  23
ATOM     23  C   UNL     1      43.909 132.417  15.606  1.00  0.00     0.086 A 
ATOM     24  N   UNL     1      44.444 133.654  15.625  1.00  0.00    -0.135 NA
ATOM     25  C   UNL     1      42.702 132.472  14.943  1.00  0.00     0.135 A 
ATOM     26  N   UNL     1      43.584 134.450  15.006  1.00  0.00    -0.067 NA
ATOM     27  N   UNL     1      42.535 133.758  14.590  1.00  0.00    -0.246 N 
BRANCH  27  28
ATOM     28  C   UNL     1      41.426 134.315  13.819  1.00  0.00     0.217 C 
BRANCH  28  29
ATOM     29  C   UNL     1      40.054 133.889  14.385  1.00  0.00     0.249 C 
BRANCH  29  30
ATOM     30  C   UNL     1      39.910 134.294  15.829  1.00  0.00     0.101 C 
ATOM     31  O   UNL     1      39.617 133.446  16.713  1.00  0.00    -0.544 OA
ATOM     32  O   UNL     1      40.052 135.629  16.187  1.00  0.00    -0.544 OA
ENDBRANCH  29  30
BRANCH  29  33
ATOM     33  N   UNL     1      38.945 134.403  13.571  1.00  0.00    -0.349 N 
ATOM     34  H   UNL     1      38.374 135.072  14.139  1.00  0.00     0.345 HD
ATOM     35  H   UNL     1      38.326 133.615  13.275  1.00  0.00     0.345 HD
ATOM     36  H   UNL     1      39.298 134.901  12.722  1.00  0.00     0.345 HD
ENDBRANCH  29  33
ENDBRANCH  28  29
ENDBRANCH  27  28
ENDBRANCH  22  23
ENDBRANCH   1  22
TORSDOF 13
ENDMDL


