REMARK SMILES C#C/C(C#N)=N\[C@H](c1c(C)[nH+]nn1-c1c2ccccc2c(C(=O)N=[N+]=[N-])c2ccccc12)C(C)C
REMARK SMILES IDX 8 1 9 2 10 3 11 4 12 6 13 7 7 8 6 9 3 10 2 11 1 12 4 13 5 14
REMARK SMILES IDX 33 15 34 16 35 17 14 18 15 19 32 20 16 21 20 22 31 23 27 24
REMARK SMILES IDX 17 25 19 26 21 27 30 28 28 29 18 30 29 31 22 32 23 33 24 34
REMARK SMILES IDX 25 35 26 36
REMARK H PARENT 11 5
ROOT
ATOM      1  C   UNL     1       0.350   0.218   2.002  1.00  0.00     0.201 A 
ATOM      2  C   UNL     1       0.127   0.355   3.373  1.00  0.00     0.167 A 
ATOM      3  C   UNL     1       1.110   0.459   4.499  1.00  0.00     0.100 C 
ATOM      4  N   UNL     1      -1.207   0.374   3.560  1.00  0.00    -0.147 N 
ATOM      5  H   UNL     1      -1.712   0.462   4.470  1.00  0.00     0.342 HD
ATOM      6  N   UNL     1      -1.796   0.284   2.381  1.00  0.00     0.094 NA
ATOM      7  N   UNL     1      -0.880   0.189   1.430  1.00  0.00    -0.095 N 
ENDROOT
BRANCH   1   8
ATOM      8  C   UNL     1       1.664   0.179   1.236  1.00  0.00     0.187 C 
BRANCH   8   9
ATOM      9  N   UNL     1       2.572   1.207   1.754  1.00  0.00    -0.254 NA
BRANCH   9  10
ATOM     10  C   UNL     1       3.535   1.783   1.095  1.00  0.00     0.186 C 
BRANCH  10  11
ATOM     11  C   UNL     1       3.804   1.488  -0.291  1.00  0.00    -0.039 C 
ATOM     12  C   UNL     1       4.024   1.240  -1.451  1.00  0.00     0.012 C 
ENDBRANCH  10  11
BRANCH  10  13
ATOM     13  C   UNL     1       4.339   2.770   1.758  1.00  0.00     0.129 C 
ATOM     14  N   UNL     1       4.987   3.565   2.293  1.00  0.00    -0.190 NA
ENDBRANCH  10  13
ENDBRANCH   9  10
ENDBRANCH   8   9
BRANCH   8  15
ATOM     15  C   UNL     1       2.348  -1.217   1.211  1.00  0.00     0.016 C 
ATOM     16  C   UNL     1       2.770  -1.724   2.596  1.00  0.00     0.010 C 
ATOM     17  C   UNL     1       1.477  -2.266   0.507  1.00  0.00     0.010 C 
ENDBRANCH   8  15
ENDBRANCH   1   8
BRANCH   7  18
ATOM     18  C   UNL     1      -1.202   0.141   0.027  1.00  0.00     0.171 A 
ATOM     19  C   UNL     1      -0.961   1.266  -0.794  1.00  0.00     0.032 A 
ATOM     20  C   UNL     1      -1.757  -1.032  -0.529  1.00  0.00     0.032 A 
ATOM     21  C   UNL     1      -0.484   2.474  -0.239  1.00  0.00     0.013 A 
ATOM     22  C   UNL     1      -1.192   1.190  -2.193  1.00  0.00    -0.002 A 
ATOM     23  C   UNL     1      -2.058  -2.145   0.287  1.00  0.00     0.013 A 
ATOM     24  C   UNL     1      -2.014  -1.107  -1.925  1.00  0.00    -0.002 A 
ATOM     25  C   UNL     1      -0.194   3.568  -1.052  1.00  0.00     0.001 A 
ATOM     26  C   UNL     1      -0.875   2.311  -2.997  1.00  0.00     0.009 A 
ATOM     27  C   UNL     1      -1.714  -0.001  -2.760  1.00  0.00     0.040 A 
ATOM     28  C   UNL     1      -2.605  -3.304  -0.259  1.00  0.00     0.001 A 
ATOM     29  C   UNL     1      -2.584  -2.292  -2.449  1.00  0.00     0.009 A 
ATOM     30  C   UNL     1      -0.381   3.484  -2.427  1.00  0.00     0.001 A 
ATOM     31  C   UNL     1      -2.870  -3.376  -1.621  1.00  0.00     0.001 A 
BRANCH  27  32
ATOM     32  C   UNL     1      -1.950  -0.088  -4.220  1.00  0.00     0.250 C 
ATOM     33  O   UNL     1      -2.850   0.619  -4.752  1.00  0.00    -0.287 OA
BRANCH  32  34
ATOM     34  N   UNL     1      -1.155  -0.971  -5.015  1.00  0.00    -0.017 NA
BRANCH  34  35
ATOM     35  N   UNL     1      -1.329  -1.067  -6.230  1.00  0.00     0.009 N 
ATOM     36  N   UNL     1      -1.503  -1.164  -7.444  1.00  0.00    -0.003 NA
ENDBRANCH  34  35
ENDBRANCH  32  34
ENDBRANCH  27  32
ENDBRANCH   7  18
TORSDOF 10


