MODEL 1
REMARK VINA RESULT:      -5.5      0.000      0.000
REMARK SMILES C[N+]1(C)Cc2cc3ccc(-n4cc(CCN5C[C@H](CN=[N+]=[N-])CN5C(=O)c5ccc(N)cc5)n[nH+]4)cc3cc2C1
REMARK SMILES IDX 24 1 16 2 17 3 18 4 23 5 25 6 26 7 27 8 28 9 29 10 30 11
REMARK SMILES IDX 33 12 32 13 31 14 15 17 14 18 13 19 34 20 12 21 35 22 11 23
REMARK SMILES IDX 10 25 9 26 36 27 8 28 37 29 7 30 38 31 6 32 39 33 5 34 40 35
REMARK SMILES IDX 4 36 2 37 1 38 3 39 19 40 20 41 21 42 22 43
REMARK H PARENT 31 15 31 16 35 24
ROOT
ATOM      1  N   UNL     1      42.048 137.988  20.389  1.00  0.00    -0.271 N 
ATOM      2  N   UNL     1      41.207 138.505  21.392  1.00  0.00    -0.218 NA
ATOM      3  C   UNL     1      39.834 138.163  20.960  1.00  0.00     0.114 C 
ATOM      4  C   UNL     1      39.908 137.598  19.533  1.00  0.00     0.032 C 
ATOM      5  C   UNL     1      41.374 137.263  19.333  1.00  0.00     0.145 C 
ENDROOT
BRANCH   1   6
ATOM      6  C   UNL     1      43.453 138.286  20.317  1.00  0.00     0.268 C 
ATOM      7  O   UNL     1      43.832 139.325  19.709  1.00  0.00    -0.268 OA
BRANCH   6   8
ATOM      8  C   UNL     1      44.465 137.419  20.960  1.00  0.00     0.041 A 
ATOM      9  C   UNL     1      44.922 136.250  20.327  1.00  0.00     0.016 A 
ATOM     10  C   UNL     1      45.825 135.401  20.974  1.00  0.00     0.026 A 
ATOM     11  C   UNL     1      46.288 135.709  22.260  1.00  0.00     0.031 A 
ATOM     12  C   UNL     1      44.949 137.734  22.244  1.00  0.00     0.016 A 
ATOM     13  C   UNL     1      45.857 136.886  22.886  1.00  0.00     0.026 A 
BRANCH  11  14
ATOM     14  N   UNL     1      47.172 134.816  22.943  1.00  0.00    -0.399 N 
ATOM     15  H   UNL     1      48.095 134.556  22.528  1.00  0.00     0.156 HD
ATOM     16  H   UNL     1      46.896 134.379  23.851  1.00  0.00     0.156 HD
ENDBRANCH  11  14
ENDBRANCH   6   8
ENDBRANCH   1   6
BRANCH   2  17
ATOM     17  C   UNL     1      41.554 137.859  22.678  1.00  0.00     0.115 C 
BRANCH  17  18
ATOM     18  C   UNL     1      40.530 136.783  23.060  1.00  0.00     0.082 C 
BRANCH  18  19
ATOM     19  C   UNL     1      41.019 135.411  22.706  1.00  0.00     0.134 A 
ATOM     20  N   UNL     1      40.553 134.270  23.249  1.00  0.00     0.020 NA
ATOM     21  C   UNL     1      42.005 135.098  21.796  1.00  0.00     0.190 A 
ATOM     22  N   UNL     1      41.231 133.288  22.675  1.00  0.00    -0.012 N 
ATOM     23  N   UNL     1      42.108 133.753  21.794  1.00  0.00    -0.104 N 
ATOM     24  H   UNL     1      41.061 132.279  22.883  1.00  0.00     0.527 HD
BRANCH  23  25
ATOM     25  C   UNL     1      42.988 132.948  20.981  1.00  0.00     0.107 A 
ATOM     26  C   UNL     1      43.755 131.920  21.561  1.00  0.00     0.033 A 
ATOM     27  C   UNL     1      43.095 133.181  19.596  1.00  0.00     0.041 A 
ATOM     28  C   UNL     1      44.618 131.144  20.781  1.00  0.00     0.011 A 
ATOM     29  C   UNL     1      43.958 132.410  18.805  1.00  0.00    -0.016 A 
ATOM     30  C   UNL     1      44.735 131.382  19.407  1.00  0.00    -0.018 A 
ATOM     31  C   UNL     1      44.059 132.645  17.419  1.00  0.00     0.019 A 
ATOM     32  C   UNL     1      45.612 130.614  18.617  1.00  0.00     0.018 A 
ATOM     33  C   UNL     1      44.927 131.850  16.669  1.00  0.00     0.016 A 
ATOM     34  C   UNL     1      45.680 130.873  17.247  1.00  0.00     0.016 A 
ATOM     35  C   UNL     1      45.202 131.924  15.217  1.00  0.00     0.301 C 
ATOM     36  C   UNL     1      46.529 130.207  16.234  1.00  0.00     0.301 C 
ATOM     37  N   UNL     1      46.073 130.744  14.913  1.00  0.00    -0.321 N 
ATOM     38  C   UNL     1      45.294 129.711  14.190  1.00  0.00     0.334 C 
ATOM     39  C   UNL     1      47.230 131.148  14.081  1.00  0.00     0.334 C 
ENDBRANCH  23  25
ENDBRANCH  18  19
ENDBRANCH  17  18
ENDBRANCH   2  17
BRANCH   4  40
ATOM     40  C   UNL     1      38.996 136.376  19.314  1.00  0.00     0.097 C 
BRANCH  40  41
ATOM     41  N   UNL     1      38.480 136.347  17.950  1.00  0.00    -0.094 NA
BRANCH  41  42
ATOM     42  N   UNL     1      38.307 135.280  17.358  1.00  0.00     0.001 N 
ATOM     43  N   UNL     1      38.137 134.214  16.769  1.00  0.00    -0.003 NA
ENDBRANCH  41  42
ENDBRANCH  40  41
ENDBRANCH   4  40
TORSDOF 10
ENDMDL
MODEL 2
REMARK VINA RESULT:      -4.6      3.997      6.055
REMARK SMILES C[N+]1(C)Cc2cc3ccc(-n4cc(CCN5C[C@H](CN=[N+]=[N-])CN5C(=O)c5ccc(N)cc5)n[nH+]4)cc3cc2C1
REMARK SMILES IDX 24 1 16 2 17 3 18 4 23 5 25 6 26 7 27 8 28 9 29 10 30 11
REMARK SMILES IDX 33 12 32 13 31 14 15 17 14 18 13 19 34 20 12 21 35 22 11 23
REMARK SMILES IDX 10 25 9 26 36 27 8 28 37 29 7 30 38 31 6 32 39 33 5 34 40 35
REMARK SMILES IDX 4 36 2 37 1 38 3 39 19 40 20 41 21 42 22 43
REMARK H PARENT 31 15 31 16 35 24
ROOT
ATOM      1  N   UNL     1      38.931 136.863  14.665  1.00  0.00    -0.271 N 
ATOM      2  N   UNL     1      39.720 138.014  14.846  1.00  0.00    -0.218 NA
ATOM      3  C   UNL     1      39.631 138.749  13.566  1.00  0.00     0.114 C 
ATOM      4  C   UNL     1      38.911 137.852  12.547  1.00  0.00     0.032 C 
ATOM      5  C   UNL     1      38.254 136.774  13.389  1.00  0.00     0.145 C 
ENDROOT
BRANCH   1   6
ATOM      6  C   UNL     1      38.916 135.771  15.601  1.00  0.00     0.268 C 
ATOM      7  O   UNL     1      38.074 135.776  16.542  1.00  0.00    -0.268 OA
BRANCH   6   8
ATOM      8  C   UNL     1      39.848 134.628  15.476  1.00  0.00     0.041 A 
ATOM      9  C   UNL     1      40.058 133.746  16.550  1.00  0.00     0.016 A 
ATOM     10  C   UNL     1      40.993 132.711  16.444  1.00  0.00     0.026 A 
ATOM     11  C   UNL     1      41.729 132.541  15.264  1.00  0.00     0.031 A 
ATOM     12  C   UNL     1      40.575 134.440  14.285  1.00  0.00     0.016 A 
ATOM     13  C   UNL     1      41.505 133.402  14.181  1.00  0.00     0.026 A 
BRANCH  11  14
ATOM     14  N   UNL     1      42.721 131.516  15.173  1.00  0.00    -0.399 N 
ATOM     15  H   UNL     1      42.704 130.696  15.821  1.00  0.00     0.156 HD
ATOM     16  H   UNL     1      43.501 131.585  14.481  1.00  0.00     0.156 HD
ENDBRANCH  11  14
ENDBRANCH   6   8
ENDBRANCH   1   6
BRANCH   2  17
ATOM     17  C   UNL     1      39.160 138.798  15.969  1.00  0.00     0.115 C 
BRANCH  17  18
ATOM     18  C   UNL     1      40.253 139.580  16.709  1.00  0.00     0.082 C 
BRANCH  18  19
ATOM     19  C   UNL     1      41.216 138.660  17.395  1.00  0.00     0.134 A 
ATOM     20  N   UNL     1      41.867 138.949  18.539  1.00  0.00     0.020 NA
ATOM     21  C   UNL     1      41.590 137.401  16.979  1.00  0.00     0.190 A 
ATOM     22  N   UNL     1      42.610 137.889  18.814  1.00  0.00    -0.012 N 
ATOM     23  N   UNL     1      42.463 136.940  17.898  1.00  0.00    -0.104 N 
ATOM     24  H   UNL     1      43.208 137.817  19.667  1.00  0.00     0.527 HD
BRANCH  23  25
ATOM     25  C   UNL     1      43.112 135.651  17.913  1.00  0.00     0.107 A 
ATOM     26  C   UNL     1      43.144 134.881  19.092  1.00  0.00     0.033 A 
ATOM     27  C   UNL     1      43.726 135.146  16.752  1.00  0.00     0.041 A 
ATOM     28  C   UNL     1      43.783 133.637  19.117  1.00  0.00     0.011 A 
ATOM     29  C   UNL     1      44.370 133.900  16.765  1.00  0.00    -0.016 A 
ATOM     30  C   UNL     1      44.404 133.139  17.966  1.00  0.00    -0.018 A 
ATOM     31  C   UNL     1      44.980 133.397  15.599  1.00  0.00     0.019 A 
ATOM     32  C   UNL     1      45.060 131.892  17.986  1.00  0.00     0.018 A 
ATOM     33  C   UNL     1      45.606 132.151  15.656  1.00  0.00     0.016 A 
ATOM     34  C   UNL     1      45.648 131.427  16.809  1.00  0.00     0.016 A 
ATOM     35  C   UNL     1      46.314 131.438  14.570  1.00  0.00     0.301 C 
ATOM     36  C   UNL     1      46.392 130.164  16.600  1.00  0.00     0.301 C 
ATOM     37  N   UNL     1      46.640 130.085  15.125  1.00  0.00    -0.321 N 
ATOM     38  C   UNL     1      45.755 129.062  14.520  1.00  0.00     0.334 C 
ATOM     39  C   UNL     1      48.050 129.731  14.846  1.00  0.00     0.334 C 
ENDBRANCH  23  25
ENDBRANCH  18  19
ENDBRANCH  17  18
ENDBRANCH   2  17
BRANCH   4  40
ATOM     40  C   UNL     1      37.893 138.613  11.677  1.00  0.00     0.097 C 
BRANCH  40  41
ATOM     41  N   UNL     1      36.780 137.749  11.297  1.00  0.00    -0.094 NA
BRANCH  41  42
ATOM     42  N   UNL     1      36.740 137.215  10.188  1.00  0.00     0.001 N 
ATOM     43  N   UNL     1      36.701 136.684   9.079  1.00  0.00    -0.003 NA
ENDBRANCH  41  42
ENDBRANCH  40  41
ENDBRANCH   4  40
TORSDOF 10
ENDMDL
MODEL 3
REMARK VINA RESULT:      -4.4      4.190      7.988
REMARK SMILES C[N+]1(C)Cc2cc3ccc(-n4cc(CCN5C[C@H](CN=[N+]=[N-])CN5C(=O)c5ccc(N)cc5)n[nH+]4)cc3cc2C1
REMARK SMILES IDX 24 1 16 2 17 3 18 4 23 5 25 6 26 7 27 8 28 9 29 10 30 11
REMARK SMILES IDX 33 12 32 13 31 14 15 17 14 18 13 19 34 20 12 21 35 22 11 23
REMARK SMILES IDX 10 25 9 26 36 27 8 28 37 29 7 30 38 31 6 32 39 33 5 34 40 35
REMARK SMILES IDX 4 36 2 37 1 38 3 39 19 40 20 41 21 42 22 43
REMARK H PARENT 31 15 31 16 35 24
ROOT
ATOM      1  N   UNL     1      45.278 132.889  21.822  1.00  0.00    -0.271 N 
ATOM      2  N   UNL     1      45.699 131.739  21.129  1.00  0.00    -0.218 NA
ATOM      3  C   UNL     1      45.828 130.689  22.163  1.00  0.00     0.114 C 
ATOM      4  C   UNL     1      45.662 131.350  23.540  1.00  0.00     0.032 C 
ATOM      5  C   UNL     1      45.046 132.704  23.239  1.00  0.00     0.145 C 
ENDROOT
BRANCH   1   6
ATOM      6  C   UNL     1      45.233 134.193  21.218  1.00  0.00     0.268 C 
ATOM      7  O   UNL     1      46.300 134.858  21.107  1.00  0.00    -0.268 OA
BRANCH   6   8
ATOM      8  C   UNL     1      43.970 134.766  20.700  1.00  0.00     0.041 A 
ATOM      9  C   UNL     1      42.759 134.587  21.390  1.00  0.00     0.016 A 
ATOM     10  C   UNL     1      41.561 135.072  20.854  1.00  0.00     0.026 A 
ATOM     11  C   UNL     1      41.557 135.746  19.626  1.00  0.00     0.031 A 
ATOM     12  C   UNL     1      43.964 135.461  19.476  1.00  0.00     0.016 A 
ATOM     13  C   UNL     1      42.765 135.950  18.947  1.00  0.00     0.026 A 
BRANCH  11  14
ATOM     14  N   UNL     1      40.327 136.198  19.055  1.00  0.00    -0.399 N 
ATOM     15  H   UNL     1      40.304 136.622  18.100  1.00  0.00     0.156 HD
ATOM     16  H   UNL     1      39.434 136.145  19.595  1.00  0.00     0.156 HD
ENDBRANCH  11  14
ENDBRANCH   6   8
ENDBRANCH   1   6
BRANCH   2  17
ATOM     17  C   UNL     1      44.670 131.392  20.123  1.00  0.00     0.115 C 
BRANCH  17  18
ATOM     18  C   UNL     1      45.269 131.308  18.713  1.00  0.00     0.082 C 
BRANCH  18  19
ATOM     19  C   UNL     1      44.496 132.140  17.737  1.00  0.00     0.134 A 
ATOM     20  N   UNL     1      45.041 132.810  16.703  1.00  0.00     0.020 NA
ATOM     21  C   UNL     1      43.136 132.359  17.738  1.00  0.00     0.190 A 
ATOM     22  N   UNL     1      44.035 133.412  16.086  1.00  0.00    -0.012 N 
ATOM     23  N   UNL     1      42.877 133.156  16.682  1.00  0.00    -0.104 N 
ATOM     24  H   UNL     1      44.158 133.987  15.224  1.00  0.00     0.527 HD
BRANCH  23  25
ATOM     25  C   UNL     1      41.587 133.639  16.249  1.00  0.00     0.107 A 
ATOM     26  C   UNL     1      40.414 133.237  16.916  1.00  0.00     0.033 A 
ATOM     27  C   UNL     1      41.483 134.517  15.154  1.00  0.00     0.041 A 
ATOM     28  C   UNL     1      39.160 133.691  16.495  1.00  0.00     0.011 A 
ATOM     29  C   UNL     1      40.231 134.978  14.722  1.00  0.00    -0.016 A 
ATOM     30  C   UNL     1      39.053 134.553  15.398  1.00  0.00    -0.018 A 
ATOM     31  C   UNL     1      40.132 135.858  13.627  1.00  0.00     0.019 A 
ATOM     32  C   UNL     1      37.794 135.006  14.959  1.00  0.00     0.018 A 
ATOM     33  C   UNL     1      38.866 136.297  13.234  1.00  0.00     0.016 A 
ATOM     34  C   UNL     1      37.738 135.881  13.874  1.00  0.00     0.016 A 
ATOM     35  C   UNL     1      38.524 137.204  12.116  1.00  0.00     0.301 C 
ATOM     36  C   UNL     1      36.537 136.471  13.240  1.00  0.00     0.301 C 
ATOM     37  N   UNL     1      37.055 137.468  12.250  1.00  0.00    -0.321 N 
ATOM     38  C   UNL     1      36.831 138.843  12.756  1.00  0.00     0.334 C 
ATOM     39  C   UNL     1      36.375 137.316  10.944  1.00  0.00     0.334 C 
ENDBRANCH  23  25
ENDBRANCH  18  19
ENDBRANCH  17  18
ENDBRANCH   2  17
BRANCH   4  40
ATOM     40  C   UNL     1      44.803 130.522  24.513  1.00  0.00     0.097 C 
BRANCH  40  41
ATOM     41  N   UNL     1      44.197 129.382  23.834  1.00  0.00    -0.094 NA
BRANCH  41  42
ATOM     42  N   UNL     1      43.137 128.894  24.231  1.00  0.00     0.001 N 
ATOM     43  N   UNL     1      42.078 128.410  24.625  1.00  0.00    -0.003 NA
ENDBRANCH  41  42
ENDBRANCH  40  41
ENDBRANCH   4  40
TORSDOF 10
ENDMDL
MODEL 4
REMARK VINA RESULT:      -4.4      3.129      5.398
REMARK SMILES C[N+]1(C)Cc2cc3ccc(-n4cc(CCN5C[C@H](CN=[N+]=[N-])CN5C(=O)c5ccc(N)cc5)n[nH+]4)cc3cc2C1
REMARK SMILES IDX 24 1 16 2 17 3 18 4 23 5 25 6 26 7 27 8 28 9 29 10 30 11
REMARK SMILES IDX 33 12 32 13 31 14 15 17 14 18 13 19 34 20 12 21 35 22 11 23
REMARK SMILES IDX 10 25 9 26 36 27 8 28 37 29 7 30 38 31 6 32 39 33 5 34 40 35
REMARK SMILES IDX 4 36 2 37 1 38 3 39 19 40 20 41 21 42 22 43
REMARK H PARENT 31 15 31 16 35 24
ROOT
ATOM      1  N   UNL     1      38.683 136.968  19.715  1.00  0.00    -0.271 N 
ATOM      2  N   UNL     1      38.539 138.339  19.437  1.00  0.00    -0.218 NA
ATOM      3  C   UNL     1      37.995 138.931  20.679  1.00  0.00     0.114 C 
ATOM      4  C   UNL     1      37.627 137.785  21.635  1.00  0.00     0.032 C 
ATOM      5  C   UNL     1      38.342 136.573  21.066  1.00  0.00     0.145 C 
ENDROOT
BRANCH   1   6
ATOM      6  C   UNL     1      38.987 135.993  18.703  1.00  0.00     0.268 C 
ATOM      7  O   UNL     1      38.308 135.976  17.639  1.00  0.00    -0.268 OA
BRANCH   6   8
ATOM      8  C   UNL     1      40.094 135.022  18.866  1.00  0.00     0.041 A 
ATOM      9  C   UNL     1      40.063 133.777  18.216  1.00  0.00     0.016 A 
ATOM     10  C   UNL     1      41.079 132.840  18.433  1.00  0.00     0.026 A 
ATOM     11  C   UNL     1      42.140 133.136  19.299  1.00  0.00     0.031 A 
ATOM     12  C   UNL     1      41.172 135.323  19.719  1.00  0.00     0.016 A 
ATOM     13  C   UNL     1      42.189 134.387  19.930  1.00  0.00     0.026 A 
BRANCH  11  14
ATOM     14  N   UNL     1      43.152 132.161  19.561  1.00  0.00    -0.399 N 
ATOM     15  H   UNL     1      42.948 131.140  19.467  1.00  0.00     0.156 HD
ATOM     16  H   UNL     1      44.103 132.449  19.886  1.00  0.00     0.156 HD
ENDBRANCH  11  14
ENDBRANCH   6   8
ENDBRANCH   1   6
BRANCH   2  17
ATOM     17  C   UNL     1      39.869 138.895  19.103  1.00  0.00     0.115 C 
BRANCH  17  18
ATOM     18  C   UNL     1      39.878 139.533  17.708  1.00  0.00     0.082 C 
BRANCH  18  19
ATOM     19  C   UNL     1      40.056 138.504  16.634  1.00  0.00     0.134 A 
ATOM     20  N   UNL     1      39.535 138.592  15.395  1.00  0.00     0.020 NA
ATOM     21  C   UNL     1      40.759 137.323  16.736  1.00  0.00     0.190 A 
ATOM     22  N   UNL     1      39.921 137.498  14.757  1.00  0.00    -0.012 N 
ATOM     23  N   UNL     1      40.661 136.718  15.534  1.00  0.00    -0.104 N 
ATOM     24  H   UNL     1      39.685 137.308  13.758  1.00  0.00     0.527 HD
BRANCH  23  25
ATOM     25  C   UNL     1      41.257 135.464  15.139  1.00  0.00     0.107 A 
ATOM     26  C   UNL     1      40.551 134.565  14.316  1.00  0.00     0.033 A 
ATOM     27  C   UNL     1      42.551 135.119  15.573  1.00  0.00     0.041 A 
ATOM     28  C   UNL     1      41.118 133.343  13.940  1.00  0.00     0.011 A 
ATOM     29  C   UNL     1      43.129 133.896  15.202  1.00  0.00    -0.016 A 
ATOM     30  C   UNL     1      42.399 132.994  14.380  1.00  0.00    -0.018 A 
ATOM     31  C   UNL     1      44.426 133.557  15.636  1.00  0.00     0.019 A 
ATOM     32  C   UNL     1      42.972 131.760  14.016  1.00  0.00     0.018 A 
ATOM     33  C   UNL     1      44.964 132.332  15.240  1.00  0.00     0.016 A 
ATOM     34  C   UNL     1      44.261 131.463  14.461  1.00  0.00     0.016 A 
ATOM     35  C   UNL     1      46.288 131.767  15.581  1.00  0.00     0.301 C 
ATOM     36  C   UNL     1      45.050 130.235  14.215  1.00  0.00     0.301 C 
ATOM     37  N   UNL     1      46.415 130.519  14.762  1.00  0.00    -0.321 N 
ATOM     38  C   UNL     1      47.369 130.738  13.649  1.00  0.00     0.334 C 
ATOM     39  C   UNL     1      46.893 129.392  15.595  1.00  0.00     0.334 C 
ENDBRANCH  23  25
ENDBRANCH  18  19
ENDBRANCH  17  18
ENDBRANCH   2  17
BRANCH   4  40
ATOM     40  C   UNL     1      38.023 138.062  23.097  1.00  0.00     0.097 C 
BRANCH  40  41
ATOM     41  N   UNL     1      39.356 137.543  23.385  1.00  0.00    -0.094 NA
BRANCH  41  42
ATOM     42  N   UNL     1      40.366 138.175  23.072  1.00  0.00     0.001 N 
ATOM     43  N   UNL     1      41.373 138.808  22.761  1.00  0.00    -0.003 NA
ENDBRANCH  41  42
ENDBRANCH  40  41
ENDBRANCH   4  40
TORSDOF 10
ENDMDL
MODEL 5
REMARK VINA RESULT:      -4.3      2.341      4.159
REMARK SMILES C[N+]1(C)Cc2cc3ccc(-n4cc(CCN5C[C@H](CN=[N+]=[N-])CN5C(=O)c5ccc(N)cc5)n[nH+]4)cc3cc2C1
REMARK SMILES IDX 24 1 16 2 17 3 18 4 23 5 25 6 26 7 27 8 28 9 29 10 30 11
REMARK SMILES IDX 33 12 32 13 31 14 15 17 14 18 13 19 34 20 12 21 35 22 11 23
REMARK SMILES IDX 10 25 9 26 36 27 8 28 37 29 7 30 38 31 6 32 39 33 5 34 40 35
REMARK SMILES IDX 4 36 2 37 1 38 3 39 19 40 20 41 21 42 22 43
REMARK H PARENT 31 15 31 16 35 24
ROOT
ATOM      1  N   UNL     1      42.939 136.445  21.790  1.00  0.00    -0.271 N 
ATOM      2  N   UNL     1      42.498 137.767  21.592  1.00  0.00    -0.218 NA
ATOM      3  C   UNL     1      43.188 138.226  20.367  1.00  0.00     0.114 C 
ATOM      4  C   UNL     1      44.227 137.163  19.976  1.00  0.00     0.032 C 
ATOM      5  C   UNL     1      43.828 135.933  20.769  1.00  0.00     0.145 C 
ENDROOT
BRANCH   1   6
ATOM      6  C   UNL     1      42.668 135.703  22.992  1.00  0.00     0.268 C 
ATOM      7  O   UNL     1      42.226 136.311  24.006  1.00  0.00    -0.268 OA
BRANCH   6   8
ATOM      8  C   UNL     1      42.871 134.238  23.063  1.00  0.00     0.041 A 
ATOM      9  C   UNL     1      44.073 133.654  22.628  1.00  0.00     0.016 A 
ATOM     10  C   UNL     1      44.227 132.264  22.634  1.00  0.00     0.026 A 
ATOM     11  C   UNL     1      43.184 131.439  23.077  1.00  0.00     0.031 A 
ATOM     12  C   UNL     1      41.834 133.407  23.525  1.00  0.00     0.016 A 
ATOM     13  C   UNL     1      41.993 132.017  23.535  1.00  0.00     0.026 A 
BRANCH  11  14
ATOM     14  N   UNL     1      43.322 130.016  23.035  1.00  0.00    -0.399 N 
ATOM     15  H   UNL     1      43.965 129.561  22.349  1.00  0.00     0.156 HD
ATOM     16  H   UNL     1      42.756 129.405  23.665  1.00  0.00     0.156 HD
ENDBRANCH  11  14
ENDBRANCH   6   8
ENDBRANCH   1   6
BRANCH   2  17
ATOM     17  C   UNL     1      41.028 137.752  21.419  1.00  0.00     0.115 C 
BRANCH  17  18
ATOM     18  C   UNL     1      40.491 136.320  21.302  1.00  0.00     0.082 C 
BRANCH  18  19
ATOM     19  C   UNL     1      40.476 135.854  19.878  1.00  0.00     0.134 A 
ATOM     20  N   UNL     1      39.572 136.240  18.956  1.00  0.00     0.020 NA
ATOM     21  C   UNL     1      41.357 134.972  19.291  1.00  0.00     0.190 A 
ATOM     22  N   UNL     1      39.902 135.616  17.836  1.00  0.00    -0.012 N 
ATOM     23  N   UNL     1      40.974 134.850  18.004  1.00  0.00    -0.104 N 
ATOM     24  H   UNL     1      39.388 135.747  16.937  1.00  0.00     0.527 HD
BRANCH  23  25
ATOM     25  C   UNL     1      41.605 134.055  16.978  1.00  0.00     0.107 A 
ATOM     26  C   UNL     1      40.911 133.730  15.797  1.00  0.00     0.033 A 
ATOM     27  C   UNL     1      42.924 133.591  17.143  1.00  0.00     0.041 A 
ATOM     28  C   UNL     1      41.512 132.950  14.805  1.00  0.00     0.011 A 
ATOM     29  C   UNL     1      43.537 132.808  16.156  1.00  0.00    -0.016 A 
ATOM     30  C   UNL     1      42.819 132.477  14.973  1.00  0.00    -0.018 A 
ATOM     31  C   UNL     1      44.859 132.349  16.324  1.00  0.00     0.019 A 
ATOM     32  C   UNL     1      43.428 131.681  13.984  1.00  0.00     0.018 A 
ATOM     33  C   UNL     1      45.432 131.576  15.313  1.00  0.00     0.016 A 
ATOM     34  C   UNL     1      44.740 131.250  14.186  1.00  0.00     0.016 A 
ATOM     35  C   UNL     1      46.786 130.981  15.280  1.00  0.00     0.301 C 
ATOM     36  C   UNL     1      45.568 130.404  13.297  1.00  0.00     0.301 C 
ATOM     37  N   UNL     1      46.936 130.403  13.906  1.00  0.00    -0.321 N 
ATOM     38  C   UNL     1      47.848 131.248  13.097  1.00  0.00     0.334 C 
ATOM     39  C   UNL     1      47.482 129.029  13.973  1.00  0.00     0.334 C 
ENDBRANCH  23  25
ENDBRANCH  18  19
ENDBRANCH  17  18
ENDBRANCH   2  17
BRANCH   4  40
ATOM     40  C   UNL     1      44.278 136.889  18.461  1.00  0.00     0.097 C 
BRANCH  40  41
ATOM     41  N   UNL     1      43.273 137.677  17.754  1.00  0.00    -0.094 NA
BRANCH  41  42
ATOM     42  N   UNL     1      42.840 137.319  16.658  1.00  0.00     0.001 N 
ATOM     43  N   UNL     1      42.404 136.960  15.566  1.00  0.00    -0.003 NA
ENDBRANCH  41  42
ENDBRANCH  40  41
ENDBRANCH   4  40
TORSDOF 10
ENDMDL
MODEL 6
REMARK VINA RESULT:      -4.2      1.955      2.825
REMARK SMILES C[N+]1(C)Cc2cc3ccc(-n4cc(CCN5C[C@H](CN=[N+]=[N-])CN5C(=O)c5ccc(N)cc5)n[nH+]4)cc3cc2C1
REMARK SMILES IDX 24 1 16 2 17 3 18 4 23 5 25 6 26 7 27 8 28 9 29 10 30 11
REMARK SMILES IDX 33 12 32 13 31 14 15 17 14 18 13 19 34 20 12 21 35 22 11 23
REMARK SMILES IDX 10 25 9 26 36 27 8 28 37 29 7 30 38 31 6 32 39 33 5 34 40 35
REMARK SMILES IDX 4 36 2 37 1 38 3 39 19 40 20 41 21 42 22 43
REMARK H PARENT 31 15 31 16 35 24
ROOT
ATOM      1  N   UNL     1      41.135 137.765  18.901  1.00  0.00    -0.271 N 
ATOM      2  N   UNL     1      39.789 138.053  19.189  1.00  0.00    -0.218 NA
ATOM      3  C   UNL     1      39.066 137.840  17.916  1.00  0.00     0.114 C 
ATOM      4  C   UNL     1      40.106 137.613  16.807  1.00  0.00     0.032 C 
ATOM      5  C   UNL     1      41.393 137.309  17.551  1.00  0.00     0.145 C 
ENDROOT
BRANCH   1   6
ATOM      6  C   UNL     1      42.209 138.049  19.815  1.00  0.00     0.268 C 
ATOM      7  O   UNL     1      42.499 139.251  20.069  1.00  0.00    -0.268 OA
BRANCH   6   8
ATOM      8  C   UNL     1      42.966 136.968  20.484  1.00  0.00     0.041 A 
ATOM      9  C   UNL     1      42.609 136.525  21.769  1.00  0.00     0.016 A 
ATOM     10  C   UNL     1      43.375 135.552  22.421  1.00  0.00     0.026 A 
ATOM     11  C   UNL     1      44.505 135.007  21.797  1.00  0.00     0.031 A 
ATOM     12  C   UNL     1      44.090 136.403  19.853  1.00  0.00     0.016 A 
ATOM     13  C   UNL     1      44.850 135.427  20.505  1.00  0.00     0.026 A 
BRANCH  11  14
ATOM     14  N   UNL     1      45.317 134.050  22.482  1.00  0.00    -0.399 N 
ATOM     15  H   UNL     1      45.049 133.041  22.505  1.00  0.00     0.156 HD
ATOM     16  H   UNL     1      46.173 134.348  23.001  1.00  0.00     0.156 HD
ENDBRANCH  11  14
ENDBRANCH   6   8
ENDBRANCH   1   6
BRANCH   2  17
ATOM     17  C   UNL     1      39.324 137.127  20.245  1.00  0.00     0.115 C 
BRANCH  17  18
ATOM     18  C   UNL     1      38.338 136.091  19.689  1.00  0.00     0.082 C 
BRANCH  18  19
ATOM     19  C   UNL     1      39.052 134.907  19.112  1.00  0.00     0.134 A 
ATOM     20  N   UNL     1      38.447 133.876  18.493  1.00  0.00     0.020 NA
ATOM     21  C   UNL     1      40.411 134.681  19.124  1.00  0.00     0.190 A 
ATOM     22  N   UNL     1      39.414 133.049  18.129  1.00  0.00    -0.012 N 
ATOM     23  N   UNL     1      40.606 133.506  18.490  1.00  0.00    -0.104 N 
ATOM     24  H   UNL     1      39.240 132.166  17.599  1.00  0.00     0.527 HD
BRANCH  23  25
ATOM     25  C   UNL     1      41.869 132.858  18.225  1.00  0.00     0.107 A 
ATOM     26  C   UNL     1      42.673 132.401  19.287  1.00  0.00     0.033 A 
ATOM     27  C   UNL     1      42.316 132.676  16.903  1.00  0.00     0.041 A 
ATOM     28  C   UNL     1      43.903 131.784  19.038  1.00  0.00     0.011 A 
ATOM     29  C   UNL     1      43.547 132.059  16.642  1.00  0.00    -0.016 A 
ATOM     30  C   UNL     1      44.355 131.613  17.725  1.00  0.00    -0.018 A 
ATOM     31  C   UNL     1      43.990 131.876  15.316  1.00  0.00     0.019 A 
ATOM     32  C   UNL     1      45.598 131.003  17.466  1.00  0.00     0.018 A 
ATOM     33  C   UNL     1      45.220 131.253  15.102  1.00  0.00     0.016 A 
ATOM     34  C   UNL     1      45.998 130.836  16.140  1.00  0.00     0.016 A 
ATOM     35  C   UNL     1      45.883 130.969  13.810  1.00  0.00     0.301 C 
ATOM     36  C   UNL     1      47.255 130.237  15.635  1.00  0.00     0.301 C 
ATOM     37  N   UNL     1      47.086 130.144  14.150  1.00  0.00    -0.321 N 
ATOM     38  C   UNL     1      46.861 128.732  13.757  1.00  0.00     0.334 C 
ATOM     39  C   UNL     1      48.286 130.655  13.451  1.00  0.00     0.334 C 
ENDBRANCH  23  25
ENDBRANCH  18  19
ENDBRANCH  17  18
ENDBRANCH   2  17
BRANCH   4  40
ATOM     40  C   UNL     1      39.717 136.488  15.830  1.00  0.00     0.097 C 
BRANCH  40  41
ATOM     41  N   UNL     1      39.230 137.036  14.569  1.00  0.00    -0.094 NA
BRANCH  41  42
ATOM     42  N   UNL     1      38.257 137.791  14.537  1.00  0.00     0.001 N 
ATOM     43  N   UNL     1      37.287 138.546  14.503  1.00  0.00    -0.003 NA
ENDBRANCH  41  42
ENDBRANCH  40  41
ENDBRANCH   4  40
TORSDOF 10
ENDMDL
MODEL 7
REMARK VINA RESULT:      -4.0      3.815      6.563
REMARK SMILES C[N+]1(C)Cc2cc3ccc(-n4cc(CCN5C[C@H](CN=[N+]=[N-])CN5C(=O)c5ccc(N)cc5)n[nH+]4)cc3cc2C1
REMARK SMILES IDX 24 1 16 2 17 3 18 4 23 5 25 6 26 7 27 8 28 9 29 10 30 11
REMARK SMILES IDX 33 12 32 13 31 14 15 17 14 18 13 19 34 20 12 21 35 22 11 23
REMARK SMILES IDX 10 25 9 26 36 27 8 28 37 29 7 30 38 31 6 32 39 33 5 34 40 35
REMARK SMILES IDX 4 36 2 37 1 38 3 39 19 40 20 41 21 42 22 43
REMARK H PARENT 31 15 31 16 35 24
ROOT
ATOM      1  N   UNL     1      38.798 137.401  15.718  1.00  0.00    -0.271 N 
ATOM      2  N   UNL     1      37.767 136.847  14.937  1.00  0.00    -0.218 NA
ATOM      3  C   UNL     1      37.571 137.800  13.823  1.00  0.00     0.114 C 
ATOM      4  C   UNL     1      38.406 139.057  14.115  1.00  0.00     0.032 C 
ATOM      5  C   UNL     1      39.373 138.625  15.202  1.00  0.00     0.145 C 
ENDROOT
BRANCH   1   6
ATOM      6  C   UNL     1      39.155 136.892  17.015  1.00  0.00     0.268 C 
ATOM      7  O   UNL     1      38.610 135.833  17.434  1.00  0.00    -0.268 OA
BRANCH   6   8
ATOM      8  C   UNL     1      40.165 137.565  17.863  1.00  0.00     0.041 A 
ATOM      9  C   UNL     1      39.834 138.709  18.610  1.00  0.00     0.016 A 
ATOM     10  C   UNL     1      40.813 139.378  19.351  1.00  0.00     0.026 A 
ATOM     11  C   UNL     1      42.135 138.912  19.360  1.00  0.00     0.031 A 
ATOM     12  C   UNL     1      41.489 137.090  17.891  1.00  0.00     0.016 A 
ATOM     13  C   UNL     1      42.464 137.758  18.638  1.00  0.00     0.026 A 
BRANCH  11  14
ATOM     14  N   UNL     1      43.146 139.624  20.077  1.00  0.00    -0.399 N 
ATOM     15  H   UNL     1      43.943 139.117  20.523  1.00  0.00     0.156 HD
ATOM     16  H   UNL     1      43.088 140.660  20.198  1.00  0.00     0.156 HD
ENDBRANCH  11  14
ENDBRANCH   6   8
ENDBRANCH   1   6
BRANCH   2  17
ATOM     17  C   UNL     1      38.205 135.520  14.452  1.00  0.00     0.115 C 
BRANCH  17  18
ATOM     18  C   UNL     1      39.613 135.579  13.846  1.00  0.00     0.082 C 
BRANCH  18  19
ATOM     19  C   UNL     1      40.498 134.509  14.408  1.00  0.00     0.134 A 
ATOM     20  N   UNL     1      40.778 133.345  13.790  1.00  0.00     0.020 NA
ATOM     21  C   UNL     1      41.150 134.534  15.622  1.00  0.00     0.190 A 
ATOM     22  N   UNL     1      41.588 132.685  14.603  1.00  0.00    -0.012 N 
ATOM     23  N   UNL     1      41.834 133.375  15.710  1.00  0.00    -0.104 N 
ATOM     24  H   UNL     1      41.994 131.752  14.370  1.00  0.00     0.527 HD
BRANCH  23  25
ATOM     25  C   UNL     1      42.694 132.951  16.789  1.00  0.00     0.107 A 
ATOM     26  C   UNL     1      44.093 132.954  16.631  1.00  0.00     0.033 A 
ATOM     27  C   UNL     1      42.147 132.524  18.014  1.00  0.00     0.041 A 
ATOM     28  C   UNL     1      44.932 132.532  17.668  1.00  0.00     0.011 A 
ATOM     29  C   UNL     1      42.977 132.099  19.060  1.00  0.00    -0.016 A 
ATOM     30  C   UNL     1      44.389 132.097  18.882  1.00  0.00    -0.018 A 
ATOM     31  C   UNL     1      42.425 131.676  20.286  1.00  0.00     0.019 A 
ATOM     32  C   UNL     1      45.225 131.659  19.927  1.00  0.00     0.018 A 
ATOM     33  C   UNL     1      43.289 131.265  21.302  1.00  0.00     0.016 A 
ATOM     34  C   UNL     1      44.640 131.253  21.127  1.00  0.00     0.016 A 
ATOM     35  C   UNL     1      42.937 130.774  22.652  1.00  0.00     0.301 C 
ATOM     36  C   UNL     1      45.314 130.749  22.345  1.00  0.00     0.301 C 
ATOM     37  N   UNL     1      44.239 130.636  23.381  1.00  0.00    -0.321 N 
ATOM     38  C   UNL     1      44.381 131.725  24.376  1.00  0.00     0.334 C 
ATOM     39  C   UNL     1      44.312 129.331  24.077  1.00  0.00     0.334 C 
ENDBRANCH  23  25
ENDBRANCH  18  19
ENDBRANCH  17  18
ENDBRANCH   2  17
BRANCH   4  40
ATOM     40  C   UNL     1      39.132 139.606  12.873  1.00  0.00     0.097 C 
BRANCH  40  41
ATOM     41  N   UNL     1      38.259 139.584  11.705  1.00  0.00    -0.094 NA
BRANCH  41  42
ATOM     42  N   UNL     1      38.192 138.590  10.980  1.00  0.00     0.001 N 
ATOM     43  N   UNL     1      38.122 137.599  10.256  1.00  0.00    -0.003 NA
ENDBRANCH  41  42
ENDBRANCH  40  41
ENDBRANCH   4  40
TORSDOF 10
ENDMDL
MODEL 8
REMARK VINA RESULT:      -3.9      2.262      4.844
REMARK SMILES C[N+]1(C)Cc2cc3ccc(-n4cc(CCN5C[C@H](CN=[N+]=[N-])CN5C(=O)c5ccc(N)cc5)n[nH+]4)cc3cc2C1
REMARK SMILES IDX 24 1 16 2 17 3 18 4 23 5 25 6 26 7 27 8 28 9 29 10 30 11
REMARK SMILES IDX 33 12 32 13 31 14 15 17 14 18 13 19 34 20 12 21 35 22 11 23
REMARK SMILES IDX 10 25 9 26 36 27 8 28 37 29 7 30 38 31 6 32 39 33 5 34 40 35
REMARK SMILES IDX 4 36 2 37 1 38 3 39 19 40 20 41 21 42 22 43
REMARK H PARENT 31 15 31 16 35 24
ROOT
ATOM      1  N   UNL     1      41.851 138.413  18.394  1.00  0.00    -0.271 N 
ATOM      2  N   UNL     1      41.401 137.632  19.475  1.00  0.00    -0.218 NA
ATOM      3  C   UNL     1      42.429 137.797  20.526  1.00  0.00     0.114 C 
ATOM      4  C   UNL     1      43.619 138.554  19.917  1.00  0.00     0.032 C 
ATOM      5  C   UNL     1      43.072 139.153  18.634  1.00  0.00     0.145 C 
ENDROOT
BRANCH   1   6
ATOM      6  C   UNL     1      41.246 138.366  17.090  1.00  0.00     0.268 C 
ATOM      7  O   UNL     1      41.092 139.438  16.443  1.00  0.00    -0.268 OA
BRANCH   6   8
ATOM      8  C   UNL     1      40.821 137.087  16.477  1.00  0.00     0.041 A 
ATOM      9  C   UNL     1      41.717 136.319  15.714  1.00  0.00     0.016 A 
ATOM     10  C   UNL     1      41.285 135.149  15.081  1.00  0.00     0.026 A 
ATOM     11  C   UNL     1      39.955 134.728  15.204  1.00  0.00     0.031 A 
ATOM     12  C   UNL     1      39.490 136.650  16.615  1.00  0.00     0.016 A 
ATOM     13  C   UNL     1      39.064 135.476  15.985  1.00  0.00     0.026 A 
BRANCH  11  14
ATOM     14  N   UNL     1      39.500 133.560  14.517  1.00  0.00    -0.399 N 
ATOM     15  H   UNL     1      40.161 132.785  14.285  1.00  0.00     0.156 HD
ATOM     16  H   UNL     1      38.507 133.476  14.202  1.00  0.00     0.156 HD
ENDBRANCH  11  14
ENDBRANCH   6   8
ENDBRANCH   1   6
BRANCH   2  17
ATOM     17  C   UNL     1      40.084 138.147  19.912  1.00  0.00     0.115 C 
BRANCH  17  18
ATOM     18  C   UNL     1      39.167 137.012  20.386  1.00  0.00     0.082 C 
BRANCH  18  19
ATOM     19  C   UNL     1      39.910 135.715  20.496  1.00  0.00     0.134 A 
ATOM     20  N   UNL     1      39.627 134.745  21.386  1.00  0.00     0.020 NA
ATOM     21  C   UNL     1      40.982 135.314  19.729  1.00  0.00     0.190 A 
ATOM     22  N   UNL     1      40.498 133.774  21.159  1.00  0.00    -0.012 N 
ATOM     23  N   UNL     1      41.323 134.084  20.166  1.00  0.00    -0.104 N 
ATOM     24  H   UNL     1      40.500 132.874  21.687  1.00  0.00     0.527 HD
BRANCH  23  25
ATOM     25  C   UNL     1      42.373 133.238  19.653  1.00  0.00     0.107 A 
ATOM     26  C   UNL     1      43.092 132.388  20.516  1.00  0.00     0.033 A 
ATOM     27  C   UNL     1      42.698 133.251  18.283  1.00  0.00     0.041 A 
ATOM     28  C   UNL     1      44.119 131.574  20.028  1.00  0.00     0.011 A 
ATOM     29  C   UNL     1      43.727 132.441  17.782  1.00  0.00    -0.016 A 
ATOM     30  C   UNL     1      44.451 131.596  18.668  1.00  0.00    -0.018 A 
ATOM     31  C   UNL     1      44.046 132.456  16.410  1.00  0.00     0.019 A 
ATOM     32  C   UNL     1      45.492 130.789  18.170  1.00  0.00     0.018 A 
ATOM     33  C   UNL     1      45.074 131.629  15.954  1.00  0.00     0.016 A 
ATOM     34  C   UNL     1      45.775 130.828  16.805  1.00  0.00     0.016 A 
ATOM     35  C   UNL     1      45.584 131.490  14.572  1.00  0.00     0.301 C 
ATOM     36  C   UNL     1      46.821 130.082  16.068  1.00  0.00     0.301 C 
ATOM     37  N   UNL     1      46.563 130.357  14.619  1.00  0.00    -0.321 N 
ATOM     38  C   UNL     1      45.979 129.156  13.975  1.00  0.00     0.334 C 
ATOM     39  C   UNL     1      47.817 130.720  13.920  1.00  0.00     0.334 C 
ENDBRANCH  23  25
ENDBRANCH  18  19
ENDBRANCH  17  18
ENDBRANCH   2  17
BRANCH   4  40
ATOM     40  C   UNL     1      44.204 139.625  20.857  1.00  0.00     0.097 C 
BRANCH  40  41
ATOM     41  N   UNL     1      45.184 139.042  21.767  1.00  0.00    -0.094 NA
BRANCH  41  42
ATOM     42  N   UNL     1      44.919 138.860  22.956  1.00  0.00     0.001 N 
ATOM     43  N   UNL     1      44.657 138.676  24.143  1.00  0.00    -0.003 NA
ENDBRANCH  41  42
ENDBRANCH  40  41
ENDBRANCH   4  40
TORSDOF 10
ENDMDL
MODEL 9
REMARK VINA RESULT:      -3.9      3.656      4.665
REMARK SMILES C[N+]1(C)Cc2cc3ccc(-n4cc(CCN5C[C@H](CN=[N+]=[N-])CN5C(=O)c5ccc(N)cc5)n[nH+]4)cc3cc2C1
REMARK SMILES IDX 24 1 16 2 17 3 18 4 23 5 25 6 26 7 27 8 28 9 29 10 30 11
REMARK SMILES IDX 33 12 32 13 31 14 15 17 14 18 13 19 34 20 12 21 35 22 11 23
REMARK SMILES IDX 10 25 9 26 36 27 8 28 37 29 7 30 38 31 6 32 39 33 5 34 40 35
REMARK SMILES IDX 4 36 2 37 1 38 3 39 19 40 20 41 21 42 22 43
REMARK H PARENT 31 15 31 16 35 24
ROOT
ATOM      1  N   UNL     1      41.107 138.344  16.152  1.00  0.00    -0.271 N 
ATOM      2  N   UNL     1      40.685 139.079  17.276  1.00  0.00    -0.218 NA
ATOM      3  C   UNL     1      39.305 139.508  16.961  1.00  0.00     0.114 C 
ATOM      4  C   UNL     1      39.019 139.161  15.491  1.00  0.00     0.032 C 
ATOM      5  C   UNL     1      40.113 138.178  15.114  1.00  0.00     0.145 C 
ENDROOT
BRANCH   1   6
ATOM      6  C   UNL     1      42.469 137.923  15.961  1.00  0.00     0.268 C 
ATOM      7  O   UNL     1      42.795 137.363  14.878  1.00  0.00    -0.268 OA
BRANCH   6   8
ATOM      8  C   UNL     1      43.505 138.151  16.994  1.00  0.00     0.041 A 
ATOM      9  C   UNL     1      44.037 139.433  17.213  1.00  0.00     0.016 A 
ATOM     10  C   UNL     1      45.066 139.624  18.142  1.00  0.00     0.026 A 
ATOM     11  C   UNL     1      45.573 138.538  18.867  1.00  0.00     0.031 A 
ATOM     12  C   UNL     1      44.005 137.067  17.740  1.00  0.00     0.016 A 
ATOM     13  C   UNL     1      45.029 137.262  18.672  1.00  0.00     0.026 A 
BRANCH  11  14
ATOM     14  N   UNL     1      46.658 138.724  19.780  1.00  0.00    -0.399 N 
ATOM     15  H   UNL     1      46.763 139.617  20.312  1.00  0.00     0.156 HD
ATOM     16  H   UNL     1      47.386 137.984  19.904  1.00  0.00     0.156 HD
ENDBRANCH  11  14
ENDBRANCH   6   8
ENDBRANCH   1   6
BRANCH   2  17
ATOM     17  C   UNL     1      40.725 138.193  18.461  1.00  0.00     0.115 C 
BRANCH  17  18
ATOM     18  C   UNL     1      39.468 137.319  18.552  1.00  0.00     0.082 C 
BRANCH  18  19
ATOM     19  C   UNL     1      39.565 136.123  17.654  1.00  0.00     0.134 A 
ATOM     20  N   UNL     1      38.510 135.408  17.216  1.00  0.00     0.020 NA
ATOM     21  C   UNL     1      40.719 135.566  17.147  1.00  0.00     0.190 A 
ATOM     22  N   UNL     1      39.011 134.448  16.454  1.00  0.00    -0.012 N 
ATOM     23  N   UNL     1      40.334 134.519  16.389  1.00  0.00    -0.104 N 
ATOM     24  H   UNL     1      38.417 133.751  15.952  1.00  0.00     0.527 HD
BRANCH  23  25
ATOM     25  C   UNL     1      41.185 133.637  15.626  1.00  0.00     0.107 A 
ATOM     26  C   UNL     1      40.674 132.933  14.519  1.00  0.00     0.033 A 
ATOM     27  C   UNL     1      42.537 133.465  15.979  1.00  0.00     0.041 A 
ATOM     28  C   UNL     1      41.489 132.067  13.782  1.00  0.00     0.011 A 
ATOM     29  C   UNL     1      43.364 132.599  15.249  1.00  0.00    -0.016 A 
ATOM     30  C   UNL     1      42.830 131.886  14.140  1.00  0.00    -0.018 A 
ATOM     31  C   UNL     1      44.717 132.433  15.604  1.00  0.00     0.019 A 
ATOM     32  C   UNL     1      43.655 131.007  13.411  1.00  0.00     0.018 A 
ATOM     33  C   UNL     1      45.505 131.565  14.846  1.00  0.00     0.016 A 
ATOM     34  C   UNL     1      44.991 130.873  13.791  1.00  0.00     0.016 A 
ATOM     35  C   UNL     1      46.933 131.229  15.041  1.00  0.00     0.301 C 
ATOM     36  C   UNL     1      46.029 130.008  13.185  1.00  0.00     0.301 C 
ATOM     37  N   UNL     1      47.311 130.390  13.859  1.00  0.00    -0.321 N 
ATOM     38  C   UNL     1      48.154 131.177  12.927  1.00  0.00     0.334 C 
ATOM     39  C   UNL     1      48.058 129.186  14.289  1.00  0.00     0.334 C 
ENDBRANCH  23  25
ENDBRANCH  18  19
ENDBRANCH  17  18
ENDBRANCH   2  17
BRANCH   4  40
ATOM     40  C   UNL     1      37.610 138.579  15.266  1.00  0.00     0.097 C 
BRANCH  40  41
ATOM     41  N   UNL     1      37.533 137.876  13.990  1.00  0.00    -0.094 NA
BRANCH  41  42
ATOM     42  N   UNL     1      36.955 136.792  13.896  1.00  0.00     0.001 N 
ATOM     43  N   UNL     1      36.381 135.709  13.798  1.00  0.00    -0.003 NA
ENDBRANCH  41  42
ENDBRANCH  40  41
ENDBRANCH   4  40
TORSDOF 10
ENDMDL


