MODEL 1
REMARK VINA RESULT:      -6.7      0.000      0.000
REMARK SMILES CC[C@H]1C[C@@]1([NH3+])C(=O)Oc1c(C(=O)N=[N+]=[N-])cccc([O-])c(NC2(CF)COC2)c(N=[N+]=[N-])c(Cl)c1Cl
REMARK SMILES IDX 18 1 19 2 20 3 21 4 22 5 30 6 34 7 35 8 36 9 37 10 10 11
REMARK SMILES IDX 11 12 17 13 12 14 13 15 14 16 15 17 16 18 23 19 24 21 27 22
REMARK SMILES IDX 29 23 28 24 25 25 26 26 9 27 7 28 8 29 5 30 4 31 3 32 6 33
REMARK SMILES IDX 2 37 1 38 31 39 32 40 33 41
REMARK H PARENT 23 20 6 34 6 35 6 36
ROOT
ATOM      1  C   UNL     1      40.493 132.649  18.316  1.00  0.00     0.000 A 
ATOM      2  C   UNL     1      40.580 134.032  18.563  1.00  0.00    -0.006 A 
ATOM      3  C   UNL     1      41.769 134.744  18.826  1.00  0.00    -0.084 A 
ATOM      4  O   UNL     1      41.782 136.104  18.531  1.00  0.00    -0.871 OA
ATOM      5  C   UNL     1      42.944 134.164  19.360  1.00  0.00     0.038 A 
ATOM      6  C   UNL     1      42.905 132.994  20.153  1.00  0.00     0.080 A 
ATOM      7  C   UNL     1      43.759 131.891  19.918  1.00  0.00     0.075 A 
ATOM      8  Cl  UNL     1      44.012 130.778  21.269  1.00  0.00    -0.082 Cl
ATOM      9  C   UNL     1      44.400 131.595  18.684  1.00  0.00     0.103 A 
ATOM     10  Cl  UNL     1      45.793 130.508  18.716  1.00  0.00    -0.079 Cl
ATOM     11  C   UNL     1      43.966 132.041  17.405  1.00  0.00     0.162 A 
ATOM     12  C   UNL     1      42.625 132.366  17.109  1.00  0.00     0.069 A 
ATOM     13  C   UNL     1      41.558 131.854  17.868  1.00  0.00     0.016 A 
ENDROOT
BRANCH  12  14
ATOM     14  C   UNL     1      42.341 133.286  15.975  1.00  0.00     0.252 C 
ATOM     15  O   UNL     1      42.952 134.384  15.902  1.00  0.00    -0.287 OA
BRANCH  14  16
ATOM     16  N   UNL     1      41.379 132.967  14.960  1.00  0.00    -0.017 NA
BRANCH  16  17
ATOM     17  N   UNL     1      40.884 133.828  14.230  1.00  0.00     0.009 N 
ATOM     18  N   UNL     1      40.391 134.689  13.504  1.00  0.00    -0.003 NA
ENDBRANCH  16  17
ENDBRANCH  14  16
ENDBRANCH  12  14
BRANCH   5  19
ATOM     19  N   UNL     1      44.204 134.797  19.082  1.00  0.00    -0.373 N 
ATOM     20  H   UNL     1      44.571 134.707  18.108  1.00  0.00     0.161 HD
BRANCH  19  21
ATOM     21  C   UNL     1      44.813 135.793  19.980  1.00  0.00     0.113 C 
ATOM     22  C   UNL     1      45.793 135.193  20.971  1.00  0.00     0.193 C 
ATOM     23  C   UNL     1      43.982 136.045  21.228  1.00  0.00     0.193 C 
ATOM     24  O   UNL     1      44.957 135.474  22.069  1.00  0.00    -0.376 OA
BRANCH  21  25
ATOM     25  C   UNL     1      45.311 137.063  19.267  1.00  0.00     0.247 C 
ATOM     26  F   UNL     1      45.203 136.953  17.891  1.00  0.00    -0.248 F 
ENDBRANCH  21  25
ENDBRANCH  19  21
ENDBRANCH   5  19
BRANCH  11  27
ATOM     27  O   UNL     1      44.886 132.129  16.346  1.00  0.00    -0.419 OA
BRANCH  27  28
ATOM     28  C   UNL     1      44.847 131.337  15.192  1.00  0.00     0.373 C 
ATOM     29  O   UNL     1      44.197 131.702  14.175  1.00  0.00    -0.244 OA
BRANCH  28  30
ATOM     30  C   UNL     1      45.614 130.047  15.165  1.00  0.00     0.196 C 
ATOM     31  C   UNL     1      47.126 130.124  15.375  1.00  0.00     0.092 C 
ATOM     32  C   UNL     1      46.562 129.751  14.001  1.00  0.00     0.069 C 
BRANCH  30  33
ATOM     33  N   UNL     1      44.962 128.881  15.770  1.00  0.00    -0.343 N 
ATOM     34  H   UNL     1      45.608 128.346  16.395  1.00  0.00     0.345 HD
ATOM     35  H   UNL     1      44.141 129.203  16.331  1.00  0.00     0.345 HD
ATOM     36  H   UNL     1      44.627 128.246  15.010  1.00  0.00     0.345 HD
ENDBRANCH  30  33
BRANCH  32  37
ATOM     37  C   UNL     1      46.721 130.832  12.921  1.00  0.00     0.007 C 
ATOM     38  C   UNL     1      47.541 130.303  11.750  1.00  0.00     0.004 C 
ENDBRANCH  32  37
ENDBRANCH  28  30
ENDBRANCH  27  28
ENDBRANCH  11  27
BRANCH   6  39
ATOM     39  N   UNL     1      41.981 132.902  21.252  1.00  0.00    -0.057 NA
BRANCH  39  40
ATOM     40  N   UNL     1      42.279 133.237  22.399  1.00  0.00     0.005 N 
ATOM     41  N   UNL     1      42.576 133.573  23.544  1.00  0.00    -0.003 NA
ENDBRANCH  39  40
ENDBRANCH   6  39
TORSDOF 13
ENDMDL
MODEL 2
REMARK VINA RESULT:      -6.2      1.598      1.819
REMARK SMILES CC[C@H]1C[C@@]1([NH3+])C(=O)Oc1c(C(=O)N=[N+]=[N-])cccc([O-])c(NC2(CF)COC2)c(N=[N+]=[N-])c(Cl)c1Cl
REMARK SMILES IDX 18 1 19 2 20 3 21 4 22 5 30 6 34 7 35 8 36 9 37 10 10 11
REMARK SMILES IDX 11 12 17 13 12 14 13 15 14 16 15 17 16 18 23 19 24 21 27 22
REMARK SMILES IDX 29 23 28 24 25 25 26 26 9 27 7 28 8 29 5 30 4 31 3 32 6 33
REMARK SMILES IDX 2 37 1 38 31 39 32 40 33 41
REMARK H PARENT 23 20 6 34 6 35 6 36
ROOT
ATOM      1  C   UNL     1      40.426 132.873  18.234  1.00  0.00     0.000 A 
ATOM      2  C   UNL     1      40.464 134.274  18.358  1.00  0.00    -0.006 A 
ATOM      3  C   UNL     1      41.600 135.035  18.706  1.00  0.00    -0.084 A 
ATOM      4  O   UNL     1      41.636 136.362  18.288  1.00  0.00    -0.871 OA
ATOM      5  C   UNL     1      42.700 134.535  19.440  1.00  0.00     0.038 A 
ATOM      6  C   UNL     1      42.570 133.442  20.329  1.00  0.00     0.080 A 
ATOM      7  C   UNL     1      43.460 132.342  20.313  1.00  0.00     0.075 A 
ATOM      8  Cl  UNL     1      43.544 131.365  21.784  1.00  0.00    -0.082 Cl
ATOM      9  C   UNL     1      44.262 131.949  19.206  1.00  0.00     0.103 A 
ATOM     10  Cl  UNL     1      45.650 130.903  19.523  1.00  0.00    -0.079 Cl
ATOM     11  C   UNL     1      43.995 132.265  17.845  1.00  0.00     0.162 A 
ATOM     12  C   UNL     1      42.701 132.529  17.348  1.00  0.00     0.069 A 
ATOM     13  C   UNL     1      41.550 132.065  18.006  1.00  0.00     0.016 A 
ENDROOT
BRANCH  12  14
ATOM     14  C   UNL     1      42.559 133.334  16.104  1.00  0.00     0.252 C 
ATOM     15  O   UNL     1      41.706 132.994  15.243  1.00  0.00    -0.287 OA
BRANCH  14  16
ATOM     16  N   UNL     1      43.373 134.487  15.847  1.00  0.00    -0.017 NA
BRANCH  16  17
ATOM     17  N   UNL     1      42.906 135.532  15.391  1.00  0.00     0.009 N 
ATOM     18  N   UNL     1      42.439 136.576  14.939  1.00  0.00    -0.003 NA
ENDBRANCH  16  17
ENDBRANCH  14  16
ENDBRANCH  12  14
BRANCH   5  19
ATOM     19  N   UNL     1      43.979 135.168  19.271  1.00  0.00    -0.373 N 
ATOM     20  H   UNL     1      44.359 135.210  18.298  1.00  0.00     0.161 HD
BRANCH  19  21
ATOM     21  C   UNL     1      44.597 136.011  20.309  1.00  0.00     0.113 C 
ATOM     22  C   UNL     1      43.701 137.140  20.781  1.00  0.00     0.193 C 
ATOM     23  C   UNL     1      45.421 137.149  19.727  1.00  0.00     0.193 C 
ATOM     24  O   UNL     1      44.532 138.127  20.215  1.00  0.00    -0.376 OA
BRANCH  21  25
ATOM     25  C   UNL     1      45.288 135.221  21.433  1.00  0.00     0.247 C 
ATOM     26  F   UNL     1      46.170 134.278  20.930  1.00  0.00    -0.248 F 
ENDBRANCH  21  25
ENDBRANCH  19  21
ENDBRANCH   5  19
BRANCH  11  27
ATOM     27  O   UNL     1      45.045 132.276  16.912  1.00  0.00    -0.419 OA
BRANCH  27  28
ATOM     28  C   UNL     1      45.570 131.136  16.292  1.00  0.00     0.373 C 
ATOM     29  O   UNL     1      46.488 130.464  16.837  1.00  0.00    -0.244 OA
BRANCH  28  30
ATOM     30  C   UNL     1      45.010 130.700  14.969  1.00  0.00     0.196 C 
ATOM     31  C   UNL     1      45.584 129.427  14.348  1.00  0.00     0.092 C 
ATOM     32  C   UNL     1      45.877 130.789  13.711  1.00  0.00     0.069 C 
BRANCH  30  33
ATOM     33  N   UNL     1      43.571 130.895  14.767  1.00  0.00    -0.343 N 
ATOM     34  H   UNL     1      43.367 131.569  13.994  1.00  0.00     0.345 HD
ATOM     35  H   UNL     1      43.132 129.974  14.536  1.00  0.00     0.345 HD
ATOM     36  H   UNL     1      43.150 131.261  15.652  1.00  0.00     0.345 HD
ENDBRANCH  30  33
BRANCH  32  37
ATOM     37  C   UNL     1      47.323 131.282  13.877  1.00  0.00     0.007 C 
ATOM     38  C   UNL     1      48.103 131.101  12.580  1.00  0.00     0.004 C 
ENDBRANCH  32  37
ENDBRANCH  28  30
ENDBRANCH  27  28
ENDBRANCH  11  27
BRANCH   6  39
ATOM     39  N   UNL     1      41.510 133.430  21.301  1.00  0.00    -0.057 NA
BRANCH  39  40
ATOM     40  N   UNL     1      41.413 134.279  22.188  1.00  0.00     0.005 N 
ATOM     41  N   UNL     1      41.319 135.126  23.075  1.00  0.00    -0.003 NA
ENDBRANCH  39  40
ENDBRANCH   6  39
TORSDOF 13
ENDMDL
MODEL 3
REMARK VINA RESULT:      -5.8      3.451      5.874
REMARK SMILES CC[C@H]1C[C@@]1([NH3+])C(=O)Oc1c(C(=O)N=[N+]=[N-])cccc([O-])c(NC2(CF)COC2)c(N=[N+]=[N-])c(Cl)c1Cl
REMARK SMILES IDX 18 1 19 2 20 3 21 4 22 5 30 6 34 7 35 8 36 9 37 10 10 11
REMARK SMILES IDX 11 12 17 13 12 14 13 15 14 16 15 17 16 18 23 19 24 21 27 22
REMARK SMILES IDX 29 23 28 24 25 25 26 26 9 27 7 28 8 29 5 30 4 31 3 32 6 33
REMARK SMILES IDX 2 37 1 38 31 39 32 40 33 41
REMARK H PARENT 23 20 6 34 6 35 6 36
ROOT
ATOM      1  C   UNL     1      44.923 132.495  17.023  1.00  0.00     0.000 A 
ATOM      2  C   UNL     1      43.979 131.850  17.843  1.00  0.00    -0.006 A 
ATOM      3  C   UNL     1      42.799 132.434  18.350  1.00  0.00    -0.084 A 
ATOM      4  O   UNL     1      41.749 131.581  18.674  1.00  0.00    -0.871 OA
ATOM      5  C   UNL     1      42.616 133.823  18.540  1.00  0.00     0.038 A 
ATOM      6  C   UNL     1      43.707 134.699  18.748  1.00  0.00     0.080 A 
ATOM      7  C   UNL     1      43.855 135.909  18.029  1.00  0.00     0.075 A 
ATOM      8  Cl  UNL     1      44.893 137.143  18.754  1.00  0.00    -0.082 Cl
ATOM      9  C   UNL     1      43.262 136.195  16.769  1.00  0.00     0.103 A 
ATOM     10  Cl  UNL     1      43.135 137.888  16.281  1.00  0.00    -0.079 Cl
ATOM     11  C   UNL     1      42.829 135.222  15.826  1.00  0.00     0.162 A 
ATOM     12  C   UNL     1      43.372 133.922  15.744  1.00  0.00     0.069 A 
ATOM     13  C   UNL     1      44.653 133.627  16.240  1.00  0.00     0.016 A 
ENDROOT
BRANCH  12  14
ATOM     14  C   UNL     1      42.557 132.839  15.132  1.00  0.00     0.252 C 
ATOM     15  O   UNL     1      41.419 132.580  15.604  1.00  0.00    -0.287 OA
BRANCH  14  16
ATOM     16  N   UNL     1      43.031 132.067  14.019  1.00  0.00    -0.017 NA
BRANCH  16  17
ATOM     17  N   UNL     1      43.826 131.136  14.157  1.00  0.00     0.009 N 
ATOM     18  N   UNL     1      44.621 130.208  14.293  1.00  0.00    -0.003 NA
ENDBRANCH  16  17
ENDBRANCH  14  16
ENDBRANCH  12  14
BRANCH   5  19
ATOM     19  N   UNL     1      41.276 134.344  18.524  1.00  0.00    -0.373 N 
ATOM     20  H   UNL     1      40.715 134.170  17.659  1.00  0.00     0.161 HD
BRANCH  19  21
ATOM     21  C   UNL     1      40.583 134.804  19.738  1.00  0.00     0.113 C 
ATOM     22  C   UNL     1      39.077 134.896  19.575  1.00  0.00     0.193 C 
ATOM     23  C   UNL     1      40.485 136.320  19.820  1.00  0.00     0.193 C 
ATOM     24  O   UNL     1      39.085 136.301  19.670  1.00  0.00    -0.376 OA
BRANCH  21  25
ATOM     25  C   UNL     1      41.052 134.116  21.032  1.00  0.00     0.247 C 
ATOM     26  F   UNL     1      41.239 135.027  22.058  1.00  0.00    -0.248 F 
ENDBRANCH  21  25
ENDBRANCH  19  21
ENDBRANCH   5  19
BRANCH  11  27
ATOM     27  O   UNL     1      41.844 135.556  14.880  1.00  0.00    -0.419 OA
BRANCH  27  28
ATOM     28  C   UNL     1      40.539 135.951  15.196  1.00  0.00     0.373 C 
ATOM     29  O   UNL     1      39.991 135.584  16.272  1.00  0.00    -0.244 OA
BRANCH  28  30
ATOM     30  C   UNL     1      39.795 136.843  14.246  1.00  0.00     0.196 C 
ATOM     31  C   UNL     1      38.291 137.001  14.463  1.00  0.00     0.092 C 
ATOM     32  C   UNL     1      38.811 136.234  13.245  1.00  0.00     0.069 C 
BRANCH  30  33
ATOM     33  N   UNL     1      40.489 138.056  13.802  1.00  0.00    -0.343 N 
ATOM     34  H   UNL     1      39.930 138.921  13.985  1.00  0.00     0.345 HD
ATOM     35  H   UNL     1      41.401 138.130  14.308  1.00  0.00     0.345 HD
ATOM     36  H   UNL     1      40.673 137.986  12.775  1.00  0.00     0.345 HD
ENDBRANCH  30  33
BRANCH  32  37
ATOM     37  C   UNL     1      38.593 134.713  13.297  1.00  0.00     0.007 C 
ATOM     38  C   UNL     1      37.405 134.313  12.431  1.00  0.00     0.004 C 
ENDBRANCH  32  37
ENDBRANCH  28  30
ENDBRANCH  27  28
ENDBRANCH  11  27
BRANCH   6  39
ATOM     39  N   UNL     1      44.710 134.376  19.727  1.00  0.00    -0.057 NA
BRANCH  39  40
ATOM     40  N   UNL     1      44.582 134.648  20.921  1.00  0.00     0.005 N 
ATOM     41  N   UNL     1      44.452 134.918  22.114  1.00  0.00    -0.003 NA
ENDBRANCH  39  40
ENDBRANCH   6  39
TORSDOF 13
ENDMDL
MODEL 4
REMARK VINA RESULT:      -5.8      3.490      5.369
REMARK SMILES CC[C@H]1C[C@@]1([NH3+])C(=O)Oc1c(C(=O)N=[N+]=[N-])cccc([O-])c(NC2(CF)COC2)c(N=[N+]=[N-])c(Cl)c1Cl
REMARK SMILES IDX 18 1 19 2 20 3 21 4 22 5 30 6 34 7 35 8 36 9 37 10 10 11
REMARK SMILES IDX 11 12 17 13 12 14 13 15 14 16 15 17 16 18 23 19 24 21 27 22
REMARK SMILES IDX 29 23 28 24 25 25 26 26 9 27 7 28 8 29 5 30 4 31 3 32 6 33
REMARK SMILES IDX 2 37 1 38 31 39 32 40 33 41
REMARK H PARENT 23 20 6 34 6 35 6 36
ROOT
ATOM      1  C   UNL     1      43.709 136.013  18.947  1.00  0.00     0.000 A 
ATOM      2  C   UNL     1      42.654 135.852  19.863  1.00  0.00    -0.006 A 
ATOM      3  C   UNL     1      41.398 135.277  19.574  1.00  0.00    -0.084 A 
ATOM      4  O   UNL     1      40.689 134.716  20.632  1.00  0.00    -0.871 OA
ATOM      5  C   UNL     1      40.823 135.228  18.282  1.00  0.00     0.038 A 
ATOM      6  C   UNL     1      41.159 136.167  17.280  1.00  0.00     0.080 A 
ATOM      7  C   UNL     1      41.506 135.779  15.964  1.00  0.00     0.075 A 
ATOM      8  Cl  UNL     1      41.344 137.007  14.702  1.00  0.00    -0.082 Cl
ATOM      9  C   UNL     1      41.998 134.499  15.587  1.00  0.00     0.103 A 
ATOM     10  Cl  UNL     1      41.890 134.042  13.883  1.00  0.00    -0.079 Cl
ATOM     11  C   UNL     1      42.645 133.578  16.457  1.00  0.00     0.162 A 
ATOM     12  C   UNL     1      43.347 133.968  17.618  1.00  0.00     0.069 A 
ATOM     13  C   UNL     1      43.858 135.269  17.768  1.00  0.00     0.016 A 
ENDROOT
BRANCH  12  14
ATOM     14  C   UNL     1      43.532 132.978  18.713  1.00  0.00     0.252 C 
ATOM     15  O   UNL     1      42.557 132.271  19.078  1.00  0.00    -0.287 OA
BRANCH  14  16
ATOM     16  N   UNL     1      44.792 132.808  19.378  1.00  0.00    -0.017 NA
BRANCH  16  17
ATOM     17  N   UNL     1      44.953 131.979  20.276  1.00  0.00     0.009 N 
ATOM     18  N   UNL     1      45.113 131.155  21.174  1.00  0.00    -0.003 NA
ENDBRANCH  16  17
ENDBRANCH  14  16
ENDBRANCH  12  14
BRANCH   5  19
ATOM     19  N   UNL     1      39.868 134.192  17.999  1.00  0.00    -0.373 N 
ATOM     20  H   UNL     1      40.174 133.209  18.177  1.00  0.00     0.161 HD
BRANCH  19  21
ATOM     21  C   UNL     1      38.436 134.461  17.789  1.00  0.00     0.113 C 
ATOM     22  C   UNL     1      37.872 135.503  18.736  1.00  0.00     0.193 C 
ATOM     23  C   UNL     1      37.539 133.520  18.579  1.00  0.00     0.193 C 
ATOM     24  O   UNL     1      37.069 134.559  19.405  1.00  0.00    -0.376 OA
BRANCH  21  25
ATOM     25  C   UNL     1      38.038 134.646  16.314  1.00  0.00     0.247 C 
ATOM     26  F   UNL     1      37.704 135.961  16.036  1.00  0.00    -0.248 F 
ENDBRANCH  21  25
ENDBRANCH  19  21
ENDBRANCH   5  19
BRANCH  11  27
ATOM     27  O   UNL     1      42.644 132.208  16.149  1.00  0.00    -0.419 OA
BRANCH  27  28
ATOM     28  C   UNL     1      43.556 131.586  15.286  1.00  0.00     0.373 C 
ATOM     29  O   UNL     1      43.249 131.334  14.089  1.00  0.00    -0.244 OA
BRANCH  28  30
ATOM     30  C   UNL     1      44.924 131.239  15.796  1.00  0.00     0.196 C 
ATOM     31  C   UNL     1      46.069 132.184  15.433  1.00  0.00     0.092 C 
ATOM     32  C   UNL     1      46.007 130.784  14.815  1.00  0.00     0.069 C 
BRANCH  30  33
ATOM     33  N   UNL     1      44.999 130.662  17.142  1.00  0.00    -0.343 N 
ATOM     34  H   UNL     1      45.985 130.553  17.472  1.00  0.00     0.345 HD
ATOM     35  H   UNL     1      44.487 131.285  17.808  1.00  0.00     0.345 HD
ATOM     36  H   UNL     1      44.541 129.721  17.135  1.00  0.00     0.345 HD
ENDBRANCH  30  33
BRANCH  32  37
ATOM     37  C   UNL     1      45.646 130.752  13.321  1.00  0.00     0.007 C 
ATOM     38  C   UNL     1      46.899 130.583  12.471  1.00  0.00     0.004 C 
ENDBRANCH  32  37
ENDBRANCH  28  30
ENDBRANCH  27  28
ENDBRANCH  11  27
BRANCH   6  39
ATOM     39  N   UNL     1      41.143 137.574  17.579  1.00  0.00    -0.057 NA
BRANCH  39  40
ATOM     40  N   UNL     1      40.107 138.183  17.848  1.00  0.00     0.005 N 
ATOM     41  N   UNL     1      39.074 138.793  18.118  1.00  0.00    -0.003 NA
ENDBRANCH  39  40
ENDBRANCH   6  39
TORSDOF 13
ENDMDL
MODEL 5
REMARK VINA RESULT:      -5.7      1.515      1.717
REMARK SMILES CC[C@H]1C[C@@]1([NH3+])C(=O)Oc1c(C(=O)N=[N+]=[N-])cccc([O-])c(NC2(CF)COC2)c(N=[N+]=[N-])c(Cl)c1Cl
REMARK SMILES IDX 18 1 19 2 20 3 21 4 22 5 30 6 34 7 35 8 36 9 37 10 10 11
REMARK SMILES IDX 11 12 17 13 12 14 13 15 14 16 15 17 16 18 23 19 24 21 27 22
REMARK SMILES IDX 29 23 28 24 25 25 26 26 9 27 7 28 8 29 5 30 4 31 3 32 6 33
REMARK SMILES IDX 2 37 1 38 31 39 32 40 33 41
REMARK H PARENT 23 20 6 34 6 35 6 36
ROOT
ATOM      1  C   UNL     1      40.909 133.399  19.519  1.00  0.00     0.000 A 
ATOM      2  C   UNL     1      41.038 134.798  19.449  1.00  0.00    -0.006 A 
ATOM      3  C   UNL     1      42.255 135.511  19.465  1.00  0.00    -0.084 A 
ATOM      4  O   UNL     1      42.269 136.772  18.878  1.00  0.00    -0.871 OA
ATOM      5  C   UNL     1      43.457 135.023  20.029  1.00  0.00     0.038 A 
ATOM      6  C   UNL     1      43.458 134.056  21.061  1.00  0.00     0.080 A 
ATOM      7  C   UNL     1      44.274 132.900  21.015  1.00  0.00     0.075 A 
ATOM      8  Cl  UNL     1      44.609 132.101  22.556  1.00  0.00    -0.082 Cl
ATOM      9  C   UNL     1      44.814 132.321  19.834  1.00  0.00     0.103 A 
ATOM     10  Cl  UNL     1      46.187 131.222  20.007  1.00  0.00    -0.079 Cl
ATOM     11  C   UNL     1      44.292 132.492  18.523  1.00  0.00     0.162 A 
ATOM     12  C   UNL     1      42.938 132.788  18.258  1.00  0.00     0.069 A 
ATOM     13  C   UNL     1      41.923 132.490  19.184  1.00  0.00     0.016 A 
ENDROOT
BRANCH  12  14
ATOM     14  C   UNL     1      42.584 133.448  16.972  1.00  0.00     0.252 C 
ATOM     15  O   UNL     1      43.227 134.464  16.601  1.00  0.00    -0.287 OA
BRANCH  14  16
ATOM     16  N   UNL     1      41.520 132.967  16.138  1.00  0.00    -0.017 NA
BRANCH  16  17
ATOM     17  N   UNL     1      41.358 133.367  14.984  1.00  0.00     0.009 N 
ATOM     18  N   UNL     1      41.194 133.768  13.833  1.00  0.00    -0.003 NA
ENDBRANCH  16  17
ENDBRANCH  14  16
ENDBRANCH  12  14
BRANCH   5  19
ATOM     19  N   UNL     1      44.703 135.538  19.531  1.00  0.00    -0.373 N 
ATOM     20  H   UNL     1      45.004 135.209  18.586  1.00  0.00     0.161 HD
BRANCH  19  21
ATOM     21  C   UNL     1      45.381 136.702  20.125  1.00  0.00     0.113 C 
ATOM     22  C   UNL     1      46.454 136.329  21.129  1.00  0.00     0.193 C 
ATOM     23  C   UNL     1      44.665 137.233  21.357  1.00  0.00     0.193 C 
ATOM     24  O   UNL     1      45.720 136.854  22.211  1.00  0.00    -0.376 OA
BRANCH  21  25
ATOM     25  C   UNL     1      45.797 137.777  19.105  1.00  0.00     0.247 C 
ATOM     26  F   UNL     1      46.745 138.639  19.629  1.00  0.00    -0.248 F 
ENDBRANCH  21  25
ENDBRANCH  19  21
ENDBRANCH   5  19
BRANCH  11  27
ATOM     27  O   UNL     1      45.130 132.315  17.409  1.00  0.00    -0.419 OA
BRANCH  27  28
ATOM     28  C   UNL     1      45.259 131.120  16.692  1.00  0.00     0.373 C 
ATOM     29  O   UNL     1      45.604 130.051  17.267  1.00  0.00    -0.244 OA
BRANCH  28  30
ATOM     30  C   UNL     1      44.957 131.113  15.221  1.00  0.00     0.196 C 
ATOM     31  C   UNL     1      44.734 129.755  14.556  1.00  0.00     0.092 C 
ATOM     32  C   UNL     1      45.993 130.567  14.236  1.00  0.00     0.069 C 
BRANCH  30  33
ATOM     33  N   UNL     1      44.107 132.198  14.719  1.00  0.00    -0.343 N 
ATOM     34  H   UNL     1      44.359 132.478  13.743  1.00  0.00     0.345 HD
ATOM     35  H   UNL     1      43.110 131.883  14.733  1.00  0.00     0.345 HD
ATOM     36  H   UNL     1      44.211 133.029  15.345  1.00  0.00     0.345 HD
ENDBRANCH  30  33
BRANCH  32  37
ATOM     37  C   UNL     1      47.296 129.996  14.817  1.00  0.00     0.007 C 
ATOM     38  C   UNL     1      48.200 129.485  13.702  1.00  0.00     0.004 C 
ENDBRANCH  32  37
ENDBRANCH  28  30
ENDBRANCH  27  28
ENDBRANCH  11  27
BRANCH   6  39
ATOM     39  N   UNL     1      42.619 134.236  22.215  1.00  0.00    -0.057 NA
BRANCH  39  40
ATOM     40  N   UNL     1      43.014 134.789  23.242  1.00  0.00     0.005 N 
ATOM     41  N   UNL     1      43.406 135.340  24.270  1.00  0.00    -0.003 NA
ENDBRANCH  39  40
ENDBRANCH   6  39
TORSDOF 13
ENDMDL
MODEL 6
REMARK VINA RESULT:      -5.7      3.657      5.976
REMARK SMILES CC[C@H]1C[C@@]1([NH3+])C(=O)Oc1c(C(=O)N=[N+]=[N-])cccc([O-])c(NC2(CF)COC2)c(N=[N+]=[N-])c(Cl)c1Cl
REMARK SMILES IDX 18 1 19 2 20 3 21 4 22 5 30 6 34 7 35 8 36 9 37 10 10 11
REMARK SMILES IDX 11 12 17 13 12 14 13 15 14 16 15 17 16 18 23 19 24 21 27 22
REMARK SMILES IDX 29 23 28 24 25 25 26 26 9 27 7 28 8 29 5 30 4 31 3 32 6 33
REMARK SMILES IDX 2 37 1 38 31 39 32 40 33 41
REMARK H PARENT 23 20 6 34 6 35 6 36
ROOT
ATOM      1  C   UNL     1      44.723 132.787  16.986  1.00  0.00     0.000 A 
ATOM      2  C   UNL     1      43.774 132.179  17.828  1.00  0.00    -0.006 A 
ATOM      3  C   UNL     1      42.599 132.790  18.315  1.00  0.00    -0.084 A 
ATOM      4  O   UNL     1      41.542 131.957  18.669  1.00  0.00    -0.871 OA
ATOM      5  C   UNL     1      42.427 134.187  18.456  1.00  0.00     0.038 A 
ATOM      6  C   UNL     1      43.525 135.060  18.632  1.00  0.00     0.080 A 
ATOM      7  C   UNL     1      43.683 136.243  17.872  1.00  0.00     0.075 A 
ATOM      8  Cl  UNL     1      44.731 137.494  18.552  1.00  0.00    -0.082 Cl
ATOM      9  C   UNL     1      43.092 136.489  16.602  1.00  0.00     0.103 A 
ATOM     10  Cl  UNL     1      42.979 138.165  16.055  1.00  0.00    -0.079 Cl
ATOM     11  C   UNL     1      42.650 135.488  15.694  1.00  0.00     0.162 A 
ATOM     12  C   UNL     1      43.183 134.181  15.658  1.00  0.00     0.069 A 
ATOM     13  C   UNL     1      44.462 133.893  16.164  1.00  0.00     0.016 A 
ENDROOT
BRANCH  12  14
ATOM     14  C   UNL     1      42.359 133.083  15.084  1.00  0.00     0.252 C 
ATOM     15  O   UNL     1      41.228 132.837  15.578  1.00  0.00    -0.287 OA
BRANCH  14  16
ATOM     16  N   UNL     1      42.817 132.283  13.985  1.00  0.00    -0.017 NA
BRANCH  16  17
ATOM     17  N   UNL     1      43.617 131.358  14.135  1.00  0.00     0.009 N 
ATOM     18  N   UNL     1      44.412 130.433  14.284  1.00  0.00    -0.003 NA
ENDBRANCH  16  17
ENDBRANCH  14  16
ENDBRANCH  12  14
BRANCH   5  19
ATOM     19  N   UNL     1      41.092 134.717  18.421  1.00  0.00    -0.373 N 
ATOM     20  H   UNL     1      40.626 134.757  17.487  1.00  0.00     0.161 HD
BRANCH  19  21
ATOM     21  C   UNL     1      40.271 134.894  19.631  1.00  0.00     0.113 C 
ATOM     22  C   UNL     1      40.463 136.243  20.298  1.00  0.00     0.193 C 
ATOM     23  C   UNL     1      40.956 134.377  20.887  1.00  0.00     0.193 C 
ATOM     24  O   UNL     1      41.081 135.672  21.427  1.00  0.00    -0.376 OA
BRANCH  21  25
ATOM     25  C   UNL     1      38.805 134.457  19.467  1.00  0.00     0.247 C 
ATOM     26  F   UNL     1      38.668 133.476  18.499  1.00  0.00    -0.248 F 
ENDBRANCH  21  25
ENDBRANCH  19  21
ENDBRANCH   5  19
BRANCH  11  27
ATOM     27  O   UNL     1      41.668 135.796  14.737  1.00  0.00    -0.419 OA
BRANCH  27  28
ATOM     28  C   UNL     1      40.343 136.134  15.038  1.00  0.00     0.373 C 
ATOM     29  O   UNL     1      39.803 135.753  16.112  1.00  0.00    -0.244 OA
BRANCH  28  30
ATOM     30  C   UNL     1      39.568 136.982  14.072  1.00  0.00     0.196 C 
ATOM     31  C   UNL     1      38.067 137.131  14.316  1.00  0.00     0.092 C 
ATOM     32  C   UNL     1      38.570 136.324  13.116  1.00  0.00     0.069 C 
BRANCH  30  33
ATOM     33  N   UNL     1      40.238 138.184  13.567  1.00  0.00    -0.343 N 
ATOM     34  H   UNL     1      40.021 138.366  12.560  1.00  0.00     0.345 HD
ATOM     35  H   UNL     1      39.929 139.008  14.133  1.00  0.00     0.345 HD
ATOM     36  H   UNL     1      41.272 138.067  13.672  1.00  0.00     0.345 HD
ENDBRANCH  30  33
BRANCH  32  37
ATOM     37  C   UNL     1      38.372 134.804  13.229  1.00  0.00     0.007 C 
ATOM     38  C   UNL     1      37.293 134.332  12.261  1.00  0.00     0.004 C 
ENDBRANCH  32  37
ENDBRANCH  28  30
ENDBRANCH  27  28
ENDBRANCH  11  27
BRANCH   6  39
ATOM     39  N   UNL     1      44.527 134.764  19.622  1.00  0.00    -0.057 NA
BRANCH  39  40
ATOM     40  N   UNL     1      44.415 135.104  20.800  1.00  0.00     0.005 N 
ATOM     41  N   UNL     1      44.305 135.446  21.977  1.00  0.00    -0.003 NA
ENDBRANCH  39  40
ENDBRANCH   6  39
TORSDOF 13
ENDMDL
MODEL 7
REMARK VINA RESULT:      -5.6      1.163      1.237
REMARK SMILES CC[C@H]1C[C@@]1([NH3+])C(=O)Oc1c(C(=O)N=[N+]=[N-])cccc([O-])c(NC2(CF)COC2)c(N=[N+]=[N-])c(Cl)c1Cl
REMARK SMILES IDX 18 1 19 2 20 3 21 4 22 5 30 6 34 7 35 8 36 9 37 10 10 11
REMARK SMILES IDX 11 12 17 13 12 14 13 15 14 16 15 17 16 18 23 19 24 21 27 22
REMARK SMILES IDX 29 23 28 24 25 25 26 26 9 27 7 28 8 29 5 30 4 31 3 32 6 33
REMARK SMILES IDX 2 37 1 38 31 39 32 40 33 41
REMARK H PARENT 23 20 6 34 6 35 6 36
ROOT
ATOM      1  C   UNL     1      40.178 133.257  17.919  1.00  0.00     0.000 A 
ATOM      2  C   UNL     1      40.263 134.642  18.147  1.00  0.00    -0.006 A 
ATOM      3  C   UNL     1      41.426 135.338  18.542  1.00  0.00    -0.084 A 
ATOM      4  O   UNL     1      41.504 136.690  18.224  1.00  0.00    -0.871 OA
ATOM      5  C   UNL     1      42.512 134.748  19.230  1.00  0.00     0.038 A 
ATOM      6  C   UNL     1      42.349 133.597  20.035  1.00  0.00     0.080 A 
ATOM      7  C   UNL     1      43.202 132.472  19.931  1.00  0.00     0.075 A 
ATOM      8  Cl  UNL     1      43.260 131.386  21.324  1.00  0.00    -0.082 Cl
ATOM      9  C   UNL     1      43.985 132.137  18.792  1.00  0.00     0.103 A 
ATOM     10  Cl  UNL     1      45.339 131.024  19.021  1.00  0.00    -0.079 Cl
ATOM     11  C   UNL     1      43.723 132.562  17.461  1.00  0.00     0.162 A 
ATOM     12  C   UNL     1      42.437 132.906  16.993  1.00  0.00     0.069 A 
ATOM     13  C   UNL     1      41.273 132.431  17.624  1.00  0.00     0.016 A 
ENDROOT
BRANCH  12  14
ATOM     14  C   UNL     1      42.315 133.805  15.815  1.00  0.00     0.252 C 
ATOM     15  O   UNL     1      42.934 134.901  15.808  1.00  0.00    -0.287 OA
BRANCH  14  16
ATOM     16  N   UNL     1      41.504 133.467  14.680  1.00  0.00    -0.017 NA
BRANCH  16  17
ATOM     17  N   UNL     1      40.485 134.097  14.391  1.00  0.00     0.009 N 
ATOM     18  N   UNL     1      39.467 134.724  14.105  1.00  0.00    -0.003 NA
ENDBRANCH  16  17
ENDBRANCH  14  16
ENDBRANCH  12  14
BRANCH   5  19
ATOM     19  N   UNL     1      43.810 135.350  19.099  1.00  0.00    -0.373 N 
ATOM     20  H   UNL     1      44.340 135.141  18.222  1.00  0.00     0.161 HD
BRANCH  19  21
ATOM     21  C   UNL     1      44.269 136.456  19.957  1.00  0.00     0.113 C 
ATOM     22  C   UNL     1      45.159 136.004  21.099  1.00  0.00     0.193 C 
ATOM     23  C   UNL     1      43.293 136.771  21.080  1.00  0.00     0.193 C 
ATOM     24  O   UNL     1      44.194 136.334  22.071  1.00  0.00    -0.376 OA
BRANCH  21  25
ATOM     25  C   UNL     1      44.782 137.683  19.183  1.00  0.00     0.247 C 
ATOM     26  F   UNL     1      44.442 138.866  19.817  1.00  0.00    -0.248 F 
ENDBRANCH  21  25
ENDBRANCH  19  21
ENDBRANCH   5  19
BRANCH  11  27
ATOM     27  O   UNL     1      44.769 132.608  16.524  1.00  0.00    -0.419 OA
BRANCH  27  28
ATOM     28  C   UNL     1      45.402 131.482  15.982  1.00  0.00     0.373 C 
ATOM     29  O   UNL     1      46.503 131.072  16.443  1.00  0.00    -0.244 OA
BRANCH  28  30
ATOM     30  C   UNL     1      44.743 130.746  14.853  1.00  0.00     0.196 C 
ATOM     31  C   UNL     1      45.203 129.313  14.586  1.00  0.00     0.092 C 
ATOM     32  C   UNL     1      45.542 130.424  13.588  1.00  0.00     0.069 C 
BRANCH  30  33
ATOM     33  N   UNL     1      43.309 130.984  14.660  1.00  0.00    -0.343 N 
ATOM     34  H   UNL     1      42.858 131.396  15.509  1.00  0.00     0.345 HD
ATOM     35  H   UNL     1      43.179 131.640  13.856  1.00  0.00     0.345 HD
ATOM     36  H   UNL     1      42.840 130.075  14.438  1.00  0.00     0.345 HD
ENDBRANCH  30  33
BRANCH  32  37
ATOM     37  C   UNL     1      47.022 130.837  13.557  1.00  0.00     0.007 C 
ATOM     38  C   UNL     1      47.598 130.659  12.157  1.00  0.00     0.004 C 
ENDBRANCH  32  37
ENDBRANCH  28  30
ENDBRANCH  27  28
ENDBRANCH  11  27
BRANCH   6  39
ATOM     39  N   UNL     1      41.294 133.547  21.011  1.00  0.00    -0.057 NA
BRANCH  39  40
ATOM     40  N   UNL     1      41.413 134.021  22.142  1.00  0.00     0.005 N 
ATOM     41  N   UNL     1      41.532 134.493  23.271  1.00  0.00    -0.003 NA
ENDBRANCH  39  40
ENDBRANCH   6  39
TORSDOF 13
ENDMDL
MODEL 8
REMARK VINA RESULT:      -5.6      3.151      6.881
REMARK SMILES CC[C@H]1C[C@@]1([NH3+])C(=O)Oc1c(C(=O)N=[N+]=[N-])cccc([O-])c(NC2(CF)COC2)c(N=[N+]=[N-])c(Cl)c1Cl
REMARK SMILES IDX 18 1 19 2 20 3 21 4 22 5 30 6 34 7 35 8 36 9 37 10 10 11
REMARK SMILES IDX 11 12 17 13 12 14 13 15 14 16 15 17 16 18 23 19 24 21 27 22
REMARK SMILES IDX 29 23 28 24 25 25 26 26 9 27 7 28 8 29 5 30 4 31 3 32 6 33
REMARK SMILES IDX 2 37 1 38 31 39 32 40 33 41
REMARK H PARENT 23 20 6 34 6 35 6 36
ROOT
ATOM      1  C   UNL     1      42.791 131.743  16.313  1.00  0.00     0.000 A 
ATOM      2  C   UNL     1      43.538 132.745  15.667  1.00  0.00    -0.006 A 
ATOM      3  C   UNL     1      43.387 134.134  15.863  1.00  0.00    -0.084 A 
ATOM      4  O   UNL     1      44.485 134.944  15.590  1.00  0.00    -0.871 OA
ATOM      5  C   UNL     1      42.200 134.750  16.324  1.00  0.00     0.038 A 
ATOM      6  C   UNL     1      40.930 134.154  16.140  1.00  0.00     0.080 A 
ATOM      7  C   UNL     1      39.994 134.025  17.193  1.00  0.00     0.075 A 
ATOM      8  Cl  UNL     1      38.301 133.808  16.730  1.00  0.00    -0.082 Cl
ATOM      9  C   UNL     1      40.310 134.027  18.579  1.00  0.00     0.103 A 
ATOM     10  Cl  UNL     1      39.005 134.365  19.722  1.00  0.00    -0.079 Cl
ATOM     11  C   UNL     1      41.578 133.701  19.133  1.00  0.00     0.162 A 
ATOM     12  C   UNL     1      42.511 132.855  18.496  1.00  0.00     0.069 A 
ATOM     13  C   UNL     1      42.112 131.917  17.528  1.00  0.00     0.016 A 
ENDROOT
BRANCH  12  14
ATOM     14  C   UNL     1      43.951 132.975  18.849  1.00  0.00     0.252 C 
ATOM     15  O   UNL     1      44.510 134.100  18.786  1.00  0.00    -0.287 OA
BRANCH  14  16
ATOM     16  N   UNL     1      44.732 131.841  19.254  1.00  0.00    -0.017 NA
BRANCH  16  17
ATOM     17  N   UNL     1      45.328 131.131  18.441  1.00  0.00     0.009 N 
ATOM     18  N   UNL     1      45.925 130.426  17.630  1.00  0.00    -0.003 NA
ENDBRANCH  16  17
ENDBRANCH  14  16
ENDBRANCH  12  14
BRANCH   5  19
ATOM     19  N   UNL     1      42.303 136.017  16.994  1.00  0.00    -0.373 N 
ATOM     20  H   UNL     1      42.949 136.064  17.815  1.00  0.00     0.161 HD
BRANCH  19  21
ATOM     21  C   UNL     1      41.814 137.274  16.405  1.00  0.00     0.113 C 
ATOM     22  C   UNL     1      42.271 138.510  17.156  1.00  0.00     0.193 C 
ATOM     23  C   UNL     1      40.447 137.678  16.935  1.00  0.00     0.193 C 
ATOM     24  O   UNL     1      40.966 138.810  17.594  1.00  0.00    -0.376 OA
BRANCH  21  25
ATOM     25  C   UNL     1      41.965 137.355  14.876  1.00  0.00     0.247 C 
ATOM     26  F   UNL     1      43.261 137.672  14.505  1.00  0.00    -0.248 F 
ENDBRANCH  21  25
ENDBRANCH  19  21
ENDBRANCH   5  19
BRANCH  11  27
ATOM     27  O   UNL     1      41.934 134.192  20.400  1.00  0.00    -0.419 OA
BRANCH  27  28
ATOM     28  C   UNL     1      42.084 135.548  20.715  1.00  0.00     0.373 C 
ATOM     29  O   UNL     1      42.310 136.403  19.815  1.00  0.00    -0.244 OA
BRANCH  28  30
ATOM     30  C   UNL     1      41.950 135.986  22.144  1.00  0.00     0.196 C 
ATOM     31  C   UNL     1      42.719 137.236  22.571  1.00  0.00     0.092 C 
ATOM     32  C   UNL     1      43.144 135.860  23.092  1.00  0.00     0.069 C 
BRANCH  30  33
ATOM     33  N   UNL     1      40.627 135.831  22.759  1.00  0.00    -0.343 N 
ATOM     34  H   UNL     1      39.973 136.600  22.489  1.00  0.00     0.345 HD
ATOM     35  H   UNL     1      40.217 134.917  22.457  1.00  0.00     0.345 HD
ATOM     36  H   UNL     1      40.734 135.829  23.799  1.00  0.00     0.345 HD
ENDBRANCH  30  33
BRANCH  32  37
ATOM     37  C   UNL     1      44.462 135.326  22.509  1.00  0.00     0.007 C 
ATOM     38  C   UNL     1      44.661 133.863  22.885  1.00  0.00     0.004 C 
ENDBRANCH  32  37
ENDBRANCH  28  30
ENDBRANCH  27  28
ENDBRANCH  11  27
BRANCH   6  39
ATOM     39  N   UNL     1      40.548 133.666  14.842  1.00  0.00    -0.057 NA
BRANCH  39  40
ATOM     40  N   UNL     1      40.202 134.414  13.927  1.00  0.00     0.005 N 
ATOM     41  N   UNL     1      39.853 135.161  13.014  1.00  0.00    -0.003 NA
ENDBRANCH  39  40
ENDBRANCH   6  39
TORSDOF 13
ENDMDL
MODEL 9
REMARK VINA RESULT:      -5.5      3.331      7.166
REMARK SMILES CC[C@H]1C[C@@]1([NH3+])C(=O)Oc1c(C(=O)N=[N+]=[N-])cccc([O-])c(NC2(CF)COC2)c(N=[N+]=[N-])c(Cl)c1Cl
REMARK SMILES IDX 18 1 19 2 20 3 21 4 22 5 30 6 34 7 35 8 36 9 37 10 10 11
REMARK SMILES IDX 11 12 17 13 12 14 13 15 14 16 15 17 16 18 23 19 24 21 27 22
REMARK SMILES IDX 29 23 28 24 25 25 26 26 9 27 7 28 8 29 5 30 4 31 3 32 6 33
REMARK SMILES IDX 2 37 1 38 31 39 32 40 33 41
REMARK H PARENT 23 20 6 34 6 35 6 36
ROOT
ATOM      1  C   UNL     1      42.981 131.784  16.444  1.00  0.00     0.000 A 
ATOM      2  C   UNL     1      43.721 132.809  15.826  1.00  0.00    -0.006 A 
ATOM      3  C   UNL     1      43.496 134.193  15.986  1.00  0.00    -0.084 A 
ATOM      4  O   UNL     1      44.571 135.048  15.765  1.00  0.00    -0.871 OA
ATOM      5  C   UNL     1      42.257 134.761  16.363  1.00  0.00     0.038 A 
ATOM      6  C   UNL     1      41.029 134.105  16.113  1.00  0.00     0.080 A 
ATOM      7  C   UNL     1      40.036 133.950  17.110  1.00  0.00     0.075 A 
ATOM      8  Cl  UNL     1      38.386 133.648  16.550  1.00  0.00    -0.082 Cl
ATOM      9  C   UNL     1      40.266 133.988  18.513  1.00  0.00     0.103 A 
ATOM     10  Cl  UNL     1      38.880 134.285  19.569  1.00  0.00    -0.079 Cl
ATOM     11  C   UNL     1      41.512 133.730  19.148  1.00  0.00     0.162 A 
ATOM     12  C   UNL     1      42.518 132.917  18.585  1.00  0.00     0.069 A 
ATOM     13  C   UNL     1      42.223 131.946  17.612  1.00  0.00     0.016 A 
ENDROOT
BRANCH  12  14
ATOM     14  C   UNL     1      43.927 133.109  19.023  1.00  0.00     0.252 C 
ATOM     15  O   UNL     1      44.438 134.258  18.974  1.00  0.00    -0.287 OA
BRANCH  14  16
ATOM     16  N   UNL     1      44.732 132.018  19.493  1.00  0.00    -0.017 NA
BRANCH  16  17
ATOM     17  N   UNL     1      44.476 131.416  20.537  1.00  0.00     0.009 N 
ATOM     18  N   UNL     1      44.223 130.816  21.580  1.00  0.00    -0.003 NA
ENDBRANCH  16  17
ENDBRANCH  14  16
ENDBRANCH  12  14
BRANCH   5  19
ATOM     19  N   UNL     1      42.262 136.042  17.014  1.00  0.00    -0.373 N 
ATOM     20  H   UNL     1      42.879 136.142  17.852  1.00  0.00     0.161 HD
BRANCH  19  21
ATOM     21  C   UNL     1      41.713 137.258  16.390  1.00  0.00     0.113 C 
ATOM     22  C   UNL     1      42.037 137.376  14.913  1.00  0.00     0.193 C 
ATOM     23  C   UNL     1      42.649 138.451  16.507  1.00  0.00     0.193 C 
ATOM     24  O   UNL     1      42.882 138.485  15.118  1.00  0.00    -0.376 OA
BRANCH  21  25
ATOM     25  C   UNL     1      40.247 137.547  16.755  1.00  0.00     0.247 C 
ATOM     26  F   UNL     1      39.375 137.055  15.798  1.00  0.00    -0.248 F 
ENDBRANCH  21  25
ENDBRANCH  19  21
ENDBRANCH   5  19
BRANCH  11  27
ATOM     27  O   UNL     1      41.767 134.257  20.426  1.00  0.00    -0.419 OA
BRANCH  27  28
ATOM     28  C   UNL     1      41.867 135.623  20.717  1.00  0.00     0.373 C 
ATOM     29  O   UNL     1      42.075 136.469  19.805  1.00  0.00    -0.244 OA
BRANCH  28  30
ATOM     30  C   UNL     1      41.699 136.081  22.137  1.00  0.00     0.196 C 
ATOM     31  C   UNL     1      42.558 137.256  22.602  1.00  0.00     0.092 C 
ATOM     32  C   UNL     1      42.825 135.850  23.147  1.00  0.00     0.069 C 
BRANCH  30  33
ATOM     33  N   UNL     1      40.337 136.054  22.681  1.00  0.00    -0.343 N 
ATOM     34  H   UNL     1      39.677 135.523  22.068  1.00  0.00     0.345 HD
ATOM     35  H   UNL     1      40.357 135.604  23.624  1.00  0.00     0.345 HD
ATOM     36  H   UNL     1      39.990 137.036  22.778  1.00  0.00     0.345 HD
ENDBRANCH  30  33
BRANCH  32  37
ATOM     37  C   UNL     1      44.116 135.193  22.636  1.00  0.00     0.007 C 
ATOM     38  C   UNL     1      45.014 134.797  23.802  1.00  0.00     0.004 C 
ENDBRANCH  32  37
ENDBRANCH  28  30
ENDBRANCH  27  28
ENDBRANCH  11  27
BRANCH   6  39
ATOM     39  N   UNL     1      40.749 133.579  14.804  1.00  0.00    -0.057 NA
BRANCH  39  40
ATOM     40  N   UNL     1      40.384 134.290  13.867  1.00  0.00     0.005 N 
ATOM     41  N   UNL     1      40.018 135.002  12.934  1.00  0.00    -0.003 NA
ENDBRANCH  39  40
ENDBRANCH   6  39
TORSDOF 13
ENDMDL


