REMARK SMILES C#C/C(N=[N+]=[N-])=N/[C@H](c1c(C)n[nH+]n1-c1c2ccccc2c(C(=O)N=[N+]=[N-])c2ccccc12)C(C)C
REMARK SMILES IDX 9 1 10 2 11 3 12 4 13 5 14 7 8 8 7 9 3 10 2 11 1 12 4 13
REMARK SMILES IDX 5 14 6 15 34 16 35 17 36 18 15 19 16 20 33 21 17 22 21 23
REMARK SMILES IDX 32 24 28 25 18 26 20 27 22 28 31 29 29 30 19 31 30 32 23 33
REMARK SMILES IDX 24 34 25 35 26 36 27 37
REMARK H PARENT 13 6
ROOT
ATOM      1  C   UNL     1      -0.950  -1.514   0.755  1.00  0.00     0.137 A 
ATOM      2  C   UNL     1      -1.810  -2.603   0.662  1.00  0.00     0.135 A 
ATOM      3  C   UNL     1      -2.338  -3.459   1.768  1.00  0.00     0.076 C 
ATOM      4  N   UNL     1      -2.073  -2.826  -0.642  1.00  0.00     0.020 NA
ATOM      5  N   UNL     1      -1.420  -1.895  -1.320  1.00  0.00    -0.012 N 
ATOM      6  H   UNL     1      -1.443  -1.805  -2.361  1.00  0.00     0.527 HD
ATOM      7  N   UNL     1      -0.746  -1.095  -0.511  1.00  0.00    -0.097 N 
ENDROOT
BRANCH   1   8
ATOM      8  C   UNL     1      -0.379  -0.862   1.998  1.00  0.00     0.164 C 
BRANCH   8   9
ATOM      9  N   UNL     1      -1.508  -0.384   2.803  1.00  0.00    -0.264 NA
BRANCH   9  10
ATOM     10  C   UNL     1      -1.595   0.651   3.592  1.00  0.00     0.172 C 
BRANCH  10  11
ATOM     11  C   UNL     1      -2.797   0.816   4.358  1.00  0.00    -0.049 C 
ATOM     12  C   UNL     1      -3.808   0.955   5.000  1.00  0.00     0.011 C 
ENDBRANCH  10  11
BRANCH  10  13
ATOM     13  N   UNL     1      -0.521   1.575   3.820  1.00  0.00    -0.032 NA
BRANCH  13  14
ATOM     14  N   UNL     1       0.167   2.043   2.913  1.00  0.00     0.008 N 
ATOM     15  N   UNL     1       0.859   2.522   2.015  1.00  0.00    -0.003 NA
ENDBRANCH  13  14
ENDBRANCH  10  13
ENDBRANCH   9  10
ENDBRANCH   8   9
BRANCH   8  16
ATOM     16  C   UNL     1       0.520  -1.844   2.805  1.00  0.00     0.014 C 
ATOM     17  C   UNL     1       1.639  -2.431   1.926  1.00  0.00     0.010 C 
ATOM     18  C   UNL     1       1.150  -1.166   4.031  1.00  0.00     0.010 C 
ENDBRANCH   8  16
ENDBRANCH   1   8
BRANCH   7  19
ATOM     19  C   UNL     1       0.028   0.034  -0.952  1.00  0.00     0.123 A 
ATOM     20  C   UNL     1      -0.501   1.338  -0.838  1.00  0.00     0.013 A 
ATOM     21  C   UNL     1       1.319  -0.163  -1.481  1.00  0.00     0.013 A 
ATOM     22  C   UNL     1      -1.798   1.544  -0.319  1.00  0.00     0.011 A 
ATOM     23  C   UNL     1       0.275   2.459  -1.238  1.00  0.00    -0.004 A 
ATOM     24  C   UNL     1       1.854  -1.463  -1.604  1.00  0.00     0.011 A 
ATOM     25  C   UNL     1       2.098   0.952  -1.894  1.00  0.00    -0.004 A 
ATOM     26  C   UNL     1      -2.310   2.832  -0.172  1.00  0.00     0.001 A 
ATOM     27  C   UNL     1      -0.268   3.755  -1.069  1.00  0.00     0.009 A 
ATOM     28  C   UNL     1       1.577   2.265  -1.767  1.00  0.00     0.040 A 
ATOM     29  C   UNL     1       3.128  -1.663  -2.132  1.00  0.00     0.001 A 
ATOM     30  C   UNL     1       3.381   0.717  -2.443  1.00  0.00     0.009 A 
ATOM     31  C   UNL     1      -1.546   3.933  -0.541  1.00  0.00     0.001 A 
ATOM     32  C   UNL     1       3.887  -0.578  -2.554  1.00  0.00     0.001 A 
BRANCH  28  33
ATOM     33  C   UNL     1       2.391   3.430  -2.179  1.00  0.00     0.250 C 
ATOM     34  O   UNL     1       2.039   4.121  -3.175  1.00  0.00    -0.287 OA
BRANCH  33  35
ATOM     35  N   UNL     1       3.571   3.767  -1.444  1.00  0.00    -0.017 NA
BRANCH  35  36
ATOM     36  N   UNL     1       4.271   4.728  -1.766  1.00  0.00     0.009 N 
ATOM     37  N   UNL     1       4.971   5.687  -2.087  1.00  0.00    -0.003 NA
ENDBRANCH  35  36
ENDBRANCH  33  35
ENDBRANCH  28  33
ENDBRANCH   7  19
TORSDOF 11


