MODEL 1
REMARK VINA RESULT:      -6.7      0.000      0.000
REMARK SMILES C#C/C(C#N)=N\[C@H](c1c(C)nnn1-c1c2ccccc2c(C(=O)N=[N+]=[N-])c2ccccc12)C(C)C
REMARK SMILES IDX 8 1 9 2 10 3 11 4 12 5 13 6 7 7 6 8 3 9 2 10 1 11 4 12 5 13
REMARK SMILES IDX 33 14 34 15 35 16 14 17 15 18 32 19 16 20 20 21 31 22 27 23
REMARK SMILES IDX 17 24 19 25 21 26 30 27 28 28 18 29 29 30 22 31 23 32 24 33
REMARK SMILES IDX 25 34 26 35
REMARK H PARENT
ROOT
ATOM      1  C   UNL     1      42.061 135.225  19.274  1.00  0.00     0.092 A 
ATOM      2  C   UNL     1      40.982 135.520  20.093  1.00  0.00     0.086 A 
ATOM      3  C   UNL     1      40.594 136.847  20.664  1.00  0.00     0.071 C 
ATOM      4  N   UNL     1      40.263 134.396  20.274  1.00  0.00    -0.135 NA
ATOM      5  N   UNL     1      40.884 133.430  19.613  1.00  0.00    -0.062 NA
ATOM      6  N   UNL     1      41.962 133.899  19.006  1.00  0.00    -0.214 N 
ENDROOT
BRANCH   1   7
ATOM      7  C   UNL     1      43.129 136.204  18.799  1.00  0.00     0.161 C 
BRANCH   7   8
ATOM      8  N   UNL     1      44.463 135.798  19.259  1.00  0.00    -0.256 NA
BRANCH   8   9
ATOM      9  C   UNL     1      45.172 136.352  20.200  1.00  0.00     0.186 C 
BRANCH   9  10
ATOM     10  C   UNL     1      46.222 137.300  19.921  1.00  0.00    -0.039 C 
ATOM     11  C   UNL     1      47.101 138.092  19.689  1.00  0.00     0.012 C 
ENDBRANCH   9  10
BRANCH   9  12
ATOM     12  C   UNL     1      44.891 136.023  21.567  1.00  0.00     0.129 C 
ATOM     13  N   UNL     1      44.664 135.759  22.672  1.00  0.00    -0.190 NA
ENDBRANCH   9  12
ENDBRANCH   8   9
ENDBRANCH   7   8
BRANCH   7  14
ATOM     14  C   UNL     1      43.116 136.362  17.252  1.00  0.00     0.014 C 
ATOM     15  C   UNL     1      44.414 135.867  16.597  1.00  0.00     0.010 C 
ATOM     16  C   UNL     1      42.832 137.812  16.836  1.00  0.00     0.010 C 
ENDBRANCH   7  14
ENDBRANCH   1   7
BRANCH   6  17
ATOM     17  C   UNL     1      42.868 133.054  18.274  1.00  0.00     0.082 A 
ATOM     18  C   UNL     1      42.706 132.886  16.882  1.00  0.00     0.009 A 
ATOM     19  C   UNL     1      43.918 132.396  18.949  1.00  0.00     0.009 A 
ATOM     20  C   UNL     1      41.693 133.581  16.186  1.00  0.00     0.011 A 
ATOM     21  C   UNL     1      43.558 132.001  16.168  1.00  0.00    -0.005 A 
ATOM     22  C   UNL     1      44.138 132.614  20.325  1.00  0.00     0.011 A 
ATOM     23  C   UNL     1      44.763 131.497  18.244  1.00  0.00    -0.005 A 
ATOM     24  C   UNL     1      41.518 133.403  14.815  1.00  0.00     0.001 A 
ATOM     25  C   UNL     1      43.364 131.848  14.775  1.00  0.00     0.009 A 
ATOM     26  C   UNL     1      44.579 131.298  16.853  1.00  0.00     0.040 A 
ATOM     27  C   UNL     1      45.147 131.934  21.002  1.00  0.00     0.001 A 
ATOM     28  C   UNL     1      45.772 130.811  18.959  1.00  0.00     0.009 A 
ATOM     29  C   UNL     1      42.351 132.539  14.112  1.00  0.00     0.001 A 
ATOM     30  C   UNL     1      45.957 131.030  20.324  1.00  0.00     0.001 A 
BRANCH  26  31
ATOM     31  C   UNL     1      45.461 130.362  16.111  1.00  0.00     0.250 C 
ATOM     32  O   UNL     1      45.113 129.159  15.977  1.00  0.00    -0.287 OA
BRANCH  31  33
ATOM     33  N   UNL     1      46.696 130.800  15.537  1.00  0.00    -0.017 NA
BRANCH  33  34
ATOM     34  N   UNL     1      47.333 130.090  14.756  1.00  0.00     0.009 N 
ATOM     35  N   UNL     1      47.967 129.382  13.976  1.00  0.00    -0.003 NA
ENDBRANCH  33  34
ENDBRANCH  31  33
ENDBRANCH  26  31
ENDBRANCH   6  17
TORSDOF 10
ENDMDL
MODEL 2
REMARK VINA RESULT:      -6.0      1.588      2.816
REMARK SMILES C#C/C(C#N)=N\[C@H](c1c(C)nnn1-c1c2ccccc2c(C(=O)N=[N+]=[N-])c2ccccc12)C(C)C
REMARK SMILES IDX 8 1 9 2 10 3 11 4 12 5 13 6 7 7 6 8 3 9 2 10 1 11 4 12 5 13
REMARK SMILES IDX 33 14 34 15 35 16 14 17 15 18 32 19 16 20 20 21 31 22 27 23
REMARK SMILES IDX 17 24 19 25 21 26 30 27 28 28 18 29 29 30 22 31 23 32 24 33
REMARK SMILES IDX 25 34 26 35
REMARK H PARENT
ROOT
ATOM      1  C   UNL     1      42.021 135.159  19.308  1.00  0.00     0.092 A 
ATOM      2  C   UNL     1      41.139 135.311  20.368  1.00  0.00     0.086 A 
ATOM      3  C   UNL     1      40.782 136.567  21.098  1.00  0.00     0.071 C 
ATOM      4  N   UNL     1      40.581 134.114  20.634  1.00  0.00    -0.135 NA
ATOM      5  N   UNL     1      41.113 133.245  19.788  1.00  0.00    -0.062 NA
ATOM      6  N   UNL     1      41.977 133.844  18.984  1.00  0.00    -0.214 N 
ENDROOT
BRANCH   1   7
ATOM      7  C   UNL     1      42.861 136.259  18.668  1.00  0.00     0.161 C 
BRANCH   7   8
ATOM      8  N   UNL     1      42.059 137.462  18.418  1.00  0.00    -0.256 NA
BRANCH   8   9
ATOM      9  C   UNL     1      41.706 137.944  17.262  1.00  0.00     0.186 C 
BRANCH   9  10
ATOM     10  C   UNL     1      42.361 137.568  16.033  1.00  0.00    -0.039 C 
ATOM     11  C   UNL     1      42.909 137.254  15.006  1.00  0.00     0.012 C 
ENDBRANCH   9  10
BRANCH   9  12
ATOM     12  C   UNL     1      40.616 138.875  17.200  1.00  0.00     0.129 C 
ATOM     13  N   UNL     1      39.735 139.625  17.148  1.00  0.00    -0.190 NA
ENDBRANCH   9  12
ENDBRANCH   8   9
ENDBRANCH   7   8
BRANCH   7  14
ATOM     14  C   UNL     1      44.105 136.608  19.534  1.00  0.00     0.014 C 
ATOM     15  C   UNL     1      44.406 135.536  20.592  1.00  0.00     0.010 C 
ATOM     16  C   UNL     1      43.961 137.984  20.199  1.00  0.00     0.010 C 
ENDBRANCH   7  14
ENDBRANCH   1   7
BRANCH   6  17
ATOM     17  C   UNL     1      42.757 133.125  18.013  1.00  0.00     0.082 A 
ATOM     18  C   UNL     1      42.423 133.201  16.643  1.00  0.00     0.009 A 
ATOM     19  C   UNL     1      43.857 132.346  18.429  1.00  0.00     0.009 A 
ATOM     20  C   UNL     1      41.358 134.020  16.207  1.00  0.00     0.011 A 
ATOM     21  C   UNL     1      43.151 132.442  15.689  1.00  0.00    -0.005 A 
ATOM     22  C   UNL     1      44.249 132.320  19.785  1.00  0.00     0.011 A 
ATOM     23  C   UNL     1      44.579 131.570  17.483  1.00  0.00    -0.005 A 
ATOM     24  C   UNL     1      41.014 134.083  14.858  1.00  0.00     0.001 A 
ATOM     25  C   UNL     1      42.786 132.533  14.326  1.00  0.00     0.009 A 
ATOM     26  C   UNL     1      44.222 131.616  16.112  1.00  0.00     0.040 A 
ATOM     27  C   UNL     1      45.308 131.519  20.206  1.00  0.00     0.001 A 
ATOM     28  C   UNL     1      45.642 130.757  17.939  1.00  0.00     0.009 A 
ATOM     29  C   UNL     1      41.725 133.342  13.921  1.00  0.00     0.001 A 
ATOM     30  C   UNL     1      45.998 130.735  19.288  1.00  0.00     0.001 A 
BRANCH  26  31
ATOM     31  C   UNL     1      44.975 130.810  15.118  1.00  0.00     0.250 C 
ATOM     32  O   UNL     1      44.589 129.642  14.850  1.00  0.00    -0.287 OA
BRANCH  31  33
ATOM     33  N   UNL     1      46.126 131.336  14.451  1.00  0.00    -0.017 NA
BRANCH  33  34
ATOM     34  N   UNL     1      46.449 130.956  13.324  1.00  0.00     0.009 N 
ATOM     35  N   UNL     1      46.771 130.579  12.199  1.00  0.00    -0.003 NA
ENDBRANCH  33  34
ENDBRANCH  31  33
ENDBRANCH  26  31
ENDBRANCH   6  17
TORSDOF 10
ENDMDL
MODEL 3
REMARK VINA RESULT:      -6.0      1.705      3.233
REMARK SMILES C#C/C(C#N)=N\[C@H](c1c(C)nnn1-c1c2ccccc2c(C(=O)N=[N+]=[N-])c2ccccc12)C(C)C
REMARK SMILES IDX 8 1 9 2 10 3 11 4 12 5 13 6 7 7 6 8 3 9 2 10 1 11 4 12 5 13
REMARK SMILES IDX 33 14 34 15 35 16 14 17 15 18 32 19 16 20 20 21 31 22 27 23
REMARK SMILES IDX 17 24 19 25 21 26 30 27 28 28 18 29 29 30 22 31 23 32 24 33
REMARK SMILES IDX 25 34 26 35
REMARK H PARENT
ROOT
ATOM      1  C   UNL     1      41.492 135.351  18.650  1.00  0.00     0.092 A 
ATOM      2  C   UNL     1      40.375 135.636  19.423  1.00  0.00     0.086 A 
ATOM      3  C   UNL     1      39.814 136.977  19.772  1.00  0.00     0.071 C 
ATOM      4  N   UNL     1      39.806 134.473  19.796  1.00  0.00    -0.135 NA
ATOM      5  N   UNL     1      40.552 133.500  19.295  1.00  0.00    -0.062 NA
ATOM      6  N   UNL     1      41.567 133.998  18.605  1.00  0.00    -0.214 N 
ENDROOT
BRANCH   1   7
ATOM      7  C   UNL     1      42.428 136.367  18.007  1.00  0.00     0.161 C 
BRANCH   7   8
ATOM      8  N   UNL     1      41.674 137.460  17.379  1.00  0.00    -0.256 NA
BRANCH   8   9
ATOM      9  C   UNL     1      41.203 137.493  16.167  1.00  0.00     0.186 C 
BRANCH   9  10
ATOM     10  C   UNL     1      39.978 136.829  15.793  1.00  0.00    -0.039 C 
ATOM     11  C   UNL     1      38.954 136.274  15.482  1.00  0.00     0.012 C 
ENDBRANCH   9  10
BRANCH   9  12
ATOM     12  C   UNL     1      41.917 138.228  15.163  1.00  0.00     0.129 C 
ATOM     13  N   UNL     1      42.493 138.820  14.351  1.00  0.00    -0.190 NA
ENDBRANCH   9  12
ENDBRANCH   8   9
ENDBRANCH   7   8
BRANCH   7  14
ATOM     14  C   UNL     1      43.451 136.934  19.031  1.00  0.00     0.014 C 
ATOM     15  C   UNL     1      44.903 136.807  18.546  1.00  0.00     0.010 C 
ATOM     16  C   UNL     1      43.293 136.276  20.409  1.00  0.00     0.010 C 
ENDBRANCH   7  14
ENDBRANCH   1   7
BRANCH   6  17
ATOM     17  C   UNL     1      42.580 133.167  18.012  1.00  0.00     0.082 A 
ATOM     18  C   UNL     1      42.556 132.909  16.624  1.00  0.00     0.009 A 
ATOM     19  C   UNL     1      43.598 132.613  18.817  1.00  0.00     0.009 A 
ATOM     20  C   UNL     1      41.575 133.501  15.798  1.00  0.00     0.011 A 
ATOM     21  C   UNL     1      43.517 132.037  16.046  1.00  0.00    -0.005 A 
ATOM     22  C   UNL     1      43.679 132.923  20.191  1.00  0.00     0.011 A 
ATOM     23  C   UNL     1      44.552 131.727  18.248  1.00  0.00    -0.005 A 
ATOM     24  C   UNL     1      41.537 133.233  14.432  1.00  0.00     0.001 A 
ATOM     25  C   UNL     1      43.461 131.792  14.653  1.00  0.00     0.009 A 
ATOM     26  C   UNL     1      44.508 131.437  16.861  1.00  0.00     0.040 A 
ATOM     27  C   UNL     1      44.657 132.345  20.996  1.00  0.00     0.001 A 
ATOM     28  C   UNL     1      45.527 131.145  19.090  1.00  0.00     0.009 A 
ATOM     29  C   UNL     1      42.477 132.381  13.861  1.00  0.00     0.001 A 
ATOM     30  C   UNL     1      45.573 131.454  20.450  1.00  0.00     0.001 A 
BRANCH  26  31
ATOM     31  C   UNL     1      45.504 130.514  16.261  1.00  0.00     0.250 C 
ATOM     32  O   UNL     1      45.240 129.285  16.182  1.00  0.00    -0.287 OA
BRANCH  31  33
ATOM     33  N   UNL     1      46.756 130.993  15.761  1.00  0.00    -0.017 NA
BRANCH  33  34
ATOM     34  N   UNL     1      46.980 131.076  14.552  1.00  0.00     0.009 N 
ATOM     35  N   UNL     1      47.201 131.159  13.345  1.00  0.00    -0.003 NA
ENDBRANCH  33  34
ENDBRANCH  31  33
ENDBRANCH  26  31
ENDBRANCH   6  17
TORSDOF 10
ENDMDL
MODEL 4
REMARK VINA RESULT:      -5.8      1.608      3.611
REMARK SMILES C#C/C(C#N)=N\[C@H](c1c(C)nnn1-c1c2ccccc2c(C(=O)N=[N+]=[N-])c2ccccc12)C(C)C
REMARK SMILES IDX 8 1 9 2 10 3 11 4 12 5 13 6 7 7 6 8 3 9 2 10 1 11 4 12 5 13
REMARK SMILES IDX 33 14 34 15 35 16 14 17 15 18 32 19 16 20 20 21 31 22 27 23
REMARK SMILES IDX 17 24 19 25 21 26 30 27 28 28 18 29 29 30 22 31 23 32 24 33
REMARK SMILES IDX 25 34 26 35
REMARK H PARENT
ROOT
ATOM      1  C   UNL     1      41.222 135.405  19.530  1.00  0.00     0.092 A 
ATOM      2  C   UNL     1      40.093 135.524  20.328  1.00  0.00     0.086 A 
ATOM      3  C   UNL     1      39.755 136.619  21.289  1.00  0.00     0.071 C 
ATOM      4  N   UNL     1      39.275 134.486  20.068  1.00  0.00    -0.135 NA
ATOM      5  N   UNL     1      39.882 133.735  19.162  1.00  0.00    -0.062 NA
ATOM      6  N   UNL     1      41.047 134.262  18.822  1.00  0.00    -0.214 N 
ENDROOT
BRANCH   1   7
ATOM      7  C   UNL     1      42.403 136.368  19.487  1.00  0.00     0.161 C 
BRANCH   7   8
ATOM      8  N   UNL     1      43.507 135.891  20.329  1.00  0.00    -0.256 NA
BRANCH   8   9
ATOM      9  C   UNL     1      43.939 136.426  21.435  1.00  0.00     0.186 C 
BRANCH   9  10
ATOM     10  C   UNL     1      43.276 137.540  22.066  1.00  0.00    -0.039 C 
ATOM     11  C   UNL     1      42.723 138.472  22.595  1.00  0.00     0.012 C 
ENDBRANCH   9  10
BRANCH   9  12
ATOM     12  C   UNL     1      45.109 135.880  22.060  1.00  0.00     0.129 C 
ATOM     13  N   UNL     1      46.054 135.439  22.563  1.00  0.00    -0.190 NA
ENDBRANCH   9  12
ENDBRANCH   8   9
ENDBRANCH   7   8
BRANCH   7  14
ATOM     14  C   UNL     1      42.897 136.605  18.032  1.00  0.00     0.014 C 
ATOM     15  C   UNL     1      44.429 136.662  17.931  1.00  0.00     0.010 C 
ATOM     16  C   UNL     1      42.279 137.873  17.427  1.00  0.00     0.010 C 
ENDBRANCH   7  14
ENDBRANCH   1   7
BRANCH   6  17
ATOM     17  C   UNL     1      41.952 133.617  17.908  1.00  0.00     0.082 A 
ATOM     18  C   UNL     1      43.004 132.817  18.405  1.00  0.00     0.009 A 
ATOM     19  C   UNL     1      41.786 133.782  16.517  1.00  0.00     0.009 A 
ATOM     20  C   UNL     1      43.149 132.599  19.793  1.00  0.00     0.011 A 
ATOM     21  C   UNL     1      43.937 132.232  17.508  1.00  0.00    -0.005 A 
ATOM     22  C   UNL     1      40.695 134.516  16.004  1.00  0.00     0.011 A 
ATOM     23  C   UNL     1      42.726 133.214  15.616  1.00  0.00    -0.005 A 
ATOM     24  C   UNL     1      44.197 131.826  20.287  1.00  0.00     0.001 A 
ATOM     25  C   UNL     1      44.986 131.443  18.038  1.00  0.00     0.009 A 
ATOM     26  C   UNL     1      43.804 132.441  16.114  1.00  0.00     0.040 A 
ATOM     27  C   UNL     1      40.552 134.716  14.633  1.00  0.00     0.001 A 
ATOM     28  C   UNL     1      42.563 133.443  14.230  1.00  0.00     0.009 A 
ATOM     29  C   UNL     1      45.113 131.250  19.413  1.00  0.00     0.001 A 
ATOM     30  C   UNL     1      41.486 134.188  13.749  1.00  0.00     0.001 A 
BRANCH  26  31
ATOM     31  C   UNL     1      44.788 131.842  15.176  1.00  0.00     0.250 C 
ATOM     32  O   UNL     1      45.893 132.415  14.991  1.00  0.00    -0.287 OA
BRANCH  31  33
ATOM     33  N   UNL     1      44.508 130.621  14.484  1.00  0.00    -0.017 NA
BRANCH  33  34
ATOM     34  N   UNL     1      44.819 129.526  14.956  1.00  0.00     0.009 N 
ATOM     35  N   UNL     1      45.131 128.434  15.428  1.00  0.00    -0.003 NA
ENDBRANCH  33  34
ENDBRANCH  31  33
ENDBRANCH  26  31
ENDBRANCH   6  17
TORSDOF 10
ENDMDL
MODEL 5
REMARK VINA RESULT:      -5.7      1.622      4.203
REMARK SMILES C#C/C(C#N)=N\[C@H](c1c(C)nnn1-c1c2ccccc2c(C(=O)N=[N+]=[N-])c2ccccc12)C(C)C
REMARK SMILES IDX 8 1 9 2 10 3 11 4 12 5 13 6 7 7 6 8 3 9 2 10 1 11 4 12 5 13
REMARK SMILES IDX 33 14 34 15 35 16 14 17 15 18 32 19 16 20 20 21 31 22 27 23
REMARK SMILES IDX 17 24 19 25 21 26 30 27 28 28 18 29 29 30 22 31 23 32 24 33
REMARK SMILES IDX 25 34 26 35
REMARK H PARENT
ROOT
ATOM      1  C   UNL     1      42.532 135.512  20.146  1.00  0.00     0.092 A 
ATOM      2  C   UNL     1      41.693 135.641  21.243  1.00  0.00     0.086 A 
ATOM      3  C   UNL     1      41.547 136.816  22.158  1.00  0.00     0.071 C 
ATOM      4  N   UNL     1      40.952 134.522  21.348  1.00  0.00    -0.135 NA
ATOM      5  N   UNL     1      41.332 133.714  20.369  1.00  0.00    -0.062 NA
ATOM      6  N   UNL     1      42.275 134.282  19.635  1.00  0.00    -0.214 N 
ENDROOT
BRANCH   1   7
ATOM      7  C   UNL     1      43.534 136.548  19.647  1.00  0.00     0.161 C 
BRANCH   7   8
ATOM      8  N   UNL     1      42.910 137.870  19.521  1.00  0.00    -0.256 NA
BRANCH   8   9
ATOM      9  C   UNL     1      42.141 138.288  18.557  1.00  0.00     0.186 C 
BRANCH   9  10
ATOM     10  C   UNL     1      40.704 138.178  18.608  1.00  0.00    -0.039 C 
ATOM     11  C   UNL     1      39.503 138.085  18.651  1.00  0.00     0.012 C 
ENDBRANCH   9  10
BRANCH   9  12
ATOM     12  C   UNL     1      42.741 138.893  17.403  1.00  0.00     0.129 C 
ATOM     13  N   UNL     1      43.228 139.381  16.472  1.00  0.00    -0.190 NA
ENDBRANCH   9  12
ENDBRANCH   8   9
ENDBRANCH   7   8
BRANCH   7  14
ATOM     14  C   UNL     1      44.785 136.625  20.566  1.00  0.00     0.014 C 
ATOM     15  C   UNL     1      44.931 135.390  21.469  1.00  0.00     0.010 C 
ATOM     16  C   UNL     1      44.784 137.904  21.415  1.00  0.00     0.010 C 
ENDBRANCH   7  14
ENDBRANCH   1   7
BRANCH   6  17
ATOM     17  C   UNL     1      42.923 133.602  18.546  1.00  0.00     0.082 A 
ATOM     18  C   UNL     1      43.874 132.592  18.812  1.00  0.00     0.009 A 
ATOM     19  C   UNL     1      42.607 133.942  17.214  1.00  0.00     0.009 A 
ATOM     20  C   UNL     1      44.160 132.205  20.140  1.00  0.00     0.011 A 
ATOM     21  C   UNL     1      44.564 131.964  17.741  1.00  0.00    -0.005 A 
ATOM     22  C   UNL     1      41.605 134.894  16.932  1.00  0.00     0.011 A 
ATOM     23  C   UNL     1      43.305 133.329  16.139  1.00  0.00    -0.005 A 
ATOM     24  C   UNL     1      45.112 131.223  20.407  1.00  0.00     0.001 A 
ATOM     25  C   UNL     1      45.517 130.963  18.041  1.00  0.00     0.009 A 
ATOM     26  C   UNL     1      44.287 132.342  16.404  1.00  0.00     0.040 A 
ATOM     27  C   UNL     1      41.320 135.262  15.619  1.00  0.00     0.001 A 
ATOM     28  C   UNL     1      43.004 133.730  14.816  1.00  0.00     0.009 A 
ATOM     29  C   UNL     1      45.788 130.604  19.361  1.00  0.00     0.001 A 
ATOM     30  C   UNL     1      42.022 134.688  14.565  1.00  0.00     0.001 A 
BRANCH  26  31
ATOM     31  C   UNL     1      45.017 131.696  15.284  1.00  0.00     0.250 C 
ATOM     32  O   UNL     1      44.485 130.732  14.674  1.00  0.00    -0.287 OA
BRANCH  31  33
ATOM     33  N   UNL     1      46.310 132.153  14.876  1.00  0.00    -0.017 NA
BRANCH  33  34
ATOM     34  N   UNL     1      47.009 131.501  14.099  1.00  0.00     0.009 N 
ATOM     35  N   UNL     1      47.706 130.851  13.322  1.00  0.00    -0.003 NA
ENDBRANCH  33  34
ENDBRANCH  31  33
ENDBRANCH  26  31
ENDBRANCH   6  17
TORSDOF 10
ENDMDL
MODEL 6
REMARK VINA RESULT:      -5.7      1.489      3.803
REMARK SMILES C#C/C(C#N)=N\[C@H](c1c(C)nnn1-c1c2ccccc2c(C(=O)N=[N+]=[N-])c2ccccc12)C(C)C
REMARK SMILES IDX 8 1 9 2 10 3 11 4 12 5 13 6 7 7 6 8 3 9 2 10 1 11 4 12 5 13
REMARK SMILES IDX 33 14 34 15 35 16 14 17 15 18 32 19 16 20 20 21 31 22 27 23
REMARK SMILES IDX 17 24 19 25 21 26 30 27 28 28 18 29 29 30 22 31 23 32 24 33
REMARK SMILES IDX 25 34 26 35
REMARK H PARENT
ROOT
ATOM      1  C   UNL     1      40.669 135.504  19.249  1.00  0.00     0.092 A 
ATOM      2  C   UNL     1      39.500 135.691  19.971  1.00  0.00     0.086 A 
ATOM      3  C   UNL     1      39.035 136.930  20.669  1.00  0.00     0.071 C 
ATOM      4  N   UNL     1      38.777 134.556  19.914  1.00  0.00    -0.135 NA
ATOM      5  N   UNL     1      39.480 133.687  19.203  1.00  0.00    -0.062 NA
ATOM      6  N   UNL     1      40.615 134.229  18.793  1.00  0.00    -0.214 N 
ENDROOT
BRANCH   1   7
ATOM      7  C   UNL     1      41.774 136.534  19.037  1.00  0.00     0.161 C 
BRANCH   7   8
ATOM      8  N   UNL     1      43.068 135.881  18.803  1.00  0.00    -0.256 NA
BRANCH   8   9
ATOM      9  C   UNL     1      44.072 136.351  18.120  1.00  0.00     0.186 C 
BRANCH   9  10
ATOM     10  C   UNL     1      44.970 137.349  18.649  1.00  0.00    -0.039 C 
ATOM     11  C   UNL     1      45.719 138.183  19.091  1.00  0.00     0.012 C 
ENDBRANCH   9  10
BRANCH   9  12
ATOM     12  C   UNL     1      44.308 135.851  16.796  1.00  0.00     0.129 C 
ATOM     13  N   UNL     1      44.499 135.446  15.728  1.00  0.00    -0.190 NA
ENDBRANCH   9  12
ENDBRANCH   8   9
ENDBRANCH   7   8
BRANCH   7  14
ATOM     14  C   UNL     1      41.438 137.504  17.870  1.00  0.00     0.014 C 
ATOM     15  C   UNL     1      41.361 138.969  18.325  1.00  0.00     0.010 C 
ATOM     16  C   UNL     1      40.139 137.102  17.158  1.00  0.00     0.010 C 
ENDBRANCH   7  14
ENDBRANCH   1   7
BRANCH   6  17
ATOM     17  C   UNL     1      41.608 133.486  18.062  1.00  0.00     0.082 A 
ATOM     18  C   UNL     1      42.635 132.810  18.756  1.00  0.00     0.009 A 
ATOM     19  C   UNL     1      41.552 133.433  16.654  1.00  0.00     0.009 A 
ATOM     20  C   UNL     1      42.671 132.810  20.167  1.00  0.00     0.011 A 
ATOM     21  C   UNL     1      43.653 132.131  18.035  1.00  0.00    -0.005 A 
ATOM     22  C   UNL     1      40.490 134.040  15.951  1.00  0.00     0.011 A 
ATOM     23  C   UNL     1      42.576 132.770  15.926  1.00  0.00    -0.005 A 
ATOM     24  C   UNL     1      43.694 132.160  20.855  1.00  0.00     0.001 A 
ATOM     25  C   UNL     1      44.673 131.471  18.759  1.00  0.00     0.009 A 
ATOM     26  C   UNL     1      43.630 132.122  16.619  1.00  0.00     0.040 A 
ATOM     27  C   UNL     1      40.454 134.025  14.559  1.00  0.00     0.001 A 
ATOM     28  C   UNL     1      42.523 132.781  14.513  1.00  0.00     0.009 A 
ATOM     29  C   UNL     1      44.692 131.493  20.153  1.00  0.00     0.001 A 
ATOM     30  C   UNL     1      41.471 133.405  13.841  1.00  0.00     0.001 A 
BRANCH  26  31
ATOM     31  C   UNL     1      44.701 131.425  15.863  1.00  0.00     0.250 C 
ATOM     32  O   UNL     1      44.593 130.191  15.634  1.00  0.00    -0.287 OA
BRANCH  31  33
ATOM     33  N   UNL     1      45.850 132.127  15.381  1.00  0.00    -0.017 NA
BRANCH  33  34
ATOM     34  N   UNL     1      46.585 131.646  14.517  1.00  0.00     0.009 N 
ATOM     35  N   UNL     1      47.318 131.165  13.654  1.00  0.00    -0.003 NA
ENDBRANCH  33  34
ENDBRANCH  31  33
ENDBRANCH  26  31
ENDBRANCH   6  17
TORSDOF 10
ENDMDL
MODEL 7
REMARK VINA RESULT:      -5.7      2.862      4.635
REMARK SMILES C#C/C(C#N)=N\[C@H](c1c(C)nnn1-c1c2ccccc2c(C(=O)N=[N+]=[N-])c2ccccc12)C(C)C
REMARK SMILES IDX 8 1 9 2 10 3 11 4 12 5 13 6 7 7 6 8 3 9 2 10 1 11 4 12 5 13
REMARK SMILES IDX 33 14 34 15 35 16 14 17 15 18 32 19 16 20 20 21 31 22 27 23
REMARK SMILES IDX 17 24 19 25 21 26 30 27 28 28 18 29 29 30 22 31 23 32 24 33
REMARK SMILES IDX 25 34 26 35
REMARK H PARENT
ROOT
ATOM      1  C   UNL     1      43.857 132.913  21.034  1.00  0.00     0.092 A 
ATOM      2  C   UNL     1      43.901 132.143  22.188  1.00  0.00     0.086 A 
ATOM      3  C   UNL     1      44.621 132.436  23.465  1.00  0.00     0.071 C 
ATOM      4  N   UNL     1      43.122 131.059  22.006  1.00  0.00    -0.135 NA
ATOM      5  N   UNL     1      42.632 131.137  20.779  1.00  0.00    -0.062 NA
ATOM      6  N   UNL     1      43.055 132.237  20.176  1.00  0.00    -0.214 N 
ENDROOT
BRANCH   1   7
ATOM      7  C   UNL     1      44.580 134.236  20.804  1.00  0.00     0.161 C 
BRANCH   7   8
ATOM      8  N   UNL     1      43.626 135.333  20.600  1.00  0.00    -0.256 NA
BRANCH   8   9
ATOM      9  C   UNL     1      43.696 136.278  19.708  1.00  0.00     0.186 C 
BRANCH   9  10
ATOM     10  C   UNL     1      43.987 136.015  18.320  1.00  0.00    -0.039 C 
ATOM     11  C   UNL     1      44.230 135.795  17.160  1.00  0.00     0.012 C 
ENDBRANCH   9  10
BRANCH   9  12
ATOM     12  C   UNL     1      43.462 137.635  20.114  1.00  0.00     0.129 C 
ATOM     13  N   UNL     1      43.273 138.730  20.439  1.00  0.00    -0.190 NA
ENDBRANCH   9  12
ENDBRANCH   8   9
ENDBRANCH   7   8
BRANCH   7  14
ATOM     14  C   UNL     1      45.549 134.571  21.972  1.00  0.00     0.014 C 
ATOM     15  C   UNL     1      45.053 135.745  22.831  1.00  0.00     0.010 C 
ATOM     16  C   UNL     1      46.970 134.851  21.464  1.00  0.00     0.010 C 
ENDBRANCH   7  14
ENDBRANCH   1   7
BRANCH   6  17
ATOM     17  C   UNL     1      42.736 132.540  18.806  1.00  0.00     0.082 A 
ATOM     18  C   UNL     1      41.548 133.238  18.497  1.00  0.00     0.009 A 
ATOM     19  C   UNL     1      43.611 132.142  17.774  1.00  0.00     0.009 A 
ATOM     20  C   UNL     1      40.691 133.690  19.524  1.00  0.00     0.011 A 
ATOM     21  C   UNL     1      41.199 133.483  17.142  1.00  0.00    -0.005 A 
ATOM     22  C   UNL     1      44.838 131.511  18.072  1.00  0.00     0.011 A 
ATOM     23  C   UNL     1      43.259 132.368  16.416  1.00  0.00    -0.005 A 
ATOM     24  C   UNL     1      39.509 134.362  19.222  1.00  0.00     0.001 A 
ATOM     25  C   UNL     1      39.997 134.176  16.866  1.00  0.00     0.009 A 
ATOM     26  C   UNL     1      42.049 133.036  16.101  1.00  0.00     0.040 A 
ATOM     27  C   UNL     1      45.684 131.080  17.054  1.00  0.00     0.001 A 
ATOM     28  C   UNL     1      44.131 131.909  15.402  1.00  0.00     0.009 A 
ATOM     29  C   UNL     1      39.163 134.605  17.897  1.00  0.00     0.001 A 
ATOM     30  C   UNL     1      45.329 131.271  15.723  1.00  0.00     0.001 A 
BRANCH  26  31
ATOM     31  C   UNL     1      41.678 133.278  14.684  1.00  0.00     0.250 C 
ATOM     32  O   UNL     1      41.279 132.315  13.977  1.00  0.00    -0.287 OA
BRANCH  31  33
ATOM     33  N   UNL     1      41.755 134.584  14.107  1.00  0.00    -0.017 NA
BRANCH  33  34
ATOM     34  N   UNL     1      40.771 135.124  13.598  1.00  0.00     0.009 N 
ATOM     35  N   UNL     1      39.787 135.662  13.092  1.00  0.00    -0.003 NA
ENDBRANCH  33  34
ENDBRANCH  31  33
ENDBRANCH  26  31
ENDBRANCH   6  17
TORSDOF 10
ENDMDL
MODEL 8
REMARK VINA RESULT:      -5.5      3.181      6.411
REMARK SMILES C#C/C(C#N)=N\[C@H](c1c(C)nnn1-c1c2ccccc2c(C(=O)N=[N+]=[N-])c2ccccc12)C(C)C
REMARK SMILES IDX 8 1 9 2 10 3 11 4 12 5 13 6 7 7 6 8 3 9 2 10 1 11 4 12 5 13
REMARK SMILES IDX 33 14 34 15 35 16 14 17 15 18 32 19 16 20 20 21 31 22 27 23
REMARK SMILES IDX 17 24 19 25 21 26 30 27 28 28 18 29 29 30 22 31 23 32 24 33
REMARK SMILES IDX 25 34 26 35
REMARK H PARENT
ROOT
ATOM      1  C   UNL     1      44.001 133.007  17.322  1.00  0.00     0.092 A 
ATOM      2  C   UNL     1      45.011 132.118  16.988  1.00  0.00     0.086 A 
ATOM      3  C   UNL     1      45.403 130.859  17.695  1.00  0.00     0.071 C 
ATOM      4  N   UNL     1      45.593 132.541  15.849  1.00  0.00    -0.135 NA
ATOM      5  N   UNL     1      44.984 133.665  15.500  1.00  0.00    -0.062 NA
ATOM      6  N   UNL     1      44.027 133.965  16.363  1.00  0.00    -0.214 N 
ENDROOT
BRANCH   1   7
ATOM      7  C   UNL     1      43.074 132.909  18.529  1.00  0.00     0.161 C 
BRANCH   7   8
ATOM      8  N   UNL     1      43.593 133.689  19.660  1.00  0.00    -0.256 NA
BRANCH   8   9
ATOM      9  C   UNL     1      44.440 133.291  20.565  1.00  0.00     0.186 C 
BRANCH   9  10
ATOM     10  C   UNL     1      45.480 134.147  21.081  1.00  0.00    -0.039 C 
ATOM     11  C   UNL     1      46.350 134.861  21.513  1.00  0.00     0.012 C 
ENDBRANCH   9  10
BRANCH   9  12
ATOM     12  C   UNL     1      44.330 131.957  21.082  1.00  0.00     0.129 C 
ATOM     13  N   UNL     1      44.239 130.881  21.498  1.00  0.00    -0.190 NA
ENDBRANCH   9  12
ENDBRANCH   8   9
ENDBRANCH   7   8
BRANCH   7  14
ATOM     14  C   UNL     1      41.628 133.359  18.180  1.00  0.00     0.014 C 
ATOM     15  C   UNL     1      41.025 134.287  19.246  1.00  0.00     0.010 C 
ATOM     16  C   UNL     1      40.705 132.155  17.943  1.00  0.00     0.010 C 
ENDBRANCH   7  14
ENDBRANCH   1   7
BRANCH   6  17
ATOM     17  C   UNL     1      43.252 135.173  16.270  1.00  0.00     0.082 A 
ATOM     18  C   UNL     1      42.143 135.233  15.397  1.00  0.00     0.009 A 
ATOM     19  C   UNL     1      43.597 136.296  17.051  1.00  0.00     0.009 A 
ATOM     20  C   UNL     1      41.754 134.100  14.649  1.00  0.00     0.011 A 
ATOM     21  C   UNL     1      41.415 136.444  15.253  1.00  0.00    -0.005 A 
ATOM     22  C   UNL     1      44.655 136.227  17.982  1.00  0.00     0.011 A 
ATOM     23  C   UNL     1      42.884 137.515  16.900  1.00  0.00    -0.005 A 
ATOM     24  C   UNL     1      40.672 134.161  13.773  1.00  0.00     0.001 A 
ATOM     25  C   UNL     1      40.315 136.474  14.364  1.00  0.00     0.009 A 
ATOM     26  C   UNL     1      41.794 137.589  15.997  1.00  0.00     0.040 A 
ATOM     27  C   UNL     1      45.025 137.345  18.725  1.00  0.00     0.001 A 
ATOM     28  C   UNL     1      43.289 138.638  17.657  1.00  0.00     0.009 A 
ATOM     29  C   UNL     1      39.956 135.344  13.631  1.00  0.00     0.001 A 
ATOM     30  C   UNL     1      44.350 138.549  18.558  1.00  0.00     0.001 A 
BRANCH  26  31
ATOM     31  C   UNL     1      41.042 138.859  15.837  1.00  0.00     0.250 C 
ATOM     32  O   UNL     1      41.310 139.618  14.869  1.00  0.00    -0.287 OA
BRANCH  31  33
ATOM     33  N   UNL     1      40.013 139.236  16.757  1.00  0.00    -0.017 NA
BRANCH  33  34
ATOM     34  N   UNL     1      38.889 138.736  16.708  1.00  0.00     0.009 N 
ATOM     35  N   UNL     1      37.767 138.234  16.657  1.00  0.00    -0.003 NA
ENDBRANCH  33  34
ENDBRANCH  31  33
ENDBRANCH  26  31
ENDBRANCH   6  17
TORSDOF 10
ENDMDL
MODEL 9
REMARK VINA RESULT:      -5.5      1.850      2.323
REMARK SMILES C#C/C(C#N)=N\[C@H](c1c(C)nnn1-c1c2ccccc2c(C(=O)N=[N+]=[N-])c2ccccc12)C(C)C
REMARK SMILES IDX 8 1 9 2 10 3 11 4 12 5 13 6 7 7 6 8 3 9 2 10 1 11 4 12 5 13
REMARK SMILES IDX 33 14 34 15 35 16 14 17 15 18 32 19 16 20 20 21 31 22 27 23
REMARK SMILES IDX 17 24 19 25 21 26 30 27 28 28 18 29 29 30 22 31 23 32 24 33
REMARK SMILES IDX 25 34 26 35
REMARK H PARENT
ROOT
ATOM      1  C   UNL     1      43.247 136.519  20.761  1.00  0.00     0.092 A 
ATOM      2  C   UNL     1      42.298 136.939  21.682  1.00  0.00     0.086 A 
ATOM      3  C   UNL     1      42.341 138.146  22.564  1.00  0.00     0.071 C 
ATOM      4  N   UNL     1      41.253 136.091  21.635  1.00  0.00    -0.135 NA
ATOM      5  N   UNL     1      41.549 135.163  20.737  1.00  0.00    -0.062 NA
ATOM      6  N   UNL     1      42.736 135.396  20.199  1.00  0.00    -0.214 N 
ENDROOT
BRANCH   1   7
ATOM      7  C   UNL     1      44.583 137.193  20.470  1.00  0.00     0.161 C 
BRANCH   7   8
ATOM      8  N   UNL     1      45.694 136.240  20.585  1.00  0.00    -0.256 NA
BRANCH   8   9
ATOM      9  C   UNL     1      46.548 136.144  21.563  1.00  0.00     0.186 C 
BRANCH   9  10
ATOM     10  C   UNL     1      47.413 135.001  21.728  1.00  0.00    -0.039 C 
ATOM     11  C   UNL     1      48.135 134.046  21.865  1.00  0.00     0.012 C 
ENDBRANCH   9  10
BRANCH   9  12
ATOM     12  C   UNL     1      46.647 137.220  22.507  1.00  0.00     0.129 C 
ATOM     13  N   UNL     1      46.730 138.088  23.269  1.00  0.00    -0.190 NA
ENDBRANCH   9  12
ENDBRANCH   8   9
ENDBRANCH   7   8
BRANCH   7  14
ATOM     14  C   UNL     1      44.593 137.868  19.069  1.00  0.00     0.014 C 
ATOM     15  C   UNL     1      46.003 138.286  18.626  1.00  0.00     0.010 C 
ATOM     16  C   UNL     1      43.642 139.072  19.017  1.00  0.00     0.010 C 
ENDBRANCH   7  14
ENDBRANCH   1   7
BRANCH   6  17
ATOM     17  C   UNL     1      43.342 134.505  19.245  1.00  0.00     0.082 A 
ATOM     18  C   UNL     1      43.218 134.763  17.863  1.00  0.00     0.009 A 
ATOM     19  C   UNL     1      44.060 133.377  19.693  1.00  0.00     0.009 A 
ATOM     20  C   UNL     1      42.548 135.918  17.403  1.00  0.00     0.011 A 
ATOM     21  C   UNL     1      43.759 133.851  16.918  1.00  0.00    -0.005 A 
ATOM     22  C   UNL     1      44.257 133.148  21.071  1.00  0.00     0.011 A 
ATOM     23  C   UNL     1      44.590 132.452  18.753  1.00  0.00    -0.005 A 
ATOM     24  C   UNL     1      42.407 136.165  16.039  1.00  0.00     0.001 A 
ATOM     25  C   UNL     1      43.610 134.133  15.539  1.00  0.00     0.009 A 
ATOM     26  C   UNL     1      44.434 132.689  17.364  1.00  0.00     0.040 A 
ATOM     27  C   UNL     1      44.930 132.013  21.517  1.00  0.00     0.001 A 
ATOM     28  C   UNL     1      45.258 131.302  19.233  1.00  0.00     0.009 A 
ATOM     29  C   UNL     1      42.936 135.275  15.110  1.00  0.00     0.001 A 
ATOM     30  C   UNL     1      45.422 131.089  20.602  1.00  0.00     0.001 A 
BRANCH  26  31
ATOM     31  C   UNL     1      44.988 131.727  16.378  1.00  0.00     0.250 C 
ATOM     32  O   UNL     1      44.270 130.775  15.973  1.00  0.00    -0.287 OA
BRANCH  31  33
ATOM     33  N   UNL     1      46.319 131.864  15.870  1.00  0.00    -0.017 NA
BRANCH  33  34
ATOM     34  N   UNL     1      46.595 131.592  14.701  1.00  0.00     0.009 N 
ATOM     35  N   UNL     1      46.871 131.318  13.534  1.00  0.00    -0.003 NA
ENDBRANCH  33  34
ENDBRANCH  31  33
ENDBRANCH  26  31
ENDBRANCH   6  17
TORSDOF 10
ENDMDL


