REMARK SMILES Cc1n[nH+]n([C@@H]2O[C@@]2(O)Nc2cccc(C#N)c2C)c1-c1cc2ccccc2c2c1C[N+](C)(C)C2
REMARK SMILES IDX 6 1 7 2 8 3 5 4 2 5 3 6 20 7 4 8 1 9 21 11 22 12 30 13 23 14
REMARK SMILES IDX 29 15 31 16 24 17 28 18 35 19 32 20 25 21 27 22 26 23 33 24
REMARK SMILES IDX 34 25 9 26 10 28 11 30 12 31 18 32 13 33 15 34 14 35 19 36
REMARK SMILES IDX 16 37 17 38
REMARK H PARENT 4 10 9 27 10 29
ROOT
ATOM      1  C   UNL     1       1.042   2.981   0.010  1.00  0.00     0.368 C 
ATOM      2  O   UNL     1       1.366   4.165   0.712  1.00  0.00    -0.292 OA
ATOM      3  C   UNL     1       1.029   3.038   1.487  1.00  0.00     0.302 C 
ENDROOT
BRANCH   1   4
ATOM      4  N   UNL     1       2.230   2.365  -0.583  1.00  0.00    -0.091 N 
ATOM      5  C   UNL     1       3.710   0.954  -1.368  1.00  0.00     0.137 A 
ATOM      6  N   UNL     1       4.227   2.197  -1.471  1.00  0.00     0.020 NA
ATOM      7  C   UNL     1       2.439   1.058  -0.830  1.00  0.00     0.140 A 
ATOM      8  N   UNL     1       3.311   3.022  -0.982  1.00  0.00    -0.014 N 
ATOM      9  C   UNL     1       4.370  -0.277  -1.898  1.00  0.00     0.076 C 
ATOM     10  H   UNL     1       3.433   4.058  -0.929  1.00  0.00     0.526 HD
BRANCH   7  11
ATOM     11  C   UNL     1       1.500  -0.037  -0.531  1.00  0.00     0.016 A 
ATOM     12  C   UNL     1       1.808  -0.975   0.472  1.00  0.00     0.019 A 
ATOM     13  C   UNL     1       0.275  -0.158  -1.202  1.00  0.00     0.025 A 
ATOM     14  C   UNL     1       0.893  -1.997   0.801  1.00  0.00    -0.017 A 
ATOM     15  C   UNL     1      -0.629  -1.131  -0.874  1.00  0.00     0.024 A 
ATOM     16  C   UNL     1      -0.217   0.601  -2.381  1.00  0.00     0.301 C 
ATOM     17  C   UNL     1       1.191  -2.922   1.813  1.00  0.00     0.009 A 
ATOM     18  C   UNL     1      -0.352  -2.080   0.121  1.00  0.00    -0.009 A 
ATOM     19  C   UNL     1      -1.836  -1.011  -1.737  1.00  0.00     0.301 C 
ATOM     20  N   UNL     1      -1.670   0.284  -2.463  1.00  0.00    -0.321 N 
ATOM     21  C   UNL     1       0.271  -3.921   2.144  1.00  0.00     0.001 A 
ATOM     22  C   UNL     1      -1.265  -3.091   0.462  1.00  0.00     0.009 A 
ATOM     23  C   UNL     1      -0.951  -4.005   1.471  1.00  0.00     0.001 A 
ATOM     24  C   UNL     1      -2.109   0.171  -3.873  1.00  0.00     0.334 C 
ATOM     25  C   UNL     1      -2.455   1.349  -1.788  1.00  0.00     0.334 C 
ENDBRANCH   7  11
ENDBRANCH   1   4
BRANCH   3  26
ATOM     26  O   UNL     1       2.120   2.577   2.236  1.00  0.00    -0.345 OA
ATOM     27  H   UNL     1       2.241   3.240   2.965  1.00  0.00     0.216 HD
ENDBRANCH   3  26
BRANCH   3  28
ATOM     28  N   UNL     1      -0.254   3.201   2.166  1.00  0.00    -0.330 N 
ATOM     29  H   UNL     1      -0.512   4.165   2.477  1.00  0.00     0.166 HD
BRANCH  28  30
ATOM     30  C   UNL     1      -1.165   2.103   2.380  1.00  0.00     0.042 A 
ATOM     31  C   UNL     1      -0.664   0.796   2.513  1.00  0.00     0.026 A 
ATOM     32  C   UNL     1      -2.565   2.328   2.483  1.00  0.00    -0.010 A 
ATOM     33  C   UNL     1      -1.522  -0.271   2.768  1.00  0.00     0.004 A 
ATOM     34  C   UNL     1      -3.425   1.228   2.738  1.00  0.00     0.057 A 
ATOM     35  C   UNL     1      -2.893  -0.059   2.873  1.00  0.00     0.020 A 
ATOM     36  C   UNL     1      -3.114   3.729   2.335  1.00  0.00     0.048 C 
BRANCH  34  37
ATOM     37  C   UNL     1      -4.854   1.386   2.875  1.00  0.00     0.099 C 
ATOM     38  N   UNL     1      -6.000   1.510   2.983  1.00  0.00    -0.192 NA
ENDBRANCH  34  37
ENDBRANCH  28  30
ENDBRANCH   3  28
TORSDOF 6


