MODEL 1
REMARK VINA RESULT:      -9.2      0.000      0.000
REMARK SMILES Cc1nnn(Cc2nc3cc4ccccc4cc3[n-]2)c1-c1nnc([C@@H]2C[C@@H]2C)o1
REMARK SMILES IDX 1 1 2 2 3 3 4 4 5 5 20 6 21 7 22 8 29 9 23 10 24 11 25 12
REMARK SMILES IDX 26 13 27 14 28 15 6 16 7 17 8 18 19 19 9 20 18 21 10 22
REMARK SMILES IDX 17 23 11 24 16 25 12 26 15 27 13 28 14 29
REMARK H PARENT
ROOT
ATOM      1  C   UNL     1      41.072 137.393  17.376  1.00  0.00     0.071 C 
ATOM      2  C   UNL     1      41.704 136.135  17.879  1.00  0.00     0.093 A 
ATOM      3  N   UNL     1      42.743 136.105  18.737  1.00  0.00    -0.135 NA
ATOM      4  N   UNL     1      43.034 134.828  18.945  1.00  0.00    -0.066 NA
ATOM      5  N   UNL     1      42.222 134.044  18.253  1.00  0.00    -0.236 N 
ATOM      6  C   UNL     1      41.366 134.832  17.564  1.00  0.00     0.149 A 
ENDROOT
BRANCH   6   7
ATOM      7  C   UNL     1      40.306 134.372  16.645  1.00  0.00     0.267 A 
ATOM      8  N   UNL     1      39.346 133.484  16.969  1.00  0.00    -0.106 NA
ATOM      9  O   UNL     1      40.167 134.783  15.410  1.00  0.00    -0.419 OA
ATOM     10  N   UNL     1      38.587 133.342  15.894  1.00  0.00    -0.112 NA
ATOM     11  C   UNL     1      39.117 134.148  14.954  1.00  0.00     0.220 A 
BRANCH  11  12
ATOM     12  C   UNL     1      38.547 134.333  13.580  1.00  0.00     0.081 C 
ATOM     13  C   UNL     1      39.041 135.583  12.859  1.00  0.00     0.017 C 
ATOM     14  C   UNL     1      37.601 135.514  13.351  1.00  0.00    -0.001 C 
ATOM     15  C   UNL     1      37.275 136.444  14.525  1.00  0.00     0.008 C 
ENDBRANCH  11  12
ENDBRANCH   6   7
BRANCH   5  16
ATOM     16  C   UNL     1      42.288 132.584  18.289  1.00  0.00     0.173 C 
BRANCH  16  17
ATOM     17  C   UNL     1      43.308 132.076  17.321  1.00  0.00    -0.060 A 
ATOM     18  N   UNL     1      43.164 132.182  15.973  1.00  0.00    -0.438 NA
ATOM     19  N   UNL     1      44.460 131.475  17.721  1.00  0.00    -0.438 NA
ATOM     20  C   UNL     1      44.283 131.600  15.516  1.00  0.00    -0.038 A 
ATOM     21  C   UNL     1      45.053 131.179  16.556  1.00  0.00    -0.038 A 
ATOM     22  C   UNL     1      44.662 131.413  14.190  1.00  0.00     0.012 A 
ATOM     23  C   UNL     1      46.269 130.530  16.366  1.00  0.00     0.012 A 
ATOM     24  C   UNL     1      45.889 130.759  13.944  1.00  0.00    -0.018 A 
ATOM     25  C   UNL     1      46.697 130.315  15.037  1.00  0.00    -0.018 A 
ATOM     26  C   UNL     1      46.326 130.537  12.629  1.00  0.00     0.009 A 
ATOM     27  C   UNL     1      47.912 129.664  14.778  1.00  0.00     0.009 A 
ATOM     28  C   UNL     1      47.540 129.887  12.392  1.00  0.00     0.001 A 
ATOM     29  C   UNL     1      48.329 129.453  13.461  1.00  0.00     0.001 A 
ENDBRANCH  16  17
ENDBRANCH   5  16
TORSDOF 4
ENDMDL
MODEL 2
REMARK VINA RESULT:      -8.8      0.941      1.252
REMARK SMILES Cc1nnn(Cc2nc3cc4ccccc4cc3[n-]2)c1-c1nnc([C@@H]2C[C@@H]2C)o1
REMARK SMILES IDX 1 1 2 2 3 3 4 4 5 5 20 6 21 7 22 8 29 9 23 10 24 11 25 12
REMARK SMILES IDX 26 13 27 14 28 15 6 16 7 17 8 18 19 19 9 20 18 21 10 22
REMARK SMILES IDX 17 23 11 24 16 25 12 26 15 27 13 28 14 29
REMARK H PARENT
ROOT
ATOM      1  C   UNL     1      41.540 137.306  19.084  1.00  0.00     0.071 C 
ATOM      2  C   UNL     1      42.058 135.906  19.130  1.00  0.00     0.093 A 
ATOM      3  N   UNL     1      43.229 135.553  19.698  1.00  0.00    -0.135 NA
ATOM      4  N   UNL     1      43.356 134.243  19.537  1.00  0.00    -0.066 NA
ATOM      5  N   UNL     1      42.313 133.747  18.889  1.00  0.00    -0.236 N 
ATOM      6  C   UNL     1      41.470 134.766  18.612  1.00  0.00     0.149 A 
ENDROOT
BRANCH   6   7
ATOM      7  C   UNL     1      40.192 134.665  17.879  1.00  0.00     0.267 A 
ATOM      8  N   UNL     1      39.208 133.795  18.175  1.00  0.00    -0.106 NA
ATOM      9  O   UNL     1      39.860 135.419  16.861  1.00  0.00    -0.419 OA
ATOM     10  N   UNL     1      38.233 134.020  17.309  1.00  0.00    -0.112 NA
ATOM     11  C   UNL     1      38.663 135.018  16.514  1.00  0.00     0.220 A 
BRANCH  11  12
ATOM     12  C   UNL     1      37.855 135.627  15.409  1.00  0.00     0.081 C 
ATOM     13  C   UNL     1      37.043 134.623  14.596  1.00  0.00     0.017 C 
ATOM     14  C   UNL     1      38.254 135.303  13.967  1.00  0.00    -0.001 C 
ATOM     15  C   UNL     1      39.454 134.381  13.719  1.00  0.00     0.008 C 
ENDBRANCH  11  12
ENDBRANCH   6   7
BRANCH   5  16
ATOM     16  C   UNL     1      42.160 132.327  18.576  1.00  0.00     0.173 C 
BRANCH  16  17
ATOM     17  C   UNL     1      43.174 131.896  17.564  1.00  0.00    -0.060 A 
ATOM     18  N   UNL     1      42.982 132.031  16.224  1.00  0.00    -0.438 NA
ATOM     19  N   UNL     1      44.366 131.343  17.912  1.00  0.00    -0.438 NA
ATOM     20  C   UNL     1      44.114 131.518  15.718  1.00  0.00    -0.038 A 
ATOM     21  C   UNL     1      44.936 131.108  16.722  1.00  0.00    -0.038 A 
ATOM     22  C   UNL     1      44.460 131.385  14.377  1.00  0.00     0.012 A 
ATOM     23  C   UNL     1      46.175 130.526  16.477  1.00  0.00     0.012 A 
ATOM     24  C   UNL     1      45.709 130.800  14.075  1.00  0.00    -0.018 A 
ATOM     25  C   UNL     1      46.572 130.367  15.131  1.00  0.00    -0.018 A 
ATOM     26  C   UNL     1      46.115 130.635  12.742  1.00  0.00     0.009 A 
ATOM     27  C   UNL     1      47.808 129.785  14.818  1.00  0.00     0.009 A 
ATOM     28  C   UNL     1      47.352 130.052  12.451  1.00  0.00     0.001 A 
ATOM     29  C   UNL     1      48.194 129.630  13.483  1.00  0.00     0.001 A 
ENDBRANCH  16  17
ENDBRANCH   5  16
TORSDOF 4
ENDMDL
MODEL 3
REMARK VINA RESULT:      -8.8      1.188      1.380
REMARK SMILES Cc1nnn(Cc2nc3cc4ccccc4cc3[n-]2)c1-c1nnc([C@@H]2C[C@@H]2C)o1
REMARK SMILES IDX 1 1 2 2 3 3 4 4 5 5 20 6 21 7 22 8 29 9 23 10 24 11 25 12
REMARK SMILES IDX 26 13 27 14 28 15 6 16 7 17 8 18 19 19 9 20 18 21 10 22
REMARK SMILES IDX 17 23 11 24 16 25 12 26 15 27 13 28 14 29
REMARK H PARENT
ROOT
ATOM      1  C   UNL     1      42.586 137.311  18.808  1.00  0.00     0.071 C 
ATOM      2  C   UNL     1      43.104 135.937  19.090  1.00  0.00     0.093 A 
ATOM      3  N   UNL     1      44.200 135.682  19.832  1.00  0.00    -0.135 NA
ATOM      4  N   UNL     1      44.353 134.366  19.852  1.00  0.00    -0.066 NA
ATOM      5  N   UNL     1      43.399 133.772  19.152  1.00  0.00    -0.236 N 
ATOM      6  C   UNL     1      42.589 134.731  18.652  1.00  0.00     0.149 A 
ENDROOT
BRANCH   6   7
ATOM      7  C   UNL     1      41.409 134.513  17.792  1.00  0.00     0.267 A 
ATOM      8  N   UNL     1      40.179 134.201  18.245  1.00  0.00    -0.106 NA
ATOM      9  O   UNL     1      41.416 134.611  16.486  1.00  0.00    -0.419 OA
ATOM     10  N   UNL     1      39.400 134.102  17.180  1.00  0.00    -0.112 NA
ATOM     11  C   UNL     1      40.186 134.355  16.117  1.00  0.00     0.220 A 
BRANCH  11  12
ATOM     12  C   UNL     1      39.705 134.391  14.698  1.00  0.00     0.081 C 
ATOM     13  C   UNL     1      40.687 135.023  13.717  1.00  0.00     0.017 C 
ATOM     14  C   UNL     1      39.401 135.757  14.079  1.00  0.00    -0.001 C 
ATOM     15  C   UNL     1      39.596 137.017  14.930  1.00  0.00     0.008 C 
ENDBRANCH  11  12
ENDBRANCH   6   7
BRANCH   5  16
ATOM     16  C   UNL     1      43.294 132.321  19.003  1.00  0.00     0.173 C 
BRANCH  16  17
ATOM     17  C   UNL     1      44.118 131.847  17.848  1.00  0.00    -0.060 A 
ATOM     18  N   UNL     1      43.856 132.197  16.561  1.00  0.00    -0.438 NA
ATOM     19  N   UNL     1      45.195 131.033  18.005  1.00  0.00    -0.438 NA
ATOM     20  C   UNL     1      44.817 131.551  15.885  1.00  0.00    -0.038 A 
ATOM     21  C   UNL     1      45.612 130.857  16.744  1.00  0.00    -0.038 A 
ATOM     22  C   UNL     1      45.025 131.539  14.509  1.00  0.00     0.012 A 
ATOM     23  C   UNL     1      46.685 130.087  16.306  1.00  0.00     0.012 A 
ATOM     24  C   UNL     1      46.102 130.772  14.014  1.00  0.00    -0.018 A 
ATOM     25  C   UNL     1      46.937 130.041  14.917  1.00  0.00    -0.018 A 
ATOM     26  C   UNL     1      46.362 130.716  12.636  1.00  0.00     0.009 A 
ATOM     27  C   UNL     1      48.001 129.281  14.412  1.00  0.00     0.009 A 
ATOM     28  C   UNL     1      47.429 129.952  12.153  1.00  0.00     0.001 A 
ATOM     29  C   UNL     1      48.244 129.239  13.035  1.00  0.00     0.001 A 
ENDBRANCH  16  17
ENDBRANCH   5  16
TORSDOF 4
ENDMDL
MODEL 4
REMARK VINA RESULT:      -8.8      2.116      2.589
REMARK SMILES Cc1nnn(Cc2nc3cc4ccccc4cc3[n-]2)c1-c1nnc([C@@H]2C[C@@H]2C)o1
REMARK SMILES IDX 1 1 2 2 3 3 4 4 5 5 20 6 21 7 22 8 29 9 23 10 24 11 25 12
REMARK SMILES IDX 26 13 27 14 28 15 6 16 7 17 8 18 19 19 9 20 18 21 10 22
REMARK SMILES IDX 17 23 11 24 16 25 12 26 15 27 13 28 14 29
REMARK H PARENT
ROOT
ATOM      1  C   UNL     1      43.081 136.610  20.622  1.00  0.00     0.071 C 
ATOM      2  C   UNL     1      42.949 135.153  20.314  1.00  0.00     0.093 A 
ATOM      3  N   UNL     1      43.444 134.170  21.091  1.00  0.00    -0.135 NA
ATOM      4  N   UNL     1      43.145 133.022  20.500  1.00  0.00    -0.066 NA
ATOM      5  N   UNL     1      42.479 133.235  19.375  1.00  0.00    -0.236 N 
ATOM      6  C   UNL     1      42.335 134.570  19.220  1.00  0.00     0.149 A 
ENDROOT
BRANCH   6   7
ATOM      7  C   UNL     1      41.674 135.250  18.089  1.00  0.00     0.267 A 
ATOM      8  N   UNL     1      40.348 135.474  18.001  1.00  0.00    -0.106 NA
ATOM      9  O   UNL     1      42.300 135.728  17.043  1.00  0.00    -0.419 OA
ATOM     10  N   UNL     1      40.150 136.112  16.859  1.00  0.00    -0.112 NA
ATOM     11  C   UNL     1      41.363 136.250  16.292  1.00  0.00     0.220 A 
BRANCH  11  12
ATOM     12  C   UNL     1      41.616 136.957  14.995  1.00  0.00     0.081 C 
ATOM     13  C   UNL     1      43.071 137.356  14.770  1.00  0.00     0.017 C 
ATOM     14  C   UNL     1      42.026 138.430  15.050  1.00  0.00    -0.001 C 
ATOM     15  C   UNL     1      42.156 139.114  16.416  1.00  0.00     0.008 C 
ENDBRANCH  11  12
ENDBRANCH   6   7
BRANCH   5  16
ATOM     16  C   UNL     1      41.998 132.160  18.508  1.00  0.00     0.173 C 
BRANCH  16  17
ATOM     17  C   UNL     1      43.047 131.773  17.514  1.00  0.00    -0.060 A 
ATOM     18  N   UNL     1      42.882 131.917  16.173  1.00  0.00    -0.438 NA
ATOM     19  N   UNL     1      44.247 131.252  17.885  1.00  0.00    -0.438 NA
ATOM     20  C   UNL     1      44.040 131.444  15.687  1.00  0.00    -0.038 A 
ATOM     21  C   UNL     1      44.851 131.048  16.706  1.00  0.00    -0.038 A 
ATOM     22  C   UNL     1      44.421 131.338  14.353  1.00  0.00     0.012 A 
ATOM     23  C   UNL     1      46.113 130.507  16.483  1.00  0.00     0.012 A 
ATOM     24  C   UNL     1      45.694 130.795  14.074  1.00  0.00    -0.018 A 
ATOM     25  C   UNL     1      46.546 130.376  15.145  1.00  0.00    -0.018 A 
ATOM     26  C   UNL     1      46.135 130.658  12.749  1.00  0.00     0.009 A 
ATOM     27  C   UNL     1      47.806 129.835  14.854  1.00  0.00     0.009 A 
ATOM     28  C   UNL     1      47.396 130.116  12.481  1.00  0.00     0.001 A 
ATOM     29  C   UNL     1      48.227 129.708  13.527  1.00  0.00     0.001 A 
ENDBRANCH  16  17
ENDBRANCH   5  16
TORSDOF 4
ENDMDL
MODEL 5
REMARK VINA RESULT:      -8.7      1.689      2.740
REMARK SMILES Cc1nnn(Cc2nc3cc4ccccc4cc3[n-]2)c1-c1nnc([C@@H]2C[C@@H]2C)o1
REMARK SMILES IDX 1 1 2 2 3 3 4 4 5 5 20 6 21 7 22 8 29 9 23 10 24 11 25 12
REMARK SMILES IDX 26 13 27 14 28 15 6 16 7 17 8 18 19 19 9 20 18 21 10 22
REMARK SMILES IDX 17 23 11 24 16 25 12 26 15 27 13 28 14 29
REMARK H PARENT
ROOT
ATOM      1  C   UNL     1      43.814 136.744  20.428  1.00  0.00     0.071 C 
ATOM      2  C   UNL     1      43.666 135.270  20.228  1.00  0.00     0.093 A 
ATOM      3  N   UNL     1      44.242 134.340  21.016  1.00  0.00    -0.135 NA
ATOM      4  N   UNL     1      43.897 133.156  20.531  1.00  0.00    -0.066 NA
ATOM      5  N   UNL     1      43.126 133.294  19.463  1.00  0.00    -0.236 N 
ATOM      6  C   UNL     1      42.956 134.616  19.238  1.00  0.00     0.149 A 
ENDROOT
BRANCH   6   7
ATOM      7  C   UNL     1      42.184 135.220  18.134  1.00  0.00     0.267 A 
ATOM      8  N   UNL     1      42.679 135.481  16.908  1.00  0.00    -0.106 NA
ATOM      9  O   UNL     1      40.923 135.562  18.212  1.00  0.00    -0.419 OA
ATOM     10  N   UNL     1      41.687 136.003  16.205  1.00  0.00    -0.112 NA
ATOM     11  C   UNL     1      40.625 136.044  17.031  1.00  0.00     0.220 A 
BRANCH  11  12
ATOM     12  C   UNL     1      39.263 136.529  16.636  1.00  0.00     0.081 C 
ATOM     13  C   UNL     1      38.116 135.863  17.390  1.00  0.00     0.017 C 
ATOM     14  C   UNL     1      38.336 135.549  15.915  1.00  0.00    -0.001 C 
ATOM     15  C   UNL     1      38.836 134.128  15.626  1.00  0.00     0.008 C 
ENDBRANCH  11  12
ENDBRANCH   6   7
BRANCH   5  16
ATOM     16  C   UNL     1      42.574 132.164  18.717  1.00  0.00     0.173 C 
BRANCH  16  17
ATOM     17  C   UNL     1      43.527 131.718  17.653  1.00  0.00    -0.060 A 
ATOM     18  N   UNL     1      44.708 131.106  17.930  1.00  0.00    -0.438 NA
ATOM     19  N   UNL     1      43.274 131.888  16.328  1.00  0.00    -0.438 NA
ATOM     20  C   UNL     1      45.221 130.899  16.708  1.00  0.00    -0.038 A 
ATOM     21  C   UNL     1      44.368 131.366  15.755  1.00  0.00    -0.038 A 
ATOM     22  C   UNL     1      46.440 130.311  16.387  1.00  0.00     0.012 A 
ATOM     23  C   UNL     1      44.658 131.289  14.397  1.00  0.00     0.012 A 
ATOM     24  C   UNL     1      46.780 130.208  15.020  1.00  0.00    -0.018 A 
ATOM     25  C   UNL     1      45.885 130.701  14.019  1.00  0.00    -0.018 A 
ATOM     26  C   UNL     1      47.997 129.628  14.631  1.00  0.00     0.009 A 
ATOM     27  C   UNL     1      46.237 130.596  12.666  1.00  0.00     0.009 A 
ATOM     28  C   UNL     1      48.329 129.533  13.277  1.00  0.00     0.001 A 
ATOM     29  C   UNL     1      47.454 130.014  12.299  1.00  0.00     0.001 A 
ENDBRANCH  16  17
ENDBRANCH   5  16
TORSDOF 4
ENDMDL
MODEL 6
REMARK VINA RESULT:      -8.3      3.074      4.528
REMARK SMILES Cc1nnn(Cc2nc3cc4ccccc4cc3[n-]2)c1-c1nnc([C@@H]2C[C@@H]2C)o1
REMARK SMILES IDX 1 1 2 2 3 3 4 4 5 5 20 6 21 7 22 8 29 9 23 10 24 11 25 12
REMARK SMILES IDX 26 13 27 14 28 15 6 16 7 17 8 18 19 19 9 20 18 21 10 22
REMARK SMILES IDX 17 23 11 24 16 25 12 26 15 27 13 28 14 29
REMARK H PARENT
ROOT
ATOM      1  C   UNL     1      46.313 134.036  22.806  1.00  0.00     0.071 C 
ATOM      2  C   UNL     1      45.497 133.076  22.003  1.00  0.00     0.093 A 
ATOM      3  N   UNL     1      45.395 131.760  22.276  1.00  0.00    -0.135 NA
ATOM      4  N   UNL     1      44.603 131.234  21.353  1.00  0.00    -0.066 NA
ATOM      5  N   UNL     1      44.196 132.163  20.501  1.00  0.00    -0.236 N 
ATOM      6  C   UNL     1      44.741 133.342  20.876  1.00  0.00     0.149 A 
ENDROOT
BRANCH   6   7
ATOM      7  C   UNL     1      44.569 134.638  20.191  1.00  0.00     0.267 A 
ATOM      8  N   UNL     1      44.733 135.840  20.778  1.00  0.00    -0.106 NA
ATOM      9  O   UNL     1      44.250 134.773  18.928  1.00  0.00    -0.419 OA
ATOM     10  N   UNL     1      44.506 136.749  19.842  1.00  0.00    -0.112 NA
ATOM     11  C   UNL     1      44.209 136.065  18.722  1.00  0.00     0.220 A 
BRANCH  11  12
ATOM     12  C   UNL     1      43.920 136.699  17.395  1.00  0.00     0.081 C 
ATOM     13  C   UNL     1      43.385 138.125  17.483  1.00  0.00     0.017 C 
ATOM     14  C   UNL     1      42.461 136.995  17.045  1.00  0.00    -0.001 C 
ATOM     15  C   UNL     1      41.366 136.630  18.054  1.00  0.00     0.008 C 
ENDBRANCH  11  12
ENDBRANCH   6   7
BRANCH   5  16
ATOM     16  C   UNL     1      43.299 131.890  19.379  1.00  0.00     0.173 C 
BRANCH  16  17
ATOM     17  C   UNL     1      44.079 131.541  18.151  1.00  0.00    -0.060 A 
ATOM     18  N   UNL     1      43.679 131.889  16.899  1.00  0.00    -0.438 NA
ATOM     19  N   UNL     1      45.250 130.854  18.200  1.00  0.00    -0.438 NA
ATOM     20  C   UNL     1      44.651 131.374  16.132  1.00  0.00    -0.038 A 
ATOM     21  C   UNL     1      45.585 130.757  16.906  1.00  0.00    -0.038 A 
ATOM     22  C   UNL     1      44.750 131.418  14.744  1.00  0.00     0.012 A 
ATOM     23  C   UNL     1      46.700 130.127  16.364  1.00  0.00     0.012 A 
ATOM     24  C   UNL     1      45.866 130.793  14.145  1.00  0.00    -0.018 A 
ATOM     25  C   UNL     1      46.847 130.143  14.959  1.00  0.00    -0.018 A 
ATOM     26  C   UNL     1      46.022 130.800  12.751  1.00  0.00     0.009 A 
ATOM     27  C   UNL     1      47.947 129.522  14.351  1.00  0.00     0.009 A 
ATOM     28  C   UNL     1      47.127 130.176  12.165  1.00  0.00     0.001 A 
ATOM     29  C   UNL     1      48.085 129.541  12.960  1.00  0.00     0.001 A 
ENDBRANCH  16  17
ENDBRANCH   5  16
TORSDOF 4
ENDMDL
MODEL 7
REMARK VINA RESULT:      -8.2      3.063      5.354
REMARK SMILES Cc1nnn(Cc2nc3cc4ccccc4cc3[n-]2)c1-c1nnc([C@@H]2C[C@@H]2C)o1
REMARK SMILES IDX 1 1 2 2 3 3 4 4 5 5 20 6 21 7 22 8 29 9 23 10 24 11 25 12
REMARK SMILES IDX 26 13 27 14 28 15 6 16 7 17 8 18 19 19 9 20 18 21 10 22
REMARK SMILES IDX 17 23 11 24 16 25 12 26 15 27 13 28 14 29
REMARK H PARENT
ROOT
ATOM      1  C   UNL     1      42.490 138.001  20.070  1.00  0.00     0.071 C 
ATOM      2  C   UNL     1      41.907 136.842  19.327  1.00  0.00     0.093 A 
ATOM      3  N   UNL     1      41.182 136.959  18.197  1.00  0.00    -0.135 NA
ATOM      4  N   UNL     1      40.829 135.733  17.836  1.00  0.00    -0.066 NA
ATOM      5  N   UNL     1      41.301 134.840  18.693  1.00  0.00    -0.236 N 
ATOM      6  C   UNL     1      41.987 135.500  19.651  1.00  0.00     0.149 A 
ENDROOT
BRANCH   6   7
ATOM      7  C   UNL     1      42.659 134.893  20.817  1.00  0.00     0.267 A 
ATOM      8  N   UNL     1      42.164 134.893  22.070  1.00  0.00    -0.106 NA
ATOM      9  O   UNL     1      43.811 134.272  20.768  1.00  0.00    -0.419 OA
ATOM     10  N   UNL     1      43.043 134.248  22.821  1.00  0.00    -0.112 NA
ATOM     11  C   UNL     1      44.043 133.883  21.997  1.00  0.00     0.220 A 
BRANCH  11  12
ATOM     12  C   UNL     1      45.241 133.089  22.419  1.00  0.00     0.081 C 
ATOM     13  C   UNL     1      45.981 132.409  21.272  1.00  0.00     0.017 C 
ATOM     14  C   UNL     1      45.184 131.568  22.261  1.00  0.00    -0.001 C 
ATOM     15  C   UNL     1      43.914 130.928  21.687  1.00  0.00     0.008 C 
ENDBRANCH  11  12
ENDBRANCH   6   7
BRANCH   5  16
ATOM     16  C   UNL     1      41.089 133.400  18.552  1.00  0.00     0.173 C 
BRANCH  16  17
ATOM     17  C   UNL     1      42.148 132.791  17.689  1.00  0.00    -0.060 A 
ATOM     18  N   UNL     1      42.035 132.696  16.337  1.00  0.00    -0.438 NA
ATOM     19  N   UNL     1      43.307 132.292  18.196  1.00  0.00    -0.438 NA
ATOM     20  C   UNL     1      43.182 132.092  15.993  1.00  0.00    -0.038 A 
ATOM     21  C   UNL     1      43.937 131.850  17.099  1.00  0.00    -0.038 A 
ATOM     22  C   UNL     1      43.599 131.728  14.717  1.00  0.00     0.012 A 
ATOM     23  C   UNL     1      45.176 131.221  17.030  1.00  0.00     0.012 A 
ATOM     24  C   UNL     1      44.851 131.086  14.593  1.00  0.00    -0.018 A 
ATOM     25  C   UNL     1      45.644 130.830  15.756  1.00  0.00    -0.018 A 
ATOM     26  C   UNL     1      45.327 130.691  13.334  1.00  0.00     0.009 A 
ATOM     27  C   UNL     1      46.884 130.189  15.619  1.00  0.00     0.009 A 
ATOM     28  C   UNL     1      46.566 130.053  13.219  1.00  0.00     0.001 A 
ATOM     29  C   UNL     1      47.340 129.804  14.355  1.00  0.00     0.001 A 
ENDBRANCH  16  17
ENDBRANCH   5  16
TORSDOF 4
ENDMDL
MODEL 8
REMARK VINA RESULT:      -8.1      2.147      4.838
REMARK SMILES Cc1nnn(Cc2nc3cc4ccccc4cc3[n-]2)c1-c1nnc([C@@H]2C[C@@H]2C)o1
REMARK SMILES IDX 1 1 2 2 3 3 4 4 5 5 20 6 21 7 22 8 29 9 23 10 24 11 25 12
REMARK SMILES IDX 26 13 27 14 28 15 6 16 7 17 8 18 19 19 9 20 18 21 10 22
REMARK SMILES IDX 17 23 11 24 16 25 12 26 15 27 13 28 14 29
REMARK H PARENT
ROOT
ATOM      1  C   UNL     1      40.909 137.711  16.701  1.00  0.00     0.071 C 
ATOM      2  C   UNL     1      40.862 136.221  16.592  1.00  0.00     0.093 A 
ATOM      3  N   UNL     1      40.237 135.556  15.600  1.00  0.00    -0.135 NA
ATOM      4  N   UNL     1      40.399 134.263  15.840  1.00  0.00    -0.066 NA
ATOM      5  N   UNL     1      41.101 134.076  16.946  1.00  0.00    -0.236 N 
ATOM      6  C   UNL     1      41.413 135.290  17.454  1.00  0.00     0.149 A 
ENDROOT
BRANCH   6   7
ATOM      7  C   UNL     1      42.170 135.547  18.695  1.00  0.00     0.267 A 
ATOM      8  N   UNL     1      41.803 136.429  19.645  1.00  0.00    -0.106 NA
ATOM      9  O   UNL     1      43.282 134.939  19.024  1.00  0.00    -0.419 OA
ATOM     10  N   UNL     1      42.722 136.363  20.595  1.00  0.00    -0.112 NA
ATOM     11  C   UNL     1      43.617 135.444  20.185  1.00  0.00     0.220 A 
BRANCH  11  12
ATOM     12  C   UNL     1      44.814 135.016  20.978  1.00  0.00     0.081 C 
ATOM     13  C   UNL     1      45.322 133.617  20.645  1.00  0.00     0.017 C 
ATOM     14  C   UNL     1      44.637 133.875  21.982  1.00  0.00    -0.001 C 
ATOM     15  C   UNL     1      43.256 133.227  22.134  1.00  0.00     0.008 C 
ENDBRANCH  11  12
ENDBRANCH   6   7
BRANCH   5  16
ATOM     16  C   UNL     1      41.456 132.755  17.462  1.00  0.00     0.173 C 
BRANCH  16  17
ATOM     17  C   UNL     1      42.622 132.190  16.714  1.00  0.00    -0.060 A 
ATOM     18  N   UNL     1      43.704 131.649  17.333  1.00  0.00    -0.438 NA
ATOM     19  N   UNL     1      42.679 132.173  15.356  1.00  0.00    -0.438 NA
ATOM     20  C   UNL     1      44.480 131.291  16.299  1.00  0.00    -0.038 A 
ATOM     21  C   UNL     1      43.870 131.604  15.123  1.00  0.00    -0.038 A 
ATOM     22  C   UNL     1      45.735 130.693  16.346  1.00  0.00     0.012 A 
ATOM     23  C   UNL     1      44.461 131.351  13.889  1.00  0.00     0.012 A 
ATOM     24  C   UNL     1      46.377 130.414  15.120  1.00  0.00    -0.018 A 
ATOM     25  C   UNL     1      45.737 130.746  13.884  1.00  0.00    -0.018 A 
ATOM     26  C   UNL     1      47.646 129.815  15.101  1.00  0.00     0.009 A 
ATOM     27  C   UNL     1      46.388 130.467  12.673  1.00  0.00     0.009 A 
ATOM     28  C   UNL     1      48.277 129.545  13.883  1.00  0.00     0.001 A 
ATOM     29  C   UNL     1      47.651 129.869  12.676  1.00  0.00     0.001 A 
ENDBRANCH  16  17
ENDBRANCH   5  16
TORSDOF 4
ENDMDL
MODEL 9
REMARK VINA RESULT:      -8.1      1.963      4.295
REMARK SMILES Cc1nnn(Cc2nc3cc4ccccc4cc3[n-]2)c1-c1nnc([C@@H]2C[C@@H]2C)o1
REMARK SMILES IDX 1 1 2 2 3 3 4 4 5 5 20 6 21 7 22 8 29 9 23 10 24 11 25 12
REMARK SMILES IDX 26 13 27 14 28 15 6 16 7 17 8 18 19 19 9 20 18 21 10 22
REMARK SMILES IDX 17 23 11 24 16 25 12 26 15 27 13 28 14 29
REMARK H PARENT
ROOT
ATOM      1  C   UNL     1      39.833 137.206  15.320  1.00  0.00     0.071 C 
ATOM      2  C   UNL     1      39.790 135.824  15.887  1.00  0.00     0.093 A 
ATOM      3  N   UNL     1      38.745 134.984  15.747  1.00  0.00    -0.135 NA
ATOM      4  N   UNL     1      39.062 133.866  16.384  1.00  0.00    -0.066 NA
ATOM      5  N   UNL     1      40.267 133.960  16.925  1.00  0.00    -0.236 N 
ATOM      6  C   UNL     1      40.761 135.184  16.635  1.00  0.00     0.149 A 
ENDROOT
BRANCH   6   7
ATOM      7  C   UNL     1      42.069 135.719  17.062  1.00  0.00     0.267 A 
ATOM      8  N   UNL     1      43.009 136.199  16.225  1.00  0.00    -0.106 NA
ATOM      9  O   UNL     1      42.464 135.803  18.308  1.00  0.00    -0.419 OA
ATOM     10  N   UNL     1      44.021 136.592  16.981  1.00  0.00    -0.112 NA
ATOM     11  C   UNL     1      43.660 136.334  18.252  1.00  0.00     0.220 A 
BRANCH  11  12
ATOM     12  C   UNL     1      44.496 136.660  19.452  1.00  0.00     0.081 C 
ATOM     13  C   UNL     1      43.711 137.236  20.627  1.00  0.00     0.017 C 
ATOM     14  C   UNL     1      44.655 138.133  19.835  1.00  0.00    -0.001 C 
ATOM     15  C   UNL     1      43.964 139.201  18.980  1.00  0.00     0.008 C 
ENDBRANCH  11  12
ENDBRANCH   6   7
BRANCH   5  16
ATOM     16  C   UNL     1      40.897 132.878  17.680  1.00  0.00     0.173 C 
BRANCH  16  17
ATOM     17  C   UNL     1      42.090 132.348  16.949  1.00  0.00    -0.060 A 
ATOM     18  N   UNL     1      42.165 132.307  15.592  1.00  0.00    -0.438 NA
ATOM     19  N   UNL     1      43.189 131.873  17.592  1.00  0.00    -0.438 NA
ATOM     20  C   UNL     1      43.374 131.762  15.387  1.00  0.00    -0.038 A 
ATOM     21  C   UNL     1      43.982 131.502  16.577  1.00  0.00    -0.038 A 
ATOM     22  C   UNL     1      43.976 131.469  14.167  1.00  0.00     0.012 A 
ATOM     23  C   UNL     1      45.245 130.924  16.655  1.00  0.00     0.012 A 
ATOM     24  C   UNL     1      45.260 130.881  14.193  1.00  0.00    -0.018 A 
ATOM     25  C   UNL     1      45.898 130.607  15.444  1.00  0.00    -0.018 A 
ATOM     26  C   UNL     1      45.920 130.559  12.998  1.00  0.00     0.009 A 
ATOM     27  C   UNL     1      47.172 130.020  15.456  1.00  0.00     0.009 A 
ATOM     28  C   UNL     1      47.189 129.974  13.031  1.00  0.00     0.001 A 
ATOM     29  C   UNL     1      47.812 129.706  14.253  1.00  0.00     0.001 A 
ENDBRANCH  16  17
ENDBRANCH   5  16
TORSDOF 4
ENDMDL


