REMARK SMILES C[C@H]1CN(C(=O)[C@]2([NH3+])C[C@H](CO)C2)CCCN1
REMARK SMILES IDX 4 1 3 2 2 3 1 4 17 5 16 7 5 9 6 10 7 11 9 12 13 13 10 14
REMARK SMILES IDX 8 15 11 19 12 20 14 22 15 23
REMARK H PARENT 17 6 8 16 8 17 8 18 12 21
REMARK Flexibility Score:   15.900
ROOT
ATOM      1  N   UNL     1      -1.269  -0.799   0.004  1.00  0.00    -0.336 N 
ENDROOT
BRANCH   1   2
ATOM      2  C   UNL     1      -2.705  -0.988  -0.240  1.00  0.00     0.138 C 
BRANCH   2   3
ATOM      3  C   UNL     1      -3.455  -1.469   1.025  1.00  0.00     0.070 C 
ATOM      4  C   UNL     1      -4.948  -1.124   0.905  1.00  0.00     0.026 C 
BRANCH   3   5
ATOM      5  N   UNL     1      -2.869  -0.867   2.247  1.00  0.00    -0.312 NA
ATOM      6  H   UNL     1      -3.617  -0.742   2.968  1.00  0.00     0.123 HD
BRANCH   5   7
ATOM      7  C   UNL     1      -1.842  -1.733   2.859  1.00  0.00     0.083 CG0
ATOM      8  G   UNL     1      -0.471  -1.570   2.189  1.00  0.00     0.000 G0
ENDBRANCH   5   7
ENDBRANCH   3   5
ENDBRANCH   2   3
ENDBRANCH   1   2
BRANCH   1   9
ATOM      9  C   UNL     1      -0.676   0.493  -0.239  1.00  0.00     0.283 C 
ATOM     10  O   UNL     1      -1.298   1.532   0.117  1.00  0.00    -0.268 OA
BRANCH   9  11
ATOM     11  C   UNL     1       0.696   0.644  -0.872  1.00  0.00     0.174 C 
ATOM     12  C   UNL     1       1.040  -0.414  -1.935  1.00  0.00     0.085 C 
ATOM     13  C   UNL     1       0.743   1.733  -1.960  1.00  0.00     0.085 C 
ATOM     14  C   UNL     1       1.103   0.676  -3.005  1.00  0.00     0.028 C 
BRANCH  11  15
ATOM     15  N   UNL     1       1.758   0.818   0.132  1.00  0.00    -0.345 N 
ATOM     16  H   UNL     1       1.553   1.660   0.718  1.00  0.00     0.345 HD
ATOM     17  H   UNL     1       1.810  -0.020   0.752  1.00  0.00     0.345 HD
ATOM     18  H   UNL     1       2.690   0.948  -0.326  1.00  0.00     0.345 HD
ENDBRANCH  11  15
BRANCH  14  19
ATOM     19  C   UNL     1       0.051   0.511  -4.108  1.00  0.00     0.160 C 
BRANCH  19  20
ATOM     20  O   UNL     1       0.076   1.630  -4.950  1.00  0.00    -0.396 OA
ATOM     21  H   UNL     1      -0.616   1.470  -5.642  1.00  0.00     0.210 HD
ENDBRANCH  19  20
ENDBRANCH  14  19
ENDBRANCH   9  11
ENDBRANCH   1   9
BRANCH   1  22
ATOM     22  C   UNL     1      -0.511  -1.854   0.685  1.00  0.00     0.121 C 
BRANCH  22  23
ATOM     23  C   UNL     1      -0.471  -1.570   2.189  1.00  0.00     0.037 CG0
ATOM     24  G   UNL     1      -1.842  -1.733   2.859  1.00  0.00     0.000 G0
ENDBRANCH  22  23
ENDBRANCH   1  22
TORSDOF 5


