MODEL 1
REMARK VINA RESULT:      -6.1      0.000      0.000
REMARK SMILES [H]/N=C(\C#C)[NH2+][C@H](c1c(C)[nH+]nn1-c1c2ccccc2c(C=O)c2ccccc12)C(C)C
REMARK SMILES IDX 7 1 6 2 3 5 4 6 5 7 2 8 1 9 8 10 9 11 13 12 11 13 12 14
REMARK SMILES IDX 10 15 14 17 15 18 29 19 16 20 20 21 28 22 24 23 17 24 19 25
REMARK SMILES IDX 21 26 27 27 25 28 18 29 26 30 22 31 23 32 30 33 31 34 32 35
REMARK H PARENT 6 3 6 4 11 16
ROOT
ATOM      1  C   UNL     1      44.584 134.161  20.896  1.00  0.00     0.270 C 
ENDROOT
BRANCH   1   2
ATOM      2  N   UNL     1      43.927 135.410  21.351  1.00  0.00    -0.281 N 
ATOM      3  H   UNL     1      42.894 135.256  21.437  1.00  0.00     0.354 HD
ATOM      4  H   UNL     1      44.282 135.696  22.289  1.00  0.00     0.354 HD
BRANCH   2   5
ATOM      5  C   UNL     1      44.126 136.490  20.415  1.00  0.00     0.270 C 
BRANCH   5   6
ATOM      6  C   UNL     1      44.141 136.227  18.995  1.00  0.00     0.009 C 
ATOM      7  C   UNL     1      44.150 136.006  17.811  1.00  0.00     0.017 C 
ENDBRANCH   5   6
BRANCH   5   8
ATOM      8  N   UNL     1      44.332 137.695  20.849  1.00  0.00    -0.242 NA
ATOM      9  H   UNL     1      43.738 138.501  20.549  1.00  0.00     0.194 HD
ENDBRANCH   5   8
ENDBRANCH   2   5
ENDBRANCH   1   2
BRANCH   1  10
ATOM     10  C   UNL     1      43.735 132.930  21.224  1.00  0.00     0.234 A 
ATOM     11  C   UNL     1      43.439 132.360  22.464  1.00  0.00     0.171 A 
ATOM     12  N   UNL     1      43.034 132.208  20.312  1.00  0.00    -0.091 N 
ATOM     13  N   UNL     1      42.590 131.340  22.242  1.00  0.00    -0.147 N 
ATOM     14  N   UNL     1      42.354 131.266  20.945  1.00  0.00     0.094 NA
ATOM     15  C   UNL     1      43.776 132.854  23.839  1.00  0.00     0.100 C 
ATOM     16  H   UNL     1      42.143 130.727  22.959  1.00  0.00     0.342 HD
BRANCH  12  17
ATOM     17  C   UNL     1      42.907 132.445  18.897  1.00  0.00     0.172 A 
ATOM     18  C   UNL     1      41.848 133.238  18.406  1.00  0.00     0.032 A 
ATOM     19  C   UNL     1      43.850 131.894  17.998  1.00  0.00     0.032 A 
ATOM     20  C   UNL     1      40.938 133.853  19.295  1.00  0.00     0.013 A 
ATOM     21  C   UNL     1      41.684 133.424  17.007  1.00  0.00    -0.003 A 
ATOM     22  C   UNL     1      44.970 131.180  18.480  1.00  0.00     0.013 A 
ATOM     23  C   UNL     1      43.675 132.046  16.597  1.00  0.00    -0.003 A 
ATOM     24  C   UNL     1      39.888 134.633  18.817  1.00  0.00     0.001 A 
ATOM     25  C   UNL     1      40.614 134.234  16.551  1.00  0.00     0.009 A 
ATOM     26  C   UNL     1      42.595 132.823  16.099  1.00  0.00     0.030 A 
ATOM     27  C   UNL     1      45.861 130.570  17.600  1.00  0.00     0.001 A 
ATOM     28  C   UNL     1      44.578 131.388  15.727  1.00  0.00     0.009 A 
ATOM     29  C   UNL     1      39.728 134.826  17.450  1.00  0.00     0.001 A 
ATOM     30  C   UNL     1      45.657 130.661  16.228  1.00  0.00     0.001 A 
BRANCH  26  31
ATOM     31  C   UNL     1      42.419 133.028  14.640  1.00  0.00     0.261 C 
ATOM     32  O   UNL     1      41.680 132.264  13.964  1.00  0.00    -0.298 OA
ENDBRANCH  26  31
ENDBRANCH  12  17
ENDBRANCH   1  10
BRANCH   1  33
ATOM     33  C   UNL     1      46.072 134.048  21.370  1.00  0.00     0.050 C 
ATOM     34  C   UNL     1      46.361 134.696  22.732  1.00  0.00     0.014 C 
ATOM     35  C   UNL     1      46.547 132.588  21.388  1.00  0.00     0.014 C 
ENDBRANCH   1  33
TORSDOF 8
ENDMDL
MODEL 2
REMARK VINA RESULT:      -5.9      2.926      6.729
REMARK SMILES [H]/N=C(\C#C)[NH2+][C@H](c1c(C)[nH+]nn1-c1c2ccccc2c(C=O)c2ccccc12)C(C)C
REMARK SMILES IDX 7 1 6 2 3 5 4 6 5 7 2 8 1 9 8 10 9 11 13 12 11 13 12 14
REMARK SMILES IDX 10 15 14 17 15 18 29 19 16 20 20 21 28 22 24 23 17 24 19 25
REMARK SMILES IDX 21 26 27 27 25 28 18 29 26 30 22 31 23 32 30 33 31 34 32 35
REMARK H PARENT 6 3 6 4 11 16
ROOT
ATOM      1  C   UNL     1      40.812 134.588  15.973  1.00  0.00     0.270 C 
ENDROOT
BRANCH   1   2
ATOM      2  N   UNL     1      39.568 134.835  16.740  1.00  0.00    -0.281 N 
ATOM      3  H   UNL     1      39.606 135.784  17.181  1.00  0.00     0.354 HD
ATOM      4  H   UNL     1      38.735 134.813  16.113  1.00  0.00     0.354 HD
BRANCH   2   5
ATOM      5  C   UNL     1      39.394 133.873  17.801  1.00  0.00     0.270 C 
BRANCH   5   6
ATOM      6  C   UNL     1      38.647 134.226  18.986  1.00  0.00     0.009 C 
ATOM      7  C   UNL     1      38.028 134.522  19.976  1.00  0.00     0.017 C 
ENDBRANCH   5   6
BRANCH   5   8
ATOM      8  N   UNL     1      39.943 132.701  17.711  1.00  0.00    -0.242 NA
ATOM      9  H   UNL     1      39.995 132.183  16.804  1.00  0.00     0.194 HD
ENDBRANCH   5   8
ENDBRANCH   2   5
ENDBRANCH   1   2
BRANCH   1  10
ATOM     10  C   UNL     1      41.849 135.688  16.218  1.00  0.00     0.234 A 
ATOM     11  C   UNL     1      41.908 136.983  15.699  1.00  0.00     0.171 A 
ATOM     12  N   UNL     1      42.886 135.594  17.090  1.00  0.00    -0.091 N 
ATOM     13  N   UNL     1      42.961 137.595  16.272  1.00  0.00    -0.147 N 
ATOM     14  N   UNL     1      43.533 136.748  17.108  1.00  0.00     0.094 NA
ATOM     15  C   UNL     1      40.916 137.707  14.840  1.00  0.00     0.100 C 
ATOM     16  H   UNL     1      43.265 138.584  16.134  1.00  0.00     0.342 HD
BRANCH  12  17
ATOM     17  C   UNL     1      43.214 134.501  17.968  1.00  0.00     0.172 A 
ATOM     18  C   UNL     1      44.015 133.437  17.502  1.00  0.00     0.032 A 
ATOM     19  C   UNL     1      42.742 134.497  19.302  1.00  0.00     0.032 A 
ATOM     20  C   UNL     1      44.551 133.459  16.196  1.00  0.00     0.013 A 
ATOM     21  C   UNL     1      44.291 132.327  18.346  1.00  0.00    -0.003 A 
ATOM     22  C   UNL     1      42.021 135.600  19.812  1.00  0.00     0.013 A 
ATOM     23  C   UNL     1      42.984 133.377  20.142  1.00  0.00    -0.003 A 
ATOM     24  C   UNL     1      45.340 132.411  15.728  1.00  0.00     0.001 A 
ATOM     25  C   UNL     1      45.107 131.282  17.848  1.00  0.00     0.009 A 
ATOM     26  C   UNL     1      43.769 132.293  19.666  1.00  0.00     0.030 A 
ATOM     27  C   UNL     1      41.489 135.570  21.099  1.00  0.00     0.001 A 
ATOM     28  C   UNL     1      42.403 133.363  21.433  1.00  0.00     0.009 A 
ATOM     29  C   UNL     1      45.620 131.327  16.552  1.00  0.00     0.001 A 
ATOM     30  C   UNL     1      41.667 134.450  21.902  1.00  0.00     0.001 A 
BRANCH  26  31
ATOM     31  C   UNL     1      44.068 131.133  20.542  1.00  0.00     0.261 C 
ATOM     32  O   UNL     1      45.076 131.136  21.297  1.00  0.00    -0.298 OA
ENDBRANCH  26  31
ENDBRANCH  12  17
ENDBRANCH   1  10
BRANCH   1  33
ATOM     33  C   UNL     1      40.546 134.295  14.458  1.00  0.00     0.050 C 
ATOM     34  C   UNL     1      41.512 133.284  13.822  1.00  0.00     0.014 C 
ATOM     35  C   UNL     1      39.100 133.842  14.217  1.00  0.00     0.014 C 
ENDBRANCH   1  33
TORSDOF 8
ENDMDL
MODEL 3
REMARK VINA RESULT:      -5.8      2.054      4.405
REMARK SMILES [H]/N=C(\C#C)[NH2+][C@H](c1c(C)[nH+]nn1-c1c2ccccc2c(C=O)c2ccccc12)C(C)C
REMARK SMILES IDX 7 1 6 2 3 5 4 6 5 7 2 8 1 9 8 10 9 11 13 12 11 13 12 14
REMARK SMILES IDX 10 15 14 17 15 18 29 19 16 20 20 21 28 22 24 23 17 24 19 25
REMARK SMILES IDX 21 26 27 27 25 28 18 29 26 30 22 31 23 32 30 33 31 34 32 35
REMARK H PARENT 6 3 6 4 11 16
ROOT
ATOM      1  C   UNL     1      43.180 136.188  18.663  1.00  0.00     0.270 C 
ENDROOT
BRANCH   1   2
ATOM      2  N   UNL     1      44.477 135.660  19.150  1.00  0.00    -0.281 N 
ATOM      3  H   UNL     1      44.316 134.802  19.729  1.00  0.00     0.354 HD
ATOM      4  H   UNL     1      45.092 135.390  18.352  1.00  0.00     0.354 HD
BRANCH   2   5
ATOM      5  C   UNL     1      45.165 136.617  19.982  1.00  0.00     0.270 C 
BRANCH   5   6
ATOM      6  C   UNL     1      45.874 137.723  19.382  1.00  0.00     0.009 C 
ATOM      7  C   UNL     1      46.468 138.646  18.884  1.00  0.00     0.017 C 
ENDBRANCH   5   6
BRANCH   5   8
ATOM      8  N   UNL     1      45.183 136.463  21.270  1.00  0.00    -0.242 NA
ATOM      9  H   UNL     1      44.537 135.802  21.757  1.00  0.00     0.194 HD
ENDBRANCH   5   8
ENDBRANCH   2   5
ENDBRANCH   1   2
BRANCH   1  10
ATOM     10  C   UNL     1      42.005 135.368  19.202  1.00  0.00     0.234 A 
ATOM     11  C   UNL     1      40.824 135.802  19.809  1.00  0.00     0.171 A 
ATOM     12  N   UNL     1      41.886 134.019  19.093  1.00  0.00    -0.091 N 
ATOM     13  N   UNL     1      40.066 134.712  20.034  1.00  0.00    -0.147 N 
ATOM     14  N   UNL     1      40.718 133.652  19.593  1.00  0.00     0.094 NA
ATOM     15  C   UNL     1      40.318 137.199  20.009  1.00  0.00     0.100 C 
ATOM     16  H   UNL     1      39.105 134.687  20.441  1.00  0.00     0.342 HD
BRANCH  12  17
ATOM     17  C   UNL     1      42.784 133.097  18.445  1.00  0.00     0.172 A 
ATOM     18  C   UNL     1      43.776 132.433  19.197  1.00  0.00     0.032 A 
ATOM     19  C   UNL     1      42.665 132.847  17.058  1.00  0.00     0.032 A 
ATOM     20  C   UNL     1      43.864 132.619  20.595  1.00  0.00     0.013 A 
ATOM     21  C   UNL     1      44.702 131.569  18.552  1.00  0.00    -0.003 A 
ATOM     22  C   UNL     1      41.616 133.429  16.311  1.00  0.00     0.013 A 
ATOM     23  C   UNL     1      43.606 132.012  16.399  1.00  0.00    -0.003 A 
ATOM     24  C   UNL     1      44.844 131.969  21.342  1.00  0.00     0.001 A 
ATOM     25  C   UNL     1      45.679 130.912  19.341  1.00  0.00     0.009 A 
ATOM     26  C   UNL     1      44.622 131.362  17.150  1.00  0.00     0.030 A 
ATOM     27  C   UNL     1      41.537 133.248  14.932  1.00  0.00     0.001 A 
ATOM     28  C   UNL     1      43.519 131.873  14.993  1.00  0.00     0.009 A 
ATOM     29  C   UNL     1      45.746 131.117  20.718  1.00  0.00     0.001 A 
ATOM     30  C   UNL     1      42.494 132.485  14.273  1.00  0.00     0.001 A 
BRANCH  26  31
ATOM     31  C   UNL     1      45.590 130.453  16.487  1.00  0.00     0.261 C 
ATOM     32  O   UNL     1      46.651 130.901  15.976  1.00  0.00    -0.298 OA
ENDBRANCH  26  31
ENDBRANCH  12  17
ENDBRANCH   1  10
BRANCH   1  33
ATOM     33  C   UNL     1      43.150 136.392  17.111  1.00  0.00     0.050 C 
ATOM     34  C   UNL     1      42.994 137.852  16.661  1.00  0.00     0.014 C 
ATOM     35  C   UNL     1      44.386 135.780  16.438  1.00  0.00     0.014 C 
ENDBRANCH   1  33
TORSDOF 8
ENDMDL
MODEL 4
REMARK VINA RESULT:      -5.8      2.177      3.363
REMARK SMILES [H]/N=C(\C#C)[NH2+][C@H](c1c(C)[nH+]nn1-c1c2ccccc2c(C=O)c2ccccc12)C(C)C
REMARK SMILES IDX 7 1 6 2 3 5 4 6 5 7 2 8 1 9 8 10 9 11 13 12 11 13 12 14
REMARK SMILES IDX 10 15 14 17 15 18 29 19 16 20 20 21 28 22 24 23 17 24 19 25
REMARK SMILES IDX 21 26 27 27 25 28 18 29 26 30 22 31 23 32 30 33 31 34 32 35
REMARK H PARENT 6 3 6 4 11 16
ROOT
ATOM      1  C   UNL     1      43.142 136.366  18.690  1.00  0.00     0.270 C 
ENDROOT
BRANCH   1   2
ATOM      2  N   UNL     1      42.571 137.726  18.547  1.00  0.00    -0.281 N 
ATOM      3  H   UNL     1      41.999 137.961  19.392  1.00  0.00     0.354 HD
ATOM      4  H   UNL     1      43.327 138.440  18.471  1.00  0.00     0.354 HD
BRANCH   2   5
ATOM      5  C   UNL     1      41.703 137.824  17.398  1.00  0.00     0.270 C 
BRANCH   5   6
ATOM      6  C   UNL     1      42.250 137.728  16.065  1.00  0.00     0.009 C 
ATOM      7  C   UNL     1      42.710 137.648  14.954  1.00  0.00     0.017 C 
ENDBRANCH   5   6
BRANCH   5   8
ATOM      8  N   UNL     1      40.434 138.039  17.560  1.00  0.00    -0.242 NA
ATOM      9  H   UNL     1      39.910 138.726  16.973  1.00  0.00     0.194 HD
ENDBRANCH   5   8
ENDBRANCH   2   5
ENDBRANCH   1   2
BRANCH   1  10
ATOM     10  C   UNL     1      42.160 135.416  19.383  1.00  0.00     0.234 A 
ATOM     11  C   UNL     1      41.232 135.681  20.393  1.00  0.00     0.171 A 
ATOM     12  N   UNL     1      41.974 134.114  19.046  1.00  0.00    -0.091 N 
ATOM     13  N   UNL     1      40.546 134.543  20.613  1.00  0.00    -0.147 N 
ATOM     14  N   UNL     1      41.002 133.615  19.791  1.00  0.00     0.094 NA
ATOM     15  C   UNL     1      40.853 136.991  21.012  1.00  0.00     0.100 C 
ATOM     16  H   UNL     1      39.753 134.406  21.277  1.00  0.00     0.342 HD
BRANCH  12  17
ATOM     17  C   UNL     1      42.606 133.370  17.986  1.00  0.00     0.172 A 
ATOM     18  C   UNL     1      42.134 133.489  16.662  1.00  0.00     0.032 A 
ATOM     19  C   UNL     1      43.708 132.529  18.269  1.00  0.00     0.032 A 
ATOM     20  C   UNL     1      41.081 134.378  16.351  1.00  0.00     0.013 A 
ATOM     21  C   UNL     1      42.715 132.712  15.624  1.00  0.00    -0.003 A 
ATOM     22  C   UNL     1      44.253 132.473  19.571  1.00  0.00     0.013 A 
ATOM     23  C   UNL     1      44.272 131.723  17.245  1.00  0.00    -0.003 A 
ATOM     24  C   UNL     1      40.607 134.497  15.047  1.00  0.00     0.001 A 
ATOM     25  C   UNL     1      42.221 132.865  14.305  1.00  0.00     0.009 A 
ATOM     26  C   UNL     1      43.781 131.822  15.915  1.00  0.00     0.030 A 
ATOM     27  C   UNL     1      45.288 131.591  19.874  1.00  0.00     0.001 A 
ATOM     28  C   UNL     1      45.301 130.813  17.590  1.00  0.00     0.009 A 
ATOM     29  C   UNL     1      41.177 133.746  14.026  1.00  0.00     0.001 A 
ATOM     30  C   UNL     1      45.800 130.753  18.891  1.00  0.00     0.001 A 
BRANCH  26  31
ATOM     31  C   UNL     1      44.386 131.019  14.823  1.00  0.00     0.261 C 
ATOM     32  O   UNL     1      45.456 131.386  14.268  1.00  0.00    -0.298 OA
ENDBRANCH  26  31
ENDBRANCH  12  17
ENDBRANCH   1  10
BRANCH   1  33
ATOM     33  C   UNL     1      44.573 136.369  19.326  1.00  0.00     0.050 C 
ATOM     34  C   UNL     1      45.349 137.683  19.149  1.00  0.00     0.014 C 
ATOM     35  C   UNL     1      44.529 135.998  20.815  1.00  0.00     0.014 C 
ENDBRANCH   1  33
TORSDOF 8
ENDMDL
MODEL 5
REMARK VINA RESULT:      -5.7      3.070      5.606
REMARK SMILES [H]/N=C(\C#C)[NH2+][C@H](c1c(C)[nH+]nn1-c1c2ccccc2c(C=O)c2ccccc12)C(C)C
REMARK SMILES IDX 7 1 6 2 3 5 4 6 5 7 2 8 1 9 8 10 9 11 13 12 11 13 12 14
REMARK SMILES IDX 10 15 14 17 15 18 29 19 16 20 20 21 28 22 24 23 17 24 19 25
REMARK SMILES IDX 21 26 27 27 25 28 18 29 26 30 22 31 23 32 30 33 31 34 32 35
REMARK H PARENT 6 3 6 4 11 16
ROOT
ATOM      1  C   UNL     1      42.701 133.486  18.560  1.00  0.00     0.270 C 
ENDROOT
BRANCH   1   2
ATOM      2  N   UNL     1      41.568 132.572  18.278  1.00  0.00    -0.281 N 
ATOM      3  H   UNL     1      41.798 131.967  17.455  1.00  0.00     0.354 HD
ATOM      4  H   UNL     1      41.388 131.944  19.090  1.00  0.00     0.354 HD
BRANCH   2   5
ATOM      5  C   UNL     1      40.363 133.298  17.957  1.00  0.00     0.270 C 
BRANCH   5   6
ATOM      6  C   UNL     1      40.229 134.686  18.337  1.00  0.00     0.009 C 
ATOM      7  C   UNL     1      40.114 135.843  18.651  1.00  0.00     0.017 C 
ENDBRANCH   5   6
BRANCH   5   8
ATOM      8  N   UNL     1      39.381 132.694  17.364  1.00  0.00    -0.242 NA
ATOM      9  H   UNL     1      38.473 132.508  17.847  1.00  0.00     0.194 HD
ENDBRANCH   5   8
ENDBRANCH   2   5
ENDBRANCH   1   2
BRANCH   1  10
ATOM     10  C   UNL     1      43.758 133.426  17.453  1.00  0.00     0.234 A 
ATOM     11  C   UNL     1      44.651 132.400  17.134  1.00  0.00     0.171 A 
ATOM     12  N   UNL     1      43.946 134.383  16.508  1.00  0.00    -0.091 N 
ATOM     13  N   UNL     1      45.322 132.784  16.032  1.00  0.00    -0.147 N 
ATOM     14  N   UNL     1      44.882 133.975  15.668  1.00  0.00     0.094 NA
ATOM     15  C   UNL     1      44.757 131.021  17.711  1.00  0.00     0.100 C 
ATOM     16  H   UNL     1      46.038 132.234  15.508  1.00  0.00     0.342 HD
BRANCH  12  17
ATOM     17  C   UNL     1      43.205 135.604  16.319  1.00  0.00     0.172 A 
ATOM     18  C   UNL     1      43.546 136.758  17.056  1.00  0.00     0.032 A 
ATOM     19  C   UNL     1      42.142 135.651  15.387  1.00  0.00     0.032 A 
ATOM     20  C   UNL     1      44.649 136.747  17.939  1.00  0.00     0.013 A 
ATOM     21  C   UNL     1      42.780 137.947  16.917  1.00  0.00    -0.003 A 
ATOM     22  C   UNL     1      41.850 134.534  14.573  1.00  0.00     0.013 A 
ATOM     23  C   UNL     1      41.349 136.823  15.267  1.00  0.00    -0.003 A 
ATOM     24  C   UNL     1      44.989 137.882  18.672  1.00  0.00     0.001 A 
ATOM     25  C   UNL     1      43.158 139.088  17.666  1.00  0.00     0.009 A 
ATOM     26  C   UNL     1      41.675 137.979  16.026  1.00  0.00     0.030 A 
ATOM     27  C   UNL     1      40.759 134.547  13.708  1.00  0.00     0.001 A 
ATOM     28  C   UNL     1      40.227 136.795  14.403  1.00  0.00     0.009 A 
ATOM     29  C   UNL     1      44.248 139.049  18.534  1.00  0.00     0.001 A 
ATOM     30  C   UNL     1      39.941 135.668  13.634  1.00  0.00     0.001 A 
BRANCH  26  31
ATOM     31  C   UNL     1      40.885 139.227  15.883  1.00  0.00     0.261 C 
ATOM     32  O   UNL     1      39.836 139.407  16.557  1.00  0.00    -0.298 OA
ENDBRANCH  26  31
ENDBRANCH  12  17
ENDBRANCH   1  10
BRANCH   1  33
ATOM     33  C   UNL     1      43.285 133.308  20.002  1.00  0.00     0.050 C 
ATOM     34  C   UNL     1      43.254 131.867  20.531  1.00  0.00     0.014 C 
ATOM     35  C   UNL     1      44.714 133.859  20.103  1.00  0.00     0.014 C 
ENDBRANCH   1  33
TORSDOF 8
ENDMDL
MODEL 6
REMARK VINA RESULT:      -5.7      3.212      6.634
REMARK SMILES [H]/N=C(\C#C)[NH2+][C@H](c1c(C)[nH+]nn1-c1c2ccccc2c(C=O)c2ccccc12)C(C)C
REMARK SMILES IDX 7 1 6 2 3 5 4 6 5 7 2 8 1 9 8 10 9 11 13 12 11 13 12 14
REMARK SMILES IDX 10 15 14 17 15 18 29 19 16 20 20 21 28 22 24 23 17 24 19 25
REMARK SMILES IDX 21 26 27 27 25 28 18 29 26 30 22 31 23 32 30 33 31 34 32 35
REMARK H PARENT 6 3 6 4 11 16
ROOT
ATOM      1  C   UNL     1      40.512 134.857  16.489  1.00  0.00     0.270 C 
ENDROOT
BRANCH   1   2
ATOM      2  N   UNL     1      40.212 133.641  15.695  1.00  0.00    -0.281 N 
ATOM      3  H   UNL     1      40.994 133.453  15.025  1.00  0.00     0.354 HD
ATOM      4  H   UNL     1      40.120 132.807  16.314  1.00  0.00     0.354 HD
BRANCH   2   5
ATOM      5  C   UNL     1      39.006 133.795  14.918  1.00  0.00     0.270 C 
BRANCH   5   6
ATOM      6  C   UNL     1      37.879 134.518  15.461  1.00  0.00     0.009 C 
ATOM      7  C   UNL     1      36.942 135.123  15.916  1.00  0.00     0.017 C 
ENDBRANCH   5   6
BRANCH   5   8
ATOM      8  N   UNL     1      38.916 133.248  13.745  1.00  0.00    -0.242 NA
ATOM      9  H   UNL     1      39.688 133.314  13.043  1.00  0.00     0.194 HD
ENDBRANCH   5   8
ENDBRANCH   2   5
ENDBRANCH   1   2
BRANCH   1  10
ATOM     10  C   UNL     1      41.655 135.663  15.867  1.00  0.00     0.234 A 
ATOM     11  C   UNL     1      41.602 136.761  15.004  1.00  0.00     0.171 A 
ATOM     12  N   UNL     1      42.973 135.474  16.138  1.00  0.00    -0.091 N 
ATOM     13  N   UNL     1      42.867 137.171  14.801  1.00  0.00    -0.147 N 
ATOM     14  N   UNL     1      43.677 136.390  15.493  1.00  0.00     0.094 NA
ATOM     15  C   UNL     1      40.410 137.534  14.527  1.00  0.00     0.100 C 
ATOM     16  H   UNL     1      43.179 137.992  14.236  1.00  0.00     0.342 HD
BRANCH  12  17
ATOM     17  C   UNL     1      43.566 134.536  17.056  1.00  0.00     0.172 A 
ATOM     18  C   UNL     1      43.915 133.242  16.616  1.00  0.00     0.032 A 
ATOM     19  C   UNL     1      43.811 134.915  18.397  1.00  0.00     0.032 A 
ATOM     20  C   UNL     1      43.742 132.872  15.263  1.00  0.00     0.013 A 
ATOM     21  C   UNL     1      44.445 132.294  17.532  1.00  0.00    -0.003 A 
ATOM     22  C   UNL     1      43.557 136.236  18.829  1.00  0.00     0.013 A 
ATOM     23  C   UNL     1      44.308 133.964  19.328  1.00  0.00    -0.003 A 
ATOM     24  C   UNL     1      44.081 131.595  14.822  1.00  0.00     0.001 A 
ATOM     25  C   UNL     1      44.793 131.007  17.051  1.00  0.00     0.009 A 
ATOM     26  C   UNL     1      44.636 132.652  18.892  1.00  0.00     0.030 A 
ATOM     27  C   UNL     1      43.723 136.594  20.164  1.00  0.00     0.001 A 
ATOM     28  C   UNL     1      44.436 134.349  20.685  1.00  0.00     0.009 A 
ATOM     29  C   UNL     1      44.608 130.667  15.712  1.00  0.00     0.001 A 
ATOM     30  C   UNL     1      44.147 135.650  21.092  1.00  0.00     0.001 A 
BRANCH  26  31
ATOM     31  C   UNL     1      45.196 131.657  19.841  1.00  0.00     0.261 C 
ATOM     32  O   UNL     1      44.441 130.993  20.600  1.00  0.00    -0.298 OA
ENDBRANCH  26  31
ENDBRANCH  12  17
ENDBRANCH   1  10
BRANCH   1  33
ATOM     33  C   UNL     1      40.706 134.557  18.013  1.00  0.00     0.050 C 
ATOM     34  C   UNL     1      39.764 135.335  18.944  1.00  0.00     0.014 C 
ATOM     35  C   UNL     1      40.591 133.055  18.311  1.00  0.00     0.014 C 
ENDBRANCH   1  33
TORSDOF 8
ENDMDL
MODEL 7
REMARK VINA RESULT:      -5.7      3.063      6.371
REMARK SMILES [H]/N=C(\C#C)[NH2+][C@H](c1c(C)[nH+]nn1-c1c2ccccc2c(C=O)c2ccccc12)C(C)C
REMARK SMILES IDX 7 1 6 2 3 5 4 6 5 7 2 8 1 9 8 10 9 11 13 12 11 13 12 14
REMARK SMILES IDX 10 15 14 17 15 18 29 19 16 20 20 21 28 22 24 23 17 24 19 25
REMARK SMILES IDX 21 26 27 27 25 28 18 29 26 30 22 31 23 32 30 33 31 34 32 35
REMARK H PARENT 6 3 6 4 11 16
ROOT
ATOM      1  C   UNL     1      40.759 134.944  16.697  1.00  0.00     0.270 C 
ENDROOT
BRANCH   1   2
ATOM      2  N   UNL     1      39.864 135.985  17.258  1.00  0.00    -0.281 N 
ATOM      3  H   UNL     1      40.028 136.896  16.766  1.00  0.00     0.354 HD
ATOM      4  H   UNL     1      38.863 135.728  17.120  1.00  0.00     0.354 HD
BRANCH   2   5
ATOM      5  C   UNL     1      40.113 136.202  18.662  1.00  0.00     0.270 C 
BRANCH   5   6
ATOM      6  C   UNL     1      40.370 135.081  19.536  1.00  0.00     0.009 C 
ATOM      7  C   UNL     1      40.580 134.145  20.264  1.00  0.00     0.017 C 
ENDBRANCH   5   6
BRANCH   5   8
ATOM      8  N   UNL     1      40.066 137.403  19.151  1.00  0.00    -0.242 NA
ATOM      9  H   UNL     1      39.325 137.696  19.828  1.00  0.00     0.194 HD
ENDBRANCH   5   8
ENDBRANCH   2   5
ENDBRANCH   1   2
BRANCH   1  10
ATOM     10  C   UNL     1      41.957 135.566  15.974  1.00  0.00     0.234 A 
ATOM     11  C   UNL     1      41.996 136.640  15.082  1.00  0.00     0.171 A 
ATOM     12  N   UNL     1      43.251 135.198  16.162  1.00  0.00    -0.091 N 
ATOM     13  N   UNL     1      43.290 136.861  14.780  1.00  0.00    -0.147 N 
ATOM     14  N   UNL     1      44.028 135.989  15.442  1.00  0.00     0.094 NA
ATOM     15  C   UNL     1      40.894 137.564  14.661  1.00  0.00     0.100 C 
ATOM     16  H   UNL     1      43.673 137.617  14.170  1.00  0.00     0.342 HD
BRANCH  12  17
ATOM     17  C   UNL     1      43.771 134.206  17.068  1.00  0.00     0.172 A 
ATOM     18  C   UNL     1      44.101 132.919  16.592  1.00  0.00     0.032 A 
ATOM     19  C   UNL     1      43.961 134.523  18.433  1.00  0.00     0.032 A 
ATOM     20  C   UNL     1      43.982 132.608  15.219  1.00  0.00     0.013 A 
ATOM     21  C   UNL     1      44.557 131.919  17.493  1.00  0.00    -0.003 A 
ATOM     22  C   UNL     1      43.727 135.834  18.906  1.00  0.00     0.013 A 
ATOM     23  C   UNL     1      44.384 133.521  19.347  1.00  0.00    -0.003 A 
ATOM     24  C   UNL     1      44.303 131.339  14.742  1.00  0.00     0.001 A 
ATOM     25  C   UNL     1      44.888 130.642  16.977  1.00  0.00     0.009 A 
ATOM     26  C   UNL     1      44.693 132.217  18.874  1.00  0.00     0.030 A 
ATOM     27  C   UNL     1      43.840 136.134  20.261  1.00  0.00     0.001 A 
ATOM     28  C   UNL     1      44.458 133.848  20.722  1.00  0.00     0.009 A 
ATOM     29  C   UNL     1      44.758 130.360  15.618  1.00  0.00     0.001 A 
ATOM     30  C   UNL     1      44.190 135.141  21.169  1.00  0.00     0.001 A 
BRANCH  26  31
ATOM     31  C   UNL     1      45.176 131.168  19.806  1.00  0.00     0.261 C 
ATOM     32  O   UNL     1      46.387 131.115  20.147  1.00  0.00    -0.298 OA
ENDBRANCH  26  31
ENDBRANCH  12  17
ENDBRANCH   1  10
BRANCH   1  33
ATOM     33  C   UNL     1      39.992 133.876  15.846  1.00  0.00     0.050 C 
ATOM     34  C   UNL     1      38.465 134.036  15.843  1.00  0.00     0.014 C 
ATOM     35  C   UNL     1      40.504 133.835  14.399  1.00  0.00     0.014 C 
ENDBRANCH   1  33
TORSDOF 8
ENDMDL
MODEL 8
REMARK VINA RESULT:      -5.6      2.703      6.455
REMARK SMILES [H]/N=C(\C#C)[NH2+][C@H](c1c(C)[nH+]nn1-c1c2ccccc2c(C=O)c2ccccc12)C(C)C
REMARK SMILES IDX 7 1 6 2 3 5 4 6 5 7 2 8 1 9 8 10 9 11 13 12 11 13 12 14
REMARK SMILES IDX 10 15 14 17 15 18 29 19 16 20 20 21 28 22 24 23 17 24 19 25
REMARK SMILES IDX 21 26 27 27 25 28 18 29 26 30 22 31 23 32 30 33 31 34 32 35
REMARK H PARENT 6 3 6 4 11 16
ROOT
ATOM      1  C   UNL     1      43.215 133.688  16.876  1.00  0.00     0.270 C 
ENDROOT
BRANCH   1   2
ATOM      2  N   UNL     1      42.966 132.253  16.599  1.00  0.00    -0.281 N 
ATOM      3  H   UNL     1      42.484 131.812  17.419  1.00  0.00     0.354 HD
ATOM      4  H   UNL     1      42.344 132.137  15.770  1.00  0.00     0.354 HD
BRANCH   2   5
ATOM      5  C   UNL     1      44.195 131.529  16.381  1.00  0.00     0.270 C 
BRANCH   5   6
ATOM      6  C   UNL     1      44.504 131.002  15.072  1.00  0.00     0.009 C 
ATOM      7  C   UNL     1      44.759 130.560  13.981  1.00  0.00     0.017 C 
ENDBRANCH   5   6
BRANCH   5   8
ATOM      8  N   UNL     1      45.006 131.315  17.370  1.00  0.00    -0.242 NA
ATOM      9  H   UNL     1      45.388 130.365  17.577  1.00  0.00     0.194 HD
ENDBRANCH   5   8
ENDBRANCH   2   5
ENDBRANCH   1   2
BRANCH   1  10
ATOM     10  C   UNL     1      42.169 134.263  17.835  1.00  0.00     0.234 A 
ATOM     11  C   UNL     1      40.792 134.415  17.660  1.00  0.00     0.171 A 
ATOM     12  N   UNL     1      42.424 134.665  19.107  1.00  0.00    -0.091 N 
ATOM     13  N   UNL     1      40.293 134.893  18.815  1.00  0.00    -0.147 N 
ATOM     14  N   UNL     1      41.287 135.032  19.674  1.00  0.00     0.094 NA
ATOM     15  C   UNL     1      39.924 133.956  16.528  1.00  0.00     0.100 C 
ATOM     16  H   UNL     1      39.290 135.083  19.037  1.00  0.00     0.342 HD
BRANCH  12  17
ATOM     17  C   UNL     1      43.673 134.612  19.824  1.00  0.00     0.172 A 
ATOM     18  C   UNL     1      44.039 133.439  20.518  1.00  0.00     0.032 A 
ATOM     19  C   UNL     1      44.538 135.731  19.823  1.00  0.00     0.032 A 
ATOM     20  C   UNL     1      43.219 132.290  20.471  1.00  0.00     0.013 A 
ATOM     21  C   UNL     1      45.240 133.404  21.276  1.00  0.00    -0.003 A 
ATOM     22  C   UNL     1      44.232 136.876  19.054  1.00  0.00     0.013 A 
ATOM     23  C   UNL     1      45.724 135.716  20.605  1.00  0.00    -0.003 A 
ATOM     24  C   UNL     1      43.572 131.131  21.157  1.00  0.00     0.001 A 
ATOM     25  C   UNL     1      45.580 132.206  21.952  1.00  0.00     0.009 A 
ATOM     26  C   UNL     1      46.082 134.546  21.325  1.00  0.00     0.030 A 
ATOM     27  C   UNL     1      45.040 138.008  19.108  1.00  0.00     0.001 A 
ATOM     28  C   UNL     1      46.509 136.894  20.665  1.00  0.00     0.009 A 
ATOM     29  C   UNL     1      44.751 131.087  21.893  1.00  0.00     0.001 A 
ATOM     30  C   UNL     1      46.167 138.023  19.922  1.00  0.00     0.001 A 
BRANCH  26  31
ATOM     31  C   UNL     1      47.339 134.497  22.114  1.00  0.00     0.261 C 
ATOM     32  O   UNL     1      48.427 134.162  21.575  1.00  0.00    -0.298 OA
ENDBRANCH  26  31
ENDBRANCH  12  17
ENDBRANCH   1  10
BRANCH   1  33
ATOM     33  C   UNL     1      43.411 134.534  15.573  1.00  0.00     0.050 C 
ATOM     34  C   UNL     1      42.493 134.137  14.407  1.00  0.00     0.014 C 
ATOM     35  C   UNL     1      43.264 136.037  15.850  1.00  0.00     0.014 C 
ENDBRANCH   1  33
TORSDOF 8
ENDMDL
MODEL 9
REMARK VINA RESULT:      -5.5      2.745      6.458
REMARK SMILES [H]/N=C(\C#C)[NH2+][C@H](c1c(C)[nH+]nn1-c1c2ccccc2c(C=O)c2ccccc12)C(C)C
REMARK SMILES IDX 7 1 6 2 3 5 4 6 5 7 2 8 1 9 8 10 9 11 13 12 11 13 12 14
REMARK SMILES IDX 10 15 14 17 15 18 29 19 16 20 20 21 28 22 24 23 17 24 19 25
REMARK SMILES IDX 21 26 27 27 25 28 18 29 26 30 22 31 23 32 30 33 31 34 32 35
REMARK H PARENT 6 3 6 4 11 16
ROOT
ATOM      1  C   UNL     1      44.072 133.346  17.766  1.00  0.00     0.270 C 
ENDROOT
BRANCH   1   2
ATOM      2  N   UNL     1      43.795 131.899  17.929  1.00  0.00    -0.281 N 
ATOM      3  H   UNL     1      43.108 131.755  18.707  1.00  0.00     0.354 HD
ATOM      4  H   UNL     1      43.376 131.500  17.062  1.00  0.00     0.354 HD
BRANCH   2   5
ATOM      5  C   UNL     1      44.989 131.161  18.267  1.00  0.00     0.270 C 
BRANCH   5   6
ATOM      6  C   UNL     1      45.768 130.527  17.229  1.00  0.00     0.009 C 
ATOM      7  C   UNL     1      46.415 130.000  16.360  1.00  0.00     0.017 C 
ENDBRANCH   5   6
BRANCH   5   8
ATOM      8  N   UNL     1      45.342 131.032  19.508  1.00  0.00    -0.242 NA
ATOM      9  H   UNL     1      44.643 131.024  20.284  1.00  0.00     0.194 HD
ENDBRANCH   5   8
ENDBRANCH   2   5
ENDBRANCH   1   2
BRANCH   1  10
ATOM     10  C   UNL     1      42.952 134.201  18.365  1.00  0.00     0.234 A 
ATOM     11  C   UNL     1      41.622 134.335  17.959  1.00  0.00     0.171 A 
ATOM     12  N   UNL     1      43.067 134.944  19.496  1.00  0.00    -0.091 N 
ATOM     13  N   UNL     1      41.012 135.138  18.850  1.00  0.00    -0.147 N 
ATOM     14  N   UNL     1      41.893 135.491  19.768  1.00  0.00     0.094 NA
ATOM     15  C   UNL     1      40.879 133.595  16.889  1.00  0.00     0.100 C 
ATOM     16  H   UNL     1      40.004 135.412  18.863  1.00  0.00     0.342 HD
BRANCH  12  17
ATOM     17  C   UNL     1      44.206 135.064  20.370  1.00  0.00     0.172 A 
ATOM     18  C   UNL     1      45.159 136.081  20.150  1.00  0.00     0.032 A 
ATOM     19  C   UNL     1      44.364 134.172  21.456  1.00  0.00     0.032 A 
ATOM     20  C   UNL     1      44.980 137.023  19.113  1.00  0.00     0.013 A 
ATOM     21  C   UNL     1      46.315 136.166  20.972  1.00  0.00    -0.003 A 
ATOM     22  C   UNL     1      43.369 133.211  21.747  1.00  0.00     0.013 A 
ATOM     23  C   UNL     1      45.532 134.228  22.262  1.00  0.00    -0.003 A 
ATOM     24  C   UNL     1      45.920 138.027  18.888  1.00  0.00     0.001 A 
ATOM     25  C   UNL     1      47.247 137.205  20.728  1.00  0.00     0.009 A 
ATOM     26  C   UNL     1      46.507 135.234  22.026  1.00  0.00     0.030 A 
ATOM     27  C   UNL     1      43.553 132.281  22.767  1.00  0.00     0.001 A 
ATOM     28  C   UNL     1      45.706 133.249  23.270  1.00  0.00     0.009 A 
ATOM     29  C   UNL     1      47.047 138.120  19.695  1.00  0.00     0.001 A 
ATOM     30  C   UNL     1      44.724 132.290  23.516  1.00  0.00     0.001 A 
BRANCH  26  31
ATOM     31  C   UNL     1      47.714 135.335  22.884  1.00  0.00     0.261 C 
ATOM     32  O   UNL     1      48.764 134.701  22.597  1.00  0.00    -0.298 OA
ENDBRANCH  26  31
ENDBRANCH  12  17
ENDBRANCH   1  10
BRANCH   1  33
ATOM     33  C   UNL     1      44.444 133.732  16.295  1.00  0.00     0.050 C 
ATOM     34  C   UNL     1      43.743 132.895  15.215  1.00  0.00     0.014 C 
ATOM     35  C   UNL     1      44.198 135.223  16.024  1.00  0.00     0.014 C 
ENDBRANCH   1  33
TORSDOF 8
ENDMDL


