MODEL 1
REMARK VINA RESULT:      -6.7      0.000      0.000
REMARK SMILES C#CCO/C([O-])=C\[C@@H]1CC[C@@H]2C(O/C([O-])=C\CC)=NC(=O)c3c(N=[N+]=[N-])cc(Cl)c1c32
REMARK SMILES IDX 8 1 30 2 28 3 29 4 27 5 23 6 22 7 31 8 11 9 12 10 19 11
REMARK SMILES IDX 20 12 21 13 10 14 9 15 7 16 5 17 6 18 4 19 3 20 2 21 1 22
REMARK SMILES IDX 24 23 25 24 26 25 13 26 14 27 15 28 16 29 17 30 18 31
REMARK H PARENT
ROOT
ATOM      1  C   UNL     1      43.469 132.918  19.713  1.00  0.00     0.045 C 
ATOM      2  C   UNL     1      42.504 133.250  18.579  1.00  0.00    -0.018 A 
ATOM      3  C   UNL     1      41.436 134.144  18.810  1.00  0.00     0.045 A 
ATOM      4  Cl  UNL     1      41.103 134.809  20.409  1.00  0.00    -0.084 Cl
ATOM      5  C   UNL     1      40.603 134.533  17.763  1.00  0.00     0.032 A 
ATOM      6  C   UNL     1      40.815 134.066  16.457  1.00  0.00     0.052 A 
ATOM      7  C   UNL     1      41.873 133.164  16.210  1.00  0.00     0.056 A 
ATOM      8  C   UNL     1      42.708 132.742  17.270  1.00  0.00    -0.020 A 
ATOM      9  C   UNL     1      43.715 131.626  17.014  1.00  0.00     0.077 C 
ATOM     10  C   UNL     1      44.213 131.608  15.582  1.00  0.00     0.091 C 
ATOM     11  N   UNL     1      43.459 132.043  14.616  1.00  0.00    -0.205 NA
ATOM     12  C   UNL     1      42.204 132.686  14.846  1.00  0.00     0.278 C 
ATOM     13  O   UNL     1      41.427 132.872  13.873  1.00  0.00    -0.267 OA
ATOM     14  C   UNL     1      44.886 131.667  18.007  1.00  0.00     0.016 C 
ATOM     15  C   UNL     1      44.358 131.691  19.438  1.00  0.00     0.014 C 
ENDROOT
BRANCH   1  16
ATOM     16  C   UNL     1      44.305 134.111  20.144  1.00  0.00     0.005 C 
BRANCH  16  17
ATOM     17  C   UNL     1      45.014 134.195  21.278  1.00  0.00     0.049 C 
ATOM     18  O   UNL     1      46.373 134.487  21.203  1.00  0.00    -0.547 OA
BRANCH  17  19
ATOM     19  O   UNL     1      44.415 133.988  22.522  1.00  0.00    -0.601 OA
BRANCH  19  20
ATOM     20  C   UNL     1      44.969 133.120  23.501  1.00  0.00     0.160 C 
BRANCH  20  21
ATOM     21  C   UNL     1      44.632 131.736  23.163  1.00  0.00    -0.095 C 
ATOM     22  C   UNL     1      44.357 130.596  22.885  1.00  0.00     0.005 C 
ENDBRANCH  20  21
ENDBRANCH  19  20
ENDBRANCH  17  19
ENDBRANCH  16  17
ENDBRANCH   1  16
BRANCH   6  23
ATOM     23  N   UNL     1      39.976 134.511  15.378  1.00  0.00    -0.060 NA
BRANCH  23  24
ATOM     24  N   UNL     1      39.791 135.702  15.126  1.00  0.00     0.005 N 
ATOM     25  N   UNL     1      39.605 136.891  14.875  1.00  0.00    -0.003 NA
ENDBRANCH  23  24
ENDBRANCH   6  23
BRANCH  10  26
ATOM     26  O   UNL     1      45.464 131.036  15.308  1.00  0.00    -0.567 OA
BRANCH  26  27
ATOM     27  C   UNL     1      45.688 129.716  14.891  1.00  0.00     0.053 C 
ATOM     28  O   UNL     1      45.263 128.637  15.659  1.00  0.00    -0.547 OA
BRANCH  27  29
ATOM     29  C   UNL     1      46.317 129.480  13.737  1.00  0.00    -0.003 C 
BRANCH  29  30
ATOM     30  C   UNL     1      46.608 130.563  12.736  1.00  0.00     0.026 C 
ATOM     31  C   UNL     1      47.961 131.218  13.001  1.00  0.00     0.008 C 
ENDBRANCH  29  30
ENDBRANCH  27  29
ENDBRANCH  26  27
ENDBRANCH  10  26
TORSDOF 11
ENDMDL
MODEL 2
REMARK VINA RESULT:      -6.7      2.549      5.432
REMARK SMILES C#CCO/C([O-])=C\[C@@H]1CC[C@@H]2C(O/C([O-])=C\CC)=NC(=O)c3c(N=[N+]=[N-])cc(Cl)c1c32
REMARK SMILES IDX 8 1 30 2 28 3 29 4 27 5 23 6 22 7 31 8 11 9 12 10 19 11
REMARK SMILES IDX 20 12 21 13 10 14 9 15 7 16 5 17 6 18 4 19 3 20 2 21 1 22
REMARK SMILES IDX 24 23 25 24 26 25 13 26 14 27 15 28 16 29 17 30 18 31
REMARK H PARENT
ROOT
ATOM      1  C   UNL     1      43.942 132.866  19.318  1.00  0.00     0.045 C 
ATOM      2  C   UNL     1      44.431 132.016  18.148  1.00  0.00    -0.018 A 
ATOM      3  C   UNL     1      45.382 130.999  18.374  1.00  0.00     0.045 A 
ATOM      4  Cl  UNL     1      46.123 130.746  19.954  1.00  0.00    -0.084 Cl
ATOM      5  C   UNL     1      45.768 130.151  17.338  1.00  0.00     0.032 A 
ATOM      6  C   UNL     1      45.208 130.272  16.057  1.00  0.00     0.052 A 
ATOM      7  C   UNL     1      44.262 131.291  15.811  1.00  0.00     0.056 A 
ATOM      8  C   UNL     1      43.882 132.173  16.848  1.00  0.00    -0.020 A 
ATOM      9  C   UNL     1      43.010 133.377  16.509  1.00  0.00     0.077 C 
ATOM     10  C   UNL     1      42.080 133.111  15.342  1.00  0.00     0.091 C 
ATOM     11  N   UNL     1      42.412 132.261  14.415  1.00  0.00    -0.205 NA
ATOM     12  C   UNL     1      43.573 131.434  14.505  1.00  0.00     0.278 C 
ATOM     13  O   UNL     1      43.957 130.809  13.482  1.00  0.00    -0.267 OA
ATOM     14  C   UNL     1      42.232 133.888  17.731  1.00  0.00     0.016 C 
ATOM     15  C   UNL     1      43.188 134.139  18.892  1.00  0.00     0.014 C 
ENDROOT
BRANCH   1  16
ATOM     16  C   UNL     1      43.136 132.070  20.330  1.00  0.00     0.005 C 
BRANCH  16  17
ATOM     17  C   UNL     1      43.314 132.093  21.657  1.00  0.00     0.049 C 
ATOM     18  O   UNL     1      43.050 130.941  22.393  1.00  0.00    -0.547 OA
BRANCH  17  19
ATOM     19  O   UNL     1      43.749 133.249  22.309  1.00  0.00    -0.601 OA
BRANCH  19  20
ATOM     20  C   UNL     1      44.914 133.275  23.121  1.00  0.00     0.160 C 
BRANCH  20  21
ATOM     21  C   UNL     1      46.043 133.762  22.328  1.00  0.00    -0.095 C 
ATOM     22  C   UNL     1      46.972 134.163  21.673  1.00  0.00     0.005 C 
ENDBRANCH  20  21
ENDBRANCH  19  20
ENDBRANCH  17  19
ENDBRANCH  16  17
ENDBRANCH   1  16
BRANCH   6  23
ATOM     23  N   UNL     1      45.581 129.363  15.009  1.00  0.00    -0.060 NA
BRANCH  23  24
ATOM     24  N   UNL     1      46.699 129.366  14.491  1.00  0.00     0.005 N 
ATOM     25  N   UNL     1      47.814 129.367  13.973  1.00  0.00    -0.003 NA
ENDBRANCH  23  24
ENDBRANCH   6  23
BRANCH  10  26
ATOM     26  O   UNL     1      40.899 133.859  15.233  1.00  0.00    -0.567 OA
BRANCH  26  27
ATOM     27  C   UNL     1      40.710 134.978  14.408  1.00  0.00     0.053 C 
ATOM     28  O   UNL     1      40.228 134.841  13.110  1.00  0.00    -0.547 OA
BRANCH  27  29
ATOM     29  C   UNL     1      40.994 136.199  14.867  1.00  0.00    -0.003 C 
BRANCH  29  30
ATOM     30  C   UNL     1      42.403 136.697  15.028  1.00  0.00     0.026 C 
ATOM     31  C   UNL     1      42.588 137.427  16.356  1.00  0.00     0.008 C 
ENDBRANCH  29  30
ENDBRANCH  27  29
ENDBRANCH  26  27
ENDBRANCH  10  26
TORSDOF 11
ENDMDL
MODEL 3
REMARK VINA RESULT:      -6.6      3.164      5.790
REMARK SMILES C#CCO/C([O-])=C\[C@@H]1CC[C@@H]2C(O/C([O-])=C\CC)=NC(=O)c3c(N=[N+]=[N-])cc(Cl)c1c32
REMARK SMILES IDX 8 1 30 2 28 3 29 4 27 5 23 6 22 7 31 8 11 9 12 10 19 11
REMARK SMILES IDX 20 12 21 13 10 14 9 15 7 16 5 17 6 18 4 19 3 20 2 21 1 22
REMARK SMILES IDX 24 23 25 24 26 25 13 26 14 27 15 28 16 29 17 30 18 31
REMARK H PARENT
ROOT
ATOM      1  C   UNL     1      42.341 135.273  17.357  1.00  0.00     0.045 C 
ATOM      2  C   UNL     1      42.851 134.324  18.436  1.00  0.00    -0.018 A 
ATOM      3  C   UNL     1      42.252 134.331  19.714  1.00  0.00     0.045 A 
ATOM      4  Cl  UNL     1      40.997 135.491  20.151  1.00  0.00    -0.084 Cl
ATOM      5  C   UNL     1      42.639 133.406  20.681  1.00  0.00     0.032 A 
ATOM      6  C   UNL     1      43.614 132.435  20.405  1.00  0.00     0.052 A 
ATOM      7  C   UNL     1      44.231 132.419  19.134  1.00  0.00     0.056 A 
ATOM      8  C   UNL     1      43.864 133.370  18.155  1.00  0.00    -0.020 A 
ATOM      9  C   UNL     1      44.678 133.452  16.867  1.00  0.00     0.077 C 
ATOM     10  C   UNL     1      45.267 132.115  16.465  1.00  0.00     0.091 C 
ATOM     11  N   UNL     1      45.557 131.224  17.367  1.00  0.00    -0.205 NA
ATOM     12  C   UNL     1      45.215 131.380  18.744  1.00  0.00     0.278 C 
ATOM     13  O   UNL     1      45.723 130.599  19.591  1.00  0.00    -0.267 OA
ATOM     14  C   UNL     1      43.873 134.072  15.715  1.00  0.00     0.016 C 
ATOM     15  C   UNL     1      43.285 135.411  16.148  1.00  0.00     0.014 C 
ENDROOT
BRANCH   1  16
ATOM     16  C   UNL     1      40.926 134.951  16.908  1.00  0.00     0.005 C 
BRANCH  16  17
ATOM     17  C   UNL     1      40.484 133.743  16.532  1.00  0.00     0.049 C 
ATOM     18  O   UNL     1      39.728 132.994  17.428  1.00  0.00    -0.547 OA
BRANCH  17  19
ATOM     19  O   UNL     1      40.777 133.227  15.268  1.00  0.00    -0.601 OA
BRANCH  19  20
ATOM     20  C   UNL     1      40.318 133.837  14.069  1.00  0.00     0.160 C 
BRANCH  20  21
ATOM     21  C   UNL     1      38.890 134.128  14.193  1.00  0.00    -0.095 C 
ATOM     22  C   UNL     1      37.713 134.367  14.294  1.00  0.00     0.005 C 
ENDBRANCH  20  21
ENDBRANCH  19  20
ENDBRANCH  17  19
ENDBRANCH  16  17
ENDBRANCH   1  16
BRANCH   6  23
ATOM     23  N   UNL     1      43.972 131.458  21.395  1.00  0.00    -0.060 NA
BRANCH  23  24
ATOM     24  N   UNL     1      43.138 130.761  21.975  1.00  0.00     0.005 N 
ATOM     25  N   UNL     1      42.304 130.068  22.554  1.00  0.00    -0.003 NA
ENDBRANCH  23  24
ENDBRANCH   6  23
BRANCH  10  26
ATOM     26  O   UNL     1      45.573 131.888  15.115  1.00  0.00    -0.567 OA
BRANCH  26  27
ATOM     27  C   UNL     1      44.933 130.967  14.273  1.00  0.00     0.053 C 
ATOM     28  O   UNL     1      43.616 130.578  14.502  1.00  0.00    -0.547 OA
BRANCH  27  29
ATOM     29  C   UNL     1      45.588 130.450  13.232  1.00  0.00    -0.003 C 
BRANCH  29  30
ATOM     30  C   UNL     1      47.084 130.302  13.207  1.00  0.00     0.026 C 
ATOM     31  C   UNL     1      47.663 130.721  11.857  1.00  0.00     0.008 C 
ENDBRANCH  29  30
ENDBRANCH  27  29
ENDBRANCH  26  27
ENDBRANCH  10  26
TORSDOF 11
ENDMDL
MODEL 4
REMARK VINA RESULT:      -6.5      1.716      2.843
REMARK SMILES C#CCO/C([O-])=C\[C@@H]1CC[C@@H]2C(O/C([O-])=C\CC)=NC(=O)c3c(N=[N+]=[N-])cc(Cl)c1c32
REMARK SMILES IDX 8 1 30 2 28 3 29 4 27 5 23 6 22 7 31 8 11 9 12 10 19 11
REMARK SMILES IDX 20 12 21 13 10 14 9 15 7 16 5 17 6 18 4 19 3 20 2 21 1 22
REMARK SMILES IDX 24 23 25 24 26 25 13 26 14 27 15 28 16 29 17 30 18 31
REMARK H PARENT
ROOT
ATOM      1  C   UNL     1      42.601 133.120  19.966  1.00  0.00     0.045 C 
ATOM      2  C   UNL     1      41.743 133.270  18.714  1.00  0.00    -0.018 A 
ATOM      3  C   UNL     1      40.480 133.894  18.803  1.00  0.00     0.045 A 
ATOM      4  Cl  UNL     1      39.799 134.410  20.346  1.00  0.00    -0.084 Cl
ATOM      5  C   UNL     1      39.725 134.126  17.655  1.00  0.00     0.032 A 
ATOM      6  C   UNL     1      40.206 133.767  16.387  1.00  0.00     0.052 A 
ATOM      7  C   UNL     1      41.463 133.132  16.281  1.00  0.00     0.056 A 
ATOM      8  C   UNL     1      42.226 132.869  17.441  1.00  0.00    -0.020 A 
ATOM      9  C   UNL     1      43.484 132.015  17.317  1.00  0.00     0.077 C 
ATOM     10  C   UNL     1      44.156 132.161  15.967  1.00  0.00     0.091 C 
ATOM     11  N   UNL     1      43.456 132.452  14.910  1.00  0.00    -0.205 NA
ATOM     12  C   UNL     1      42.070 132.790  14.971  1.00  0.00     0.278 C 
ATOM     13  O   UNL     1      41.405 132.834  13.903  1.00  0.00    -0.267 OA
ATOM     14  C   UNL     1      44.475 132.279  18.461  1.00  0.00     0.016 C 
ATOM     15  C   UNL     1      43.772 132.133  19.806  1.00  0.00     0.014 C 
ENDROOT
BRANCH   1  16
ATOM     16  C   UNL     1      43.083 134.452  20.515  1.00  0.00     0.005 C 
BRANCH  16  17
ATOM     17  C   UNL     1      43.492 135.495  19.780  1.00  0.00     0.049 C 
ATOM     18  O   UNL     1      44.590 135.336  18.938  1.00  0.00    -0.547 OA
BRANCH  17  19
ATOM     19  O   UNL     1      42.844 136.729  19.851  1.00  0.00    -0.601 OA
BRANCH  19  20
ATOM     20  C   UNL     1      41.768 137.077  18.991  1.00  0.00     0.160 C 
BRANCH  20  21
ATOM     21  C   UNL     1      42.185 136.896  17.600  1.00  0.00    -0.095 C 
ATOM     22  C   UNL     1      42.529 136.745  16.455  1.00  0.00     0.005 C 
ENDBRANCH  20  21
ENDBRANCH  19  20
ENDBRANCH  17  19
ENDBRANCH  16  17
ENDBRANCH   1  16
BRANCH   6  23
ATOM     23  N   UNL     1      39.438 134.052  15.207  1.00  0.00    -0.060 NA
BRANCH  23  24
ATOM     24  N   UNL     1      38.795 135.094  15.068  1.00  0.00     0.005 N 
ATOM     25  N   UNL     1      38.155 136.135  14.929  1.00  0.00    -0.003 NA
ENDBRANCH  23  24
ENDBRANCH   6  23
BRANCH  10  26
ATOM     26  O   UNL     1      45.529 131.893  15.861  1.00  0.00    -0.567 OA
BRANCH  26  27
ATOM     27  C   UNL     1      46.097 130.667  15.484  1.00  0.00     0.053 C 
ATOM     28  O   UNL     1      47.061 130.048  16.274  1.00  0.00    -0.547 OA
BRANCH  27  29
ATOM     29  C   UNL     1      45.713 130.076  14.351  1.00  0.00    -0.003 C 
BRANCH  29  30
ATOM     30  C   UNL     1      46.188 130.528  12.998  1.00  0.00     0.026 C 
ATOM     31  C   UNL     1      47.617 130.065  12.726  1.00  0.00     0.008 C 
ENDBRANCH  29  30
ENDBRANCH  27  29
ENDBRANCH  26  27
ENDBRANCH  10  26
TORSDOF 11
ENDMDL
MODEL 5
REMARK VINA RESULT:      -6.4      1.604      2.276
REMARK SMILES C#CCO/C([O-])=C\[C@@H]1CC[C@@H]2C(O/C([O-])=C\CC)=NC(=O)c3c(N=[N+]=[N-])cc(Cl)c1c32
REMARK SMILES IDX 8 1 30 2 28 3 29 4 27 5 23 6 22 7 31 8 11 9 12 10 19 11
REMARK SMILES IDX 20 12 21 13 10 14 9 15 7 16 5 17 6 18 4 19 3 20 2 21 1 22
REMARK SMILES IDX 24 23 25 24 26 25 13 26 14 27 15 28 16 29 17 30 18 31
REMARK H PARENT
ROOT
ATOM      1  C   UNL     1      43.829 133.076  20.083  1.00  0.00     0.045 C 
ATOM      2  C   UNL     1      42.765 133.661  19.160  1.00  0.00    -0.018 A 
ATOM      3  C   UNL     1      42.016 134.782  19.579  1.00  0.00     0.045 A 
ATOM      4  Cl  UNL     1      42.186 135.468  21.195  1.00  0.00    -0.084 Cl
ATOM      5  C   UNL     1      41.110 135.389  18.712  1.00  0.00     0.032 A 
ATOM      6  C   UNL     1      40.934 134.918  17.402  1.00  0.00     0.052 A 
ATOM      7  C   UNL     1      41.667 133.792  16.970  1.00  0.00     0.056 A 
ATOM      8  C   UNL     1      42.571 133.153  17.849  1.00  0.00    -0.020 A 
ATOM      9  C   UNL     1      43.203 131.831  17.423  1.00  0.00     0.077 C 
ATOM     10  C   UNL     1      43.382 131.729  15.922  1.00  0.00     0.091 C 
ATOM     11  N   UNL     1      42.577 132.360  15.117  1.00  0.00    -0.205 NA
ATOM     12  C   UNL     1      41.590 133.282  15.579  1.00  0.00     0.278 C 
ATOM     13  O   UNL     1      40.702 133.676  14.779  1.00  0.00    -0.267 OA
ATOM     14  C   UNL     1      44.524 131.561  18.159  1.00  0.00     0.016 C 
ATOM     15  C   UNL     1      44.318 131.677  19.665  1.00  0.00     0.014 C 
ENDROOT
BRANCH   1  16
ATOM     16  C   UNL     1      45.000 134.017  20.307  1.00  0.00     0.005 C 
BRANCH  16  17
ATOM     17  C   UNL     1      45.483 134.389  21.500  1.00  0.00     0.049 C 
ATOM     18  O   UNL     1      45.848 133.406  22.415  1.00  0.00    -0.547 OA
BRANCH  17  19
ATOM     19  O   UNL     1      45.617 135.737  21.838  1.00  0.00    -0.601 OA
BRANCH  19  20
ATOM     20  C   UNL     1      46.704 136.226  22.611  1.00  0.00     0.160 C 
BRANCH  20  21
ATOM     21  C   UNL     1      47.908 136.262  21.781  1.00  0.00    -0.095 C 
ATOM     22  C   UNL     1      48.899 136.290  21.096  1.00  0.00     0.005 C 
ENDBRANCH  20  21
ENDBRANCH  19  20
ENDBRANCH  17  19
ENDBRANCH  16  17
ENDBRANCH   1  16
BRANCH   6  23
ATOM     23  N   UNL     1      40.029 135.581  16.505  1.00  0.00    -0.060 NA
BRANCH  23  24
ATOM     24  N   UNL     1      39.828 136.796  16.538  1.00  0.00     0.005 N 
ATOM     25  N   UNL     1      39.628 138.009  16.574  1.00  0.00    -0.003 NA
ENDBRANCH  23  24
ENDBRANCH   6  23
BRANCH  10  26
ATOM     26  O   UNL     1      44.374 130.877  15.415  1.00  0.00    -0.567 OA
BRANCH  26  27
ATOM     27  C   UNL     1      45.460 131.268  14.618  1.00  0.00     0.053 C 
ATOM     28  O   UNL     1      46.266 132.344  14.977  1.00  0.00    -0.547 OA
BRANCH  27  29
ATOM     29  C   UNL     1      45.735 130.601  13.495  1.00  0.00    -0.003 C 
BRANCH  29  30
ATOM     30  C   UNL     1      47.079 130.659  12.825  1.00  0.00     0.026 C 
ATOM     31  C   UNL     1      47.967 129.494  13.255  1.00  0.00     0.008 C 
ENDBRANCH  29  30
ENDBRANCH  27  29
ENDBRANCH  26  27
ENDBRANCH  10  26
TORSDOF 11
ENDMDL
MODEL 6
REMARK VINA RESULT:      -6.4      1.618      2.105
REMARK SMILES C#CCO/C([O-])=C\[C@@H]1CC[C@@H]2C(O/C([O-])=C\CC)=NC(=O)c3c(N=[N+]=[N-])cc(Cl)c1c32
REMARK SMILES IDX 8 1 30 2 28 3 29 4 27 5 23 6 22 7 31 8 11 9 12 10 19 11
REMARK SMILES IDX 20 12 21 13 10 14 9 15 7 16 5 17 6 18 4 19 3 20 2 21 1 22
REMARK SMILES IDX 24 23 25 24 26 25 13 26 14 27 15 28 16 29 17 30 18 31
REMARK H PARENT
ROOT
ATOM      1  C   UNL     1      44.457 131.701  19.731  1.00  0.00     0.045 C 
ATOM      2  C   UNL     1      43.234 132.251  19.004  1.00  0.00    -0.018 A 
ATOM      3  C   UNL     1      42.192 132.849  19.744  1.00  0.00     0.045 A 
ATOM      4  Cl  UNL     1      42.196 132.880  21.507  1.00  0.00    -0.084 Cl
ATOM      5  C   UNL     1      41.113 133.443  19.091  1.00  0.00     0.032 A 
ATOM      6  C   UNL     1      41.047 133.481  17.690  1.00  0.00     0.052 A 
ATOM      7  C   UNL     1      42.076 132.878  16.934  1.00  0.00     0.056 A 
ATOM      8  C   UNL     1      43.162 132.251  17.586  1.00  0.00    -0.020 A 
ATOM      9  C   UNL     1      44.154 131.445  16.754  1.00  0.00     0.077 C 
ATOM     10  C   UNL     1      44.305 131.984  15.346  1.00  0.00     0.091 C 
ATOM     11  N   UNL     1      43.319 132.605  14.768  1.00  0.00    -0.205 NA
ATOM     12  C   UNL     1      42.112 132.942  15.453  1.00  0.00     0.278 C 
ATOM     13  O   UNL     1      41.119 133.331  14.783  1.00  0.00    -0.267 OA
ATOM     14  C   UNL     1      45.519 131.318  17.448  1.00  0.00     0.016 C 
ATOM     15  C   UNL     1      45.338 130.782  18.864  1.00  0.00     0.014 C 
ENDROOT
BRANCH   1  16
ATOM     16  C   UNL     1      45.289 132.786  20.393  1.00  0.00     0.005 C 
BRANCH  16  17
ATOM     17  C   UNL     1      45.555 132.872  21.703  1.00  0.00     0.049 C 
ATOM     18  O   UNL     1      45.338 131.758  22.509  1.00  0.00    -0.547 OA
BRANCH  17  19
ATOM     19  O   UNL     1      46.036 134.055  22.267  1.00  0.00    -0.601 OA
BRANCH  19  20
ATOM     20  C   UNL     1      45.568 134.552  23.513  1.00  0.00     0.160 C 
BRANCH  20  21
ATOM     21  C   UNL     1      46.403 135.681  23.925  1.00  0.00    -0.095 C 
ATOM     22  C   UNL     1      47.090 136.612  24.262  1.00  0.00     0.005 C 
ENDBRANCH  20  21
ENDBRANCH  19  20
ENDBRANCH  17  19
ENDBRANCH  16  17
ENDBRANCH   1  16
BRANCH   6  23
ATOM     23  N   UNL     1      39.952 134.136  17.029  1.00  0.00    -0.060 NA
BRANCH  23  24
ATOM     24  N   UNL     1      39.607 135.288  17.296  1.00  0.00     0.005 N 
ATOM     25  N   UNL     1      39.264 136.438  17.563  1.00  0.00    -0.003 NA
ENDBRANCH  23  24
ENDBRANCH   6  23
BRANCH  10  26
ATOM     26  O   UNL     1      45.494 131.727  14.646  1.00  0.00    -0.567 OA
BRANCH  26  27
ATOM     27  C   UNL     1      45.789 130.553  13.937  1.00  0.00     0.053 C 
ATOM     28  O   UNL     1      45.419 129.305  14.427  1.00  0.00    -0.547 OA
BRANCH  27  29
ATOM     29  C   UNL     1      46.436 130.625  12.772  1.00  0.00    -0.003 C 
BRANCH  29  30
ATOM     30  C   UNL     1      47.699 129.858  12.496  1.00  0.00     0.026 C 
ATOM     31  C   UNL     1      48.529 129.676  13.764  1.00  0.00     0.008 C 
ENDBRANCH  29  30
ENDBRANCH  27  29
ENDBRANCH  26  27
ENDBRANCH  10  26
TORSDOF 11
ENDMDL
MODEL 7
REMARK VINA RESULT:      -6.4      3.326      6.203
REMARK SMILES C#CCO/C([O-])=C\[C@@H]1CC[C@@H]2C(O/C([O-])=C\CC)=NC(=O)c3c(N=[N+]=[N-])cc(Cl)c1c32
REMARK SMILES IDX 8 1 30 2 28 3 29 4 27 5 23 6 22 7 31 8 11 9 12 10 19 11
REMARK SMILES IDX 20 12 21 13 10 14 9 15 7 16 5 17 6 18 4 19 3 20 2 21 1 22
REMARK SMILES IDX 24 23 25 24 26 25 13 26 14 27 15 28 16 29 17 30 18 31
REMARK H PARENT
ROOT
ATOM      1  C   UNL     1      42.262 134.232  16.746  1.00  0.00     0.045 C 
ATOM      2  C   UNL     1      42.703 133.558  18.042  1.00  0.00    -0.018 A 
ATOM      3  C   UNL     1      41.916 133.700  19.205  1.00  0.00     0.045 A 
ATOM      4  Cl  UNL     1      40.489 134.734  19.248  1.00  0.00    -0.084 Cl
ATOM      5  C   UNL     1      42.251 133.014  20.371  1.00  0.00     0.032 A 
ATOM      6  C   UNL     1      43.358 132.153  20.412  1.00  0.00     0.052 A 
ATOM      7  C   UNL     1      44.162 132.007  19.260  1.00  0.00     0.056 A 
ATOM      8  C   UNL     1      43.846 132.718  18.080  1.00  0.00    -0.020 A 
ATOM      9  C   UNL     1      44.834 132.691  16.918  1.00  0.00     0.077 C 
ATOM     10  C   UNL     1      45.623 131.399  16.855  1.00  0.00     0.091 C 
ATOM     11  N   UNL     1      45.868 130.722  17.939  1.00  0.00    -0.205 NA
ATOM     12  C   UNL     1      45.303 131.061  19.205  1.00  0.00     0.278 C 
ATOM     13  O   UNL     1      45.758 130.513  20.243  1.00  0.00    -0.267 OA
ATOM     14  C   UNL     1      44.152 132.991  15.575  1.00  0.00     0.016 C 
ATOM     15  C   UNL     1      43.360 134.290  15.668  1.00  0.00     0.014 C 
ENDROOT
BRANCH   1  16
ATOM     16  C   UNL     1      40.978 133.647  16.183  1.00  0.00     0.005 C 
BRANCH  16  17
ATOM     17  C   UNL     1      39.968 134.351  15.656  1.00  0.00     0.049 C 
ATOM     18  O   UNL     1      38.666 134.067  16.059  1.00  0.00    -0.547 OA
BRANCH  17  19
ATOM     19  O   UNL     1      40.200 135.352  14.710  1.00  0.00    -0.601 OA
BRANCH  19  20
ATOM     20  C   UNL     1      39.185 135.828  13.837  1.00  0.00     0.160 C 
BRANCH  20  21
ATOM     21  C   UNL     1      39.322 137.277  13.684  1.00  0.00    -0.095 C 
ATOM     22  C   UNL     1      39.437 138.470  13.557  1.00  0.00     0.005 C 
ENDBRANCH  20  21
ENDBRANCH  19  20
ENDBRANCH  17  19
ENDBRANCH  16  17
ENDBRANCH   1  16
BRANCH   6  23
ATOM     23  N   UNL     1      43.666 131.417  21.607  1.00  0.00    -0.060 NA
BRANCH  23  24
ATOM     24  N   UNL     1      42.855 130.669  22.156  1.00  0.00     0.005 N 
ATOM     25  N   UNL     1      42.047 129.921  22.703  1.00  0.00    -0.003 NA
ENDBRANCH  23  24
ENDBRANCH   6  23
BRANCH  10  26
ATOM     26  O   UNL     1      46.157 130.991  15.623  1.00  0.00    -0.567 OA
BRANCH  26  27
ATOM     27  C   UNL     1      45.558 130.092  14.729  1.00  0.00     0.053 C 
ATOM     28  O   UNL     1      45.105 128.847  15.155  1.00  0.00    -0.547 OA
BRANCH  27  29
ATOM     29  C   UNL     1      45.414 130.428  13.445  1.00  0.00    -0.003 C 
BRANCH  29  30
ATOM     30  C   UNL     1      46.562 130.436  12.475  1.00  0.00     0.026 C 
ATOM     31  C   UNL     1      47.768 131.177  13.045  1.00  0.00     0.008 C 
ENDBRANCH  29  30
ENDBRANCH  27  29
ENDBRANCH  26  27
ENDBRANCH  10  26
TORSDOF 11
ENDMDL
MODEL 8
REMARK VINA RESULT:      -6.2      3.415      6.158
REMARK SMILES C#CCO/C([O-])=C\[C@@H]1CC[C@@H]2C(O/C([O-])=C\CC)=NC(=O)c3c(N=[N+]=[N-])cc(Cl)c1c32
REMARK SMILES IDX 8 1 30 2 28 3 29 4 27 5 23 6 22 7 31 8 11 9 12 10 19 11
REMARK SMILES IDX 20 12 21 13 10 14 9 15 7 16 5 17 6 18 4 19 3 20 2 21 1 22
REMARK SMILES IDX 24 23 25 24 26 25 13 26 14 27 15 28 16 29 17 30 18 31
REMARK H PARENT
ROOT
ATOM      1  C   UNL     1      42.219 135.590  15.913  1.00  0.00     0.045 C 
ATOM      2  C   UNL     1      42.903 135.232  17.228  1.00  0.00    -0.018 A 
ATOM      3  C   UNL     1      42.795 136.104  18.332  1.00  0.00     0.045 A 
ATOM      4  Cl  UNL     1      41.988 137.667  18.213  1.00  0.00    -0.084 Cl
ATOM      5  C   UNL     1      43.331 135.747  19.569  1.00  0.00     0.032 A 
ATOM      6  C   UNL     1      43.969 134.511  19.752  1.00  0.00     0.052 A 
ATOM      7  C   UNL     1      44.094 133.630  18.655  1.00  0.00     0.056 A 
ATOM      8  C   UNL     1      43.577 133.993  17.390  1.00  0.00    -0.020 A 
ATOM      9  C   UNL     1      43.894 133.113  16.185  1.00  0.00     0.077 C 
ATOM     10  C   UNL     1      44.070 131.655  16.559  1.00  0.00     0.091 C 
ATOM     11  N   UNL     1      44.500 131.325  17.742  1.00  0.00    -0.205 NA
ATOM     12  C   UNL     1      44.689 132.278  18.788  1.00  0.00     0.278 C 
ATOM     13  O   UNL     1      45.319 131.932  19.822  1.00  0.00    -0.267 OA
ATOM     14  C   UNL     1      42.857 133.276  15.064  1.00  0.00     0.016 C 
ATOM     15  C   UNL     1      42.694 134.751  14.712  1.00  0.00     0.014 C 
ENDROOT
BRANCH   1  16
ATOM     16  C   UNL     1      40.704 135.586  16.015  1.00  0.00     0.005 C 
BRANCH  16  17
ATOM     17  C   UNL     1      39.880 136.457  15.416  1.00  0.00     0.049 C 
ATOM     18  O   UNL     1      38.893 137.080  16.173  1.00  0.00    -0.547 OA
BRANCH  17  19
ATOM     19  O   UNL     1      39.994 136.739  14.053  1.00  0.00    -0.601 OA
BRANCH  19  20
ATOM     20  C   UNL     1      38.940 136.494  13.132  1.00  0.00     0.160 C 
BRANCH  20  21
ATOM     21  C   UNL     1      38.479 135.113  13.284  1.00  0.00    -0.095 C 
ATOM     22  C   UNL     1      38.101 133.976  13.411  1.00  0.00     0.005 C 
ENDBRANCH  20  21
ENDBRANCH  19  20
ENDBRANCH  17  19
ENDBRANCH  16  17
ENDBRANCH   1  16
BRANCH   6  23
ATOM     23  N   UNL     1      44.477 134.136  21.042  1.00  0.00    -0.060 NA
BRANCH  23  24
ATOM     24  N   UNL     1      43.761 134.052  22.041  1.00  0.00     0.005 N 
ATOM     25  N   UNL     1      43.047 133.968  23.039  1.00  0.00    -0.003 NA
ENDBRANCH  23  24
ENDBRANCH   6  23
BRANCH  10  26
ATOM     26  O   UNL     1      43.845 130.674  15.583  1.00  0.00    -0.567 OA
BRANCH  26  27
ATOM     27  C   UNL     1      44.833 130.038  14.817  1.00  0.00     0.053 C 
ATOM     28  O   UNL     1      45.314 128.779  15.164  1.00  0.00    -0.547 OA
BRANCH  27  29
ATOM     29  C   UNL     1      45.328 130.643  13.734  1.00  0.00    -0.003 C 
BRANCH  29  30
ATOM     30  C   UNL     1      46.777 131.020  13.606  1.00  0.00     0.026 C 
ATOM     31  C   UNL     1      47.360 130.549  12.276  1.00  0.00     0.008 C 
ENDBRANCH  29  30
ENDBRANCH  27  29
ENDBRANCH  26  27
ENDBRANCH  10  26
TORSDOF 11
ENDMDL
MODEL 9
REMARK VINA RESULT:      -6.2      3.308      5.812
REMARK SMILES C#CCO/C([O-])=C\[C@@H]1CC[C@@H]2C(O/C([O-])=C\CC)=NC(=O)c3c(N=[N+]=[N-])cc(Cl)c1c32
REMARK SMILES IDX 8 1 30 2 28 3 29 4 27 5 23 6 22 7 31 8 11 9 12 10 19 11
REMARK SMILES IDX 20 12 21 13 10 14 9 15 7 16 5 17 6 18 4 19 3 20 2 21 1 22
REMARK SMILES IDX 24 23 25 24 26 25 13 26 14 27 15 28 16 29 17 30 18 31
REMARK H PARENT
ROOT
ATOM      1  C   UNL     1      42.570 134.988  17.485  1.00  0.00     0.045 C 
ATOM      2  C   UNL     1      43.187 134.413  18.756  1.00  0.00    -0.018 A 
ATOM      3  C   UNL     1      42.844 134.963  20.010  1.00  0.00     0.045 A 
ATOM      4  Cl  UNL     1      41.805 136.381  20.156  1.00  0.00    -0.084 Cl
ATOM      5  C   UNL     1      43.322 134.390  21.187  1.00  0.00     0.032 A 
ATOM      6  C   UNL     1      44.135 133.247  21.157  1.00  0.00     0.052 A 
ATOM      7  C   UNL     1      44.496 132.690  19.911  1.00  0.00     0.056 A 
ATOM      8  C   UNL     1      44.038 133.278  18.710  1.00  0.00    -0.020 A 
ATOM      9  C   UNL     1      44.597 132.775  17.383  1.00  0.00     0.077 C 
ATOM     10  C   UNL     1      44.976 131.308  17.430  1.00  0.00     0.091 C 
ATOM     11  N   UNL     1      45.350 130.759  18.549  1.00  0.00    -0.205 NA
ATOM     12  C   UNL     1      45.290 131.441  19.802  1.00  0.00     0.278 C 
ATOM     13  O   UNL     1      45.876 130.941  20.797  1.00  0.00    -0.267 OA
ATOM     14  C   UNL     1      43.648 133.065  16.211  1.00  0.00     0.016 C 
ATOM     15  C   UNL     1      43.277 134.543  16.191  1.00  0.00     0.014 C 
ENDROOT
BRANCH   1  16
ATOM     16  C   UNL     1      41.072 134.749  17.396  1.00  0.00     0.005 C 
BRANCH  16  17
ATOM     17  C   UNL     1      40.482 133.561  17.210  1.00  0.00     0.049 C 
ATOM     18  O   UNL     1      40.998 132.444  17.861  1.00  0.00    -0.547 OA
BRANCH  17  19
ATOM     19  O   UNL     1      39.373 133.427  16.373  1.00  0.00    -0.601 OA
BRANCH  19  20
ATOM     20  C   UNL     1      39.029 134.403  15.399  1.00  0.00     0.160 C 
BRANCH  20  21
ATOM     21  C   UNL     1      40.053 134.422  14.353  1.00  0.00    -0.095 C 
ATOM     22  C   UNL     1      40.897 134.437  13.493  1.00  0.00     0.005 C 
ENDBRANCH  20  21
ENDBRANCH  19  20
ENDBRANCH  17  19
ENDBRANCH  16  17
ENDBRANCH   1  16
BRANCH   6  23
ATOM     23  N   UNL     1      44.584 132.640  22.379  1.00  0.00    -0.060 NA
BRANCH  23  24
ATOM     24  N   UNL     1      43.814 132.109  23.181  1.00  0.00     0.005 N 
ATOM     25  N   UNL     1      43.046 131.578  23.982  1.00  0.00    -0.003 NA
ENDBRANCH  23  24
ENDBRANCH   6  23
BRANCH  10  26
ATOM     26  O   UNL     1      44.999 130.576  16.234  1.00  0.00    -0.567 OA
BRANCH  26  27
ATOM     27  C   UNL     1      46.146 130.246  15.498  1.00  0.00     0.053 C 
ATOM     28  O   UNL     1      47.316 129.839  16.132  1.00  0.00    -0.547 OA
BRANCH  27  29
ATOM     29  C   UNL     1      46.125 130.318  14.165  1.00  0.00    -0.003 C 
BRANCH  29  30
ATOM     30  C   UNL     1      47.170 131.058  13.376  1.00  0.00     0.026 C 
ATOM     31  C   UNL     1      47.200 130.596  11.922  1.00  0.00     0.008 C 
ENDBRANCH  29  30
ENDBRANCH  27  29
ENDBRANCH  26  27
ENDBRANCH  10  26
TORSDOF 11
ENDMDL


