MODEL 1
REMARK VINA RESULT:      -7.8      0.000      0.000
REMARK SMILES C#CCO[C@]1(O)O[C@H]1[C@H]1CC[C@@H]2C(=O)N([O-])C(=O)c3ccc(N=[N+]=[N-])c1c32
REMARK SMILES IDX 5 1 7 2 8 3 4 4 3 5 2 6 1 7 6 8 9 10 26 11 10 12 22 13 27 14
REMARK SMILES IDX 11 15 21 16 19 17 12 18 20 19 17 20 13 21 15 22 18 23 14 24
REMARK SMILES IDX 16 25 23 26 24 27 25 28
REMARK H PARENT 6 9
ROOT
ATOM      1  C   UNL     1      45.898 129.922  15.676  1.00  0.00     0.310 C 
ATOM      2  O   UNL     1      44.637 129.772  16.287  1.00  0.00    -0.313 OA
ATOM      3  C   UNL     1      44.845 130.961  15.553  1.00  0.00     0.222 C 
ENDROOT
BRANCH   1   4
ATOM      4  O   UNL     1      46.076 128.998  14.629  1.00  0.00    -0.312 OA
BRANCH   4   5
ATOM      5  C   UNL     1      47.383 129.154  14.125  1.00  0.00     0.255 C 
BRANCH   5   6
ATOM      6  C   UNL     1      47.336 130.016  12.944  1.00  0.00    -0.078 C 
ATOM      7  C   UNL     1      47.297 130.726  11.970  1.00  0.00     0.006 C 
ENDBRANCH   5   6
ENDBRANCH   4   5
ENDBRANCH   1   4
BRANCH   1   8
ATOM      8  O   UNL     1      46.919 130.044  16.627  1.00  0.00    -0.341 OA
ATOM      9  H   UNL     1      47.490 130.792  16.312  1.00  0.00     0.216 HD
ENDBRANCH   1   8
BRANCH   3  10
ATOM     10  C   UNL     1      44.954 132.193  16.472  1.00  0.00     0.058 C 
ATOM     11  C   UNL     1      43.820 132.210  17.475  1.00  0.00    -0.028 A 
ATOM     12  C   UNL     1      44.963 133.503  15.666  1.00  0.00     0.012 C 
ATOM     13  C   UNL     1      43.989 131.673  18.772  1.00  0.00     0.041 A 
ATOM     14  C   UNL     1      42.575 132.767  17.096  1.00  0.00    -0.019 A 
ATOM     15  C   UNL     1      43.600 133.900  15.055  1.00  0.00     0.019 C 
ATOM     16  C   UNL     1      42.926 131.735  19.686  1.00  0.00     0.011 A 
ATOM     17  C   UNL     1      41.521 132.822  18.032  1.00  0.00     0.043 A 
ATOM     18  C   UNL     1      42.369 133.162  15.640  1.00  0.00     0.109 C 
ATOM     19  C   UNL     1      41.712 132.312  19.324  1.00  0.00     0.014 A 
ATOM     20  C   UNL     1      40.228 133.428  17.657  1.00  0.00     0.250 C 
ATOM     21  C   UNL     1      41.106 133.956  15.390  1.00  0.00     0.226 C 
ATOM     22  N   UNL     1      40.065 134.022  16.369  1.00  0.00    -0.351 N 
ATOM     23  O   UNL     1      39.268 133.442  18.475  1.00  0.00    -0.269 OA
ATOM     24  O   UNL     1      40.931 134.503  14.267  1.00  0.00    -0.275 OA
ATOM     25  O   UNL     1      38.904 134.653  16.068  1.00  0.00    -0.749 OA
BRANCH  13  26
ATOM     26  N   UNL     1      45.238 131.065  19.136  1.00  0.00    -0.060 NA
BRANCH  26  27
ATOM     27  N   UNL     1      45.794 131.286  20.213  1.00  0.00     0.005 N 
ATOM     28  N   UNL     1      46.351 131.508  21.287  1.00  0.00    -0.003 NA
ENDBRANCH  26  27
ENDBRANCH  13  26
ENDBRANCH   3  10
TORSDOF 7
ENDMDL
MODEL 2
REMARK VINA RESULT:      -7.3      2.913      6.123
REMARK SMILES C#CCO[C@]1(O)O[C@H]1[C@H]1CC[C@@H]2C(=O)N([O-])C(=O)c3ccc(N=[N+]=[N-])c1c32
REMARK SMILES IDX 5 1 7 2 8 3 4 4 3 5 2 6 1 7 6 8 9 10 26 11 10 12 22 13 27 14
REMARK SMILES IDX 11 15 21 16 19 17 12 18 20 19 17 20 13 21 15 22 18 23 14 24
REMARK SMILES IDX 16 25 23 26 24 27 25 28
REMARK H PARENT 6 9
ROOT
ATOM      1  C   UNL     1      41.198 133.376  14.125  1.00  0.00     0.310 C 
ATOM      2  O   UNL     1      41.753 132.111  13.844  1.00  0.00    -0.313 OA
ATOM      3  C   UNL     1      42.082 132.681  15.094  1.00  0.00     0.222 C 
ENDROOT
BRANCH   1   4
ATOM      4  O   UNL     1      39.803 133.300  14.292  1.00  0.00    -0.312 OA
BRANCH   4   5
ATOM      5  C   UNL     1      39.382 134.452  14.985  1.00  0.00     0.255 C 
BRANCH   5   6
ATOM      6  C   UNL     1      38.863 134.054  16.294  1.00  0.00    -0.078 C 
ATOM      7  C   UNL     1      38.436 133.726  17.373  1.00  0.00     0.006 C 
ENDBRANCH   5   6
ENDBRANCH   4   5
ENDBRANCH   1   4
BRANCH   1   8
ATOM      8  O   UNL     1      41.706 134.362  13.270  1.00  0.00    -0.341 OA
ATOM      9  H   UNL     1      40.914 134.793  12.859  1.00  0.00     0.216 HD
ENDBRANCH   1   8
BRANCH   3  10
ATOM     10  C   UNL     1      43.556 133.125  15.155  1.00  0.00     0.058 C 
ATOM     11  C   UNL     1      44.379 132.131  15.947  1.00  0.00    -0.028 A 
ATOM     12  C   UNL     1      43.701 134.531  15.764  1.00  0.00     0.012 C 
ATOM     13  C   UNL     1      45.089 131.096  15.297  1.00  0.00     0.041 A 
ATOM     14  C   UNL     1      44.424 132.245  17.357  1.00  0.00    -0.019 A 
ATOM     15  C   UNL     1      43.466 134.605  17.289  1.00  0.00     0.019 C 
ATOM     16  C   UNL     1      45.869 130.212  16.060  1.00  0.00     0.011 A 
ATOM     17  C   UNL     1      45.216 131.347  18.104  1.00  0.00     0.043 A 
ATOM     18  C   UNL     1      43.501 133.247  18.035  1.00  0.00     0.109 C 
ATOM     19  C   UNL     1      45.938 130.343  17.444  1.00  0.00     0.014 A 
ATOM     20  C   UNL     1      45.294 131.475  19.573  1.00  0.00     0.250 C 
ATOM     21  C   UNL     1      43.792 133.456  19.505  1.00  0.00     0.226 C 
ATOM     22  N   UNL     1      44.624 132.549  20.233  1.00  0.00    -0.351 N 
ATOM     23  O   UNL     1      45.965 130.649  20.251  1.00  0.00    -0.269 OA
ATOM     24  O   UNL     1      43.227 134.401  20.120  1.00  0.00    -0.275 OA
ATOM     25  O   UNL     1      44.776 132.708  21.570  1.00  0.00    -0.749 OA
BRANCH  13  26
ATOM     26  N   UNL     1      45.002 130.956  13.870  1.00  0.00    -0.060 NA
BRANCH  26  27
ATOM     27  N   UNL     1      45.980 130.692  13.169  1.00  0.00     0.005 N 
ATOM     28  N   UNL     1      46.955 130.430  12.467  1.00  0.00    -0.003 NA
ENDBRANCH  26  27
ENDBRANCH  13  26
ENDBRANCH   3  10
TORSDOF 7
ENDMDL
MODEL 3
REMARK VINA RESULT:      -7.1      3.341      4.989
REMARK SMILES C#CCO[C@]1(O)O[C@H]1[C@H]1CC[C@@H]2C(=O)N([O-])C(=O)c3ccc(N=[N+]=[N-])c1c32
REMARK SMILES IDX 5 1 7 2 8 3 4 4 3 5 2 6 1 7 6 8 9 10 26 11 10 12 22 13 27 14
REMARK SMILES IDX 11 15 21 16 19 17 12 18 20 19 17 20 13 21 15 22 18 23 14 24
REMARK SMILES IDX 16 25 23 26 24 27 25 28
REMARK H PARENT 6 9
ROOT
ATOM      1  C   UNL     1      45.245 131.374  15.415  1.00  0.00     0.310 C 
ATOM      2  O   UNL     1      45.625 132.720  15.583  1.00  0.00    -0.313 OA
ATOM      3  C   UNL     1      45.005 132.097  16.689  1.00  0.00     0.222 C 
ENDROOT
BRANCH   1   4
ATOM      4  O   UNL     1      46.367 130.531  15.303  1.00  0.00    -0.312 OA
BRANCH   4   5
ATOM      5  C   UNL     1      46.148 129.652  14.225  1.00  0.00     0.255 C 
BRANCH   5   6
ATOM      6  C   UNL     1      46.813 130.185  13.036  1.00  0.00    -0.078 C 
ATOM      7  C   UNL     1      47.362 130.625  12.057  1.00  0.00     0.006 C 
ENDBRANCH   5   6
ENDBRANCH   4   5
ENDBRANCH   1   4
BRANCH   1   8
ATOM      8  O   UNL     1      44.226 131.243  14.463  1.00  0.00    -0.341 OA
ATOM      9  H   UNL     1      43.930 132.167  14.259  1.00  0.00     0.216 HD
ENDBRANCH   1   8
BRANCH   3  10
ATOM     10  C   UNL     1      43.587 132.644  16.938  1.00  0.00     0.058 C 
ATOM     11  C   UNL     1      43.620 134.150  17.101  1.00  0.00    -0.028 A 
ATOM     12  C   UNL     1      42.937 131.996  18.173  1.00  0.00     0.012 C 
ATOM     13  C   UNL     1      43.370 135.005  16.004  1.00  0.00     0.041 A 
ATOM     14  C   UNL     1      43.912 134.697  18.373  1.00  0.00    -0.019 A 
ATOM     15  C   UNL     1      43.511 132.461  19.530  1.00  0.00     0.019 C 
ATOM     16  C   UNL     1      43.376 136.395  16.198  1.00  0.00     0.011 A 
ATOM     17  C   UNL     1      43.910 136.098  18.548  1.00  0.00     0.043 A 
ATOM     18  C   UNL     1      44.360 133.757  19.484  1.00  0.00     0.109 C 
ATOM     19  C   UNL     1      43.632 136.933  17.456  1.00  0.00     0.014 A 
ATOM     20  C   UNL     1      44.184 136.679  19.877  1.00  0.00     0.250 C 
ATOM     21  C   UNL     1      44.419 134.403  20.850  1.00  0.00     0.226 C 
ATOM     22  N   UNL     1      44.383 135.824  21.003  1.00  0.00    -0.351 N 
ATOM     23  O   UNL     1      44.226 137.930  20.030  1.00  0.00    -0.269 OA
ATOM     24  O   UNL     1      44.584 133.679  21.870  1.00  0.00    -0.275 OA
ATOM     25  O   UNL     1      44.545 136.369  22.233  1.00  0.00    -0.749 OA
BRANCH  13  26
ATOM     26  N   UNL     1      43.121 134.445  14.704  1.00  0.00    -0.060 NA
BRANCH  26  27
ATOM     27  N   UNL     1      42.168 133.698  14.476  1.00  0.00     0.005 N 
ATOM     28  N   UNL     1      41.216 132.953  14.250  1.00  0.00    -0.003 NA
ENDBRANCH  26  27
ENDBRANCH  13  26
ENDBRANCH   3  10
TORSDOF 7
ENDMDL
MODEL 4
REMARK VINA RESULT:      -7.1      1.927      2.491
REMARK SMILES C#CCO[C@]1(O)O[C@H]1[C@H]1CC[C@@H]2C(=O)N([O-])C(=O)c3ccc(N=[N+]=[N-])c1c32
REMARK SMILES IDX 5 1 7 2 8 3 4 4 3 5 2 6 1 7 6 8 9 10 26 11 10 12 22 13 27 14
REMARK SMILES IDX 11 15 21 16 19 17 12 18 20 19 17 20 13 21 15 22 18 23 14 24
REMARK SMILES IDX 16 25 23 26 24 27 25 28
REMARK H PARENT 6 9
ROOT
ATOM      1  C   UNL     1      44.527 131.739  15.149  1.00  0.00     0.310 C 
ATOM      2  O   UNL     1      43.744 131.412  16.275  1.00  0.00    -0.313 OA
ATOM      3  C   UNL     1      43.142 132.250  15.310  1.00  0.00     0.222 C 
ENDROOT
BRANCH   1   4
ATOM      4  O   UNL     1      44.753 130.613  14.336  1.00  0.00    -0.312 OA
BRANCH   4   5
ATOM      5  C   UNL     1      46.119 130.276  14.425  1.00  0.00     0.255 C 
BRANCH   5   6
ATOM      6  C   UNL     1      46.729 130.415  13.103  1.00  0.00    -0.078 C 
ATOM      7  C   UNL     1      47.232 130.529  12.014  1.00  0.00     0.006 C 
ENDBRANCH   5   6
ENDBRANCH   4   5
ENDBRANCH   1   4
BRANCH   1   8
ATOM      8  O   UNL     1      45.628 132.530  15.501  1.00  0.00    -0.341 OA
ATOM      9  H   UNL     1      45.762 132.384  16.473  1.00  0.00     0.216 HD
ENDBRANCH   1   8
BRANCH   3  10
ATOM     10  C   UNL     1      42.974 133.692  15.823  1.00  0.00     0.058 C 
ATOM     11  C   UNL     1      41.794 133.786  16.767  1.00  0.00    -0.028 A 
ATOM     12  C   UNL     1      42.802 134.691  14.665  1.00  0.00     0.012 C 
ATOM     13  C   UNL     1      41.973 133.689  18.166  1.00  0.00     0.041 A 
ATOM     14  C   UNL     1      40.496 133.967  16.230  1.00  0.00    -0.019 A 
ATOM     15  C   UNL     1      41.431 134.631  13.954  1.00  0.00     0.019 C 
ATOM     16  C   UNL     1      40.860 133.814  19.013  1.00  0.00     0.011 A 
ATOM     17  C   UNL     1      39.392 134.092  17.099  1.00  0.00     0.043 A 
ATOM     18  C   UNL     1      40.316 133.877  14.721  1.00  0.00     0.109 C 
ATOM     19  C   UNL     1      39.589 134.022  18.486  1.00  0.00     0.014 A 
ATOM     20  C   UNL     1      38.039 134.310  16.552  1.00  0.00     0.250 C 
ATOM     21  C   UNL     1      38.950 134.313  14.238  1.00  0.00     0.226 C 
ATOM     22  N   UNL     1      37.855 134.463  15.144  1.00  0.00    -0.351 N 
ATOM     23  O   UNL     1      37.042 134.379  17.321  1.00  0.00    -0.269 OA
ATOM     24  O   UNL     1      38.752 134.469  13.001  1.00  0.00    -0.275 OA
ATOM     25  O   UNL     1      36.622 134.751  14.661  1.00  0.00    -0.749 OA
BRANCH  13  26
ATOM     26  N   UNL     1      43.285 133.459  18.703  1.00  0.00    -0.060 NA
BRANCH  26  27
ATOM     27  N   UNL     1      43.536 132.519  19.459  1.00  0.00     0.005 N 
ATOM     28  N   UNL     1      43.784 131.580  20.214  1.00  0.00    -0.003 NA
ENDBRANCH  26  27
ENDBRANCH  13  26
ENDBRANCH   3  10
TORSDOF 7
ENDMDL
MODEL 5
REMARK VINA RESULT:      -7.0      3.627      5.241
REMARK SMILES C#CCO[C@]1(O)O[C@H]1[C@H]1CC[C@@H]2C(=O)N([O-])C(=O)c3ccc(N=[N+]=[N-])c1c32
REMARK SMILES IDX 5 1 7 2 8 3 4 4 3 5 2 6 1 7 6 8 9 10 26 11 10 12 22 13 27 14
REMARK SMILES IDX 11 15 21 16 19 17 12 18 20 19 17 20 13 21 15 22 18 23 14 24
REMARK SMILES IDX 16 25 23 26 24 27 25 28
REMARK H PARENT 6 9
ROOT
ATOM      1  C   UNL     1      44.904 131.878  15.388  1.00  0.00     0.310 C 
ATOM      2  O   UNL     1      45.235 133.247  15.448  1.00  0.00    -0.313 OA
ATOM      3  C   UNL     1      44.734 132.666  16.635  1.00  0.00     0.222 C 
ENDROOT
BRANCH   1   4
ATOM      4  O   UNL     1      46.050 131.077  15.232  1.00  0.00    -0.312 OA
BRANCH   4   5
ATOM      5  C   UNL     1      45.769 130.093  14.264  1.00  0.00     0.255 C 
BRANCH   5   6
ATOM      6  C   UNL     1      46.582 130.351  13.076  1.00  0.00    -0.078 C 
ATOM      7  C   UNL     1      47.253 130.563  12.097  1.00  0.00     0.006 C 
ENDBRANCH   5   6
ENDBRANCH   4   5
ENDBRANCH   1   4
BRANCH   1   8
ATOM      8  O   UNL     1      43.819 131.649  14.532  1.00  0.00    -0.341 OA
ATOM      9  H   UNL     1      43.100 131.277  15.105  1.00  0.00     0.216 HD
ENDBRANCH   1   8
BRANCH   3  10
ATOM     10  C   UNL     1      43.317 133.168  16.969  1.00  0.00     0.058 C 
ATOM     11  C   UNL     1      43.179 134.637  16.626  1.00  0.00    -0.028 A 
ATOM     12  C   UNL     1      42.968 132.939  18.450  1.00  0.00     0.012 C 
ATOM     13  C   UNL     1      42.644 135.045  15.383  1.00  0.00     0.041 A 
ATOM     14  C   UNL     1      43.602 135.605  17.568  1.00  0.00    -0.019 A 
ATOM     15  C   UNL     1      43.690 133.879  19.441  1.00  0.00     0.019 C 
ATOM     16  C   UNL     1      42.500 136.415  15.112  1.00  0.00     0.011 A 
ATOM     17  C   UNL     1      43.446 136.977  17.276  1.00  0.00     0.043 A 
ATOM     18  C   UNL     1      44.344 135.135  18.810  1.00  0.00     0.109 C 
ATOM     19  C   UNL     1      42.886 137.367  16.050  1.00  0.00     0.014 A 
ATOM     20  C   UNL     1      43.855 137.996  18.263  1.00  0.00     0.250 C 
ATOM     21  C   UNL     1      44.541 136.212  19.854  1.00  0.00     0.226 C 
ATOM     22  N   UNL     1      44.346 137.594  19.542  1.00  0.00    -0.351 N 
ATOM     23  O   UNL     1      43.759 139.224  17.991  1.00  0.00    -0.269 OA
ATOM     24  O   UNL     1      44.964 135.894  21.000  1.00  0.00    -0.275 OA
ATOM     25  O   UNL     1      44.635 138.536  20.471  1.00  0.00    -0.749 OA
BRANCH  13  26
ATOM     26  N   UNL     1      42.261 134.059  14.411  1.00  0.00    -0.060 NA
BRANCH  26  27
ATOM     27  N   UNL     1      41.090 133.716  14.242  1.00  0.00     0.005 N 
ATOM     28  N   UNL     1      39.920 133.375  14.073  1.00  0.00    -0.003 NA
ENDBRANCH  26  27
ENDBRANCH  13  26
ENDBRANCH   3  10
TORSDOF 7
ENDMDL
MODEL 6
REMARK VINA RESULT:      -7.0      3.191      6.328
REMARK SMILES C#CCO[C@]1(O)O[C@H]1[C@H]1CC[C@@H]2C(=O)N([O-])C(=O)c3ccc(N=[N+]=[N-])c1c32
REMARK SMILES IDX 5 1 7 2 8 3 4 4 3 5 2 6 1 7 6 8 9 10 26 11 10 12 22 13 27 14
REMARK SMILES IDX 11 15 21 16 19 17 12 18 20 19 17 20 13 21 15 22 18 23 14 24
REMARK SMILES IDX 16 25 23 26 24 27 25 28
REMARK H PARENT 6 9
ROOT
ATOM      1  C   UNL     1      41.135 134.037  14.959  1.00  0.00     0.310 C 
ATOM      2  O   UNL     1      41.425 132.664  15.093  1.00  0.00    -0.313 OA
ATOM      3  C   UNL     1      41.982 133.524  16.066  1.00  0.00     0.222 C 
ENDROOT
BRANCH   1   4
ATOM      4  O   UNL     1      39.775 134.303  15.202  1.00  0.00    -0.312 OA
BRANCH   4   5
ATOM      5  C   UNL     1      39.033 133.824  14.104  1.00  0.00     0.255 C 
BRANCH   5   6
ATOM      6  C   UNL     1      37.723 134.474  14.097  1.00  0.00    -0.078 C 
ATOM      7  C   UNL     1      36.643 135.010  14.091  1.00  0.00     0.006 C 
ENDBRANCH   5   6
ENDBRANCH   4   5
ENDBRANCH   1   4
BRANCH   1   8
ATOM      8  O   UNL     1      41.716 134.575  13.803  1.00  0.00    -0.341 OA
ATOM      9  H   UNL     1      42.688 134.401  13.887  1.00  0.00     0.216 HD
ENDBRANCH   1   8
BRANCH   3  10
ATOM     10  C   UNL     1      43.508 133.657  15.911  1.00  0.00     0.058 C 
ATOM     11  C   UNL     1      44.216 132.540  16.651  1.00  0.00    -0.028 A 
ATOM     12  C   UNL     1      44.014 135.021  16.412  1.00  0.00     0.012 C 
ATOM     13  C   UNL     1      44.609 131.360  15.979  1.00  0.00     0.041 A 
ATOM     14  C   UNL     1      44.476 132.688  18.034  1.00  0.00    -0.019 A 
ATOM     15  C   UNL     1      44.009 135.192  17.947  1.00  0.00     0.019 C 
ATOM     16  C   UNL     1      45.293 130.360  16.688  1.00  0.00     0.011 A 
ATOM     17  C   UNL     1      45.167 131.671  18.727  1.00  0.00     0.043 A 
ATOM     18  C   UNL     1      43.874 133.881  18.763  1.00  0.00     0.109 C 
ATOM     19  C   UNL     1      45.576 130.518  18.041  1.00  0.00     0.014 A 
ATOM     20  C   UNL     1      45.469 131.828  20.163  1.00  0.00     0.250 C 
ATOM     21  C   UNL     1      44.400 134.073  20.168  1.00  0.00     0.226 C 
ATOM     22  N   UNL     1      45.125 133.038  20.838  1.00  0.00    -0.351 N 
ATOM     23  O   UNL     1      46.048 130.904  20.798  1.00  0.00    -0.269 OA
ATOM     24  O   UNL     1      44.124 135.134  20.792  1.00  0.00    -0.275 OA
ATOM     25  O   UNL     1      45.487 133.206  22.133  1.00  0.00    -0.749 OA
BRANCH  13  26
ATOM     26  N   UNL     1      44.301 131.194  14.586  1.00  0.00    -0.060 NA
BRANCH  26  27
ATOM     27  N   UNL     1      45.136 130.815  13.763  1.00  0.00     0.005 N 
ATOM     28  N   UNL     1      45.967 130.435  12.940  1.00  0.00    -0.003 NA
ENDBRANCH  26  27
ENDBRANCH  13  26
ENDBRANCH   3  10
TORSDOF 7
ENDMDL
MODEL 7
REMARK VINA RESULT:      -6.9      3.274      6.012
REMARK SMILES C#CCO[C@]1(O)O[C@H]1[C@H]1CC[C@@H]2C(=O)N([O-])C(=O)c3ccc(N=[N+]=[N-])c1c32
REMARK SMILES IDX 5 1 7 2 8 3 4 4 3 5 2 6 1 7 6 8 9 10 26 11 10 12 22 13 27 14
REMARK SMILES IDX 11 15 21 16 19 17 12 18 20 19 17 20 13 21 15 22 18 23 14 24
REMARK SMILES IDX 16 25 23 26 24 27 25 28
REMARK H PARENT 6 9
ROOT
ATOM      1  C   UNL     1      41.716 133.205  15.600  1.00  0.00     0.310 C 
ATOM      2  O   UNL     1      41.930 132.279  16.641  1.00  0.00    -0.313 OA
ATOM      3  C   UNL     1      42.261 133.625  16.915  1.00  0.00     0.222 C 
ENDROOT
BRANCH   1   4
ATOM      4  O   UNL     1      40.344 133.378  15.339  1.00  0.00    -0.312 OA
BRANCH   4   5
ATOM      5  C   UNL     1      40.215 134.094  14.132  1.00  0.00     0.255 C 
BRANCH   5   6
ATOM      6  C   UNL     1      38.795 134.223  13.807  1.00  0.00    -0.078 C 
ATOM      7  C   UNL     1      37.624 134.329  13.538  1.00  0.00     0.006 C 
ENDBRANCH   5   6
ENDBRANCH   4   5
ENDBRANCH   1   4
BRANCH   1   8
ATOM      8  O   UNL     1      42.568 132.964  14.515  1.00  0.00    -0.341 OA
ATOM      9  H   UNL     1      42.928 133.852  14.256  1.00  0.00     0.216 HD
ENDBRANCH   1   8
BRANCH   3  10
ATOM     10  C   UNL     1      43.783 133.834  17.018  1.00  0.00     0.058 C 
ATOM     11  C   UNL     1      44.423 132.710  17.807  1.00  0.00    -0.028 A 
ATOM     12  C   UNL     1      44.129 135.189  17.660  1.00  0.00     0.012 C 
ATOM     13  C   UNL     1      44.981 131.589  17.151  1.00  0.00     0.041 A 
ATOM     14  C   UNL     1      44.450 132.791  19.219  1.00  0.00    -0.019 A 
ATOM     15  C   UNL     1      43.870 135.272  19.181  1.00  0.00     0.019 C 
ATOM     16  C   UNL     1      45.595 130.582  17.912  1.00  0.00     0.011 A 
ATOM     17  C   UNL     1      45.074 131.768  19.965  1.00  0.00     0.043 A 
ATOM     18  C   UNL     1      43.676 133.912  19.899  1.00  0.00     0.109 C 
ATOM     19  C   UNL     1      45.649 130.676  19.299  1.00  0.00     0.014 A 
ATOM     20  C   UNL     1      45.134 131.856  21.437  1.00  0.00     0.250 C 
ATOM     21  C   UNL     1      43.959 134.047  21.378  1.00  0.00     0.226 C 
ATOM     22  N   UNL     1      44.622 133.009  22.105  1.00  0.00    -0.351 N 
ATOM     23  O   UNL     1      45.652 130.924  22.112  1.00  0.00    -0.269 OA
ATOM     24  O   UNL     1      43.531 135.057  22.001  1.00  0.00    -0.275 OA
ATOM     25  O   UNL     1      44.763 133.119  23.448  1.00  0.00    -0.749 OA
BRANCH  13  26
ATOM     26  N   UNL     1      44.909 131.490  15.720  1.00  0.00    -0.060 NA
BRANCH  26  27
ATOM     27  N   UNL     1      45.899 131.607  14.996  1.00  0.00     0.005 N 
ATOM     28  N   UNL     1      46.888 131.721  14.274  1.00  0.00    -0.003 NA
ENDBRANCH  26  27
ENDBRANCH  13  26
ENDBRANCH   3  10
TORSDOF 7
ENDMDL
MODEL 8
REMARK VINA RESULT:      -6.9      3.134      4.854
REMARK SMILES C#CCO[C@]1(O)O[C@H]1[C@H]1CC[C@@H]2C(=O)N([O-])C(=O)c3ccc(N=[N+]=[N-])c1c32
REMARK SMILES IDX 5 1 7 2 8 3 4 4 3 5 2 6 1 7 6 8 9 10 26 11 10 12 22 13 27 14
REMARK SMILES IDX 11 15 21 16 19 17 12 18 20 19 17 20 13 21 15 22 18 23 14 24
REMARK SMILES IDX 16 25 23 26 24 27 25 28
REMARK H PARENT 6 9
ROOT
ATOM      1  C   UNL     1      45.152 131.966  15.132  1.00  0.00     0.310 C 
ATOM      2  O   UNL     1      44.784 133.305  15.377  1.00  0.00    -0.313 OA
ATOM      3  C   UNL     1      45.066 132.511  16.511  1.00  0.00     0.222 C 
ENDROOT
BRANCH   1   4
ATOM      4  O   UNL     1      46.408 131.884  14.503  1.00  0.00    -0.312 OA
BRANCH   4   5
ATOM      5  C   UNL     1      46.302 130.973  13.433  1.00  0.00     0.255 C 
BRANCH   5   6
ATOM      6  C   UNL     1      47.474 130.098  13.440  1.00  0.00    -0.078 C 
ATOM      7  C   UNL     1      48.440 129.376  13.444  1.00  0.00     0.006 C 
ENDBRANCH   5   6
ENDBRANCH   4   5
ENDBRANCH   1   4
BRANCH   1   8
ATOM      8  O   UNL     1      44.091 131.234  14.584  1.00  0.00    -0.341 OA
ATOM      9  H   UNL     1      44.070 130.379  15.086  1.00  0.00     0.216 HD
ENDBRANCH   1   8
BRANCH   3  10
ATOM     10  C   UNL     1      43.797 132.192  17.322  1.00  0.00     0.058 C 
ATOM     11  C   UNL     1      42.998 133.454  17.576  1.00  0.00    -0.028 A 
ATOM     12  C   UNL     1      44.133 131.505  18.657  1.00  0.00     0.012 C 
ATOM     13  C   UNL     1      41.931 133.821  16.725  1.00  0.00     0.041 A 
ATOM     14  C   UNL     1      43.338 134.272  18.680  1.00  0.00    -0.019 A 
ATOM     15  C   UNL     1      44.757 132.430  19.725  1.00  0.00     0.019 C 
ATOM     16  C   UNL     1      41.191 134.980  17.010  1.00  0.00     0.011 A 
ATOM     17  C   UNL     1      42.580 135.430  18.950  1.00  0.00     0.043 A 
ATOM     18  C   UNL     1      44.605 133.950  19.460  1.00  0.00     0.109 C 
ATOM     19  C   UNL     1      41.505 135.767  18.114  1.00  0.00     0.014 A 
ATOM     20  C   UNL     1      42.906 136.275  20.116  1.00  0.00     0.250 C 
ATOM     21  C   UNL     1      44.750 134.730  20.748  1.00  0.00     0.226 C 
ATOM     22  N   UNL     1      43.947 135.883  21.012  1.00  0.00    -0.351 N 
ATOM     23  O   UNL     1      42.260 137.335  20.337  1.00  0.00    -0.269 OA
ATOM     24  O   UNL     1      45.652 134.408  21.569  1.00  0.00    -0.275 OA
ATOM     25  O   UNL     1      44.179 136.619  22.126  1.00  0.00    -0.749 OA
BRANCH  13  26
ATOM     26  N   UNL     1      41.620 133.013  15.579  1.00  0.00    -0.060 NA
BRANCH  26  27
ATOM     27  N   UNL     1      41.445 133.492  14.458  1.00  0.00     0.005 N 
ATOM     28  N   UNL     1      41.274 133.970  13.337  1.00  0.00    -0.003 NA
ENDBRANCH  26  27
ENDBRANCH  13  26
ENDBRANCH   3  10
TORSDOF 7
ENDMDL
MODEL 9
REMARK VINA RESULT:      -6.8      3.703      5.629
REMARK SMILES C#CCO[C@]1(O)O[C@H]1[C@H]1CC[C@@H]2C(=O)N([O-])C(=O)c3ccc(N=[N+]=[N-])c1c32
REMARK SMILES IDX 5 1 7 2 8 3 4 4 3 5 2 6 1 7 6 8 9 10 26 11 10 12 22 13 27 14
REMARK SMILES IDX 11 15 21 16 19 17 12 18 20 19 17 20 13 21 15 22 18 23 14 24
REMARK SMILES IDX 16 25 23 26 24 27 25 28
REMARK H PARENT 6 9
ROOT
ATOM      1  C   UNL     1      44.088 131.509  16.045  1.00  0.00     0.310 C 
ATOM      2  O   UNL     1      44.960 132.474  16.590  1.00  0.00    -0.313 OA
ATOM      3  C   UNL     1      44.235 131.685  17.512  1.00  0.00     0.222 C 
ENDROOT
BRANCH   1   4
ATOM      4  O   UNL     1      44.798 130.479  15.402  1.00  0.00    -0.312 OA
BRANCH   4   5
ATOM      5  C   UNL     1      44.535 130.563  14.020  1.00  0.00     0.255 C 
BRANCH   5   6
ATOM      6  C   UNL     1      45.804 130.545  13.294  1.00  0.00    -0.078 C 
ATOM      7  C   UNL     1      46.851 130.530  12.696  1.00  0.00     0.006 C 
ENDBRANCH   5   6
ENDBRANCH   4   5
ENDBRANCH   1   4
BRANCH   1   8
ATOM      8  O   UNL     1      43.026 132.108  15.355  1.00  0.00    -0.341 OA
ATOM      9  H   UNL     1      43.436 132.555  14.570  1.00  0.00     0.216 HD
ENDBRANCH   1   8
BRANCH   3  10
ATOM     10  C   UNL     1      43.152 132.500  18.242  1.00  0.00     0.058 C 
ATOM     11  C   UNL     1      43.714 133.821  18.723  1.00  0.00    -0.028 A 
ATOM     12  C   UNL     1      42.555 131.720  19.426  1.00  0.00     0.012 C 
ATOM     13  C   UNL     1      43.572 134.996  17.950  1.00  0.00     0.041 A 
ATOM     14  C   UNL     1      44.396 133.867  19.963  1.00  0.00    -0.019 A 
ATOM     15  C   UNL     1      43.485 131.589  20.652  1.00  0.00     0.019 C 
ATOM     16  C   UNL     1      44.077 136.210  18.442  1.00  0.00     0.011 A 
ATOM     17  C   UNL     1      44.894 135.098  20.440  1.00  0.00     0.043 A 
ATOM     18  C   UNL     1      44.696 132.556  20.676  1.00  0.00     0.109 C 
ATOM     19  C   UNL     1      44.720 136.261  19.675  1.00  0.00     0.014 A 
ATOM     20  C   UNL     1      45.580 135.163  21.745  1.00  0.00     0.250 C 
ATOM     21  C   UNL     1      45.212 132.728  22.088  1.00  0.00     0.226 C 
ATOM     22  N   UNL     1      45.681 133.994  22.558  1.00  0.00    -0.351 N 
ATOM     23  O   UNL     1      46.066 136.252  22.158  1.00  0.00    -0.269 OA
ATOM     24  O   UNL     1      45.306 131.719  22.839  1.00  0.00    -0.275 OA
ATOM     25  O   UNL     1      46.235 134.085  23.792  1.00  0.00    -0.749 OA
BRANCH  13  26
ATOM     26  N   UNL     1      42.921 134.935  16.671  1.00  0.00    -0.060 NA
BRANCH  26  27
ATOM     27  N   UNL     1      43.427 135.395  15.646  1.00  0.00     0.005 N 
ATOM     28  N   UNL     1      43.931 135.857  14.624  1.00  0.00    -0.003 NA
ENDBRANCH  26  27
ENDBRANCH  13  26
ENDBRANCH   3  10
TORSDOF 7
ENDMDL


