REMARK SMILES C#Cc1ccc(-n2cc(CCCCN(C)[C@@H](C)C#N)[nH+]n2)cc(N=C=O)ccc2ccccc12
REMARK SMILES IDX 11 1 10 2 9 3 7 4 21 5 8 6 20 7 6 9 3 10 4 11 34 12 5 13
REMARK SMILES IDX 33 14 29 15 32 16 28 17 30 18 22 19 31 20 27 21 23 22 2 23
REMARK SMILES IDX 1 24 24 25 25 26 26 27 12 28 13 29 14 30 15 31 16 32 17 33
REMARK SMILES IDX 18 34 19 35
REMARK H PARENT 20 8
ROOT
ATOM      1  C   UNL     1       1.458  -1.444  -2.507  1.00  0.00     0.010 C 
ENDROOT
BRANCH   1   2
ATOM      2  C   UNL     1       1.531  -0.050  -3.143  1.00  0.00     0.086 C 
BRANCH   2   3
ATOM      3  C   UNL     1       1.460   1.038  -2.112  1.00  0.00     0.165 A 
ATOM      4  N   UNL     1       0.837   2.759  -0.920  1.00  0.00    -0.102 N 
ATOM      5  N   UNL     1       2.012   2.333  -0.479  1.00  0.00     0.093 NA
ATOM      6  C   UNL     1       0.455   1.966  -1.944  1.00  0.00     0.281 A 
ATOM      7  N   UNL     1       2.406   1.288  -1.189  1.00  0.00    -0.147 N 
ATOM      8  H   UNL     1       3.302   0.773  -1.045  1.00  0.00     0.342 HD
BRANCH   4   9
ATOM      9  C   UNL     1       0.141   3.905  -0.389  1.00  0.00     0.157 A 
ATOM     10  C   UNL     1       0.092   2.386   2.252  1.00  0.00     0.032 A 
ATOM     11  C   UNL     1       0.702   3.638   2.010  1.00  0.00     0.022 A 
ATOM     12  C   UNL     1      -1.074   1.915   1.581  1.00  0.00    -0.003 A 
ATOM     13  C   UNL     1       0.525   4.423   0.860  1.00  0.00     0.056 A 
ATOM     14  C   UNL     1      -1.206   0.533   1.321  1.00  0.00     0.010 A 
ATOM     15  C   UNL     1      -2.080   2.792   1.067  1.00  0.00    -0.017 A 
ATOM     16  C   UNL     1      -2.212   0.053   0.483  1.00  0.00     0.001 A 
ATOM     17  C   UNL     1      -2.219   4.112   1.532  1.00  0.00     0.011 A 
ATOM     18  C   UNL     1      -3.031   2.298   0.154  1.00  0.00     0.009 A 
ATOM     19  C   UNL     1      -0.855   4.545  -1.156  1.00  0.00     0.083 A 
ATOM     20  C   UNL     1      -3.095   0.936  -0.132  1.00  0.00     0.001 A 
ATOM     21  C   UNL     1      -2.389   5.224   0.693  1.00  0.00     0.030 A 
ATOM     22  C   UNL     1      -1.919   5.329  -0.634  1.00  0.00     0.081 A 
BRANCH  10  23
ATOM     23  C   UNL     1       0.706   1.560   3.267  1.00  0.00    -0.070 C 
ATOM     24  C   UNL     1       1.217   0.870   4.113  1.00  0.00     0.010 C 
ENDBRANCH  10  23
BRANCH  22  25
ATOM     25  N   UNL     1      -2.586   6.292  -1.466  1.00  0.00    -0.168 NA
BRANCH  25  26
ATOM     26  C   UNL     1      -2.268   6.541  -2.675  1.00  0.00     0.240 C 
ATOM     27  O   UNL     1      -1.962   6.782  -3.849  1.00  0.00    -0.211 OA
ENDBRANCH  25  26
ENDBRANCH  22  25
ENDBRANCH   4   9
ENDBRANCH   2   3
ENDBRANCH   1   2
BRANCH   1  28
ATOM     28  C   UNL     1       0.077  -1.728  -1.902  1.00  0.00     0.016 C 
BRANCH  28  29
ATOM     29  C   UNL     1       0.021  -3.130  -1.283  1.00  0.00     0.085 C 
BRANCH  29  30
ATOM     30  N   UNL     1      -1.309  -3.373  -0.675  1.00  0.00    -0.291 NA
ATOM     31  C   UNL     1      -2.283  -3.855  -1.672  1.00  0.00     0.106 C 
BRANCH  30  32
ATOM     32  C   UNL     1      -1.278  -4.246   0.527  1.00  0.00     0.157 C 
ATOM     33  C   UNL     1      -0.554  -5.586   0.306  1.00  0.00     0.041 C 
BRANCH  32  34
ATOM     34  C   UNL     1      -0.676  -3.522   1.659  1.00  0.00     0.081 C 
ATOM     35  N   UNL     1      -0.204  -2.952   2.548  1.00  0.00    -0.197 NA
ENDBRANCH  32  34
ENDBRANCH  30  32
ENDBRANCH  29  30
ENDBRANCH  28  29
ENDBRANCH   1  28
TORSDOF 11


