MODEL 1
REMARK VINA RESULT:      -7.1      0.000      0.000
REMARK SMILES C=C(C)/C(O)=[N+]1/C[C@@H]2CC[C@H](Oc3ccc4c5c(ccc(N=[N+]=[N-])c35)CC4)[C@@H]2C1
REMARK SMILES IDX 12 1 11 2 6 3 29 4 7 5 28 6 8 7 9 8 10 9 4 10 5 11 2 13 1 14
REMARK SMILES IDX 3 15 13 16 14 17 25 18 15 19 21 20 17 21 16 22 20 23 18 24
REMARK SMILES IDX 27 25 19 26 26 27 22 28 23 29 24 30
REMARK H PARENT 5 12
ROOT
ATOM      1  O   UNL     1      41.589 132.968  15.747  1.00  0.00    -0.489 OA
ENDROOT
BRANCH   1   2
ATOM      2  C   UNL     1      40.878 133.846  14.872  1.00  0.00     0.183 C 
ATOM      3  N   UNL     1      42.129 137.083  15.932  1.00  0.00    -0.198 N 
ATOM      4  C   UNL     1      42.447 135.667  15.800  1.00  0.00     0.362 C 
ATOM      5  C   UNL     1      41.048 137.485  15.042  1.00  0.00     0.358 C 
ATOM      6  C   UNL     1      41.637 135.152  14.601  1.00  0.00     0.105 C 
ATOM      7  C   UNL     1      40.571 136.209  14.336  1.00  0.00     0.068 C 
ATOM      8  C   UNL     1      39.248 135.640  14.885  1.00  0.00     0.014 C 
ATOM      9  C   UNL     1      39.570 134.286  15.507  1.00  0.00     0.046 C 
BRANCH   3  10
ATOM     10  C   UNL     1      42.783 137.918  16.711  1.00  0.00     0.362 C 
BRANCH  10  11
ATOM     11  O   UNL     1      43.147 139.192  16.262  1.00  0.00    -0.460 OA
ATOM     12  H   UNL     1      42.690 139.668  15.495  1.00  0.00     0.300 HD
ENDBRANCH  10  11
BRANCH  10  13
ATOM     13  C   UNL     1      43.194 137.551  18.087  1.00  0.00     0.053 C 
ATOM     14  C   UNL     1      42.278 137.518  19.057  1.00  0.00     0.023 C 
ATOM     15  C   UNL     1      44.618 137.180  18.394  1.00  0.00     0.055 C 
ENDBRANCH  10  13
ENDBRANCH   3  10
ENDBRANCH   1   2
BRANCH   1  16
ATOM     16  C   UNL     1      42.688 132.175  15.378  1.00  0.00     0.128 A 
ATOM     17  C   UNL     1      42.898 131.782  14.026  1.00  0.00     0.047 A 
ATOM     18  C   UNL     1      43.612 131.757  16.371  1.00  0.00     0.034 A 
ATOM     19  C   UNL     1      44.001 130.984  13.666  1.00  0.00     0.008 A 
ATOM     20  C   UNL     1      43.559 132.100  17.749  1.00  0.00     0.049 A 
ATOM     21  C   UNL     1      44.683 130.966  15.952  1.00  0.00    -0.008 A 
ATOM     22  C   UNL     1      44.888 130.585  14.665  1.00  0.00    -0.039 A 
ATOM     23  C   UNL     1      44.576 131.619  18.622  1.00  0.00     0.011 A 
ATOM     24  C   UNL     1      45.657 130.505  16.780  1.00  0.00    -0.039 A 
ATOM     25  C   UNL     1      46.128 129.755  14.554  1.00  0.00     0.041 C 
ATOM     26  C   UNL     1      45.628 130.817  18.138  1.00  0.00     0.005 A 
ATOM     27  C   UNL     1      46.662 129.704  16.014  1.00  0.00     0.041 C 
BRANCH  20  28
ATOM     28  N   UNL     1      42.500 132.935  18.245  1.00  0.00    -0.060 NA
BRANCH  28  29
ATOM     29  N   UNL     1      42.268 133.067  19.448  1.00  0.00     0.005 N 
ATOM     30  N   UNL     1      42.041 133.198  20.649  1.00  0.00    -0.003 NA
ENDBRANCH  28  29
ENDBRANCH  20  28
ENDBRANCH   1  16
TORSDOF 7
ENDMDL
MODEL 2
REMARK VINA RESULT:      -7.0      1.733      3.411
REMARK SMILES C=C(C)/C(O)=[N+]1/C[C@@H]2CC[C@H](Oc3ccc4c5c(ccc(N=[N+]=[N-])c35)CC4)[C@@H]2C1
REMARK SMILES IDX 12 1 11 2 6 3 29 4 7 5 28 6 8 7 9 8 10 9 4 10 5 11 2 13 1 14
REMARK SMILES IDX 3 15 13 16 14 17 25 18 15 19 21 20 17 21 16 22 20 23 18 24
REMARK SMILES IDX 27 25 19 26 26 27 22 28 23 29 24 30
REMARK H PARENT 5 12
ROOT
ATOM      1  O   UNL     1      42.061 133.302  17.446  1.00  0.00    -0.489 OA
ENDROOT
BRANCH   1   2
ATOM      2  C   UNL     1      42.179 134.700  17.721  1.00  0.00     0.183 C 
ATOM      3  N   UNL     1      39.953 136.111  15.226  1.00  0.00    -0.198 N 
ATOM      4  C   UNL     1      40.214 134.954  16.073  1.00  0.00     0.362 C 
ATOM      5  C   UNL     1      40.592 137.316  15.737  1.00  0.00     0.358 C 
ATOM      6  C   UNL     1      40.922 135.487  17.328  1.00  0.00     0.105 C 
ATOM      7  C   UNL     1      41.401 136.889  16.969  1.00  0.00     0.068 C 
ATOM      8  C   UNL     1      42.919 136.781  16.722  1.00  0.00     0.014 C 
ATOM      9  C   UNL     1      43.293 135.312  16.889  1.00  0.00     0.046 C 
BRANCH   3  10
ATOM     10  C   UNL     1      39.178 136.088  14.164  1.00  0.00     0.362 C 
BRANCH  10  11
ATOM     11  O   UNL     1      39.447 136.896  13.053  1.00  0.00    -0.460 OA
ATOM     12  H   UNL     1      39.916 137.791  13.113  1.00  0.00     0.300 HD
ENDBRANCH  10  11
BRANCH  10  13
ATOM     13  C   UNL     1      37.968 135.235  14.092  1.00  0.00     0.053 C 
ATOM     14  C   UNL     1      36.941 135.484  14.907  1.00  0.00     0.023 C 
ATOM     15  C   UNL     1      37.869 134.120  13.088  1.00  0.00     0.055 C 
ENDBRANCH  10  13
ENDBRANCH   3  10
ENDBRANCH   1   2
BRANCH   1  16
ATOM     16  C   UNL     1      42.783 132.608  16.462  1.00  0.00     0.128 A 
ATOM     17  C   UNL     1      42.433 132.696  15.085  1.00  0.00     0.047 A 
ATOM     18  C   UNL     1      43.888 131.803  16.844  1.00  0.00     0.034 A 
ATOM     19  C   UNL     1      43.161 131.995  14.105  1.00  0.00     0.008 A 
ATOM     20  C   UNL     1      44.381 131.648  18.168  1.00  0.00     0.049 A 
ATOM     21  C   UNL     1      44.569 131.131  15.827  1.00  0.00    -0.008 A 
ATOM     22  C   UNL     1      44.238 131.209  14.512  1.00  0.00    -0.039 A 
ATOM     23  C   UNL     1      45.518 130.819  18.390  1.00  0.00     0.011 A 
ATOM     24  C   UNL     1      45.654 130.341  16.034  1.00  0.00    -0.039 A 
ATOM     25  C   UNL     1      45.172 130.380  13.687  1.00  0.00     0.041 C 
ATOM     26  C   UNL     1      46.156 130.161  17.321  1.00  0.00     0.005 A 
ATOM     27  C   UNL     1      46.152 129.785  14.737  1.00  0.00     0.041 C 
BRANCH  20  28
ATOM     28  N   UNL     1      43.747 132.333  19.259  1.00  0.00    -0.060 NA
BRANCH  28  29
ATOM     29  N   UNL     1      43.252 131.738  20.218  1.00  0.00     0.005 N 
ATOM     30  N   UNL     1      42.758 131.147  21.176  1.00  0.00    -0.003 NA
ENDBRANCH  28  29
ENDBRANCH  20  28
ENDBRANCH   1  16
TORSDOF 7
ENDMDL
MODEL 3
REMARK VINA RESULT:      -6.8      2.340      4.390
REMARK SMILES C=C(C)/C(O)=[N+]1/C[C@@H]2CC[C@H](Oc3ccc4c5c(ccc(N=[N+]=[N-])c35)CC4)[C@@H]2C1
REMARK SMILES IDX 12 1 11 2 6 3 29 4 7 5 28 6 8 7 9 8 10 9 4 10 5 11 2 13 1 14
REMARK SMILES IDX 3 15 13 16 14 17 25 18 15 19 21 20 17 21 16 22 20 23 18 24
REMARK SMILES IDX 27 25 19 26 26 27 22 28 23 29 24 30
REMARK H PARENT 5 12
ROOT
ATOM      1  O   UNL     1      42.621 132.823  17.980  1.00  0.00    -0.489 OA
ENDROOT
BRANCH   1   2
ATOM      2  C   UNL     1      42.747 134.071  18.666  1.00  0.00     0.183 C 
ATOM      3  N   UNL     1      39.467 135.523  18.120  1.00  0.00    -0.198 N 
ATOM      4  C   UNL     1      40.209 134.278  18.274  1.00  0.00     0.362 C 
ATOM      5  C   UNL     1      40.176 136.656  18.700  1.00  0.00     0.358 C 
ATOM      6  C   UNL     1      41.403 134.597  19.187  1.00  0.00     0.105 C 
ATOM      7  C   UNL     1      41.523 136.116  19.196  1.00  0.00     0.068 C 
ATOM      8  C   UNL     1      42.717 136.465  18.286  1.00  0.00     0.014 C 
ATOM      9  C   UNL     1      43.242 135.150  17.719  1.00  0.00     0.046 C 
BRANCH   3  10
ATOM     10  C   UNL     1      38.269 135.606  17.583  1.00  0.00     0.362 C 
BRANCH  10  11
ATOM     11  O   UNL     1      37.120 135.652  18.381  1.00  0.00    -0.460 OA
ATOM     12  H   UNL     1      36.179 135.600  18.011  1.00  0.00     0.300 HD
ENDBRANCH  10  11
BRANCH  10  13
ATOM     13  C   UNL     1      38.065 135.629  16.115  1.00  0.00     0.053 C 
ATOM     14  C   UNL     1      37.728 134.502  15.483  1.00  0.00     0.023 C 
ATOM     15  C   UNL     1      38.195 136.908  15.337  1.00  0.00     0.055 C 
ENDBRANCH  10  13
ENDBRANCH   3  10
ENDBRANCH   1   2
BRANCH   1  16
ATOM     16  C   UNL     1      43.694 132.029  17.544  1.00  0.00     0.128 A 
ATOM     17  C   UNL     1      44.683 131.555  18.453  1.00  0.00     0.047 A 
ATOM     18  C   UNL     1      43.798 131.687  16.171  1.00  0.00     0.034 A 
ATOM     19  C   UNL     1      45.757 130.761  18.006  1.00  0.00     0.008 A 
ATOM     20  C   UNL     1      42.872 132.051  15.155  1.00  0.00     0.049 A 
ATOM     21  C   UNL     1      44.886 130.901  15.789  1.00  0.00    -0.008 A 
ATOM     22  C   UNL     1      45.834 130.448  16.650  1.00  0.00    -0.039 A 
ATOM     23  C   UNL     1      43.102 131.613  13.820  1.00  0.00     0.011 A 
ATOM     24  C   UNL     1      45.109 130.479  14.517  1.00  0.00    -0.039 A 
ATOM     25  C   UNL     1      46.851 129.626  15.923  1.00  0.00     0.041 C 
ATOM     26  C   UNL     1      44.225 130.826  13.498  1.00  0.00     0.005 A 
ATOM     27  C   UNL     1      46.348 129.643  14.452  1.00  0.00     0.041 C 
BRANCH  20  28
ATOM     28  N   UNL     1      41.714 132.835  15.481  1.00  0.00    -0.060 NA
BRANCH  28  29
ATOM     29  N   UNL     1      41.431 133.878  14.888  1.00  0.00     0.005 N 
ATOM     30  N   UNL     1      41.152 134.918  14.295  1.00  0.00    -0.003 NA
ENDBRANCH  28  29
ENDBRANCH  20  28
ENDBRANCH   1  16
TORSDOF 7
ENDMDL
MODEL 4
REMARK VINA RESULT:      -6.8      1.471      1.841
REMARK SMILES C=C(C)/C(O)=[N+]1/C[C@@H]2CC[C@H](Oc3ccc4c5c(ccc(N=[N+]=[N-])c35)CC4)[C@@H]2C1
REMARK SMILES IDX 12 1 11 2 6 3 29 4 7 5 28 6 8 7 9 8 10 9 4 10 5 11 2 13 1 14
REMARK SMILES IDX 3 15 13 16 14 17 25 18 15 19 21 20 17 21 16 22 20 23 18 24
REMARK SMILES IDX 27 25 19 26 26 27 22 28 23 29 24 30
REMARK H PARENT 5 12
ROOT
ATOM      1  O   UNL     1      41.792 133.214  16.755  1.00  0.00    -0.489 OA
ENDROOT
BRANCH   1   2
ATOM      2  C   UNL     1      40.472 133.596  16.362  1.00  0.00     0.183 C 
ATOM      3  N   UNL     1      40.664 137.210  16.622  1.00  0.00    -0.198 N 
ATOM      4  C   UNL     1      41.418 135.993  16.352  1.00  0.00     0.362 C 
ATOM      5  C   UNL     1      39.235 137.026  16.406  1.00  0.00     0.358 C 
ATOM      6  C   UNL     1      40.424 134.996  15.736  1.00  0.00     0.105 C 
ATOM      7  C   UNL     1      39.038 135.547  16.048  1.00  0.00     0.068 C 
ATOM      8  C   UNL     1      38.476 134.688  17.198  1.00  0.00     0.014 C 
ATOM      9  C   UNL     1      39.561 133.685  17.574  1.00  0.00     0.046 C 
BRANCH   3  10
ATOM     10  C   UNL     1      41.211 138.359  16.954  1.00  0.00     0.362 C 
BRANCH  10  11
ATOM     11  O   UNL     1      40.808 139.047  18.104  1.00  0.00    -0.460 OA
ATOM     12  H   UNL     1      41.452 139.504  18.738  1.00  0.00     0.300 HD
ENDBRANCH  10  11
BRANCH  10  13
ATOM     13  C   UNL     1      42.257 139.001  16.123  1.00  0.00     0.053 C 
ATOM     14  C   UNL     1      43.353 139.488  16.710  1.00  0.00     0.023 C 
ATOM     15  C   UNL     1      42.117 139.078  14.628  1.00  0.00     0.055 C 
ENDBRANCH  10  13
ENDBRANCH   3  10
ENDBRANCH   1   2
BRANCH   1  16
ATOM     16  C   UNL     1      42.678 132.453  15.977  1.00  0.00     0.128 A 
ATOM     17  C   UNL     1      42.519 132.342  14.566  1.00  0.00     0.047 A 
ATOM     18  C   UNL     1      43.759 131.780  16.605  1.00  0.00     0.034 A 
ATOM     19  C   UNL     1      43.412 131.575  13.794  1.00  0.00     0.008 A 
ATOM     20  C   UNL     1      44.070 131.827  17.991  1.00  0.00     0.049 A 
ATOM     21  C   UNL     1      44.608 131.033  15.786  1.00  0.00    -0.008 A 
ATOM     22  C   UNL     1      44.460 130.922  14.441  1.00  0.00    -0.039 A 
ATOM     23  C   UNL     1      45.205 131.112  18.470  1.00  0.00     0.011 A 
ATOM     24  C   UNL     1      45.693 130.351  16.238  1.00  0.00    -0.039 A 
ATOM     25  C   UNL     1      45.540 130.062  13.864  1.00  0.00     0.041 C 
ATOM     26  C   UNL     1      46.019 130.370  17.592  1.00  0.00     0.005 A 
ATOM     27  C   UNL     1      46.394 129.672  15.104  1.00  0.00     0.041 C 
BRANCH  20  28
ATOM     28  N   UNL     1      43.257 132.600  18.888  1.00  0.00    -0.060 NA
BRANCH  28  29
ATOM     29  N   UNL     1      43.351 132.509  20.113  1.00  0.00     0.005 N 
ATOM     30  N   UNL     1      43.441 132.415  21.336  1.00  0.00    -0.003 NA
ENDBRANCH  28  29
ENDBRANCH  20  28
ENDBRANCH   1  16
TORSDOF 7
ENDMDL
MODEL 5
REMARK VINA RESULT:      -6.7      1.401      1.607
REMARK SMILES C=C(C)/C(O)=[N+]1/C[C@@H]2CC[C@H](Oc3ccc4c5c(ccc(N=[N+]=[N-])c35)CC4)[C@@H]2C1
REMARK SMILES IDX 12 1 11 2 6 3 29 4 7 5 28 6 8 7 9 8 10 9 4 10 5 11 2 13 1 14
REMARK SMILES IDX 3 15 13 16 14 17 25 18 15 19 21 20 17 21 16 22 20 23 18 24
REMARK SMILES IDX 27 25 19 26 26 27 22 28 23 29 24 30
REMARK H PARENT 5 12
ROOT
ATOM      1  O   UNL     1      41.454 133.307  15.259  1.00  0.00    -0.489 OA
ENDROOT
BRANCH   1   2
ATOM      2  C   UNL     1      40.560 133.704  14.217  1.00  0.00     0.183 C 
ATOM      3  N   UNL     1      40.214 137.254  14.882  1.00  0.00    -0.198 N 
ATOM      4  C   UNL     1      41.104 136.104  14.980  1.00  0.00     0.362 C 
ATOM      5  C   UNL     1      39.186 137.064  13.867  1.00  0.00     0.358 C 
ATOM      6  C   UNL     1      40.739 135.174  13.814  1.00  0.00     0.105 C 
ATOM      7  C   UNL     1      39.373 135.642  13.322  1.00  0.00     0.068 C 
ATOM      8  C   UNL     1      38.346 134.622  13.852  1.00  0.00     0.014 C 
ATOM      9  C   UNL     1      39.119 133.605  14.686  1.00  0.00     0.046 C 
BRANCH   3  10
ATOM     10  C   UNL     1      40.360 138.362  15.576  1.00  0.00     0.362 C 
BRANCH  10  11
ATOM     11  O   UNL     1      39.381 139.362  15.558  1.00  0.00    -0.460 OA
ATOM     12  H   UNL     1      39.487 140.258  16.016  1.00  0.00     0.300 HD
ENDBRANCH  10  11
BRANCH  10  13
ATOM     13  C   UNL     1      41.571 138.627  16.389  1.00  0.00     0.053 C 
ATOM     14  C   UNL     1      41.567 138.326  17.689  1.00  0.00     0.023 C 
ATOM     15  C   UNL     1      42.813 139.195  15.760  1.00  0.00     0.055 C 
ENDBRANCH  10  13
ENDBRANCH   3  10
ENDBRANCH   1   2
BRANCH   1  16
ATOM     16  C   UNL     1      42.528 132.416  15.107  1.00  0.00     0.128 A 
ATOM     17  C   UNL     1      42.809 131.800  13.854  1.00  0.00     0.047 A 
ATOM     18  C   UNL     1      43.356 132.122  16.222  1.00  0.00     0.034 A 
ATOM     19  C   UNL     1      43.887 130.906  13.711  1.00  0.00     0.008 A 
ATOM     20  C   UNL     1      43.226 132.685  17.520  1.00  0.00     0.049 A 
ATOM     21  C   UNL     1      44.407 131.226  16.017  1.00  0.00    -0.008 A 
ATOM     22  C   UNL     1      44.678 130.634  14.826  1.00  0.00    -0.039 A 
ATOM     23  C   UNL     1      44.151 132.305  18.534  1.00  0.00     0.011 A 
ATOM     24  C   UNL     1      45.292 130.862  16.981  1.00  0.00    -0.039 A 
ATOM     25  C   UNL     1      45.874 129.742  14.944  1.00  0.00     0.041 C 
ATOM     26  C   UNL     1      45.187 131.389  18.266  1.00  0.00     0.005 A 
ATOM     27  C   UNL     1      46.301 129.903  16.431  1.00  0.00     0.041 C 
BRANCH  20  28
ATOM     28  N   UNL     1      42.185 133.636  17.794  1.00  0.00    -0.060 NA
BRANCH  28  29
ATOM     29  N   UNL     1      41.611 133.694  18.883  1.00  0.00     0.005 N 
ATOM     30  N   UNL     1      41.034 133.753  19.967  1.00  0.00    -0.003 NA
ENDBRANCH  28  29
ENDBRANCH  20  28
ENDBRANCH   1  16
TORSDOF 7
ENDMDL
MODEL 6
REMARK VINA RESULT:      -6.7      3.324      6.923
REMARK SMILES C=C(C)/C(O)=[N+]1/C[C@@H]2CC[C@H](Oc3ccc4c5c(ccc(N=[N+]=[N-])c35)CC4)[C@@H]2C1
REMARK SMILES IDX 12 1 11 2 6 3 29 4 7 5 28 6 8 7 9 8 10 9 4 10 5 11 2 13 1 14
REMARK SMILES IDX 3 15 13 16 14 17 25 18 15 19 21 20 17 21 16 22 20 23 18 24
REMARK SMILES IDX 27 25 19 26 26 27 22 28 23 29 24 30
REMARK H PARENT 5 12
ROOT
ATOM      1  O   UNL     1      44.593 133.306  18.371  1.00  0.00    -0.489 OA
ENDROOT
BRANCH   1   2
ATOM      2  C   UNL     1      43.605 133.312  17.337  1.00  0.00     0.183 C 
ATOM      3  N   UNL     1      44.747 130.580  15.239  1.00  0.00    -0.198 N 
ATOM      4  C   UNL     1      44.696 131.097  16.601  1.00  0.00     0.362 C 
ATOM      5  C   UNL     1      43.705 131.156  14.398  1.00  0.00     0.358 C 
ATOM      6  C   UNL     1      43.409 131.930  16.700  1.00  0.00     0.105 C 
ATOM      7  C   UNL     1      42.973 132.191  15.263  1.00  0.00     0.068 C 
ATOM      8  C   UNL     1      43.347 133.653  14.951  1.00  0.00     0.014 C 
ATOM      9  C   UNL     1      44.042 134.207  16.190  1.00  0.00     0.046 C 
BRANCH   3  10
ATOM     10  C   UNL     1      45.587 129.654  14.832  1.00  0.00     0.362 C 
BRANCH  10  11
ATOM     11  O   UNL     1      45.466 128.328  15.261  1.00  0.00    -0.460 OA
ATOM     12  H   UNL     1      45.663 128.025  16.206  1.00  0.00     0.300 HD
ENDBRANCH  10  11
BRANCH  10  13
ATOM     13  C   UNL     1      46.718 129.963  13.925  1.00  0.00     0.053 C 
ATOM     14  C   UNL     1      47.958 129.625  14.285  1.00  0.00     0.023 C 
ATOM     15  C   UNL     1      46.482 130.615  12.591  1.00  0.00     0.055 C 
ENDBRANCH  10  13
ENDBRANCH   3  10
ENDBRANCH   1   2
BRANCH   1  16
ATOM     16  C   UNL     1      44.365 132.929  19.704  1.00  0.00     0.128 A 
ATOM     17  C   UNL     1      44.210 131.562  20.071  1.00  0.00     0.047 A 
ATOM     18  C   UNL     1      44.290 133.927  20.710  1.00  0.00     0.034 A 
ATOM     19  C   UNL     1      43.980 131.193  21.410  1.00  0.00     0.008 A 
ATOM     20  C   UNL     1      44.463 135.323  20.505  1.00  0.00     0.049 A 
ATOM     21  C   UNL     1      44.057 133.499  22.017  1.00  0.00    -0.008 A 
ATOM     22  C   UNL     1      43.905 132.197  22.374  1.00  0.00    -0.039 A 
ATOM     23  C   UNL     1      44.379 136.202  21.623  1.00  0.00     0.011 A 
ATOM     24  C   UNL     1      43.978 134.332  23.087  1.00  0.00    -0.039 A 
ATOM     25  C   UNL     1      43.682 132.080  23.849  1.00  0.00     0.041 C 
ATOM     26  C   UNL     1      44.134 135.706  22.919  1.00  0.00     0.005 A 
ATOM     27  C   UNL     1      43.737 133.554  24.342  1.00  0.00     0.041 C 
BRANCH  20  28
ATOM     28  N   UNL     1      44.734 135.832  19.190  1.00  0.00    -0.060 NA
BRANCH  28  29
ATOM     29  N   UNL     1      44.487 136.994  18.865  1.00  0.00     0.005 N 
ATOM     30  N   UNL     1      44.243 138.155  18.540  1.00  0.00    -0.003 NA
ENDBRANCH  28  29
ENDBRANCH  20  28
ENDBRANCH   1  16
TORSDOF 7
ENDMDL
MODEL 7
REMARK VINA RESULT:      -6.7      1.987      2.303
REMARK SMILES C=C(C)/C(O)=[N+]1/C[C@@H]2CC[C@H](Oc3ccc4c5c(ccc(N=[N+]=[N-])c35)CC4)[C@@H]2C1
REMARK SMILES IDX 12 1 11 2 6 3 29 4 7 5 28 6 8 7 9 8 10 9 4 10 5 11 2 13 1 14
REMARK SMILES IDX 3 15 13 16 14 17 25 18 15 19 21 20 17 21 16 22 20 23 18 24
REMARK SMILES IDX 27 25 19 26 26 27 22 28 23 29 24 30
REMARK H PARENT 5 12
ROOT
ATOM      1  O   UNL     1      41.963 132.738  17.050  1.00  0.00    -0.489 OA
ENDROOT
BRANCH   1   2
ATOM      2  C   UNL     1      41.024 133.790  16.819  1.00  0.00     0.183 C 
ATOM      3  N   UNL     1      42.341 136.409  18.958  1.00  0.00    -0.198 N 
ATOM      4  C   UNL     1      42.683 135.249  18.144  1.00  0.00     0.362 C 
ATOM      5  C   UNL     1      41.061 136.988  18.570  1.00  0.00     0.358 C 
ATOM      6  C   UNL     1      41.636 135.183  17.023  1.00  0.00     0.105 C 
ATOM      7  C   UNL     1      40.489 136.081  17.473  1.00  0.00     0.068 C 
ATOM      8  C   UNL     1      39.363 135.145  17.952  1.00  0.00     0.014 C 
ATOM      9  C   UNL     1      39.886 133.718  17.823  1.00  0.00     0.046 C 
BRANCH   3  10
ATOM     10  C   UNL     1      43.122 136.917  19.886  1.00  0.00     0.362 C 
BRANCH  10  11
ATOM     11  O   UNL     1      42.621 137.258  21.147  1.00  0.00    -0.460 OA
ATOM     12  H   UNL     1      42.824 136.737  21.991  1.00  0.00     0.300 HD
ENDBRANCH  10  11
BRANCH  10  13
ATOM     13  C   UNL     1      44.560 137.181  19.644  1.00  0.00     0.053 C 
ATOM     14  C   UNL     1      44.917 138.047  18.693  1.00  0.00     0.023 C 
ATOM     15  C   UNL     1      45.618 136.517  20.481  1.00  0.00     0.055 C 
ENDBRANCH  10  13
ENDBRANCH   3  10
ENDBRANCH   1   2
BRANCH   1  16
ATOM     16  C   UNL     1      42.795 132.168  16.073  1.00  0.00     0.128 A 
ATOM     17  C   UNL     1      42.489 132.272  14.686  1.00  0.00     0.047 A 
ATOM     18  C   UNL     1      43.969 131.477  16.472  1.00  0.00     0.034 A 
ATOM     19  C   UNL     1      43.329 131.696  13.714  1.00  0.00     0.008 A 
ATOM     20  C   UNL     1      44.426 131.324  17.809  1.00  0.00     0.049 A 
ATOM     21  C   UNL     1      44.759 130.926  15.462  1.00  0.00    -0.008 A 
ATOM     22  C   UNL     1      44.471 131.019  14.137  1.00  0.00    -0.039 A 
ATOM     23  C   UNL     1      45.640 130.619  18.049  1.00  0.00     0.011 A 
ATOM     24  C   UNL     1      45.918 130.253  15.685  1.00  0.00    -0.039 A 
ATOM     25  C   UNL     1      45.522 130.333  13.323  1.00  0.00     0.041 C 
ATOM     26  C   UNL     1      46.388 130.079  16.985  1.00  0.00     0.005 A 
ATOM     27  C   UNL     1      46.524 129.808  14.391  1.00  0.00     0.041 C 
BRANCH  20  28
ATOM     28  N   UNL     1      43.678 131.891  18.897  1.00  0.00    -0.060 NA
BRANCH  28  29
ATOM     29  N   UNL     1      43.926 131.634  20.076  1.00  0.00     0.005 N 
ATOM     30  N   UNL     1      44.172 131.373  21.252  1.00  0.00    -0.003 NA
ENDBRANCH  28  29
ENDBRANCH  20  28
ENDBRANCH   1  16
TORSDOF 7
ENDMDL
MODEL 8
REMARK VINA RESULT:      -6.7      2.333      6.710
REMARK SMILES C=C(C)/C(O)=[N+]1/C[C@@H]2CC[C@H](Oc3ccc4c5c(ccc(N=[N+]=[N-])c35)CC4)[C@@H]2C1
REMARK SMILES IDX 12 1 11 2 6 3 29 4 7 5 28 6 8 7 9 8 10 9 4 10 5 11 2 13 1 14
REMARK SMILES IDX 3 15 13 16 14 17 25 18 15 19 21 20 17 21 16 22 20 23 18 24
REMARK SMILES IDX 27 25 19 26 26 27 22 28 23 29 24 30
REMARK H PARENT 5 12
ROOT
ATOM      1  O   UNL     1      42.730 134.684  16.865  1.00  0.00    -0.489 OA
ENDROOT
BRANCH   1   2
ATOM      2  C   UNL     1      42.992 133.967  18.073  1.00  0.00     0.183 C 
ATOM      3  N   UNL     1      45.351 131.461  16.921  1.00  0.00    -0.198 N 
ATOM      4  C   UNL     1      44.852 132.815  16.712  1.00  0.00     0.362 C 
ATOM      5  C   UNL     1      45.076 130.981  18.268  1.00  0.00     0.358 C 
ATOM      6  C   UNL     1      44.384 133.320  18.085  1.00  0.00     0.105 C 
ATOM      7  C   UNL     1      44.261 132.079  18.963  1.00  0.00     0.068 C 
ATOM      8  C   UNL     1      42.754 131.772  19.075  1.00  0.00     0.014 C 
ATOM      9  C   UNL     1      42.025 132.805  18.222  1.00  0.00     0.046 C 
BRANCH   3  10
ATOM     10  C   UNL     1      46.028 130.778  16.024  1.00  0.00     0.362 C 
BRANCH  10  11
ATOM     11  O   UNL     1      47.053 129.903  16.404  1.00  0.00    -0.460 OA
ATOM     12  H   UNL     1      47.550 129.971  17.283  1.00  0.00     0.300 HD
ENDBRANCH  10  11
BRANCH  10  13
ATOM     13  C   UNL     1      45.769 130.912  14.571  1.00  0.00     0.053 C 
ATOM     14  C   UNL     1      44.519 130.804  14.116  1.00  0.00     0.023 C 
ATOM     15  C   UNL     1      46.888 131.206  13.611  1.00  0.00     0.055 C 
ENDBRANCH  10  13
ENDBRANCH   3  10
ENDBRANCH   1   2
BRANCH   1  16
ATOM     16  C   UNL     1      41.647 134.447  16.004  1.00  0.00     0.128 A 
ATOM     17  C   UNL     1      41.750 133.533  14.917  1.00  0.00     0.047 A 
ATOM     18  C   UNL     1      40.420 135.127  16.219  1.00  0.00     0.034 A 
ATOM     19  C   UNL     1      40.659 133.302  14.057  1.00  0.00     0.008 A 
ATOM     20  C   UNL     1      40.152 136.035  17.280  1.00  0.00     0.049 A 
ATOM     21  C   UNL     1      39.377 134.858  15.332  1.00  0.00    -0.008 A 
ATOM     22  C   UNL     1      39.470 133.990  14.292  1.00  0.00    -0.039 A 
ATOM     23  C   UNL     1      38.859 136.624  17.376  1.00  0.00     0.011 A 
ATOM     24  C   UNL     1      38.141 135.417  15.420  1.00  0.00    -0.039 A 
ATOM     25  C   UNL     1      38.174 133.924  13.546  1.00  0.00     0.041 C 
ATOM     26  C   UNL     1      37.850 136.317  16.443  1.00  0.00     0.005 A 
ATOM     27  C   UNL     1      37.256 134.906  14.328  1.00  0.00     0.041 C 
BRANCH  20  28
ATOM     28  N   UNL     1      41.170 136.336  18.247  1.00  0.00    -0.060 NA
BRANCH  28  29
ATOM     29  N   UNL     1      41.116 137.325  18.980  1.00  0.00     0.005 N 
ATOM     30  N   UNL     1      41.067 138.311  19.713  1.00  0.00    -0.003 NA
ENDBRANCH  28  29
ENDBRANCH  20  28
ENDBRANCH   1  16
TORSDOF 7
ENDMDL
MODEL 9
REMARK VINA RESULT:      -6.7      2.717      6.491
REMARK SMILES C=C(C)/C(O)=[N+]1/C[C@@H]2CC[C@H](Oc3ccc4c5c(ccc(N=[N+]=[N-])c35)CC4)[C@@H]2C1
REMARK SMILES IDX 12 1 11 2 6 3 29 4 7 5 28 6 8 7 9 8 10 9 4 10 5 11 2 13 1 14
REMARK SMILES IDX 3 15 13 16 14 17 25 18 15 19 21 20 17 21 16 22 20 23 18 24
REMARK SMILES IDX 27 25 19 26 26 27 22 28 23 29 24 30
REMARK H PARENT 5 12
ROOT
ATOM      1  O   UNL     1      42.066 133.297  16.338  1.00  0.00    -0.489 OA
ENDROOT
BRANCH   1   2
ATOM      2  C   UNL     1      43.047 132.453  15.730  1.00  0.00     0.183 C 
ATOM      3  N   UNL     1      44.956 131.374  18.621  1.00  0.00    -0.198 N 
ATOM      4  C   UNL     1      43.642 131.794  18.149  1.00  0.00     0.362 C 
ATOM      5  C   UNL     1      45.791 130.873  17.538  1.00  0.00     0.358 C 
ATOM      6  C   UNL     1      43.553 131.358  16.679  1.00  0.00     0.105 C 
ATOM      7  C   UNL     1      44.984 131.059  16.246  1.00  0.00     0.068 C 
ATOM      8  C   UNL     1      45.438 132.254  15.385  1.00  0.00     0.014 C 
ATOM      9  C   UNL     1      44.287 133.253  15.369  1.00  0.00     0.046 C 
BRANCH   3  10
ATOM     10  C   UNL     1      45.323 131.382  19.884  1.00  0.00     0.362 C 
BRANCH  10  11
ATOM     11  O   UNL     1      46.445 130.665  20.317  1.00  0.00    -0.460 OA
ATOM     12  H   UNL     1      47.018 130.100  19.704  1.00  0.00     0.300 HD
ENDBRANCH  10  11
BRANCH  10  13
ATOM     13  C   UNL     1      44.563 132.121  20.920  1.00  0.00     0.053 C 
ATOM     14  C   UNL     1      44.832 133.411  21.135  1.00  0.00     0.023 C 
ATOM     15  C   UNL     1      43.470 131.448  21.703  1.00  0.00     0.055 C 
ENDBRANCH  10  13
ENDBRANCH   3  10
ENDBRANCH   1   2
BRANCH   1  16
ATOM     16  C   UNL     1      40.888 133.743  15.719  1.00  0.00     0.128 A 
ATOM     17  C   UNL     1      40.826 133.961  14.313  1.00  0.00     0.047 A 
ATOM     18  C   UNL     1      39.730 133.978  16.506  1.00  0.00     0.034 A 
ATOM     19  C   UNL     1      39.640 134.409  13.700  1.00  0.00     0.008 A 
ATOM     20  C   UNL     1      39.626 133.769  17.908  1.00  0.00     0.049 A 
ATOM     21  C   UNL     1      38.587 134.424  15.841  1.00  0.00    -0.008 A 
ATOM     22  C   UNL     1      38.522 134.637  14.501  1.00  0.00    -0.039 A 
ATOM     23  C   UNL     1      38.385 134.032  18.556  1.00  0.00     0.011 A 
ATOM     24  C   UNL     1      37.401 134.675  16.455  1.00  0.00    -0.039 A 
ATOM     25  C   UNL     1      37.154 135.100  14.110  1.00  0.00     0.041 C 
ATOM     26  C   UNL     1      37.269 134.488  17.829  1.00  0.00     0.005 A 
ATOM     27  C   UNL     1      36.379 135.122  15.458  1.00  0.00     0.041 C 
BRANCH  20  28
ATOM     28  N   UNL     1      40.755 133.283  18.651  1.00  0.00    -0.060 NA
BRANCH  28  29
ATOM     29  N   UNL     1      41.147 133.821  19.688  1.00  0.00     0.005 N 
ATOM     30  N   UNL     1      41.539 134.362  20.721  1.00  0.00    -0.003 NA
ENDBRANCH  28  29
ENDBRANCH  20  28
ENDBRANCH   1  16
TORSDOF 7
ENDMDL


