REMARK SMILES C#CCOC(=O)C[C@@H]1CC[C@H]2C(=O)[N-]c3c(N=[N+]=[N-])cc(Cl)c1c32
REMARK SMILES IDX 5 1 6 2 4 3 3 4 2 5 1 6 7 7 8 8 23 9 9 10 21 11 24 12 10 13
REMARK SMILES IDX 20 14 15 15 11 16 16 17 14 18 12 19 22 20 13 21 17 22 18 23
REMARK SMILES IDX 19 24
REMARK H PARENT
ROOT
ATOM      1  C   UNL     1       1.671  -0.184   1.142  1.00  0.00     0.307 C 
ATOM      2  O   UNL     1       2.639   0.190   1.859  1.00  0.00    -0.252 OA
ENDROOT
BRANCH   1   3
ATOM      3  O   UNL     1       0.354   0.046   1.548  1.00  0.00    -0.452 OA
BRANCH   3   4
ATOM      4  C   UNL     1       0.023   0.783   2.717  1.00  0.00     0.322 C 
BRANCH   4   5
ATOM      5  C   UNL     1      -1.425   0.988   2.756  1.00  0.00    -0.065 C 
ATOM      6  C   UNL     1      -2.618   1.158   2.780  1.00  0.00     0.007 C 
ENDBRANCH   4   5
ENDBRANCH   3   4
ENDBRANCH   1   3
BRANCH   1   7
ATOM      7  C   UNL     1       1.928  -0.853  -0.178  1.00  0.00     0.131 C 
BRANCH   7   8
ATOM      8  C   UNL     1       1.621   0.068  -1.383  1.00  0.00     0.032 C 
ATOM      9  C   UNL     1       0.158   0.506  -1.378  1.00  0.00    -0.023 A 
ATOM     10  C   UNL     1       2.651   1.257  -1.473  1.00  0.00     0.010 C 
ATOM     11  C   UNL     1      -0.911  -0.319  -1.803  1.00  0.00     0.045 A 
ATOM     12  C   UNL     1      -0.143   1.816  -1.014  1.00  0.00    -0.048 A 
ATOM     13  C   UNL     1       2.029   2.655  -1.699  1.00  0.00     0.015 C 
ATOM     14  C   UNL     1      -2.213   0.214  -1.911  1.00  0.00     0.029 A 
ATOM     15  C   UNL     1      -1.386   2.369  -1.225  1.00  0.00    -0.120 A 
ATOM     16  C   UNL     1       0.868   2.854  -0.726  1.00  0.00     0.066 C 
ATOM     17  C   UNL     1      -2.462   1.575  -1.655  1.00  0.00     0.025 A 
ATOM     18  N   UNL     1      -1.344   3.789  -1.185  1.00  0.00    -0.626 NA
ATOM     19  C   UNL     1       0.034   4.078  -0.946  1.00  0.00     0.062 C 
ATOM     20  Cl  UNL     1      -0.655  -1.995  -2.273  1.00  0.00    -0.084 Cl
ATOM     21  O   UNL     1       0.479   5.254  -0.883  1.00  0.00    -0.320 OA
BRANCH  17  22
ATOM     22  N   UNL     1      -3.780   2.097  -1.876  1.00  0.00    -0.062 NA
BRANCH  22  23
ATOM     23  N   UNL     1      -4.090   3.260  -1.612  1.00  0.00     0.005 N 
ATOM     24  N   UNL     1      -4.403   4.420  -1.349  1.00  0.00    -0.003 NA
ENDBRANCH  22  23
ENDBRANCH  17  22
ENDBRANCH   7   8
ENDBRANCH   1   7
TORSDOF 7


