MODEL 1
REMARK VINA RESULT:      -6.6      0.000      0.000
REMARK SMILES C#C/C(O)=N\[C@H](c1c(C)nnn1-c1c2ccccc2c(C(=O)N=[N+]=[N-])c2ccccc12)C(C)C
REMARK SMILES IDX 7 1 8 2 9 3 10 4 11 5 12 6 6 7 5 8 3 9 2 10 1 11 4 12 32 14
REMARK SMILES IDX 33 15 34 16 13 17 14 18 31 19 15 20 19 21 30 22 26 23 16 24
REMARK SMILES IDX 18 25 20 26 29 27 27 28 17 29 28 30 21 31 22 32 23 33 24 34
REMARK SMILES IDX 25 35
REMARK H PARENT 4 13
ROOT
ATOM      1  C   UNL     1      41.852 135.195  19.548  1.00  0.00     0.092 A 
ATOM      2  C   UNL     1      40.799 135.526  20.387  1.00  0.00     0.086 A 
ATOM      3  C   UNL     1      40.555 136.819  21.095  1.00  0.00     0.071 C 
ATOM      4  N   UNL     1      40.006 134.442  20.516  1.00  0.00    -0.135 NA
ATOM      5  N   UNL     1      40.532 133.485  19.764  1.00  0.00    -0.062 NA
ATOM      6  N   UNL     1      41.634 133.918  19.174  1.00  0.00    -0.214 N 
ENDROOT
BRANCH   1   7
ATOM      7  C   UNL     1      42.992 136.064  19.060  1.00  0.00     0.163 C 
BRANCH   7   8
ATOM      8  N   UNL     1      44.256 135.439  19.467  1.00  0.00    -0.234 NA
BRANCH   8   9
ATOM      9  C   UNL     1      45.136 135.925  20.295  1.00  0.00     0.261 C 
BRANCH   9  10
ATOM     10  C   UNL     1      45.744 137.221  20.098  1.00  0.00    -0.012 C 
ATOM     11  C   UNL     1      46.251 138.302  19.928  1.00  0.00     0.015 C 
ENDBRANCH   9  10
BRANCH   9  12
ATOM     12  O   UNL     1      45.497 135.170  21.407  1.00  0.00    -0.487 OA
ATOM     13  H   UNL     1      44.971 135.224  22.272  1.00  0.00     0.296 HD
ENDBRANCH   9  12
ENDBRANCH   8   9
ENDBRANCH   7   8
BRANCH   7  14
ATOM     14  C   UNL     1      42.968 136.286  17.525  1.00  0.00     0.014 C 
ATOM     15  C   UNL     1      44.339 135.965  16.907  1.00  0.00     0.010 C 
ATOM     16  C   UNL     1      42.575 137.729  17.167  1.00  0.00     0.010 C 
ENDBRANCH   7  14
ENDBRANCH   1   7
BRANCH   6  17
ATOM     17  C   UNL     1      42.411 133.141  18.249  1.00  0.00     0.082 A 
ATOM     18  C   UNL     1      43.506 132.386  18.714  1.00  0.00     0.009 A 
ATOM     19  C   UNL     1      42.123 133.200  16.869  1.00  0.00     0.009 A 
ATOM     20  C   UNL     1      43.792 132.309  20.093  1.00  0.00     0.011 A 
ATOM     21  C   UNL     1      44.342 131.703  17.791  1.00  0.00    -0.005 A 
ATOM     22  C   UNL     1      41.019 133.940  16.396  1.00  0.00     0.011 A 
ATOM     23  C   UNL     1      42.958 132.525  15.939  1.00  0.00    -0.005 A 
ATOM     24  C   UNL     1      44.881 131.572  20.555  1.00  0.00     0.001 A 
ATOM     25  C   UNL     1      45.433 130.953  18.287  1.00  0.00     0.009 A 
ATOM     26  C   UNL     1      44.073 131.781  16.402  1.00  0.00     0.040 A 
ATOM     27  C   UNL     1      40.751 134.026  15.031  1.00  0.00     0.001 A 
ATOM     28  C   UNL     1      42.666 132.634  14.559  1.00  0.00     0.009 A 
ATOM     29  C   UNL     1      45.697 130.894  19.656  1.00  0.00     0.001 A 
ATOM     30  C   UNL     1      41.573 133.378  14.116  1.00  0.00     0.001 A 
BRANCH  26  31
ATOM     31  C   UNL     1      44.972 131.110  15.430  1.00  0.00     0.250 C 
ATOM     32  O   UNL     1      44.770 129.903  15.132  1.00  0.00    -0.287 OA
BRANCH  31  33
ATOM     33  N   UNL     1      46.061 131.809  14.821  1.00  0.00    -0.017 NA
BRANCH  33  34
ATOM     34  N   UNL     1      46.823 131.251  14.030  1.00  0.00     0.009 N 
ATOM     35  N   UNL     1      47.582 130.692  13.241  1.00  0.00    -0.003 NA
ENDBRANCH  33  34
ENDBRANCH  31  33
ENDBRANCH  26  31
ENDBRANCH   6  17
TORSDOF 10
ENDMDL
MODEL 2
REMARK VINA RESULT:      -6.3      1.811      3.957
REMARK SMILES C#C/C(O)=N\[C@H](c1c(C)nnn1-c1c2ccccc2c(C(=O)N=[N+]=[N-])c2ccccc12)C(C)C
REMARK SMILES IDX 7 1 8 2 9 3 10 4 11 5 12 6 6 7 5 8 3 9 2 10 1 11 4 12 32 14
REMARK SMILES IDX 33 15 34 16 13 17 14 18 31 19 15 20 19 21 30 22 26 23 16 24
REMARK SMILES IDX 18 25 20 26 29 27 27 28 17 29 28 30 21 31 22 32 23 33 24 34
REMARK SMILES IDX 25 35
REMARK H PARENT 4 13
ROOT
ATOM      1  C   UNL     1      40.563 135.303  19.592  1.00  0.00     0.092 A 
ATOM      2  C   UNL     1      39.278 135.452  20.091  1.00  0.00     0.086 A 
ATOM      3  C   UNL     1      38.738 136.564  20.929  1.00  0.00     0.071 C 
ATOM      4  N   UNL     1      38.558 134.369  19.730  1.00  0.00    -0.135 NA
ATOM      5  N   UNL     1      39.358 133.594  19.011  1.00  0.00    -0.062 NA
ATOM      6  N   UNL     1      40.560 134.137  18.914  1.00  0.00    -0.214 N 
ENDROOT
BRANCH   1   7
ATOM      7  C   UNL     1      41.740 136.250  19.690  1.00  0.00     0.163 C 
BRANCH   7   8
ATOM      8  N   UNL     1      41.544 137.333  18.718  1.00  0.00    -0.234 NA
BRANCH   8   9
ATOM      9  C   UNL     1      42.265 137.573  17.660  1.00  0.00     0.261 C 
BRANCH   9  10
ATOM     10  C   UNL     1      43.397 136.751  17.298  1.00  0.00    -0.012 C 
ATOM     11  C   UNL     1      44.342 136.063  17.002  1.00  0.00     0.015 C 
ENDBRANCH   9  10
BRANCH   9  12
ATOM     12  O   UNL     1      41.930 138.656  16.853  1.00  0.00    -0.487 OA
ATOM     13  H   UNL     1      42.637 139.303  16.524  1.00  0.00     0.296 HD
ENDBRANCH   9  12
ENDBRANCH   8   9
ENDBRANCH   7   8
BRANCH   7  14
ATOM     14  C   UNL     1      41.932 136.831  21.115  1.00  0.00     0.014 C 
ATOM     15  C   UNL     1      41.978 138.367  21.075  1.00  0.00     0.010 C 
ATOM     16  C   UNL     1      43.216 136.301  21.775  1.00  0.00     0.010 C 
ENDBRANCH   7  14
ENDBRANCH   1   7
BRANCH   6  17
ATOM     17  C   UNL     1      41.640 133.573  18.155  1.00  0.00     0.082 A 
ATOM     18  C   UNL     1      41.628 133.655  16.748  1.00  0.00     0.009 A 
ATOM     19  C   UNL     1      42.670 132.871  18.816  1.00  0.00     0.009 A 
ATOM     20  C   UNL     1      40.610 134.368  16.079  1.00  0.00     0.011 A 
ATOM     21  C   UNL     1      42.638 133.007  15.989  1.00  0.00    -0.005 A 
ATOM     22  C   UNL     1      42.700 132.798  20.225  1.00  0.00     0.011 A 
ATOM     23  C   UNL     1      43.680 132.214  18.064  1.00  0.00    -0.005 A 
ATOM     24  C   UNL     1      40.589 134.442  14.688  1.00  0.00     0.001 A 
ATOM     25  C   UNL     1      42.598 133.107  14.579  1.00  0.00     0.009 A 
ATOM     26  C   UNL     1      43.658 132.277  16.648  1.00  0.00     0.040 A 
ATOM     27  C   UNL     1      43.698 132.078  20.880  1.00  0.00     0.001 A 
ATOM     28  C   UNL     1      44.677 131.486  18.754  1.00  0.00     0.009 A 
ATOM     29  C   UNL     1      41.581 133.816  13.940  1.00  0.00     0.001 A 
ATOM     30  C   UNL     1      44.680 131.422  20.147  1.00  0.00     0.001 A 
BRANCH  26  31
ATOM     31  C   UNL     1      44.687 131.557  15.857  1.00  0.00     0.250 C 
ATOM     32  O   UNL     1      44.511 130.343  15.571  1.00  0.00    -0.287 OA
BRANCH  31  33
ATOM     33  N   UNL     1      45.874 132.217  15.408  1.00  0.00    -0.017 NA
BRANCH  33  34
ATOM     34  N   UNL     1      46.629 131.695  14.586  1.00  0.00     0.009 N 
ATOM     35  N   UNL     1      47.381 131.175  13.764  1.00  0.00    -0.003 NA
ENDBRANCH  33  34
ENDBRANCH  31  33
ENDBRANCH  26  31
ENDBRANCH   6  17
TORSDOF 10
ENDMDL
MODEL 3
REMARK VINA RESULT:      -6.2      1.635      2.513
REMARK SMILES C#C/C(O)=N\[C@H](c1c(C)nnn1-c1c2ccccc2c(C(=O)N=[N+]=[N-])c2ccccc12)C(C)C
REMARK SMILES IDX 7 1 8 2 9 3 10 4 11 5 12 6 6 7 5 8 3 9 2 10 1 11 4 12 32 14
REMARK SMILES IDX 33 15 34 16 13 17 14 18 31 19 15 20 19 21 30 22 26 23 16 24
REMARK SMILES IDX 18 25 20 26 29 27 27 28 17 29 28 30 21 31 22 32 23 33 24 34
REMARK SMILES IDX 25 35
REMARK H PARENT 4 13
ROOT
ATOM      1  C   UNL     1      42.139 135.481  18.966  1.00  0.00     0.092 A 
ATOM      2  C   UNL     1      41.049 135.980  19.662  1.00  0.00     0.086 A 
ATOM      3  C   UNL     1      40.732 137.405  19.980  1.00  0.00     0.071 C 
ATOM      4  N   UNL     1      40.297 134.937  20.070  1.00  0.00    -0.135 NA
ATOM      5  N   UNL     1      40.884 133.836  19.621  1.00  0.00    -0.062 NA
ATOM      6  N   UNL     1      41.984 134.142  18.955  1.00  0.00    -0.214 N 
ENDROOT
BRANCH   1   7
ATOM      7  C   UNL     1      43.257 136.235  18.277  1.00  0.00     0.163 C 
BRANCH   7   8
ATOM      8  N   UNL     1      42.706 137.481  17.730  1.00  0.00    -0.234 NA
BRANCH   8   9
ATOM      9  C   UNL     1      42.466 137.745  16.478  1.00  0.00     0.261 C 
BRANCH   9  10
ATOM     10  C   UNL     1      41.529 138.767  16.072  1.00  0.00    -0.012 C 
ATOM     11  C   UNL     1      40.746 139.622  15.739  1.00  0.00     0.015 C 
ENDBRANCH   9  10
BRANCH   9  12
ATOM     12  O   UNL     1      43.137 137.017  15.500  1.00  0.00    -0.487 OA
ATOM     13  H   UNL     1      42.817 137.009  14.539  1.00  0.00     0.296 HD
ENDBRANCH   9  12
ENDBRANCH   8   9
ENDBRANCH   7   8
BRANCH   7  14
ATOM     14  C   UNL     1      44.452 136.540  19.218  1.00  0.00     0.014 C 
ATOM     15  C   UNL     1      44.039 136.378  20.690  1.00  0.00     0.010 C 
ATOM     16  C   UNL     1      44.999 137.959  18.997  1.00  0.00     0.010 C 
ENDBRANCH   7  14
ENDBRANCH   1   7
BRANCH   6  17
ATOM     17  C   UNL     1      42.820 133.178  18.295  1.00  0.00     0.082 A 
ATOM     18  C   UNL     1      43.825 132.507  19.020  1.00  0.00     0.009 A 
ATOM     19  C   UNL     1      42.683 132.965  16.907  1.00  0.00     0.009 A 
ATOM     20  C   UNL     1      43.960 132.703  20.410  1.00  0.00     0.011 A 
ATOM     21  C   UNL     1      44.722 131.634  18.349  1.00  0.00    -0.005 A 
ATOM     22  C   UNL     1      41.668 133.620  16.176  1.00  0.00     0.011 A 
ATOM     23  C   UNL     1      43.580 132.099  16.228  1.00  0.00    -0.005 A 
ATOM     24  C   UNL     1      44.960 132.049  21.128  1.00  0.00     0.001 A 
ATOM     25  C   UNL     1      45.721 130.976  19.104  1.00  0.00     0.009 A 
ATOM     26  C   UNL     1      44.606 131.439  16.951  1.00  0.00     0.040 A 
ATOM     27  C   UNL     1      41.551 133.436  14.799  1.00  0.00     0.001 A 
ATOM     28  C   UNL     1      43.442 131.936  14.830  1.00  0.00     0.009 A 
ATOM     29  C   UNL     1      45.836 131.187  20.478  1.00  0.00     0.001 A 
ATOM     30  C   UNL     1      42.436 132.600  14.129  1.00  0.00     0.001 A 
BRANCH  26  31
ATOM     31  C   UNL     1      45.572 130.566  16.238  1.00  0.00     0.250 C 
ATOM     32  O   UNL     1      45.489 129.316  16.366  1.00  0.00    -0.287 OA
BRANCH  31  33
ATOM     33  N   UNL     1      46.594 131.118  15.403  1.00  0.00    -0.017 NA
BRANCH  33  34
ATOM     34  N   UNL     1      47.246 130.412  14.631  1.00  0.00     0.009 N 
ATOM     35  N   UNL     1      47.896 129.709  13.860  1.00  0.00    -0.003 NA
ENDBRANCH  33  34
ENDBRANCH  31  33
ENDBRANCH  26  31
ENDBRANCH   6  17
TORSDOF 10
ENDMDL
MODEL 4
REMARK VINA RESULT:      -6.1      1.804      2.771
REMARK SMILES C#C/C(O)=N\[C@H](c1c(C)nnn1-c1c2ccccc2c(C(=O)N=[N+]=[N-])c2ccccc12)C(C)C
REMARK SMILES IDX 7 1 8 2 9 3 10 4 11 5 12 6 6 7 5 8 3 9 2 10 1 11 4 12 32 14
REMARK SMILES IDX 33 15 34 16 13 17 14 18 31 19 15 20 19 21 30 22 26 23 16 24
REMARK SMILES IDX 18 25 20 26 29 27 27 28 17 29 28 30 21 31 22 32 23 33 24 34
REMARK SMILES IDX 25 35
REMARK H PARENT 4 13
ROOT
ATOM      1  C   UNL     1      41.274 135.185  18.862  1.00  0.00     0.092 A 
ATOM      2  C   UNL     1      40.218 135.435  19.725  1.00  0.00     0.086 A 
ATOM      3  C   UNL     1      39.737 136.754  20.237  1.00  0.00     0.071 C 
ATOM      4  N   UNL     1      39.685 134.251  20.092  1.00  0.00    -0.135 NA
ATOM      5  N   UNL     1      40.366 133.306  19.459  1.00  0.00    -0.062 NA
ATOM      6  N   UNL     1      41.318 133.845  18.715  1.00  0.00    -0.214 N 
ENDROOT
BRANCH   1   7
ATOM      7  C   UNL     1      42.173 136.170  18.146  1.00  0.00     0.163 C 
BRANCH   7   8
ATOM      8  N   UNL     1      41.343 137.271  17.640  1.00  0.00    -0.234 NA
BRANCH   8   9
ATOM      9  C   UNL     1      41.104 137.558  16.392  1.00  0.00     0.261 C 
BRANCH   9  10
ATOM     10  C   UNL     1      39.791 137.946  15.930  1.00  0.00    -0.012 C 
ATOM     11  C   UNL     1      38.696 138.275  15.547  1.00  0.00     0.015 C 
ENDBRANCH   9  10
BRANCH   9  12
ATOM     12  O   UNL     1      42.150 137.490  15.478  1.00  0.00    -0.487 OA
ATOM     13  H   UNL     1      41.975 137.345  14.490  1.00  0.00     0.296 HD
ENDBRANCH   9  12
ENDBRANCH   8   9
ENDBRANCH   7   8
BRANCH   7  14
ATOM     14  C   UNL     1      43.308 136.720  19.048  1.00  0.00     0.014 C 
ATOM     15  C   UNL     1      43.085 138.210  19.357  1.00  0.00     0.010 C 
ATOM     16  C   UNL     1      44.689 136.538  18.396  1.00  0.00     0.010 C 
ENDBRANCH   7  14
ENDBRANCH   1   7
BRANCH   6  17
ATOM     17  C   UNL     1      42.196 133.096  17.862  1.00  0.00     0.082 A 
ATOM     18  C   UNL     1      43.293 132.407  18.417  1.00  0.00     0.009 A 
ATOM     19  C   UNL     1      42.003 133.116  16.465  1.00  0.00     0.009 A 
ATOM     20  C   UNL     1      43.486 132.369  19.814  1.00  0.00     0.011 A 
ATOM     21  C   UNL     1      44.225 131.753  17.568  1.00  0.00    -0.005 A 
ATOM     22  C   UNL     1      40.897 133.788  15.902  1.00  0.00     0.011 A 
ATOM     23  C   UNL     1      42.934 132.470  15.609  1.00  0.00    -0.005 A 
ATOM     24  C   UNL     1      44.577 131.698  20.365  1.00  0.00     0.001 A 
ATOM     25  C   UNL     1      45.317 131.070  18.154  1.00  0.00     0.009 A 
ATOM     26  C   UNL     1      44.050 131.794  16.162  1.00  0.00     0.040 A 
ATOM     27  C   UNL     1      40.722 133.837  14.520  1.00  0.00     0.001 A 
ATOM     28  C   UNL     1      42.734 132.541  14.210  1.00  0.00     0.009 A 
ATOM     29  C   UNL     1      45.487 131.049  19.538  1.00  0.00     0.001 A 
ATOM     30  C   UNL     1      41.638 133.219  13.678  1.00  0.00     0.001 A 
BRANCH  26  31
ATOM     31  C   UNL     1      45.048 131.155  15.269  1.00  0.00     0.250 C 
ATOM     32  O   UNL     1      44.900 129.949  14.939  1.00  0.00    -0.287 OA
BRANCH  31  33
ATOM     33  N   UNL     1      46.173 131.885  14.770  1.00  0.00    -0.017 NA
BRANCH  33  34
ATOM     34  N   UNL     1      47.003 131.359  14.027  1.00  0.00     0.009 N 
ATOM     35  N   UNL     1      47.833 130.837  13.285  1.00  0.00    -0.003 NA
ENDBRANCH  33  34
ENDBRANCH  31  33
ENDBRANCH  26  31
ENDBRANCH   6  17
TORSDOF 10
ENDMDL
MODEL 5
REMARK VINA RESULT:      -6.0      1.225      1.282
REMARK SMILES C#C/C(O)=N\[C@H](c1c(C)nnn1-c1c2ccccc2c(C(=O)N=[N+]=[N-])c2ccccc12)C(C)C
REMARK SMILES IDX 7 1 8 2 9 3 10 4 11 5 12 6 6 7 5 8 3 9 2 10 1 11 4 12 32 14
REMARK SMILES IDX 33 15 34 16 13 17 14 18 31 19 15 20 19 21 30 22 26 23 16 24
REMARK SMILES IDX 18 25 20 26 29 27 27 28 17 29 28 30 21 31 22 32 23 33 24 34
REMARK SMILES IDX 25 35
REMARK H PARENT 4 13
ROOT
ATOM      1  C   UNL     1      42.014 135.135  19.928  1.00  0.00     0.092 A 
ATOM      2  C   UNL     1      40.926 135.382  20.751  1.00  0.00     0.086 A 
ATOM      3  C   UNL     1      40.734 136.509  21.713  1.00  0.00     0.071 C 
ATOM      4  N   UNL     1      40.035 134.383  20.582  1.00  0.00    -0.135 NA
ATOM      5  N   UNL     1      40.539 133.564  19.670  1.00  0.00    -0.062 NA
ATOM      6  N   UNL     1      41.720 133.999  19.263  1.00  0.00    -0.214 N 
ENDROOT
BRANCH   1   7
ATOM      7  C   UNL     1      43.261 135.969  19.720  1.00  0.00     0.163 C 
BRANCH   7   8
ATOM      8  N   UNL     1      44.429 135.143  20.053  1.00  0.00    -0.234 NA
BRANCH   8   9
ATOM      9  C   UNL     1      45.196 135.262  21.098  1.00  0.00     0.261 C 
BRANCH   9  10
ATOM     10  C   UNL     1      46.124 136.359  21.251  1.00  0.00    -0.012 C 
ATOM     11  C   UNL     1      46.903 137.271  21.376  1.00  0.00     0.015 C 
ENDBRANCH   9  10
BRANCH   9  12
ATOM     12  O   UNL     1      45.116 134.299  22.100  1.00  0.00    -0.487 OA
ATOM     13  H   UNL     1      44.478 134.406  22.880  1.00  0.00     0.296 HD
ENDBRANCH   9  12
ENDBRANCH   8   9
ENDBRANCH   7   8
BRANCH   7  14
ATOM     14  C   UNL     1      43.385 136.524  18.277  1.00  0.00     0.014 C 
ATOM     15  C   UNL     1      44.771 137.149  18.052  1.00  0.00     0.010 C 
ATOM     16  C   UNL     1      42.300 137.571  17.979  1.00  0.00     0.010 C 
ENDBRANCH   7  14
ENDBRANCH   1   7
BRANCH   6  17
ATOM     17  C   UNL     1      42.503 133.367  18.240  1.00  0.00     0.082 A 
ATOM     18  C   UNL     1      43.542 132.483  18.596  1.00  0.00     0.009 A 
ATOM     19  C   UNL     1      42.281 133.693  16.885  1.00  0.00     0.009 A 
ATOM     20  C   UNL     1      43.762 132.141  19.947  1.00  0.00     0.011 A 
ATOM     21  C   UNL     1      44.388 131.939  17.593  1.00  0.00    -0.005 A 
ATOM     22  C   UNL     1      41.233 134.563  16.517  1.00  0.00     0.011 A 
ATOM     23  C   UNL     1      43.126 133.158  15.877  1.00  0.00    -0.005 A 
ATOM     24  C   UNL     1      44.795 131.276  20.303  1.00  0.00     0.001 A 
ATOM     25  C   UNL     1      45.422 131.056  17.982  1.00  0.00     0.009 A 
ATOM     26  C   UNL     1      44.186 132.286  16.234  1.00  0.00     0.040 A 
ATOM     27  C   UNL     1      41.031 134.911  15.183  1.00  0.00     0.001 A 
ATOM     28  C   UNL     1      42.903 133.533  14.532  1.00  0.00     0.009 A 
ATOM     29  C   UNL     1      45.621 130.734  19.324  1.00  0.00     0.001 A 
ATOM     30  C   UNL     1      41.865 134.401  14.195  1.00  0.00     0.001 A 
BRANCH  26  31
ATOM     31  C   UNL     1      45.098 131.759  15.188  1.00  0.00     0.250 C 
ATOM     32  O   UNL     1      46.177 132.361  14.947  1.00  0.00    -0.287 OA
BRANCH  31  33
ATOM     33  N   UNL     1      44.778 130.574  14.453  1.00  0.00    -0.017 NA
BRANCH  33  34
ATOM     34  N   UNL     1      44.916 129.454  14.945  1.00  0.00     0.009 N 
ATOM     35  N   UNL     1      45.056 128.335  15.436  1.00  0.00    -0.003 NA
ENDBRANCH  33  34
ENDBRANCH  31  33
ENDBRANCH  26  31
ENDBRANCH   6  17
TORSDOF 10
ENDMDL
MODEL 6
REMARK VINA RESULT:      -6.0      3.015      5.013
REMARK SMILES C#C/C(O)=N\[C@H](c1c(C)nnn1-c1c2ccccc2c(C(=O)N=[N+]=[N-])c2ccccc12)C(C)C
REMARK SMILES IDX 7 1 8 2 9 3 10 4 11 5 12 6 6 7 5 8 3 9 2 10 1 11 4 12 32 14
REMARK SMILES IDX 33 15 34 16 13 17 14 18 31 19 15 20 19 21 30 22 26 23 16 24
REMARK SMILES IDX 18 25 20 26 29 27 27 28 17 29 28 30 21 31 22 32 23 33 24 34
REMARK SMILES IDX 25 35
REMARK H PARENT 4 13
ROOT
ATOM      1  C   UNL     1      40.121 134.801  17.069  1.00  0.00     0.092 A 
ATOM      2  C   UNL     1      38.980 134.592  16.309  1.00  0.00     0.086 A 
ATOM      3  C   UNL     1      38.249 135.574  15.453  1.00  0.00     0.071 C 
ATOM      4  N   UNL     1      38.578 133.318  16.498  1.00  0.00    -0.135 NA
ATOM      5  N   UNL     1      39.451 132.752  17.320  1.00  0.00    -0.062 NA
ATOM      6  N   UNL     1      40.384 133.623  17.669  1.00  0.00    -0.214 N 
ENDROOT
BRANCH   1   7
ATOM      7  C   UNL     1      40.977 136.046  17.180  1.00  0.00     0.163 C 
BRANCH   7   8
ATOM      8  N   UNL     1      41.907 136.070  16.043  1.00  0.00    -0.234 NA
BRANCH   8   9
ATOM      9  C   UNL     1      43.192 135.863  16.082  1.00  0.00     0.261 C 
BRANCH   9  10
ATOM     10  C   UNL     1      43.938 135.885  17.319  1.00  0.00    -0.012 C 
ATOM     11  C   UNL     1      44.566 135.904  18.349  1.00  0.00     0.015 C 
ENDBRANCH   9  10
BRANCH   9  12
ATOM     12  O   UNL     1      43.865 135.611  14.891  1.00  0.00    -0.487 OA
ATOM     13  H   UNL     1      43.633 136.112  14.041  1.00  0.00     0.296 HD
ENDBRANCH   9  12
ENDBRANCH   8   9
ENDBRANCH   7   8
BRANCH   7  14
ATOM     14  C   UNL     1      40.142 137.352  17.224  1.00  0.00     0.014 C 
ATOM     15  C   UNL     1      40.844 138.473  16.439  1.00  0.00     0.010 C 
ATOM     16  C   UNL     1      39.898 137.820  18.668  1.00  0.00     0.010 C 
ENDBRANCH   7  14
ENDBRANCH   1   7
BRANCH   6  17
ATOM     17  C   UNL     1      41.506 133.308  18.507  1.00  0.00     0.082 A 
ATOM     18  C   UNL     1      42.615 132.624  17.968  1.00  0.00     0.009 A 
ATOM     19  C   UNL     1      41.462 133.616  19.883  1.00  0.00     0.009 A 
ATOM     20  C   UNL     1      42.674 132.326  16.590  1.00  0.00     0.011 A 
ATOM     21  C   UNL     1      43.679 132.217  18.815  1.00  0.00    -0.005 A 
ATOM     22  C   UNL     1      40.364 134.316  20.428  1.00  0.00     0.011 A 
ATOM     23  C   UNL     1      42.519 133.206  20.738  1.00  0.00    -0.005 A 
ATOM     24  C   UNL     1      43.764 131.640  16.057  1.00  0.00     0.001 A 
ATOM     25  C   UNL     1      44.778 131.532  18.246  1.00  0.00     0.009 A 
ATOM     26  C   UNL     1      43.626 132.499  20.203  1.00  0.00     0.040 A 
ATOM     27  C   UNL     1      40.303 134.592  21.792  1.00  0.00     0.001 A 
ATOM     28  C   UNL     1      42.428 133.495  22.120  1.00  0.00     0.009 A 
ATOM     29  C   UNL     1      44.813 131.247  16.881  1.00  0.00     0.001 A 
ATOM     30  C   UNL     1      41.329 134.181  22.635  1.00  0.00     0.001 A 
BRANCH  26  31
ATOM     31  C   UNL     1      44.712 132.032  21.100  1.00  0.00     0.250 C 
ATOM     32  O   UNL     1      44.599 130.921  21.682  1.00  0.00    -0.287 OA
BRANCH  31  33
ATOM     33  N   UNL     1      45.889 132.817  21.311  1.00  0.00    -0.017 NA
BRANCH  33  34
ATOM     34  N   UNL     1      45.998 133.564  22.285  1.00  0.00     0.009 N 
ATOM     35  N   UNL     1      46.106 134.308  23.258  1.00  0.00    -0.003 NA
ENDBRANCH  33  34
ENDBRANCH  31  33
ENDBRANCH  26  31
ENDBRANCH   6  17
TORSDOF 10
ENDMDL
MODEL 7
REMARK VINA RESULT:      -6.0      1.334      2.316
REMARK SMILES C#C/C(O)=N\[C@H](c1c(C)nnn1-c1c2ccccc2c(C(=O)N=[N+]=[N-])c2ccccc12)C(C)C
REMARK SMILES IDX 7 1 8 2 9 3 10 4 11 5 12 6 6 7 5 8 3 9 2 10 1 11 4 12 32 14
REMARK SMILES IDX 33 15 34 16 13 17 14 18 31 19 15 20 19 21 30 22 26 23 16 24
REMARK SMILES IDX 18 25 20 26 29 27 27 28 17 29 28 30 21 31 22 32 23 33 24 34
REMARK SMILES IDX 25 35
REMARK H PARENT 4 13
ROOT
ATOM      1  C   UNL     1      42.630 135.260  20.130  1.00  0.00     0.092 A 
ATOM      2  C   UNL     1      41.625 135.627  21.012  1.00  0.00     0.086 A 
ATOM      3  C   UNL     1      41.602 136.787  21.953  1.00  0.00     0.071 C 
ATOM      4  N   UNL     1      40.636 134.714  20.925  1.00  0.00    -0.135 NA
ATOM      5  N   UNL     1      41.001 133.831  20.006  1.00  0.00    -0.062 NA
ATOM      6  N   UNL     1      42.190 134.143  19.516  1.00  0.00    -0.214 N 
ENDROOT
BRANCH   1   7
ATOM      7  C   UNL     1      43.935 135.966  19.824  1.00  0.00     0.163 C 
BRANCH   7   8
ATOM      8  N   UNL     1      43.657 137.067  18.893  1.00  0.00    -0.234 NA
BRANCH   8   9
ATOM      9  C   UNL     1      42.773 138.011  19.043  1.00  0.00     0.261 C 
BRANCH   9  10
ATOM     10  C   UNL     1      41.503 137.994  18.355  1.00  0.00    -0.012 C 
ATOM     11  C   UNL     1      40.445 137.979  17.776  1.00  0.00     0.015 C 
ENDBRANCH   9  10
BRANCH   9  12
ATOM     12  O   UNL     1      43.065 139.071  19.897  1.00  0.00    -0.487 OA
ATOM     13  H   UNL     1      43.911 139.076  20.456  1.00  0.00     0.296 HD
ENDBRANCH   9  12
ENDBRANCH   8   9
ENDBRANCH   7   8
BRANCH   7  14
ATOM     14  C   UNL     1      44.647 136.500  21.094  1.00  0.00     0.014 C 
ATOM     15  C   UNL     1      45.886 137.327  20.717  1.00  0.00     0.010 C 
ATOM     16  C   UNL     1      45.065 135.355  22.032  1.00  0.00     0.010 C 
ENDBRANCH   7  14
ENDBRANCH   1   7
BRANCH   6  17
ATOM     17  C   UNL     1      42.843 133.417  18.464  1.00  0.00     0.082 A 
ATOM     18  C   UNL     1      43.839 132.471  18.778  1.00  0.00     0.009 A 
ATOM     19  C   UNL     1      42.542 133.711  17.117  1.00  0.00     0.009 A 
ATOM     20  C   UNL     1      44.137 132.160  20.121  1.00  0.00     0.011 A 
ATOM     21  C   UNL     1      44.563 131.829  17.738  1.00  0.00    -0.005 A 
ATOM     22  C   UNL     1      41.535 134.645  16.793  1.00  0.00     0.011 A 
ATOM     23  C   UNL     1      43.265 133.078  16.072  1.00  0.00    -0.005 A 
ATOM     24  C   UNL     1      45.129 131.232  20.435  1.00  0.00     0.001 A 
ATOM     25  C   UNL     1      45.557 130.884  18.084  1.00  0.00     0.009 A 
ATOM     26  C   UNL     1      44.282 132.141  16.385  1.00  0.00     0.040 A 
ATOM     27  C   UNL     1      41.257 134.961  15.465  1.00  0.00     0.001 A 
ATOM     28  C   UNL     1      42.967 133.423  14.733  1.00  0.00     0.009 A 
ATOM     29  C   UNL     1      45.834 130.594  19.420  1.00  0.00     0.001 A 
ATOM     30  C   UNL     1      41.972 134.354  14.439  1.00  0.00     0.001 A 
BRANCH  26  31
ATOM     31  C   UNL     1      45.070 131.510  15.297  1.00  0.00     0.250 C 
ATOM     32  O   UNL     1      44.639 130.461  14.749  1.00  0.00    -0.287 OA
BRANCH  31  33
ATOM     33  N   UNL     1      46.307 132.074  14.853  1.00  0.00    -0.017 NA
BRANCH  33  34
ATOM     34  N   UNL     1      47.035 131.482  14.055  1.00  0.00     0.009 N 
ATOM     35  N   UNL     1      47.764 130.891  13.259  1.00  0.00    -0.003 NA
ENDBRANCH  33  34
ENDBRANCH  31  33
ENDBRANCH  26  31
ENDBRANCH   6  17
TORSDOF 10
ENDMDL
MODEL 8
REMARK VINA RESULT:      -5.9      1.756      4.036
REMARK SMILES C#C/C(O)=N\[C@H](c1c(C)nnn1-c1c2ccccc2c(C(=O)N=[N+]=[N-])c2ccccc12)C(C)C
REMARK SMILES IDX 7 1 8 2 9 3 10 4 11 5 12 6 6 7 5 8 3 9 2 10 1 11 4 12 32 14
REMARK SMILES IDX 33 15 34 16 13 17 14 18 31 19 15 20 19 21 30 22 26 23 16 24
REMARK SMILES IDX 18 25 20 26 29 27 27 28 17 29 28 30 21 31 22 32 23 33 24 34
REMARK SMILES IDX 25 35
REMARK H PARENT 4 13
ROOT
ATOM      1  C   UNL     1      41.802 135.192  19.357  1.00  0.00     0.092 A 
ATOM      2  C   UNL     1      40.593 135.479  19.972  1.00  0.00     0.086 A 
ATOM      3  C   UNL     1      40.192 136.734  20.677  1.00  0.00     0.071 C 
ATOM      4  N   UNL     1      39.803 134.390  19.876  1.00  0.00    -0.135 NA
ATOM      5  N   UNL     1      40.485 133.474  19.203  1.00  0.00    -0.062 NA
ATOM      6  N   UNL     1      41.681 133.936  18.881  1.00  0.00    -0.214 N 
ENDROOT
BRANCH   1   7
ATOM      7  C   UNL     1      43.009 136.085  19.164  1.00  0.00     0.163 C 
BRANCH   7   8
ATOM      8  N   UNL     1      42.549 137.377  18.638  1.00  0.00    -0.234 NA
BRANCH   8   9
ATOM      9  C   UNL     1      43.018 138.009  17.601  1.00  0.00     0.261 C 
BRANCH   9  10
ATOM     10  C   UNL     1      42.787 137.550  16.250  1.00  0.00    -0.012 C 
ATOM     11  C   UNL     1      42.589 137.165  15.125  1.00  0.00     0.015 C 
ENDBRANCH   9  10
BRANCH   9  12
ATOM     12  O   UNL     1      43.765 139.165  17.803  1.00  0.00    -0.487 OA
ATOM     13  H   UNL     1      44.678 139.282  17.378  1.00  0.00     0.296 HD
ENDBRANCH   9  12
ENDBRANCH   8   9
ENDBRANCH   7   8
BRANCH   7  14
ATOM     14  C   UNL     1      43.824 136.291  20.467  1.00  0.00     0.014 C 
ATOM     15  C   UNL     1      43.506 137.657  21.098  1.00  0.00     0.010 C 
ATOM     16  C   UNL     1      45.337 136.190  20.211  1.00  0.00     0.010 C 
ENDBRANCH   7  14
ENDBRANCH   1   7
BRANCH   6  17
ATOM     17  C   UNL     1      42.643 133.209  18.102  1.00  0.00     0.082 A 
ATOM     18  C   UNL     1      42.507 133.144  16.701  1.00  0.00     0.009 A 
ATOM     19  C   UNL     1      43.676 132.498  18.749  1.00  0.00     0.009 A 
ATOM     20  C   UNL     1      41.487 133.863  16.044  1.00  0.00     0.011 A 
ATOM     21  C   UNL     1      43.394 132.338  15.937  1.00  0.00    -0.005 A 
ATOM     22  C   UNL     1      43.831 132.572  20.150  1.00  0.00     0.011 A 
ATOM     23  C   UNL     1      44.563 131.686  17.994  1.00  0.00    -0.005 A 
ATOM     24  C   UNL     1      41.343 133.791  14.660  1.00  0.00     0.001 A 
ATOM     25  C   UNL     1      43.232 132.292  14.533  1.00  0.00     0.009 A 
ATOM     26  C   UNL     1      44.415 131.601  16.586  1.00  0.00     0.040 A 
ATOM     27  C   UNL     1      44.830 131.846  20.795  1.00  0.00     0.001 A 
ATOM     28  C   UNL     1      45.564 130.955  18.675  1.00  0.00     0.009 A 
ATOM     29  C   UNL     1      42.213 133.011  13.906  1.00  0.00     0.001 A 
ATOM     30  C   UNL     1      45.691 131.038  20.061  1.00  0.00     0.001 A 
BRANCH  26  31
ATOM     31  C   UNL     1      45.312 130.720  15.798  1.00  0.00     0.250 C 
ATOM     32  O   UNL     1      46.551 130.944  15.791  1.00  0.00    -0.287 OA
BRANCH  31  33
ATOM     33  N   UNL     1      44.797 129.615  15.049  1.00  0.00    -0.017 NA
BRANCH  33  34
ATOM     34  N   UNL     1      44.906 128.457  15.453  1.00  0.00     0.009 N 
ATOM     35  N   UNL     1      45.016 127.300  15.859  1.00  0.00    -0.003 NA
ENDBRANCH  33  34
ENDBRANCH  31  33
ENDBRANCH  26  31
ENDBRANCH   6  17
TORSDOF 10
ENDMDL
MODEL 9
REMARK VINA RESULT:      -5.8      2.915      7.021
REMARK SMILES C#C/C(O)=N\[C@H](c1c(C)nnn1-c1c2ccccc2c(C(=O)N=[N+]=[N-])c2ccccc12)C(C)C
REMARK SMILES IDX 7 1 8 2 9 3 10 4 11 5 12 6 6 7 5 8 3 9 2 10 1 11 4 12 32 14
REMARK SMILES IDX 33 15 34 16 13 17 14 18 31 19 15 20 19 21 30 22 26 23 16 24
REMARK SMILES IDX 18 25 20 26 29 27 27 28 17 29 28 30 21 31 22 32 23 33 24 34
REMARK SMILES IDX 25 35
REMARK H PARENT 4 13
ROOT
ATOM      1  C   UNL     1      44.068 133.181  17.497  1.00  0.00     0.092 A 
ATOM      2  C   UNL     1      44.929 132.166  17.107  1.00  0.00     0.086 A 
ATOM      3  C   UNL     1      45.322 130.945  17.874  1.00  0.00     0.071 C 
ATOM      4  N   UNL     1      45.421 132.476  15.890  1.00  0.00    -0.135 NA
ATOM      5  N   UNL     1      44.865 133.624  15.528  1.00  0.00    -0.062 NA
ATOM      6  N   UNL     1      44.050 134.059  16.474  1.00  0.00    -0.214 N 
ENDROOT
BRANCH   1   7
ATOM      7  C   UNL     1      43.238 133.295  18.759  1.00  0.00     0.163 C 
BRANCH   7   8
ATOM      8  N   UNL     1      41.847 132.963  18.428  1.00  0.00    -0.234 NA
BRANCH   8   9
ATOM      9  C   UNL     1      40.806 133.732  18.572  1.00  0.00     0.261 C 
BRANCH   9  10
ATOM     10  C   UNL     1      39.661 133.651  17.694  1.00  0.00    -0.012 C 
ATOM     11  C   UNL     1      38.703 133.583  16.965  1.00  0.00     0.015 C 
ENDBRANCH   9  10
BRANCH   9  12
ATOM     12  O   UNL     1      40.799 134.661  19.608  1.00  0.00    -0.487 OA
ATOM     13  H   UNL     1      39.982 134.785  20.197  1.00  0.00     0.296 HD
ENDBRANCH   9  12
ENDBRANCH   8   9
ENDBRANCH   7   8
BRANCH   7  14
ATOM     14  C   UNL     1      43.753 132.387  19.906  1.00  0.00     0.014 C 
ATOM     15  C   UNL     1      42.577 131.759  20.672  1.00  0.00     0.010 C 
ATOM     16  C   UNL     1      44.642 133.166  20.889  1.00  0.00     0.010 C 
ENDBRANCH   7  14
ENDBRANCH   1   7
BRANCH   6  17
ATOM     17  C   UNL     1      43.252 135.248  16.367  1.00  0.00     0.082 A 
ATOM     18  C   UNL     1      42.155 135.279  15.482  1.00  0.00     0.009 A 
ATOM     19  C   UNL     1      43.616 136.404  17.089  1.00  0.00     0.009 A 
ATOM     20  C   UNL     1      41.776 134.124  14.767  1.00  0.00     0.011 A 
ATOM     21  C   UNL     1      41.430 136.485  15.293  1.00  0.00    -0.005 A 
ATOM     22  C   UNL     1      44.701 136.376  17.990  1.00  0.00     0.011 A 
ATOM     23  C   UNL     1      42.899 137.615  16.901  1.00  0.00    -0.005 A 
ATOM     24  C   UNL     1      40.699 134.156  13.883  1.00  0.00     0.001 A 
ATOM     25  C   UNL     1      40.334 136.487  14.398  1.00  0.00     0.009 A 
ATOM     26  C   UNL     1      41.809 137.656  15.995  1.00  0.00     0.040 A 
ATOM     27  C   UNL     1      45.083 137.525  18.680  1.00  0.00     0.001 A 
ATOM     28  C   UNL     1      43.312 138.767  17.610  1.00  0.00     0.009 A 
ATOM     29  C   UNL     1      39.979 135.332  13.701  1.00  0.00     0.001 A 
ATOM     30  C   UNL     1      44.393 138.716  18.489  1.00  0.00     0.001 A 
BRANCH  26  31
ATOM     31  C   UNL     1      41.084 138.930  15.764  1.00  0.00     0.250 C 
ATOM     32  O   UNL     1      41.361 139.625  14.750  1.00  0.00    -0.287 OA
BRANCH  31  33
ATOM     33  N   UNL     1      40.071 139.383  16.667  1.00  0.00    -0.017 NA
BRANCH  33  34
ATOM     34  N   UNL     1      39.112 138.671  16.968  1.00  0.00     0.009 N 
ATOM     35  N   UNL     1      38.156 137.958  17.268  1.00  0.00    -0.003 NA
ENDBRANCH  33  34
ENDBRANCH  31  33
ENDBRANCH  26  31
ENDBRANCH   6  17
TORSDOF 10
ENDMDL


