MODEL 1
REMARK VINA RESULT:      -7.3      0.000      0.000
REMARK SMILES [N-]=[N+]=NC(=O)c1cc2ccccc2cc1OC(=O)[C@]1(N=[N+]=[N-])C[C@H](CO)C1
REMARK SMILES IDX 16 1 17 2 18 3 19 4 24 5 27 6 23 7 25 8 26 9 20 11 21 12
REMARK SMILES IDX 22 13 15 14 6 15 14 16 7 17 13 18 8 19 12 20 9 21 11 22
REMARK SMILES IDX 10 23 4 24 5 25 3 26 2 27 1 28
REMARK H PARENT 26 10
ROOT
ATOM      1  O   UNL     1      42.127 132.383  15.978  1.00  0.00    -0.425 OA
ENDROOT
BRANCH   1   2
ATOM      2  C   UNL     1      41.809 133.716  15.681  1.00  0.00     0.323 C 
ATOM      3  O   UNL     1      42.709 134.601  15.683  1.00  0.00    -0.251 OA
BRANCH   2   4
ATOM      4  C   UNL     1      40.369 134.112  15.463  1.00  0.00     0.147 C 
ATOM      5  C   UNL     1      39.248 135.465  16.723  1.00  0.00     0.017 C 
ATOM      6  C   UNL     1      40.155 135.631  15.499  1.00  0.00     0.031 C 
ATOM      7  C   UNL     1      39.475 133.951  16.702  1.00  0.00     0.031 C 
BRANCH   5   8
ATOM      8  C   UNL     1      39.782 136.147  17.990  1.00  0.00     0.159 C 
BRANCH   8   9
ATOM      9  O   UNL     1      38.721 136.746  18.681  1.00  0.00    -0.396 OA
ATOM     10  H   UNL     1      38.666 136.282  19.556  1.00  0.00     0.210 HD
ENDBRANCH   8   9
ENDBRANCH   5   8
BRANCH   4  11
ATOM     11  N   UNL     1      39.806 133.477  14.264  1.00  0.00    -0.075 NA
BRANCH  11  12
ATOM     12  N   UNL     1      38.751 133.854  13.749  1.00  0.00     0.002 N 
ATOM     13  N   UNL     1      37.699 134.230  13.236  1.00  0.00    -0.003 NA
ENDBRANCH  11  12
ENDBRANCH   4  11
ENDBRANCH   2   4
ENDBRANCH   1   2
BRANCH   1  14
ATOM     14  C   UNL     1      43.420 131.852  15.882  1.00  0.00     0.142 A 
ATOM     15  C   UNL     1      44.238 131.649  17.019  1.00  0.00     0.068 A 
ATOM     16  C   UNL     1      43.900 131.518  14.612  1.00  0.00     0.056 A 
ATOM     17  C   UNL     1      45.489 131.030  16.868  1.00  0.00     0.024 A 
ATOM     18  C   UNL     1      45.159 130.922  14.457  1.00  0.00    -0.015 A 
ATOM     19  C   UNL     1      45.956 130.665  15.598  1.00  0.00    -0.017 A 
ATOM     20  C   UNL     1      45.633 130.568  13.185  1.00  0.00     0.009 A 
ATOM     21  C   UNL     1      47.214 130.061  15.444  1.00  0.00     0.009 A 
ATOM     22  C   UNL     1      46.886 129.966  13.045  1.00  0.00     0.001 A 
ATOM     23  C   UNL     1      47.674 129.713  14.170  1.00  0.00     0.001 A 
BRANCH  15  24
ATOM     24  C   UNL     1      43.830 132.107  18.366  1.00  0.00     0.252 C 
ATOM     25  O   UNL     1      44.661 132.726  19.083  1.00  0.00    -0.287 OA
BRANCH  24  26
ATOM     26  N   UNL     1      42.506 131.897  18.865  1.00  0.00    -0.017 NA
BRANCH  26  27
ATOM     27  N   UNL     1      41.917 132.752  19.528  1.00  0.00     0.009 N 
ATOM     28  N   UNL     1      41.327 133.605  20.190  1.00  0.00    -0.003 NA
ENDBRANCH  26  27
ENDBRANCH  24  26
ENDBRANCH  15  24
ENDBRANCH   1  14
TORSDOF 10
ENDMDL
MODEL 2
REMARK VINA RESULT:      -7.3      1.875      2.195
REMARK SMILES [N-]=[N+]=NC(=O)c1cc2ccccc2cc1OC(=O)[C@]1(N=[N+]=[N-])C[C@H](CO)C1
REMARK SMILES IDX 16 1 17 2 18 3 19 4 24 5 27 6 23 7 25 8 26 9 20 11 21 12
REMARK SMILES IDX 22 13 15 14 6 15 14 16 7 17 13 18 8 19 12 20 9 21 11 22
REMARK SMILES IDX 10 23 4 24 5 25 3 26 2 27 1 28
REMARK H PARENT 26 10
ROOT
ATOM      1  O   UNL     1      41.963 132.559  16.279  1.00  0.00    -0.425 OA
ENDROOT
BRANCH   1   2
ATOM      2  C   UNL     1      41.690 133.916  16.496  1.00  0.00     0.323 C 
ATOM      3  O   UNL     1      41.377 134.326  17.648  1.00  0.00    -0.251 OA
BRANCH   2   4
ATOM      4  C   UNL     1      41.665 134.873  15.329  1.00  0.00     0.147 C 
ATOM      5  C   UNL     1      42.416 136.900  15.368  1.00  0.00     0.017 C 
ATOM      6  C   UNL     1      43.027 135.528  15.064  1.00  0.00     0.031 C 
ATOM      7  C   UNL     1      41.060 136.248  15.652  1.00  0.00     0.031 C 
BRANCH   5   8
ATOM      8  C   UNL     1      43.029 137.598  16.590  1.00  0.00     0.159 C 
BRANCH   8   9
ATOM      9  O   UNL     1      42.976 138.986  16.412  1.00  0.00    -0.396 OA
ATOM     10  H   UNL     1      42.357 139.142  15.653  1.00  0.00     0.210 HD
ENDBRANCH   8   9
ENDBRANCH   5   8
BRANCH   4  11
ATOM     11  N   UNL     1      41.078 134.256  14.133  1.00  0.00    -0.075 NA
BRANCH  11  12
ATOM     12  N   UNL     1      39.917 133.840  14.105  1.00  0.00     0.002 N 
ATOM     13  N   UNL     1      38.760 133.425  14.079  1.00  0.00    -0.003 NA
ENDBRANCH  11  12
ENDBRANCH   4  11
ENDBRANCH   2   4
ENDBRANCH   1   2
BRANCH   1  14
ATOM     14  C   UNL     1      43.253 132.043  16.098  1.00  0.00     0.142 A 
ATOM     15  C   UNL     1      44.152 131.864  17.177  1.00  0.00     0.068 A 
ATOM     16  C   UNL     1      43.648 131.702  14.800  1.00  0.00     0.056 A 
ATOM     17  C   UNL     1      45.398 131.259  16.944  1.00  0.00     0.024 A 
ATOM     18  C   UNL     1      44.900 131.121  14.564  1.00  0.00    -0.015 A 
ATOM     19  C   UNL     1      45.779 130.887  15.648  1.00  0.00    -0.017 A 
ATOM     20  C   UNL     1      45.289 130.759  13.265  1.00  0.00     0.009 A 
ATOM     21  C   UNL     1      47.031 130.297  15.412  1.00  0.00     0.009 A 
ATOM     22  C   UNL     1      46.537 130.171  13.043  1.00  0.00     0.001 A 
ATOM     23  C   UNL     1      47.406 129.941  14.113  1.00  0.00     0.001 A 
BRANCH  15  24
ATOM     24  C   UNL     1      43.833 132.332  18.544  1.00  0.00     0.252 C 
ATOM     25  O   UNL     1      42.807 131.887  19.122  1.00  0.00    -0.287 OA
BRANCH  24  26
ATOM     26  N   UNL     1      44.678 133.252  19.243  1.00  0.00    -0.017 NA
BRANCH  26  27
ATOM     27  N   UNL     1      44.997 133.077  20.419  1.00  0.00     0.009 N 
ATOM     28  N   UNL     1      45.319 132.903  21.594  1.00  0.00    -0.003 NA
ENDBRANCH  26  27
ENDBRANCH  24  26
ENDBRANCH  15  24
ENDBRANCH   1  14
TORSDOF 10
ENDMDL
MODEL 3
REMARK VINA RESULT:      -7.3      2.461      2.864
REMARK SMILES [N-]=[N+]=NC(=O)c1cc2ccccc2cc1OC(=O)[C@]1(N=[N+]=[N-])C[C@H](CO)C1
REMARK SMILES IDX 16 1 17 2 18 3 19 4 24 5 27 6 23 7 25 8 26 9 20 11 21 12
REMARK SMILES IDX 22 13 15 14 6 15 14 16 7 17 13 18 8 19 12 20 9 21 11 22
REMARK SMILES IDX 10 23 4 24 5 25 3 26 2 27 1 28
REMARK H PARENT 26 10
ROOT
ATOM      1  O   UNL     1      43.028 131.876  16.109  1.00  0.00    -0.425 OA
ENDROOT
BRANCH   1   2
ATOM      2  C   UNL     1      42.262 132.685  15.259  1.00  0.00     0.323 C 
ATOM      3  O   UNL     1      41.789 132.214  14.188  1.00  0.00    -0.251 OA
BRANCH   2   4
ATOM      4  C   UNL     1      42.092 134.152  15.572  1.00  0.00     0.147 C 
ATOM      5  C   UNL     1      40.733 135.490  14.552  1.00  0.00     0.017 C 
ATOM      6  C   UNL     1      40.624 134.556  15.762  1.00  0.00     0.031 C 
ATOM      7  C   UNL     1      42.193 135.074  14.348  1.00  0.00     0.031 C 
BRANCH   5   8
ATOM      8  C   UNL     1      39.817 135.105  13.383  1.00  0.00     0.159 C 
BRANCH   8   9
ATOM      9  O   UNL     1      39.219 133.866  13.646  1.00  0.00    -0.396 OA
ATOM     10  H   UNL     1      38.933 133.894  14.595  1.00  0.00     0.210 HD
ENDBRANCH   8   9
ENDBRANCH   5   8
BRANCH   4  11
ATOM     11  N   UNL     1      42.957 134.575  16.681  1.00  0.00    -0.075 NA
BRANCH  11  12
ATOM     12  N   UNL     1      42.713 135.570  17.367  1.00  0.00     0.002 N 
ATOM     13  N   UNL     1      42.470 136.562  18.052  1.00  0.00    -0.003 NA
ENDBRANCH  11  12
ENDBRANCH   4  11
ENDBRANCH   2   4
ENDBRANCH   1   2
BRANCH   1  14
ATOM     14  C   UNL     1      44.294 131.376  15.776  1.00  0.00     0.142 A 
ATOM     15  C   UNL     1      45.230 130.977  16.760  1.00  0.00     0.068 A 
ATOM     16  C   UNL     1      44.626 131.278  14.421  1.00  0.00     0.056 A 
ATOM     17  C   UNL     1      46.447 130.401  16.361  1.00  0.00     0.024 A 
ATOM     18  C   UNL     1      45.850 130.725  14.023  1.00  0.00    -0.015 A 
ATOM     19  C   UNL     1      46.765 130.272  15.003  1.00  0.00    -0.017 A 
ATOM     20  C   UNL     1      46.174 130.607  12.663  1.00  0.00     0.009 A 
ATOM     21  C   UNL     1      47.988 129.711  14.603  1.00  0.00     0.009 A 
ATOM     22  C   UNL     1      47.395 130.046  12.278  1.00  0.00     0.001 A 
ATOM     23  C   UNL     1      48.299 129.599  13.245  1.00  0.00     0.001 A 
BRANCH  15  24
ATOM     24  C   UNL     1      44.981 131.185  18.204  1.00  0.00     0.252 C 
ATOM     25  O   UNL     1      45.427 130.347  19.032  1.00  0.00    -0.287 OA
BRANCH  24  26
ATOM     26  N   UNL     1      44.275 132.331  18.690  1.00  0.00    -0.017 NA
BRANCH  26  27
ATOM     27  N   UNL     1      43.357 132.231  19.505  1.00  0.00     0.009 N 
ATOM     28  N   UNL     1      42.440 132.129  20.319  1.00  0.00    -0.003 NA
ENDBRANCH  26  27
ENDBRANCH  24  26
ENDBRANCH  15  24
ENDBRANCH   1  14
TORSDOF 10
ENDMDL
MODEL 4
REMARK VINA RESULT:      -7.3      1.721      2.191
REMARK SMILES [N-]=[N+]=NC(=O)c1cc2ccccc2cc1OC(=O)[C@]1(N=[N+]=[N-])C[C@H](CO)C1
REMARK SMILES IDX 16 1 17 2 18 3 19 4 24 5 27 6 23 7 25 8 26 9 20 11 21 12
REMARK SMILES IDX 22 13 15 14 6 15 14 16 7 17 13 18 8 19 12 20 9 21 11 22
REMARK SMILES IDX 10 23 4 24 5 25 3 26 2 27 1 28
REMARK H PARENT 26 10
ROOT
ATOM      1  O   UNL     1      42.174 132.749  17.258  1.00  0.00    -0.425 OA
ENDROOT
BRANCH   1   2
ATOM      2  C   UNL     1      41.936 134.120  17.092  1.00  0.00     0.323 C 
ATOM      3  O   UNL     1      42.394 134.951  17.925  1.00  0.00    -0.251 OA
BRANCH   2   4
ATOM      4  C   UNL     1      41.042 134.597  15.973  1.00  0.00     0.147 C 
ATOM      5  C   UNL     1      41.390 136.360  14.770  1.00  0.00     0.017 C 
ATOM      6  C   UNL     1      41.810 134.889  14.678  1.00  0.00     0.031 C 
ATOM      7  C   UNL     1      40.639 136.076  16.074  1.00  0.00     0.031 C 
BRANCH   5   8
ATOM      8  C   UNL     1      42.565 137.333  14.938  1.00  0.00     0.159 C 
BRANCH   8   9
ATOM      9  O   UNL     1      42.271 138.537  14.287  1.00  0.00    -0.396 OA
ATOM     10  H   UNL     1      41.600 138.317  13.591  1.00  0.00     0.210 HD
ENDBRANCH   8   9
ENDBRANCH   5   8
BRANCH   4  11
ATOM     11  N   UNL     1      39.894 133.703  15.777  1.00  0.00    -0.075 NA
BRANCH  11  12
ATOM     12  N   UNL     1      39.111 133.830  14.833  1.00  0.00     0.002 N 
ATOM     13  N   UNL     1      38.330 133.956  13.892  1.00  0.00    -0.003 NA
ENDBRANCH  11  12
ENDBRANCH   4  11
ENDBRANCH   2   4
ENDBRANCH   1   2
BRANCH   1  14
ATOM     14  C   UNL     1      43.378 132.119  16.915  1.00  0.00     0.142 A 
ATOM     15  C   UNL     1      44.353 131.778  17.883  1.00  0.00     0.068 A 
ATOM     16  C   UNL     1      43.605 131.829  15.566  1.00  0.00     0.056 A 
ATOM     17  C   UNL     1      45.498 131.068  17.488  1.00  0.00     0.024 A 
ATOM     18  C   UNL     1      44.760 131.143  15.168  1.00  0.00    -0.015 A 
ATOM     19  C   UNL     1      45.710 130.749  16.140  1.00  0.00    -0.017 A 
ATOM     20  C   UNL     1      44.980 130.833  13.817  1.00  0.00     0.009 A 
ATOM     21  C   UNL     1      46.863 130.053  15.742  1.00  0.00     0.009 A 
ATOM     22  C   UNL     1      46.130 130.140  13.433  1.00  0.00     0.001 A 
ATOM     23  C   UNL     1      47.069 129.750  14.392  1.00  0.00     0.001 A 
BRANCH  15  24
ATOM     24  C   UNL     1      44.220 132.181  19.300  1.00  0.00     0.252 C 
ATOM     25  O   UNL     1      44.858 133.184  19.716  1.00  0.00    -0.287 OA
BRANCH  24  26
ATOM     26  N   UNL     1      43.359 131.484  20.206  1.00  0.00    -0.017 NA
BRANCH  26  27
ATOM     27  N   UNL     1      43.756 131.078  21.299  1.00  0.00     0.009 N 
ATOM     28  N   UNL     1      44.153 130.670  22.389  1.00  0.00    -0.003 NA
ENDBRANCH  26  27
ENDBRANCH  24  26
ENDBRANCH  15  24
ENDBRANCH   1  14
TORSDOF 10
ENDMDL
MODEL 5
REMARK VINA RESULT:      -7.2      1.647      1.713
REMARK SMILES [N-]=[N+]=NC(=O)c1cc2ccccc2cc1OC(=O)[C@]1(N=[N+]=[N-])C[C@H](CO)C1
REMARK SMILES IDX 16 1 17 2 18 3 19 4 24 5 27 6 23 7 25 8 26 9 20 11 21 12
REMARK SMILES IDX 22 13 15 14 6 15 14 16 7 17 13 18 8 19 12 20 9 21 11 22
REMARK SMILES IDX 10 23 4 24 5 25 3 26 2 27 1 28
REMARK H PARENT 26 10
ROOT
ATOM      1  O   UNL     1      42.105 132.265  15.759  1.00  0.00    -0.425 OA
ENDROOT
BRANCH   1   2
ATOM      2  C   UNL     1      41.734 133.583  15.460  1.00  0.00     0.323 C 
ATOM      3  O   UNL     1      42.316 134.214  14.535  1.00  0.00    -0.251 OA
BRANCH   2   4
ATOM      4  C   UNL     1      40.708 134.286  16.316  1.00  0.00     0.147 C 
ATOM      5  C   UNL     1      41.077 136.066  17.487  1.00  0.00     0.017 C 
ATOM      6  C   UNL     1      40.636 135.795  16.045  1.00  0.00     0.031 C 
ATOM      7  C   UNL     1      41.169 134.562  17.756  1.00  0.00     0.031 C 
BRANCH   5   8
ATOM      8  C   UNL     1      42.424 136.792  17.600  1.00  0.00     0.159 C 
BRANCH   8   9
ATOM      9  O   UNL     1      42.314 137.843  18.520  1.00  0.00    -0.396 OA
ATOM     10  H   UNL     1      41.870 138.586  18.036  1.00  0.00     0.210 HD
ENDBRANCH   8   9
ENDBRANCH   5   8
BRANCH   4  11
ATOM     11  N   UNL     1      39.399 133.623  16.251  1.00  0.00    -0.075 NA
BRANCH  11  12
ATOM     12  N   UNL     1      38.530 133.954  15.442  1.00  0.00     0.002 N 
ATOM     13  N   UNL     1      37.663 134.284  14.634  1.00  0.00    -0.003 NA
ENDBRANCH  11  12
ENDBRANCH   4  11
ENDBRANCH   2   4
ENDBRANCH   1   2
BRANCH   1  14
ATOM     14  C   UNL     1      43.422 131.793  15.692  1.00  0.00     0.142 A 
ATOM     15  C   UNL     1      44.237 131.661  16.842  1.00  0.00     0.068 A 
ATOM     16  C   UNL     1      43.932 131.447  14.436  1.00  0.00     0.056 A 
ATOM     17  C   UNL     1      45.517 131.098  16.720  1.00  0.00     0.024 A 
ATOM     18  C   UNL     1      45.218 130.907  14.310  1.00  0.00    -0.015 A 
ATOM     19  C   UNL     1      46.014 130.720  15.466  1.00  0.00    -0.017 A 
ATOM     20  C   UNL     1      45.722 130.540  13.053  1.00  0.00     0.009 A 
ATOM     21  C   UNL     1      47.301 130.172  15.340  1.00  0.00     0.009 A 
ATOM     22  C   UNL     1      47.004 129.994  12.942  1.00  0.00     0.001 A 
ATOM     23  C   UNL     1      47.791 129.810  14.082  1.00  0.00     0.001 A 
BRANCH  15  24
ATOM     24  C   UNL     1      43.793 132.138  18.170  1.00  0.00     0.252 C 
ATOM     25  O   UNL     1      42.837 131.554  18.745  1.00  0.00    -0.287 OA
BRANCH  24  26
ATOM     26  N   UNL     1      44.443 133.224  18.838  1.00  0.00    -0.017 NA
BRANCH  26  27
ATOM     27  N   UNL     1      44.867 133.119  19.990  1.00  0.00     0.009 N 
ATOM     28  N   UNL     1      45.289 133.014  21.140  1.00  0.00    -0.003 NA
ENDBRANCH  26  27
ENDBRANCH  24  26
ENDBRANCH  15  24
ENDBRANCH   1  14
TORSDOF 10
ENDMDL
MODEL 6
REMARK VINA RESULT:      -7.2      1.919      2.263
REMARK SMILES [N-]=[N+]=NC(=O)c1cc2ccccc2cc1OC(=O)[C@]1(N=[N+]=[N-])C[C@H](CO)C1
REMARK SMILES IDX 16 1 17 2 18 3 19 4 24 5 27 6 23 7 25 8 26 9 20 11 21 12
REMARK SMILES IDX 22 13 15 14 6 15 14 16 7 17 13 18 8 19 12 20 9 21 11 22
REMARK SMILES IDX 10 23 4 24 5 25 3 26 2 27 1 28
REMARK H PARENT 26 10
ROOT
ATOM      1  O   UNL     1      42.284 132.360  15.355  1.00  0.00    -0.425 OA
ENDROOT
BRANCH   1   2
ATOM      2  C   UNL     1      42.000 133.733  15.326  1.00  0.00     0.323 C 
ATOM      3  O   UNL     1      42.897 134.562  15.009  1.00  0.00    -0.251 OA
BRANCH   2   4
ATOM      4  C   UNL     1      40.648 134.228  15.780  1.00  0.00     0.147 C 
ATOM      5  C   UNL     1      39.710 136.059  15.114  1.00  0.00     0.017 C 
ATOM      6  C   UNL     1      39.730 134.612  14.612  1.00  0.00     0.031 C 
ATOM      7  C   UNL     1      40.642 135.685  16.270  1.00  0.00     0.031 C 
BRANCH   5   8
ATOM      8  C   UNL     1      40.323 137.067  14.133  1.00  0.00     0.159 C 
BRANCH   8   9
ATOM      9  O   UNL     1      39.418 137.320  13.095  1.00  0.00    -0.396 OA
ATOM     10  H   UNL     1      38.897 136.484  12.975  1.00  0.00     0.210 HD
ENDBRANCH   8   9
ENDBRANCH   5   8
BRANCH   4  11
ATOM     11  N   UNL     1      40.021 133.302  16.731  1.00  0.00    -0.075 NA
BRANCH  11  12
ATOM     12  N   UNL     1      39.571 133.673  17.817  1.00  0.00     0.002 N 
ATOM     13  N   UNL     1      39.123 134.043  18.901  1.00  0.00    -0.003 NA
ENDBRANCH  11  12
ENDBRANCH   4  11
ENDBRANCH   2   4
ENDBRANCH   1   2
BRANCH   1  14
ATOM     14  C   UNL     1      43.583 131.834  15.385  1.00  0.00     0.142 A 
ATOM     15  C   UNL     1      44.315 131.701  16.589  1.00  0.00     0.068 A 
ATOM     16  C   UNL     1      44.157 131.435  14.174  1.00  0.00     0.056 A 
ATOM     17  C   UNL     1      45.576 131.084  16.566  1.00  0.00     0.024 A 
ATOM     18  C   UNL     1      45.426 130.841  14.147  1.00  0.00    -0.015 A 
ATOM     19  C   UNL     1      46.137 130.654  15.356  1.00  0.00    -0.017 A 
ATOM     20  C   UNL     1      45.995 130.421  12.935  1.00  0.00     0.009 A 
ATOM     21  C   UNL     1      47.405 130.051  15.329  1.00  0.00     0.009 A 
ATOM     22  C   UNL     1      47.257 129.822  12.922  1.00  0.00     0.001 A 
ATOM     23  C   UNL     1      47.960 129.637  14.115  1.00  0.00     0.001 A 
BRANCH  15  24
ATOM     24  C   UNL     1      43.806 132.230  17.874  1.00  0.00     0.252 C 
ATOM     25  O   UNL     1      43.043 131.513  18.575  1.00  0.00    -0.287 OA
BRANCH  24  26
ATOM     26  N   UNL     1      44.183 133.522  18.361  1.00  0.00    -0.017 NA
BRANCH  26  27
ATOM     27  N   UNL     1      43.351 134.326  18.783  1.00  0.00     0.009 N 
ATOM     28  N   UNL     1      42.519 135.129  19.201  1.00  0.00    -0.003 NA
ENDBRANCH  26  27
ENDBRANCH  24  26
ENDBRANCH  15  24
ENDBRANCH   1  14
TORSDOF 10
ENDMDL
MODEL 7
REMARK VINA RESULT:      -7.1      2.693      3.182
REMARK SMILES [N-]=[N+]=NC(=O)c1cc2ccccc2cc1OC(=O)[C@]1(N=[N+]=[N-])C[C@H](CO)C1
REMARK SMILES IDX 16 1 17 2 18 3 19 4 24 5 27 6 23 7 25 8 26 9 20 11 21 12
REMARK SMILES IDX 22 13 15 14 6 15 14 16 7 17 13 18 8 19 12 20 9 21 11 22
REMARK SMILES IDX 10 23 4 24 5 25 3 26 2 27 1 28
REMARK H PARENT 26 10
ROOT
ATOM      1  O   UNL     1      44.466 134.155  16.731  1.00  0.00    -0.425 OA
ENDROOT
BRANCH   1   2
ATOM      2  C   UNL     1      43.405 134.745  16.029  1.00  0.00     0.323 C 
ATOM      3  O   UNL     1      43.622 135.365  14.952  1.00  0.00    -0.251 OA
BRANCH   2   4
ATOM      4  C   UNL     1      42.016 134.730  16.618  1.00  0.00     0.147 C 
ATOM      5  C   UNL     1      40.200 134.344  15.509  1.00  0.00     0.017 C 
ATOM      6  C   UNL     1      41.222 133.471  16.245  1.00  0.00     0.031 C 
ATOM      7  C   UNL     1      41.000 135.600  15.862  1.00  0.00     0.031 C 
BRANCH   5   8
ATOM      8  C   UNL     1      40.121 134.071  14.001  1.00  0.00     0.159 C 
BRANCH   8   9
ATOM      9  O   UNL     1      38.835 133.626  13.672  1.00  0.00    -0.396 OA
ATOM     10  H   UNL     1      38.214 134.343  13.961  1.00  0.00     0.210 HD
ENDBRANCH   8   9
ENDBRANCH   5   8
BRANCH   4  11
ATOM     11  N   UNL     1      42.035 134.996  18.062  1.00  0.00    -0.075 NA
BRANCH  11  12
ATOM     12  N   UNL     1      42.460 136.052  18.535  1.00  0.00     0.002 N 
ATOM     13  N   UNL     1      42.884 137.106  19.005  1.00  0.00    -0.003 NA
ENDBRANCH  11  12
ENDBRANCH   4  11
ENDBRANCH   2   4
ENDBRANCH   1   2
BRANCH   1  14
ATOM     14  C   UNL     1      45.006 132.901  16.417  1.00  0.00     0.142 A 
ATOM     15  C   UNL     1      44.772 131.757  17.217  1.00  0.00     0.068 A 
ATOM     16  C   UNL     1      45.802 132.798  15.271  1.00  0.00     0.056 A 
ATOM     17  C   UNL     1      45.267 130.511  16.801  1.00  0.00     0.024 A 
ATOM     18  C   UNL     1      46.317 131.559  14.869  1.00  0.00    -0.015 A 
ATOM     19  C   UNL     1      46.037 130.402  15.635  1.00  0.00    -0.017 A 
ATOM     20  C   UNL     1      47.098 131.450  13.708  1.00  0.00     0.009 A 
ATOM     21  C   UNL     1      46.546 129.159  15.226  1.00  0.00     0.009 A 
ATOM     22  C   UNL     1      47.598 130.207  13.312  1.00  0.00     0.001 A 
ATOM     23  C   UNL     1      47.323 129.065  14.068  1.00  0.00     0.001 A 
BRANCH  15  24
ATOM     24  C   UNL     1      44.051 131.841  18.506  1.00  0.00     0.252 C 
ATOM     25  O   UNL     1      42.817 131.593  18.537  1.00  0.00    -0.287 OA
BRANCH  24  26
ATOM     26  N   UNL     1      44.723 132.164  19.728  1.00  0.00    -0.017 NA
BRANCH  26  27
ATOM     27  N   UNL     1      44.814 133.324  20.133  1.00  0.00     0.009 N 
ATOM     28  N   UNL     1      44.902 134.482  20.539  1.00  0.00    -0.003 NA
ENDBRANCH  26  27
ENDBRANCH  24  26
ENDBRANCH  15  24
ENDBRANCH   1  14
TORSDOF 10
ENDMDL
MODEL 8
REMARK VINA RESULT:      -7.1      3.097      6.563
REMARK SMILES [N-]=[N+]=NC(=O)c1cc2ccccc2cc1OC(=O)[C@]1(N=[N+]=[N-])C[C@H](CO)C1
REMARK SMILES IDX 16 1 17 2 18 3 19 4 24 5 27 6 23 7 25 8 26 9 20 11 21 12
REMARK SMILES IDX 22 13 15 14 6 15 14 16 7 17 13 18 8 19 12 20 9 21 11 22
REMARK SMILES IDX 10 23 4 24 5 25 3 26 2 27 1 28
REMARK H PARENT 26 10
ROOT
ATOM      1  O   UNL     1      45.015 132.132  17.686  1.00  0.00    -0.425 OA
ENDROOT
BRANCH   1   2
ATOM      2  C   UNL     1      45.068 131.185  16.654  1.00  0.00     0.323 C 
ATOM      3  O   UNL     1      45.236 129.962  16.920  1.00  0.00    -0.251 OA
BRANCH   2   4
ATOM      4  C   UNL     1      45.032 131.640  15.215  1.00  0.00     0.147 C 
ATOM      5  C   UNL     1      46.152 130.740  13.599  1.00  0.00     0.017 C 
ATOM      6  C   UNL     1      44.779 130.491  14.231  1.00  0.00     0.031 C 
ATOM      7  C   UNL     1      46.417 131.875  14.592  1.00  0.00     0.031 C 
BRANCH   5   8
ATOM      8  C   UNL     1      47.126 129.562  13.740  1.00  0.00     0.159 C 
BRANCH   8   9
ATOM      9  O   UNL     1      46.563 128.588  14.574  1.00  0.00    -0.396 OA
ATOM     10  H   UNL     1      47.296 127.957  14.794  1.00  0.00     0.210 HD
ENDBRANCH   8   9
ENDBRANCH   5   8
BRANCH   4  11
ATOM     11  N   UNL     1      44.120 132.775  15.027  1.00  0.00    -0.075 NA
BRANCH  11  12
ATOM     12  N   UNL     1      42.968 132.636  14.608  1.00  0.00     0.002 N 
ATOM     13  N   UNL     1      41.820 132.497  14.190  1.00  0.00    -0.003 NA
ENDBRANCH  11  12
ENDBRANCH   4  11
ENDBRANCH   2   4
ENDBRANCH   1   2
BRANCH   1  14
ATOM     14  C   UNL     1      44.424 131.892  18.933  1.00  0.00     0.142 A 
ATOM     15  C   UNL     1      43.047 132.120  19.171  1.00  0.00     0.068 A 
ATOM     16  C   UNL     1      45.239 131.415  19.965  1.00  0.00     0.056 A 
ATOM     17  C   UNL     1      42.496 131.776  20.416  1.00  0.00     0.024 A 
ATOM     18  C   UNL     1      44.694 131.094  21.215  1.00  0.00    -0.015 A 
ATOM     19  C   UNL     1      43.307 131.266  21.439  1.00  0.00    -0.017 A 
ATOM     20  C   UNL     1      45.507 130.596  22.245  1.00  0.00     0.009 A 
ATOM     21  C   UNL     1      42.760 130.937  22.690  1.00  0.00     0.009 A 
ATOM     22  C   UNL     1      44.950 130.271  23.485  1.00  0.00     0.001 A 
ATOM     23  C   UNL     1      43.581 130.441  23.707  1.00  0.00     0.001 A 
BRANCH  15  24
ATOM     24  C   UNL     1      42.173 132.748  18.156  1.00  0.00     0.252 C 
ATOM     25  O   UNL     1      42.436 133.912  17.754  1.00  0.00    -0.287 OA
BRANCH  24  26
ATOM     26  N   UNL     1      41.054 132.057  17.592  1.00  0.00    -0.017 NA
BRANCH  26  27
ATOM     27  N   UNL     1      39.926 132.550  17.576  1.00  0.00     0.009 N 
ATOM     28  N   UNL     1      38.798 133.041  17.563  1.00  0.00    -0.003 NA
ENDBRANCH  26  27
ENDBRANCH  24  26
ENDBRANCH  15  24
ENDBRANCH   1  14
TORSDOF 10
ENDMDL
MODEL 9
REMARK VINA RESULT:      -7.1      2.661      5.646
REMARK SMILES [N-]=[N+]=NC(=O)c1cc2ccccc2cc1OC(=O)[C@]1(N=[N+]=[N-])C[C@H](CO)C1
REMARK SMILES IDX 16 1 17 2 18 3 19 4 24 5 27 6 23 7 25 8 26 9 20 11 21 12
REMARK SMILES IDX 22 13 15 14 6 15 14 16 7 17 13 18 8 19 12 20 9 21 11 22
REMARK SMILES IDX 10 23 4 24 5 25 3 26 2 27 1 28
REMARK H PARENT 26 10
ROOT
ATOM      1  O   UNL     1      44.262 131.419  18.623  1.00  0.00    -0.425 OA
ENDROOT
BRANCH   1   2
ATOM      2  C   UNL     1      44.589 132.562  19.366  1.00  0.00     0.323 C 
ATOM      3  O   UNL     1      44.616 133.695  18.811  1.00  0.00    -0.251 OA
BRANCH   2   4
ATOM      4  C   UNL     1      45.014 132.424  20.808  1.00  0.00     0.147 C 
ATOM      5  C   UNL     1      45.887 134.001  22.002  1.00  0.00     0.017 C 
ATOM      6  C   UNL     1      44.458 133.537  21.704  1.00  0.00     0.031 C 
ATOM      7  C   UNL     1      46.446 132.904  21.092  1.00  0.00     0.031 C 
BRANCH   5   8
ATOM      8  C   UNL     1      46.196 135.422  21.509  1.00  0.00     0.159 C 
BRANCH   8   9
ATOM      9  O   UNL     1      46.519 136.236  22.602  1.00  0.00    -0.396 OA
ATOM     10  H   UNL     1      46.600 135.629  23.383  1.00  0.00     0.210 HD
ENDBRANCH   8   9
ENDBRANCH   5   8
BRANCH   4  11
ATOM     11  N   UNL     1      44.749 131.076  21.326  1.00  0.00    -0.075 NA
BRANCH  11  12
ATOM     12  N   UNL     1      43.686 130.776  21.875  1.00  0.00     0.002 N 
ATOM     13  N   UNL     1      42.627 130.476  22.422  1.00  0.00    -0.003 NA
ENDBRANCH  11  12
ENDBRANCH   4  11
ENDBRANCH   2   4
ENDBRANCH   1   2
BRANCH   1  14
ATOM     14  C   UNL     1      44.586 131.250  17.271  1.00  0.00     0.142 A 
ATOM     15  C   UNL     1      43.748 131.719  16.230  1.00  0.00     0.068 A 
ATOM     16  C   UNL     1      45.780 130.592  16.959  1.00  0.00     0.056 A 
ATOM     17  C   UNL     1      44.171 131.598  14.897  1.00  0.00     0.024 A 
ATOM     18  C   UNL     1      46.191 130.450  15.627  1.00  0.00    -0.015 A 
ATOM     19  C   UNL     1      45.384 130.968  14.587  1.00  0.00    -0.017 A 
ATOM     20  C   UNL     1      47.399 129.808  15.314  1.00  0.00     0.009 A 
ATOM     21  C   UNL     1      45.800 130.833  13.253  1.00  0.00     0.009 A 
ATOM     22  C   UNL     1      47.803 129.681  13.983  1.00  0.00     0.001 A 
ATOM     23  C   UNL     1      47.006 130.192  12.955  1.00  0.00     0.001 A 
BRANCH  15  24
ATOM     24  C   UNL     1      42.416 132.300  16.504  1.00  0.00     0.252 C 
ATOM     25  O   UNL     1      41.633 131.702  17.288  1.00  0.00    -0.287 OA
BRANCH  24  26
ATOM     26  N   UNL     1      42.002 133.544  15.928  1.00  0.00    -0.017 NA
BRANCH  26  27
ATOM     27  N   UNL     1      40.848 133.729  15.541  1.00  0.00     0.009 N 
ATOM     28  N   UNL     1      39.695 133.917  15.154  1.00  0.00    -0.003 NA
ENDBRANCH  26  27
ENDBRANCH  24  26
ENDBRANCH  15  24
ENDBRANCH   1  14
TORSDOF 10
ENDMDL


