MODEL 1
REMARK VINA RESULT:      -7.9      0.000      0.000
REMARK SMILES COC[C@@H](C)NCc1c(C)n[nH+]n1-c1cc2ccccc2c2ccccc12
REMARK SMILES IDX 4 1 5 2 3 3 2 4 1 5 6 6 7 8 8 9 9 10 13 11 11 12 12 13 10 14
REMARK SMILES IDX 14 16 15 17 27 18 16 19 26 20 22 21 17 22 21 23 25 24 23 25
REMARK SMILES IDX 18 26 20 27 24 28 19 29
REMARK H PARENT 6 7 12 15
ROOT
ATOM      1  C   UNL     1      42.397 136.878  16.721  1.00  0.00     0.076 C 
ATOM      2  C   UNL     1      43.240 138.157  16.709  1.00  0.00     0.027 C 
ENDROOT
BRANCH   1   3
ATOM      3  C   UNL     1      41.524 136.833  17.988  1.00  0.00     0.178 C 
BRANCH   3   4
ATOM      4  O   UNL     1      41.032 135.519  18.168  1.00  0.00    -0.383 OA
ATOM      5  C   UNL     1      40.123 135.497  19.245  1.00  0.00     0.194 C 
ENDBRANCH   3   4
ENDBRANCH   1   3
BRANCH   1   6
ATOM      6  N   UNL     1      43.300 135.709  16.652  1.00  0.00    -0.306 NA
ATOM      7  H   UNL     1      42.940 134.936  17.257  1.00  0.00     0.123 HD
BRANCH   6   8
ATOM      8  C   UNL     1      43.416 135.195  15.281  1.00  0.00     0.144 C 
BRANCH   8   9
ATOM      9  C   UNL     1      42.256 134.287  14.970  1.00  0.00     0.126 A 
ATOM     10  C   UNL     1      41.012 134.646  14.485  1.00  0.00     0.134 A 
ATOM     11  N   UNL     1      42.309 132.940  14.920  1.00  0.00    -0.099 N 
ATOM     12  N   UNL     1      40.347 133.519  14.145  1.00  0.00     0.020 NA
ATOM     13  N   UNL     1      41.161 132.510  14.422  1.00  0.00    -0.012 N 
ATOM     14  C   UNL     1      40.502 136.027  14.241  1.00  0.00     0.076 C 
ATOM     15  H   UNL     1      40.934 131.508  14.234  1.00  0.00     0.527 HD
BRANCH  11  16
ATOM     16  C   UNL     1      43.453 132.108  15.163  1.00  0.00     0.116 A 
ATOM     17  C   UNL     1      44.176 131.639  14.067  1.00  0.00     0.042 A 
ATOM     18  C   UNL     1      43.893 131.824  16.473  1.00  0.00     0.012 A 
ATOM     19  C   UNL     1      45.370 130.939  14.238  1.00  0.00    -0.015 A 
ATOM     20  C   UNL     1      43.130 132.238  17.583  1.00  0.00     0.011 A 
ATOM     21  C   UNL     1      45.108 131.104  16.678  1.00  0.00    -0.008 A 
ATOM     22  C   UNL     1      46.090 130.524  13.105  1.00  0.00     0.009 A 
ATOM     23  C   UNL     1      45.863 130.667  15.545  1.00  0.00    -0.010 A 
ATOM     24  C   UNL     1      43.558 131.971  18.879  1.00  0.00     0.001 A 
ATOM     25  C   UNL     1      45.517 130.853  18.010  1.00  0.00     0.009 A 
ATOM     26  C   UNL     1      47.295 129.841  13.246  1.00  0.00     0.001 A 
ATOM     27  C   UNL     1      47.092 129.968  15.656  1.00  0.00     0.009 A 
ATOM     28  C   UNL     1      44.748 131.286  19.091  1.00  0.00     0.001 A 
ATOM     29  C   UNL     1      47.793 129.565  14.517  1.00  0.00     0.001 A 
ENDBRANCH  11  16
ENDBRANCH   8   9
ENDBRANCH   6   8
ENDBRANCH   1   6
TORSDOF 6
ENDMDL
MODEL 2
REMARK VINA RESULT:      -7.7      1.895      2.374
REMARK SMILES COC[C@@H](C)NCc1c(C)n[nH+]n1-c1cc2ccccc2c2ccccc12
REMARK SMILES IDX 4 1 5 2 3 3 2 4 1 5 6 6 7 8 8 9 9 10 13 11 11 12 12 13 10 14
REMARK SMILES IDX 14 16 15 17 27 18 16 19 26 20 22 21 17 22 21 23 25 24 23 25
REMARK SMILES IDX 18 26 20 27 24 28 19 29
REMARK H PARENT 6 7 12 15
ROOT
ATOM      1  C   UNL     1      43.858 136.068  16.993  1.00  0.00     0.076 C 
ATOM      2  C   UNL     1      44.573 135.153  15.995  1.00  0.00     0.027 C 
ENDROOT
BRANCH   1   3
ATOM      3  C   UNL     1      44.085 135.564  18.430  1.00  0.00     0.178 C 
BRANCH   3   4
ATOM      4  O   UNL     1      44.234 136.673  19.295  1.00  0.00    -0.383 OA
ATOM      5  C   UNL     1      45.185 137.565  18.761  1.00  0.00     0.194 C 
ENDBRANCH   3   4
ENDBRANCH   1   3
BRANCH   1   6
ATOM      6  N   UNL     1      42.417 136.106  16.661  1.00  0.00    -0.306 NA
ATOM      7  H   UNL     1      42.199 136.949  16.083  1.00  0.00     0.123 HD
BRANCH   6   8
ATOM      8  C   UNL     1      42.005 134.918  15.903  1.00  0.00     0.144 C 
BRANCH   8   9
ATOM      9  C   UNL     1      41.150 134.027  16.763  1.00  0.00     0.126 A 
ATOM     10  C   UNL     1      39.816 134.198  17.088  1.00  0.00     0.134 A 
ATOM     11  N   UNL     1      41.491 132.796  17.196  1.00  0.00    -0.099 N 
ATOM     12  N   UNL     1      39.381 133.072  17.697  1.00  0.00     0.020 NA
ATOM     13  N   UNL     1      40.419 132.249  17.744  1.00  0.00    -0.012 N 
ATOM     14  C   UNL     1      38.942 135.353  16.732  1.00  0.00     0.076 C 
ATOM     15  H   UNL     1      40.378 131.281  18.133  1.00  0.00     0.527 HD
BRANCH  11  16
ATOM     16  C   UNL     1      42.722 132.100  16.946  1.00  0.00     0.116 A 
ATOM     17  C   UNL     1      43.048 131.787  15.627  1.00  0.00     0.042 A 
ATOM     18  C   UNL     1      43.624 131.799  17.987  1.00  0.00     0.012 A 
ATOM     19  C   UNL     1      44.287 131.231  15.305  1.00  0.00    -0.015 A 
ATOM     20  C   UNL     1      43.270 132.052  19.328  1.00  0.00     0.011 A 
ATOM     21  C   UNL     1      44.896 131.225  17.688  1.00  0.00    -0.008 A 
ATOM     22  C   UNL     1      44.593 130.973  13.958  1.00  0.00     0.009 A 
ATOM     23  C   UNL     1      45.236 130.949  16.327  1.00  0.00    -0.010 A 
ATOM     24  C   UNL     1      44.154 131.768  20.363  1.00  0.00     0.001 A 
ATOM     25  C   UNL     1      45.773 130.952  18.765  1.00  0.00     0.009 A 
ATOM     26  C   UNL     1      45.829 130.439  13.606  1.00  0.00     0.001 A 
ATOM     27  C   UNL     1      46.486 130.403  15.936  1.00  0.00     0.009 A 
ATOM     28  C   UNL     1      45.402 131.225  20.082  1.00  0.00     0.001 A 
ATOM     29  C   UNL     1      46.771 130.155  14.592  1.00  0.00     0.001 A 
ENDBRANCH  11  16
ENDBRANCH   8   9
ENDBRANCH   6   8
ENDBRANCH   1   6
TORSDOF 6
ENDMDL
MODEL 3
REMARK VINA RESULT:      -7.5      1.658      2.799
REMARK SMILES COC[C@@H](C)NCc1c(C)n[nH+]n1-c1cc2ccccc2c2ccccc12
REMARK SMILES IDX 4 1 5 2 3 3 2 4 1 5 6 6 7 8 8 9 9 10 13 11 11 12 12 13 10 14
REMARK SMILES IDX 14 16 15 17 27 18 16 19 26 20 22 21 17 22 21 23 25 24 23 25
REMARK SMILES IDX 18 26 20 27 24 28 19 29
REMARK H PARENT 6 7 12 15
ROOT
ATOM      1  C   UNL     1      40.088 133.814  17.738  1.00  0.00     0.076 C 
ATOM      2  C   UNL     1      40.618 133.722  19.172  1.00  0.00     0.027 C 
ENDROOT
BRANCH   1   3
ATOM      3  C   UNL     1      38.672 133.215  17.658  1.00  0.00     0.178 C 
BRANCH   3   4
ATOM      4  O   UNL     1      37.764 134.219  17.249  1.00  0.00    -0.383 OA
ATOM      5  C   UNL     1      37.004 134.648  18.356  1.00  0.00     0.194 C 
ENDBRANCH   3   4
ENDBRANCH   1   3
BRANCH   1   6
ATOM      6  N   UNL     1      41.021 133.104  16.837  1.00  0.00    -0.306 NA
ATOM      7  H   UNL     1      40.571 132.241  16.454  1.00  0.00     0.123 HD
BRANCH   6   8
ATOM      8  C   UNL     1      41.424 133.946  15.702  1.00  0.00     0.144 C 
BRANCH   8   9
ATOM      9  C   UNL     1      42.477 134.928  16.138  1.00  0.00     0.126 A 
ATOM     10  C   UNL     1      42.297 136.251  16.502  1.00  0.00     0.134 A 
ATOM     11  N   UNL     1      43.754 134.621  16.445  1.00  0.00    -0.099 N 
ATOM     12  N   UNL     1      43.456 136.709  17.025  1.00  0.00     0.020 NA
ATOM     13  N   UNL     1      44.312 135.698  16.974  1.00  0.00    -0.012 N 
ATOM     14  C   UNL     1      41.026 137.032  16.461  1.00  0.00     0.076 C 
ATOM     15  H   UNL     1      45.289 135.742  17.341  1.00  0.00     0.527 HD
BRANCH  11  16
ATOM     16  C   UNL     1      44.367 133.324  16.404  1.00  0.00     0.116 A 
ATOM     17  C   UNL     1      44.788 132.830  15.171  1.00  0.00     0.042 A 
ATOM     18  C   UNL     1      44.611 132.587  17.582  1.00  0.00     0.012 A 
ATOM     19  C   UNL     1      45.508 131.638  15.081  1.00  0.00    -0.015 A 
ATOM     20  C   UNL     1      44.128 133.049  18.822  1.00  0.00     0.011 A 
ATOM     21  C   UNL     1      45.340 131.361  17.519  1.00  0.00    -0.008 A 
ATOM     22  C   UNL     1      45.953 131.199  13.823  1.00  0.00     0.009 A 
ATOM     23  C   UNL     1      45.805 130.887  16.252  1.00  0.00    -0.010 A 
ATOM     24  C   UNL     1      44.371 132.336  19.990  1.00  0.00     0.001 A 
ATOM     25  C   UNL     1      45.572 130.662  18.728  1.00  0.00     0.009 A 
ATOM     26  C   UNL     1      46.690 130.024  13.705  1.00  0.00     0.001 A 
ATOM     27  C   UNL     1      46.556 129.694  16.100  1.00  0.00     0.009 A 
ATOM     28  C   UNL     1      45.094 131.150  19.944  1.00  0.00     0.001 A 
ATOM     29  C   UNL     1      46.990 129.275  14.841  1.00  0.00     0.001 A 
ENDBRANCH  11  16
ENDBRANCH   8   9
ENDBRANCH   6   8
ENDBRANCH   1   6
TORSDOF 6
ENDMDL
MODEL 4
REMARK VINA RESULT:      -7.5      2.989      6.278
REMARK SMILES COC[C@@H](C)NCc1c(C)n[nH+]n1-c1cc2ccccc2c2ccccc12
REMARK SMILES IDX 4 1 5 2 3 3 2 4 1 5 6 6 7 8 8 9 9 10 13 11 11 12 12 13 10 14
REMARK SMILES IDX 14 16 15 17 27 18 16 19 26 20 22 21 17 22 21 23 25 24 23 25
REMARK SMILES IDX 18 26 20 27 24 28 19 29
REMARK H PARENT 6 7 12 15
ROOT
ATOM      1  C   UNL     1      47.015 131.247  14.509  1.00  0.00     0.076 C 
ATOM      2  C   UNL     1      46.789 130.886  13.038  1.00  0.00     0.027 C 
ENDROOT
BRANCH   1   3
ATOM      3  C   UNL     1      46.861 129.994  15.391  1.00  0.00     0.178 C 
BRANCH   3   4
ATOM      4  O   UNL     1      46.139 129.009  14.679  1.00  0.00    -0.383 OA
ATOM      5  C   UNL     1      45.027 128.595  15.440  1.00  0.00     0.194 C 
ENDBRANCH   3   4
ENDBRANCH   1   3
BRANCH   1   6
ATOM      6  N   UNL     1      46.048 132.297  14.898  1.00  0.00    -0.306 NA
ATOM      7  H   UNL     1      45.340 132.437  14.141  1.00  0.00     0.123 HD
BRANCH   6   8
ATOM      8  C   UNL     1      45.331 131.943  16.130  1.00  0.00     0.144 C 
BRANCH   8   9
ATOM      9  C   UNL     1      43.893 132.377  16.033  1.00  0.00     0.126 A 
ATOM     10  C   UNL     1      43.010 132.142  14.994  1.00  0.00     0.134 A 
ATOM     11  N   UNL     1      43.163 132.895  17.042  1.00  0.00    -0.099 N 
ATOM     12  N   UNL     1      41.774 132.511  15.396  1.00  0.00     0.020 NA
ATOM     13  N   UNL     1      41.905 132.960  16.636  1.00  0.00    -0.012 N 
ATOM     14  C   UNL     1      43.307 131.479  13.691  1.00  0.00     0.076 C 
ATOM     15  H   UNL     1      41.107 133.288  17.225  1.00  0.00     0.527 HD
BRANCH  11  16
ATOM     16  C   UNL     1      43.599 133.151  18.385  1.00  0.00     0.116 A 
ATOM     17  C   UNL     1      43.598 132.093  19.293  1.00  0.00     0.042 A 
ATOM     18  C   UNL     1      44.090 134.415  18.773  1.00  0.00     0.012 A 
ATOM     19  C   UNL     1      44.134 132.243  20.573  1.00  0.00    -0.015 A 
ATOM     20  C   UNL     1      44.030 135.504  17.880  1.00  0.00     0.011 A 
ATOM     21  C   UNL     1      44.638 134.599  20.078  1.00  0.00    -0.008 A 
ATOM     22  C   UNL     1      44.155 131.140  21.441  1.00  0.00     0.009 A 
ATOM     23  C   UNL     1      44.672 133.495  20.985  1.00  0.00    -0.010 A 
ATOM     24  C   UNL     1      44.519 136.753  18.248  1.00  0.00     0.001 A 
ATOM     25  C   UNL     1      45.130 135.883  20.418  1.00  0.00     0.009 A 
ATOM     26  C   UNL     1      44.702 131.255  22.716  1.00  0.00     0.001 A 
ATOM     27  C   UNL     1      45.220 133.581  22.290  1.00  0.00     0.009 A 
ATOM     28  C   UNL     1      45.070 136.940  19.509  1.00  0.00     0.001 A 
ATOM     29  C   UNL     1      45.232 132.472  23.138  1.00  0.00     0.001 A 
ENDBRANCH  11  16
ENDBRANCH   8   9
ENDBRANCH   6   8
ENDBRANCH   1   6
TORSDOF 6
ENDMDL
MODEL 5
REMARK VINA RESULT:      -7.4      2.920      6.269
REMARK SMILES COC[C@@H](C)NCc1c(C)n[nH+]n1-c1cc2ccccc2c2ccccc12
REMARK SMILES IDX 4 1 5 2 3 3 2 4 1 5 6 6 7 8 8 9 9 10 13 11 11 12 12 13 10 14
REMARK SMILES IDX 14 16 15 17 27 18 16 19 26 20 22 21 17 22 21 23 25 24 23 25
REMARK SMILES IDX 18 26 20 27 24 28 19 29
REMARK H PARENT 6 7 12 15
ROOT
ATOM      1  C   UNL     1      47.075 131.127  14.507  1.00  0.00     0.076 C 
ATOM      2  C   UNL     1      46.881 130.684  13.054  1.00  0.00     0.027 C 
ENDROOT
BRANCH   1   3
ATOM      3  C   UNL     1      46.736 129.969  15.463  1.00  0.00     0.178 C 
BRANCH   3   4
ATOM      4  O   UNL     1      46.045 128.963  14.749  1.00  0.00    -0.383 OA
ATOM      5  C   UNL     1      45.036 128.412  15.564  1.00  0.00     0.194 C 
ENDBRANCH   3   4
ENDBRANCH   1   3
BRANCH   1   6
ATOM      6  N   UNL     1      46.218 132.304  14.767  1.00  0.00    -0.306 NA
ATOM      7  H   UNL     1      45.628 132.515  13.930  1.00  0.00     0.123 HD
BRANCH   6   8
ATOM      8  C   UNL     1      45.322 132.079  15.909  1.00  0.00     0.144 C 
BRANCH   8   9
ATOM      9  C   UNL     1      43.943 132.591  15.591  1.00  0.00     0.126 A 
ATOM     10  C   UNL     1      43.066 132.113  14.634  1.00  0.00     0.134 A 
ATOM     11  N   UNL     1      43.248 133.479  16.332  1.00  0.00    -0.099 N 
ATOM     12  N   UNL     1      41.867 132.709  14.821  1.00  0.00     0.020 NA
ATOM     13  N   UNL     1      42.016 133.526  15.854  1.00  0.00    -0.012 N 
ATOM     14  C   UNL     1      43.321 131.034  13.636  1.00  0.00     0.076 C 
ATOM     15  H   UNL     1      41.244 134.103  16.257  1.00  0.00     0.527 HD
BRANCH  11  16
ATOM     16  C   UNL     1      43.677 134.119  17.544  1.00  0.00     0.116 A 
ATOM     17  C   UNL     1      44.216 135.402  17.459  1.00  0.00     0.042 A 
ATOM     18  C   UNL     1      43.496 133.511  18.803  1.00  0.00     0.012 A 
ATOM     19  C   UNL     1      44.528 136.129  18.608  1.00  0.00    -0.015 A 
ATOM     20  C   UNL     1      43.015 132.189  18.890  1.00  0.00     0.011 A 
ATOM     21  C   UNL     1      43.812 134.229  19.996  1.00  0.00    -0.008 A 
ATOM     22  C   UNL     1      45.027 137.436  18.478  1.00  0.00     0.009 A 
ATOM     23  C   UNL     1      44.323 135.560  19.896  1.00  0.00    -0.010 A 
ATOM     24  C   UNL     1      42.823 131.582  20.127  1.00  0.00     0.001 A 
ATOM     25  C   UNL     1      43.602 133.582  21.238  1.00  0.00     0.009 A 
ATOM     26  C   UNL     1      45.327 138.192  19.608  1.00  0.00     0.001 A 
ATOM     27  C   UNL     1      44.640 136.355  21.028  1.00  0.00     0.009 A 
ATOM     28  C   UNL     1      43.111 132.277  21.295  1.00  0.00     0.001 A 
ATOM     29  C   UNL     1      45.134 137.652  20.877  1.00  0.00     0.001 A 
ENDBRANCH  11  16
ENDBRANCH   8   9
ENDBRANCH   6   8
ENDBRANCH   1   6
TORSDOF 6
ENDMDL
MODEL 6
REMARK VINA RESULT:      -7.3      1.697      2.075
REMARK SMILES COC[C@@H](C)NCc1c(C)n[nH+]n1-c1cc2ccccc2c2ccccc12
REMARK SMILES IDX 4 1 5 2 3 3 2 4 1 5 6 6 7 8 8 9 9 10 13 11 11 12 12 13 10 14
REMARK SMILES IDX 14 16 15 17 27 18 16 19 26 20 22 21 17 22 21 23 25 24 23 25
REMARK SMILES IDX 18 26 20 27 24 28 19 29
REMARK H PARENT 6 7 12 15
ROOT
ATOM      1  C   UNL     1      42.152 136.914  16.129  1.00  0.00     0.076 C 
ATOM      2  C   UNL     1      41.689 137.455  14.773  1.00  0.00     0.027 C 
ENDROOT
BRANCH   1   3
ATOM      3  C   UNL     1      43.014 137.966  16.852  1.00  0.00     0.178 C 
BRANCH   3   4
ATOM      4  O   UNL     1      43.851 137.318  17.789  1.00  0.00    -0.383 OA
ATOM      5  C   UNL     1      43.902 138.072  18.979  1.00  0.00     0.194 C 
ENDBRANCH   3   4
ENDBRANCH   1   3
BRANCH   1   6
ATOM      6  N   UNL     1      42.908 135.662  15.912  1.00  0.00    -0.306 NA
ATOM      7  H   UNL     1      43.281 135.301  16.819  1.00  0.00     0.123 HD
BRANCH   6   8
ATOM      8  C   UNL     1      42.063 134.615  15.321  1.00  0.00     0.144 C 
BRANCH   8   9
ATOM      9  C   UNL     1      41.304 133.894  16.402  1.00  0.00     0.126 A 
ATOM     10  C   UNL     1      40.002 134.120  16.812  1.00  0.00     0.134 A 
ATOM     11  N   UNL     1      41.703 132.761  17.015  1.00  0.00    -0.099 N 
ATOM     12  N   UNL     1      39.642 133.123  17.650  1.00  0.00     0.020 NA
ATOM     13  N   UNL     1      40.693 132.322  17.749  1.00  0.00    -0.012 N 
ATOM     14  C   UNL     1      39.080 135.193  16.337  1.00  0.00     0.076 C 
ATOM     15  H   UNL     1      40.704 131.439  18.306  1.00  0.00     0.527 HD
BRANCH  11  16
ATOM     16  C   UNL     1      42.917 132.031  16.782  1.00  0.00     0.116 A 
ATOM     17  C   UNL     1      43.244 131.693  15.469  1.00  0.00     0.042 A 
ATOM     18  C   UNL     1      43.805 131.721  17.833  1.00  0.00     0.012 A 
ATOM     19  C   UNL     1      44.470 131.103  15.162  1.00  0.00    -0.015 A 
ATOM     20  C   UNL     1      43.449 131.999  19.168  1.00  0.00     0.011 A 
ATOM     21  C   UNL     1      45.063 131.111  17.549  1.00  0.00    -0.008 A 
ATOM     22  C   UNL     1      44.778 130.820  13.821  1.00  0.00     0.009 A 
ATOM     23  C   UNL     1      45.405 130.810  16.194  1.00  0.00    -0.010 A 
ATOM     24  C   UNL     1      44.319 131.706  20.212  1.00  0.00     0.001 A 
ATOM     25  C   UNL     1      45.927 130.829  18.635  1.00  0.00     0.009 A 
ATOM     26  C   UNL     1      46.003 130.250  13.483  1.00  0.00     0.001 A 
ATOM     27  C   UNL     1      46.643 130.228  15.818  1.00  0.00     0.009 A 
ATOM     28  C   UNL     1      45.554 131.128  19.946  1.00  0.00     0.001 A 
ATOM     29  C   UNL     1      46.931 129.956  14.479  1.00  0.00     0.001 A 
ENDBRANCH  11  16
ENDBRANCH   8   9
ENDBRANCH   6   8
ENDBRANCH   1   6
TORSDOF 6
ENDMDL
MODEL 7
REMARK VINA RESULT:      -7.3      1.702      3.116
REMARK SMILES COC[C@@H](C)NCc1c(C)n[nH+]n1-c1cc2ccccc2c2ccccc12
REMARK SMILES IDX 4 1 5 2 3 3 2 4 1 5 6 6 7 8 8 9 9 10 13 11 11 12 12 13 10 14
REMARK SMILES IDX 14 16 15 17 27 18 16 19 26 20 22 21 17 22 21 23 25 24 23 25
REMARK SMILES IDX 18 26 20 27 24 28 19 29
REMARK H PARENT 6 7 12 15
ROOT
ATOM      1  C   UNL     1      39.812 134.871  14.891  1.00  0.00     0.076 C 
ATOM      2  C   UNL     1      40.370 136.130  14.222  1.00  0.00     0.027 C 
ENDROOT
BRANCH   1   3
ATOM      3  C   UNL     1      38.821 135.257  16.004  1.00  0.00     0.178 C 
BRANCH   3   4
ATOM      4  O   UNL     1      37.640 134.492  15.862  1.00  0.00    -0.383 OA
ATOM      5  C   UNL     1      37.042 134.771  14.617  1.00  0.00     0.194 C 
ENDBRANCH   3   4
ENDBRANCH   1   3
BRANCH   1   6
ATOM      6  N   UNL     1      40.938 134.077  15.430  1.00  0.00    -0.306 NA
ATOM      7  H   UNL     1      41.819 134.299  14.912  1.00  0.00     0.123 HD
BRANCH   6   8
ATOM      8  C   UNL     1      41.166 134.357  16.853  1.00  0.00     0.144 C 
BRANCH   8   9
ATOM      9  C   UNL     1      42.365 135.251  17.018  1.00  0.00     0.126 A 
ATOM     10  C   UNL     1      42.378 136.586  17.379  1.00  0.00     0.134 A 
ATOM     11  N   UNL     1      43.650 134.840  17.040  1.00  0.00    -0.099 N 
ATOM     12  N   UNL     1      43.658 136.949  17.619  1.00  0.00     0.020 NA
ATOM     13  N   UNL     1      44.396 135.870  17.404  1.00  0.00    -0.012 N 
ATOM     14  C   UNL     1      41.197 137.472  17.603  1.00  0.00     0.076 C 
ATOM     15  H   UNL     1      45.431 135.834  17.542  1.00  0.00     0.527 HD
BRANCH  11  16
ATOM     16  C   UNL     1      44.132 133.496  16.897  1.00  0.00     0.116 A 
ATOM     17  C   UNL     1      44.304 132.988  15.609  1.00  0.00     0.042 A 
ATOM     18  C   UNL     1      44.496 132.719  18.016  1.00  0.00     0.012 A 
ATOM     19  C   UNL     1      44.892 131.741  15.400  1.00  0.00    -0.015 A 
ATOM     20  C   UNL     1      44.260 133.200  19.320  1.00  0.00     0.011 A 
ATOM     21  C   UNL     1      45.094 131.436  17.832  1.00  0.00    -0.008 A 
ATOM     22  C   UNL     1      45.089 131.287  14.086  1.00  0.00     0.009 A 
ATOM     23  C   UNL     1      45.306 130.947  16.506  1.00  0.00    -0.010 A 
ATOM     24  C   UNL     1      44.624 132.448  20.432  1.00  0.00     0.001 A 
ATOM     25  C   UNL     1      45.455 130.699  18.986  1.00  0.00     0.009 A 
ATOM     26  C   UNL     1      45.692 130.055  13.847  1.00  0.00     0.001 A 
ATOM     27  C   UNL     1      45.915 129.696  16.231  1.00  0.00     0.009 A 
ATOM     28  C   UNL     1      45.223 131.205  20.265  1.00  0.00     0.001 A 
ATOM     29  C   UNL     1      46.103 129.264  14.916  1.00  0.00     0.001 A 
ENDBRANCH  11  16
ENDBRANCH   8   9
ENDBRANCH   6   8
ENDBRANCH   1   6
TORSDOF 6
ENDMDL
MODEL 8
REMARK VINA RESULT:      -7.2      2.470      7.144
REMARK SMILES COC[C@@H](C)NCc1c(C)n[nH+]n1-c1cc2ccccc2c2ccccc12
REMARK SMILES IDX 4 1 5 2 3 3 2 4 1 5 6 6 7 8 8 9 9 10 13 11 11 12 12 13 10 14
REMARK SMILES IDX 14 16 15 17 27 18 16 19 26 20 22 21 17 22 21 23 25 24 23 25
REMARK SMILES IDX 18 26 20 27 24 28 19 29
REMARK H PARENT 6 7 12 15
ROOT
ATOM      1  C   UNL     1      45.145 130.662  14.369  1.00  0.00     0.076 C 
ATOM      2  C   UNL     1      45.121 129.343  15.147  1.00  0.00     0.027 C 
ENDROOT
BRANCH   1   3
ATOM      3  C   UNL     1      46.359 131.507  14.797  1.00  0.00     0.178 C 
BRANCH   3   4
ATOM      4  O   UNL     1      47.269 131.595  13.718  1.00  0.00    -0.383 OA
ATOM      5  C   UNL     1      46.854 130.739  12.678  1.00  0.00     0.194 C 
ENDBRANCH   3   4
ENDBRANCH   1   3
BRANCH   1   6
ATOM      6  N   UNL     1      43.878 131.385  14.612  1.00  0.00    -0.306 NA
ATOM      7  H   UNL     1      43.216 130.785  15.156  1.00  0.00     0.123 HD
BRANCH   6   8
ATOM      8  C   UNL     1      44.098 132.622  15.373  1.00  0.00     0.144 C 
BRANCH   8   9
ATOM      9  C   UNL     1      43.271 132.608  16.630  1.00  0.00     0.126 A 
ATOM     10  C   UNL     1      43.625 132.096  17.866  1.00  0.00     0.134 A 
ATOM     11  N   UNL     1      42.118 133.283  16.816  1.00  0.00    -0.099 N 
ATOM     12  N   UNL     1      42.691 132.476  18.766  1.00  0.00     0.020 NA
ATOM     13  N   UNL     1      41.798 133.191  18.096  1.00  0.00    -0.012 N 
ATOM     14  C   UNL     1      44.875 131.358  18.212  1.00  0.00     0.076 C 
ATOM     15  H   UNL     1      40.970 133.650  18.536  1.00  0.00     0.527 HD
BRANCH  11  16
ATOM     16  C   UNL     1      41.444 134.124  15.867  1.00  0.00     0.116 A 
ATOM     17  C   UNL     1      40.384 133.583  15.140  1.00  0.00     0.042 A 
ATOM     18  C   UNL     1      41.784 135.484  15.714  1.00  0.00     0.012 A 
ATOM     19  C   UNL     1      39.605 134.381  14.302  1.00  0.00    -0.015 A 
ATOM     20  C   UNL     1      42.896 136.018  16.395  1.00  0.00     0.011 A 
ATOM     21  C   UNL     1      41.008 136.322  14.858  1.00  0.00    -0.008 A 
ATOM     22  C   UNL     1      38.518 133.805  13.624  1.00  0.00     0.009 A 
ATOM     23  C   UNL     1      39.896 135.766  14.153  1.00  0.00    -0.010 A 
ATOM     24  C   UNL     1      43.236 137.360  16.259  1.00  0.00     0.001 A 
ATOM     25  C   UNL     1      41.380 137.684  14.746  1.00  0.00     0.009 A 
ATOM     26  C   UNL     1      37.711 134.582  12.796  1.00  0.00     0.001 A 
ATOM     27  C   UNL     1      39.058 136.530  13.302  1.00  0.00     0.009 A 
ATOM     28  C   UNL     1      42.478 138.190  15.442  1.00  0.00     0.001 A 
ATOM     29  C   UNL     1      37.981 135.939  12.637  1.00  0.00     0.001 A 
ENDBRANCH  11  16
ENDBRANCH   8   9
ENDBRANCH   6   8
ENDBRANCH   1   6
TORSDOF 6
ENDMDL
MODEL 9
REMARK VINA RESULT:      -7.2      1.452      1.785
REMARK SMILES COC[C@@H](C)NCc1c(C)n[nH+]n1-c1cc2ccccc2c2ccccc12
REMARK SMILES IDX 4 1 5 2 3 3 2 4 1 5 6 6 7 8 8 9 9 10 13 11 11 12 12 13 10 14
REMARK SMILES IDX 14 16 15 17 27 18 16 19 26 20 22 21 17 22 21 23 25 24 23 25
REMARK SMILES IDX 18 26 20 27 24 28 19 29
REMARK H PARENT 6 7 12 15
ROOT
ATOM      1  C   UNL     1      44.093 136.822  17.679  1.00  0.00     0.076 C 
ATOM      2  C   UNL     1      44.356 135.986  18.935  1.00  0.00     0.027 C 
ENDROOT
BRANCH   1   3
ATOM      3  C   UNL     1      43.987 138.313  18.048  1.00  0.00     0.178 C 
BRANCH   3   4
ATOM      4  O   UNL     1      43.273 138.442  19.262  1.00  0.00    -0.383 OA
ATOM      5  C   UNL     1      43.670 139.624  19.920  1.00  0.00     0.194 C 
ENDBRANCH   3   4
ENDBRANCH   1   3
BRANCH   1   6
ATOM      6  N   UNL     1      42.852 136.341  17.034  1.00  0.00    -0.306 NA
ATOM      7  H   UNL     1      42.180 137.131  16.904  1.00  0.00     0.123 HD
BRANCH   6   8
ATOM      8  C   UNL     1      43.120 135.752  15.716  1.00  0.00     0.144 C 
BRANCH   8   9
ATOM      9  C   UNL     1      41.941 134.931  15.268  1.00  0.00     0.126 A 
ATOM     10  C   UNL     1      40.781 135.382  14.664  1.00  0.00     0.134 A 
ATOM     11  N   UNL     1      41.908 133.584  15.194  1.00  0.00    -0.099 N 
ATOM     12  N   UNL     1      40.081 134.309  14.234  1.00  0.00     0.020 NA
ATOM     13  N   UNL     1      40.792 133.242  14.571  1.00  0.00    -0.012 N 
ATOM     14  C   UNL     1      40.394 136.799  14.399  1.00  0.00     0.076 C 
ATOM     15  H   UNL     1      40.518 132.261  14.339  1.00  0.00     0.527 HD
BRANCH  11  16
ATOM     16  C   UNL     1      42.962 132.672  15.536  1.00  0.00     0.116 A 
ATOM     17  C   UNL     1      43.716 132.116  14.504  1.00  0.00     0.042 A 
ATOM     18  C   UNL     1      43.287 132.392  16.880  1.00  0.00     0.012 A 
ATOM     19  C   UNL     1      44.836 131.328  14.775  1.00  0.00    -0.015 A 
ATOM     20  C   UNL     1      42.487 132.897  17.924  1.00  0.00     0.011 A 
ATOM     21  C   UNL     1      44.423 131.584  17.186  1.00  0.00    -0.008 A 
ATOM     22  C   UNL     1      45.595 130.825  13.706  1.00  0.00     0.009 A 
ATOM     23  C   UNL     1      45.215 131.056  16.119  1.00  0.00    -0.010 A 
ATOM     24  C   UNL     1      42.803 132.635  19.253  1.00  0.00     0.001 A 
ATOM     25  C   UNL     1      44.718 131.340  18.550  1.00  0.00     0.009 A 
ATOM     26  C   UNL     1      46.728 130.053  13.947  1.00  0.00     0.001 A 
ATOM     27  C   UNL     1      46.373 130.265  16.332  1.00  0.00     0.009 A 
ATOM     28  C   UNL     1      43.916 131.864  19.564  1.00  0.00     0.001 A 
ATOM     29  C   UNL     1      47.115 129.775  15.255  1.00  0.00     0.001 A 
ENDBRANCH  11  16
ENDBRANCH   8   9
ENDBRANCH   6   8
ENDBRANCH   1   6
TORSDOF 6
ENDMDL


