REMARK SMILES [H]/N=C/N(C(=O)/C(C)=C\n1n[nH+]c(C)c1-c1c2ccccc2cc2c(N=[N+]=[N-])cccc12)C(O)=C1CC1
REMARK SMILES IDX 7 1 8 2 5 3 6 4 4 5 3 6 2 7 1 8 33 9 34 10 35 12 36 13 37 14
REMARK SMILES IDX 9 15 10 16 11 17 15 18 12 19 13 20 14 22 16 23 17 24 32 25
REMARK SMILES IDX 18 26 22 27 31 28 24 29 19 30 21 31 23 32 30 33 25 34 20 35
REMARK SMILES IDX 29 36 26 37 27 38 28 39
REMARK H PARENT 34 11 12 21
ROOT
ATOM      1  C   UNL     1       0.837  -3.294  -0.170  1.00  0.00     0.057 C 
ATOM      2  C   UNL     1       2.262  -3.699  -0.445  1.00  0.00     0.054 C 
ENDROOT
BRANCH   1   3
ATOM      3  C   UNL     1      -0.256  -4.177  -0.660  1.00  0.00     0.265 C 
ATOM      4  O   UNL     1      -0.049  -5.422  -0.684  1.00  0.00    -0.268 OA
BRANCH   3   5
ATOM      5  N   UNL     1      -1.526  -3.673  -1.132  1.00  0.00    -0.238 N 
BRANCH   5   6
ATOM      6  C   UNL     1      -2.690  -4.482  -0.877  1.00  0.00     0.201 C 
BRANCH   6   7
ATOM      7  N   UNL     1      -3.794  -4.302  -1.532  1.00  0.00    -0.291 NA
ATOM      8  H   UNL     1      -4.627  -4.904  -1.349  1.00  0.00     0.189 HD
ENDBRANCH   6   7
ENDBRANCH   5   6
BRANCH   5   9
ATOM      9  C   UNL     1      -1.658  -2.419  -1.843  1.00  0.00     0.198 C 
BRANCH   9  10
ATOM     10  O   UNL     1      -2.860  -1.715  -1.777  1.00  0.00    -0.494 OA
ATOM     11  H   UNL     1      -3.007  -0.865  -2.306  1.00  0.00     0.295 HD
ENDBRANCH   9  10
BRANCH   9  12
ATOM     12  C   UNL     1      -0.675  -1.935  -2.601  1.00  0.00    -0.009 C 
ATOM     13  C   UNL     1      -0.132  -0.863  -3.541  1.00  0.00     0.041 C 
ATOM     14  C   UNL     1       0.713  -1.968  -3.235  1.00  0.00     0.041 C 
ENDBRANCH   9  12
ENDBRANCH   5   9
ENDBRANCH   3   5
ENDBRANCH   1   3
BRANCH   1  15
ATOM     15  C   UNL     1       0.635  -2.175   0.553  1.00  0.00     0.242 C 
BRANCH  15  16
ATOM     16  N   UNL     1      -0.630  -1.787   1.114  1.00  0.00    -0.101 N 
ATOM     17  N   UNL     1      -1.594  -2.619   1.488  1.00  0.00     0.093 NA
ATOM     18  C   UNL     1      -0.976  -0.546   1.512  1.00  0.00     0.207 A 
ATOM     19  N   UNL     1      -2.567  -1.944   2.081  1.00  0.00    -0.147 N 
ATOM     20  C   UNL     1      -2.210  -0.646   2.119  1.00  0.00     0.170 A 
ATOM     21  H   UNL     1      -3.438  -2.373   2.463  1.00  0.00     0.342 HD
ATOM     22  C   UNL     1      -3.011   0.454   2.735  1.00  0.00     0.100 C 
BRANCH  18  23
ATOM     23  C   UNL     1      -0.143   0.674   1.376  1.00  0.00     0.044 A 
ATOM     24  C   UNL     1       0.904   0.922   2.299  1.00  0.00    -0.006 A 
ATOM     25  C   UNL     1      -0.377   1.583   0.311  1.00  0.00    -0.006 A 
ATOM     26  C   UNL     1       1.167   0.051   3.380  1.00  0.00     0.009 A 
ATOM     27  C   UNL     1       1.714   2.074   2.145  1.00  0.00    -0.017 A 
ATOM     28  C   UNL     1      -1.417   1.372  -0.618  1.00  0.00     0.009 A 
ATOM     29  C   UNL     1       0.451   2.729   0.163  1.00  0.00    -0.007 A 
ATOM     30  C   UNL     1       2.203   0.320   4.277  1.00  0.00     0.001 A 
ATOM     31  C   UNL     1       2.754   2.329   3.055  1.00  0.00     0.009 A 
ATOM     32  C   UNL     1       1.485   2.957   1.086  1.00  0.00     0.018 A 
ATOM     33  C   UNL     1      -1.622   2.255  -1.673  1.00  0.00     0.001 A 
ATOM     34  C   UNL     1       0.234   3.625  -0.913  1.00  0.00     0.045 A 
ATOM     35  C   UNL     1       2.996   1.454   4.113  1.00  0.00     0.001 A 
ATOM     36  C   UNL     1      -0.805   3.369  -1.826  1.00  0.00     0.011 A 
BRANCH  34  37
ATOM     37  N   UNL     1       1.071   4.785  -1.064  1.00  0.00    -0.060 NA
BRANCH  37  38
ATOM     38  N   UNL     1       0.948   5.574  -2.002  1.00  0.00     0.005 N 
ATOM     39  N   UNL     1       0.826   6.362  -2.941  1.00  0.00    -0.003 NA
ENDBRANCH  37  38
ENDBRANCH  34  37
ENDBRANCH  18  23
ENDBRANCH  15  16
ENDBRANCH   1  15
TORSDOF 12


