MODEL 1
REMARK VINA RESULT:      -7.1      0.000      0.000
REMARK SMILES C=C(C)/C(O)=[N+]1\C[C@@H]2CC[C@H](Oc3ccc4c5c(ccc(N=[N+]=[N-])c35)CC4)[C@@H]2C1
REMARK SMILES IDX 12 1 11 2 6 3 29 4 7 5 28 6 8 7 9 8 10 9 4 10 5 11 2 13 1 14
REMARK SMILES IDX 3 15 13 16 14 17 25 18 15 19 21 20 17 21 16 22 20 23 18 24
REMARK SMILES IDX 27 25 19 26 26 27 22 28 23 29 24 30
REMARK H PARENT 5 12
ROOT
ATOM      1  O   UNL     1      41.588 132.900  15.738  1.00  0.00    -0.489 OA
ENDROOT
BRANCH   1   2
ATOM      2  C   UNL     1      40.916 133.850  14.907  1.00  0.00     0.183 C 
ATOM      3  N   UNL     1      42.395 136.975  16.010  1.00  0.00    -0.198 N 
ATOM      4  C   UNL     1      42.598 135.538  15.896  1.00  0.00     0.362 C 
ATOM      5  C   UNL     1      41.407 137.470  15.060  1.00  0.00     0.358 C 
ATOM      6  C   UNL     1      41.779 135.090  14.674  1.00  0.00     0.105 C 
ATOM      7  C   UNL     1      40.801 136.228  14.402  1.00  0.00     0.068 C 
ATOM      8  C   UNL     1      39.454 135.792  15.011  1.00  0.00     0.014 C 
ATOM      9  C   UNL     1      39.643 134.379  15.555  1.00  0.00     0.046 C 
BRANCH   3  10
ATOM     10  C   UNL     1      42.989 137.698  16.928  1.00  0.00     0.362 C 
BRANCH  10  11
ATOM     11  O   UNL     1      43.204 139.058  16.697  1.00  0.00    -0.460 OA
ATOM     12  H   UNL     1      42.937 139.760  17.378  1.00  0.00     0.300 HD
ENDBRANCH  10  11
BRANCH  10  13
ATOM     13  C   UNL     1      43.463 137.114  18.207  1.00  0.00     0.053 C 
ATOM     14  C   UNL     1      44.771 136.934  18.403  1.00  0.00     0.023 C 
ATOM     15  C   UNL     1      42.490 136.747  19.291  1.00  0.00     0.055 C 
ENDBRANCH  10  13
ENDBRANCH   3  10
ENDBRANCH   1   2
BRANCH   1  16
ATOM     16  C   UNL     1      42.711 132.137  15.377  1.00  0.00     0.128 A 
ATOM     17  C   UNL     1      42.948 131.747  14.026  1.00  0.00     0.047 A 
ATOM     18  C   UNL     1      43.642 131.749  16.377  1.00  0.00     0.034 A 
ATOM     19  C   UNL     1      44.078 130.981  13.679  1.00  0.00     0.008 A 
ATOM     20  C   UNL     1      43.547 132.061  17.762  1.00  0.00     0.049 A 
ATOM     21  C   UNL     1      44.740 130.992  15.970  1.00  0.00    -0.008 A 
ATOM     22  C   UNL     1      44.968 130.612  14.686  1.00  0.00    -0.039 A 
ATOM     23  C   UNL     1      44.560 131.594  18.647  1.00  0.00     0.011 A 
ATOM     24  C   UNL     1      45.710 130.544  16.810  1.00  0.00    -0.039 A 
ATOM     25  C   UNL     1      46.228 129.813  14.588  1.00  0.00     0.041 C 
ATOM     26  C   UNL     1      45.646 130.834  18.171  1.00  0.00     0.005 A 
ATOM     27  C   UNL     1      46.741 129.765  16.056  1.00  0.00     0.041 C 
BRANCH  20  28
ATOM     28  N   UNL     1      42.443 132.836  18.254  1.00  0.00    -0.060 NA
BRANCH  28  29
ATOM     29  N   UNL     1      42.211 132.971  19.456  1.00  0.00     0.005 N 
ATOM     30  N   UNL     1      41.982 133.106  20.658  1.00  0.00    -0.003 NA
ENDBRANCH  28  29
ENDBRANCH  20  28
ENDBRANCH   1  16
TORSDOF 7
ENDMDL
MODEL 2
REMARK VINA RESULT:      -7.1      1.872      3.526
REMARK SMILES C=C(C)/C(O)=[N+]1\C[C@@H]2CC[C@H](Oc3ccc4c5c(ccc(N=[N+]=[N-])c35)CC4)[C@@H]2C1
REMARK SMILES IDX 12 1 11 2 6 3 29 4 7 5 28 6 8 7 9 8 10 9 4 10 5 11 2 13 1 14
REMARK SMILES IDX 3 15 13 16 14 17 25 18 15 19 21 20 17 21 16 22 20 23 18 24
REMARK SMILES IDX 27 25 19 26 26 27 22 28 23 29 24 30
REMARK H PARENT 5 12
ROOT
ATOM      1  O   UNL     1      41.932 133.164  17.287  1.00  0.00    -0.489 OA
ENDROOT
BRANCH   1   2
ATOM      2  C   UNL     1      42.051 134.538  17.666  1.00  0.00     0.183 C 
ATOM      3  N   UNL     1      39.521 136.103  15.588  1.00  0.00    -0.198 N 
ATOM      4  C   UNL     1      39.930 134.865  16.234  1.00  0.00     0.362 C 
ATOM      5  C   UNL     1      40.104 137.277  16.226  1.00  0.00     0.358 C 
ATOM      6  C   UNL     1      40.728 135.281  17.481  1.00  0.00     0.105 C 
ATOM      7  C   UNL     1      41.104 136.741  17.254  1.00  0.00     0.068 C 
ATOM      8  C   UNL     1      42.565 136.739  16.764  1.00  0.00     0.014 C 
ATOM      9  C   UNL     1      43.045 135.291  16.790  1.00  0.00     0.046 C 
BRANCH   3  10
ATOM     10  C   UNL     1      38.779 136.121  14.508  1.00  0.00     0.362 C 
BRANCH  10  11
ATOM     11  O   UNL     1      38.960 137.137  13.568  1.00  0.00    -0.460 OA
ATOM     12  H   UNL     1      39.327 136.944  12.643  1.00  0.00     0.300 HD
ENDBRANCH  10  11
BRANCH  10  13
ATOM     13  C   UNL     1      37.730 135.102  14.255  1.00  0.00     0.053 C 
ATOM     14  C   UNL     1      36.607 135.121  14.976  1.00  0.00     0.023 C 
ATOM     15  C   UNL     1      37.908 134.067  13.182  1.00  0.00     0.055 C 
ENDBRANCH  10  13
ENDBRANCH   3  10
ENDBRANCH   1   2
BRANCH   1  16
ATOM     16  C   UNL     1      42.712 132.505  16.323  1.00  0.00     0.128 A 
ATOM     17  C   UNL     1      42.399 132.570  14.934  1.00  0.00     0.047 A 
ATOM     18  C   UNL     1      43.848 131.759  16.737  1.00  0.00     0.034 A 
ATOM     19  C   UNL     1      43.191 131.902  13.979  1.00  0.00     0.008 A 
ATOM     20  C   UNL     1      44.291 131.601  18.079  1.00  0.00     0.049 A 
ATOM     21  C   UNL     1      44.591 131.120  15.743  1.00  0.00    -0.008 A 
ATOM     22  C   UNL     1      44.294 131.175  14.419  1.00  0.00    -0.039 A 
ATOM     23  C   UNL     1      45.449 130.814  18.338  1.00  0.00     0.011 A 
ATOM     24  C   UNL     1      45.697 130.368  15.984  1.00  0.00    -0.039 A 
ATOM     25  C   UNL     1      45.286 130.385  13.624  1.00  0.00     0.041 C 
ATOM     26  C   UNL     1      46.156 130.196  17.288  1.00  0.00     0.005 A 
ATOM     27  C   UNL     1      46.255 129.828  14.705  1.00  0.00     0.041 C 
BRANCH  20  28
ATOM     28  N   UNL     1      43.575 132.228  19.154  1.00  0.00    -0.060 NA
BRANCH  28  29
ATOM     29  N   UNL     1      43.369 131.666  20.231  1.00  0.00     0.005 N 
ATOM     30  N   UNL     1      43.166 131.106  21.308  1.00  0.00    -0.003 NA
ENDBRANCH  28  29
ENDBRANCH  20  28
ENDBRANCH   1  16
TORSDOF 7
ENDMDL
MODEL 3
REMARK VINA RESULT:      -6.8      2.535      7.324
REMARK SMILES C=C(C)/C(O)=[N+]1\C[C@@H]2CC[C@H](Oc3ccc4c5c(ccc(N=[N+]=[N-])c35)CC4)[C@@H]2C1
REMARK SMILES IDX 12 1 11 2 6 3 29 4 7 5 28 6 8 7 9 8 10 9 4 10 5 11 2 13 1 14
REMARK SMILES IDX 3 15 13 16 14 17 25 18 15 19 21 20 17 21 16 22 20 23 18 24
REMARK SMILES IDX 27 25 19 26 26 27 22 28 23 29 24 30
REMARK H PARENT 5 12
ROOT
ATOM      1  O   UNL     1      42.818 134.101  15.921  1.00  0.00    -0.489 OA
ENDROOT
BRANCH   1   2
ATOM      2  C   UNL     1      43.254 133.670  17.213  1.00  0.00     0.183 C 
ATOM      3  N   UNL     1      45.439 130.898  16.372  1.00  0.00    -0.198 N 
ATOM      4  C   UNL     1      44.864 132.146  15.893  1.00  0.00     0.362 C 
ATOM      5  C   UNL     1      45.466 130.825  17.827  1.00  0.00     0.358 C 
ATOM      6  C   UNL     1      44.632 133.012  17.142  1.00  0.00     0.105 C 
ATOM      7  C   UNL     1      44.689 132.048  18.322  1.00  0.00     0.068 C 
ATOM      8  C   UNL     1      43.226 131.746  18.703  1.00  0.00     0.014 C 
ATOM      9  C   UNL     1      42.341 132.599  17.798  1.00  0.00     0.046 C 
BRANCH   3  10
ATOM     10  C   UNL     1      45.806 129.936  15.561  1.00  0.00     0.362 C 
BRANCH  10  11
ATOM     11  O   UNL     1      45.217 128.676  15.681  1.00  0.00    -0.460 OA
ATOM     12  H   UNL     1      45.667 127.844  15.317  1.00  0.00     0.300 HD
ENDBRANCH  10  11
BRANCH  10  13
ATOM     13  C   UNL     1      46.847 130.134  14.523  1.00  0.00     0.053 C 
ATOM     14  C   UNL     1      47.505 129.077  14.040  1.00  0.00     0.023 C 
ATOM     15  C   UNL     1      47.153 131.505  13.993  1.00  0.00     0.055 C 
ENDBRANCH  10  13
ENDBRANCH   3  10
ENDBRANCH   1   2
BRANCH   1  16
ATOM     16  C   UNL     1      42.433 135.407  15.574  1.00  0.00     0.128 A 
ATOM     17  C   UNL     1      43.233 136.538  15.910  1.00  0.00     0.047 A 
ATOM     18  C   UNL     1      41.221 135.610  14.862  1.00  0.00     0.034 A 
ATOM     19  C   UNL     1      42.833 137.841  15.556  1.00  0.00     0.008 A 
ATOM     20  C   UNL     1      40.319 134.589  14.453  1.00  0.00     0.049 A 
ATOM     21  C   UNL     1      40.880 136.924  14.541  1.00  0.00    -0.008 A 
ATOM     22  C   UNL     1      41.636 138.006  14.864  1.00  0.00    -0.039 A 
ATOM     23  C   UNL     1      39.136 134.951  13.749  1.00  0.00     0.011 A 
ATOM     24  C   UNL     1      39.753 137.276  13.868  1.00  0.00    -0.039 A 
ATOM     25  C   UNL     1      40.991 139.264  14.374  1.00  0.00     0.041 C 
ATOM     26  C   UNL     1      38.851 136.299  13.454  1.00  0.00     0.005 A 
ATOM     27  C   UNL     1      39.690 138.760  13.687  1.00  0.00     0.041 C 
BRANCH  20  28
ATOM     28  N   UNL     1      40.604 133.213  14.750  1.00  0.00    -0.060 NA
BRANCH  28  29
ATOM     29  N   UNL     1      41.424 132.553  14.110  1.00  0.00     0.005 N 
ATOM     30  N   UNL     1      42.242 131.892  13.471  1.00  0.00    -0.003 NA
ENDBRANCH  28  29
ENDBRANCH  20  28
ENDBRANCH   1  16
TORSDOF 7
ENDMDL
MODEL 4
REMARK VINA RESULT:      -6.8      2.334      4.388
REMARK SMILES C=C(C)/C(O)=[N+]1\C[C@@H]2CC[C@H](Oc3ccc4c5c(ccc(N=[N+]=[N-])c35)CC4)[C@@H]2C1
REMARK SMILES IDX 12 1 11 2 6 3 29 4 7 5 28 6 8 7 9 8 10 9 4 10 5 11 2 13 1 14
REMARK SMILES IDX 3 15 13 16 14 17 25 18 15 19 21 20 17 21 16 22 20 23 18 24
REMARK SMILES IDX 27 25 19 26 26 27 22 28 23 29 24 30
REMARK H PARENT 5 12
ROOT
ATOM      1  O   UNL     1      42.485 132.993  18.054  1.00  0.00    -0.489 OA
ENDROOT
BRANCH   1   2
ATOM      2  C   UNL     1      42.594 134.179  18.845  1.00  0.00     0.183 C 
ATOM      3  N   UNL     1      39.545 135.939  17.965  1.00  0.00    -0.198 N 
ATOM      4  C   UNL     1      40.180 134.632  18.058  1.00  0.00     0.362 C 
ATOM      5  C   UNL     1      40.178 136.923  18.834  1.00  0.00     0.358 C 
ATOM      6  C   UNL     1      41.216 134.745  19.188  1.00  0.00     0.105 C 
ATOM      7  C   UNL     1      41.426 136.240  19.400  1.00  0.00     0.068 C 
ATOM      8  C   UNL     1      42.728 136.602  18.659  1.00  0.00     0.014 C 
ATOM      9  C   UNL     1      43.301 135.304  18.098  1.00  0.00     0.046 C 
BRANCH   3  10
ATOM     10  C   UNL     1      38.571 136.190  17.124  1.00  0.00     0.362 C 
BRANCH  10  11
ATOM     11  O   UNL     1      38.585 137.379  16.393  1.00  0.00    -0.460 OA
ATOM     12  H   UNL     1      38.201 137.430  15.456  1.00  0.00     0.300 HD
ENDBRANCH  10  11
BRANCH  10  13
ATOM     13  C   UNL     1      37.434 135.256  16.934  1.00  0.00     0.053 C 
ATOM     14  C   UNL     1      37.175 134.773  15.717  1.00  0.00     0.023 C 
ATOM     15  C   UNL     1      36.588 134.830  18.099  1.00  0.00     0.055 C 
ENDBRANCH  10  13
ENDBRANCH   3  10
ENDBRANCH   1   2
BRANCH   1  16
ATOM     16  C   UNL     1      43.551 132.177  17.641  1.00  0.00     0.128 A 
ATOM     17  C   UNL     1      44.527 131.697  18.562  1.00  0.00     0.047 A 
ATOM     18  C   UNL     1      43.660 131.810  16.273  1.00  0.00     0.034 A 
ATOM     19  C   UNL     1      45.591 130.880  18.133  1.00  0.00     0.008 A 
ATOM     20  C   UNL     1      42.768 132.205  15.237  1.00  0.00     0.049 A 
ATOM     21  C   UNL     1      44.736 131.000  15.911  1.00  0.00    -0.008 A 
ATOM     22  C   UNL     1      45.672 130.544  16.784  1.00  0.00    -0.039 A 
ATOM     23  C   UNL     1      43.014 131.760  13.907  1.00  0.00     0.011 A 
ATOM     24  C   UNL     1      44.975 130.572  14.643  1.00  0.00    -0.039 A 
ATOM     25  C   UNL     1      46.686 129.702  16.076  1.00  0.00     0.041 C 
ATOM     26  C   UNL     1      44.119 130.941  13.607  1.00  0.00     0.005 A 
ATOM     27  C   UNL     1      46.205 129.722  14.598  1.00  0.00     0.041 C 
BRANCH  20  28
ATOM     28  N   UNL     1      41.639 133.040  15.535  1.00  0.00    -0.060 NA
BRANCH  28  29
ATOM     29  N   UNL     1      40.774 133.308  14.700  1.00  0.00     0.005 N 
ATOM     30  N   UNL     1      39.911 133.576  13.865  1.00  0.00    -0.003 NA
ENDBRANCH  28  29
ENDBRANCH  20  28
ENDBRANCH   1  16
TORSDOF 7
ENDMDL
MODEL 5
REMARK VINA RESULT:      -6.7      2.628      6.428
REMARK SMILES C=C(C)/C(O)=[N+]1\C[C@@H]2CC[C@H](Oc3ccc4c5c(ccc(N=[N+]=[N-])c35)CC4)[C@@H]2C1
REMARK SMILES IDX 12 1 11 2 6 3 29 4 7 5 28 6 8 7 9 8 10 9 4 10 5 11 2 13 1 14
REMARK SMILES IDX 3 15 13 16 14 17 25 18 15 19 21 20 17 21 16 22 20 23 18 24
REMARK SMILES IDX 27 25 19 26 26 27 22 28 23 29 24 30
REMARK H PARENT 5 12
ROOT
ATOM      1  O   UNL     1      42.103 133.404  16.471  1.00  0.00    -0.489 OA
ENDROOT
BRANCH   1   2
ATOM      2  C   UNL     1      43.131 132.650  15.822  1.00  0.00     0.183 C 
ATOM      3  N   UNL     1      44.930 131.262  18.652  1.00  0.00    -0.198 N 
ATOM      4  C   UNL     1      43.647 131.774  18.193  1.00  0.00     0.362 C 
ATOM      5  C   UNL     1      45.760 130.789  17.551  1.00  0.00     0.358 C 
ATOM      6  C   UNL     1      43.585 131.474  16.687  1.00  0.00     0.105 C 
ATOM      7  C   UNL     1      45.023 131.187  16.270  1.00  0.00     0.068 C 
ATOM      8  C   UNL     1      45.551 132.483  15.623  1.00  0.00     0.014 C 
ATOM      9  C   UNL     1      44.392 133.476  15.597  1.00  0.00     0.046 C 
BRANCH   3  10
ATOM     10  C   UNL     1      45.298 131.312  19.909  1.00  0.00     0.362 C 
BRANCH  10  11
ATOM     11  O   UNL     1      46.532 130.776  20.284  1.00  0.00    -0.460 OA
ATOM     12  H   UNL     1      46.861 129.893  19.911  1.00  0.00     0.300 HD
ENDBRANCH  10  11
BRANCH  10  13
ATOM     13  C   UNL     1      44.435 131.902  20.960  1.00  0.00     0.053 C 
ATOM     14  C   UNL     1      43.490 131.154  21.534  1.00  0.00     0.023 C 
ATOM     15  C   UNL     1      44.628 133.324  21.403  1.00  0.00     0.055 C 
ENDBRANCH  10  13
ENDBRANCH   3  10
ENDBRANCH   1   2
BRANCH   1  16
ATOM     16  C   UNL     1      40.865 133.760  15.912  1.00  0.00     0.128 A 
ATOM     17  C   UNL     1      40.635 133.705  14.506  1.00  0.00     0.047 A 
ATOM     18  C   UNL     1      39.809 134.179  16.765  1.00  0.00     0.034 A 
ATOM     19  C   UNL     1      39.387 134.067  13.960  1.00  0.00     0.008 A 
ATOM     20  C   UNL     1      39.882 134.284  18.182  1.00  0.00     0.049 A 
ATOM     21  C   UNL     1      38.599 134.524  16.163  1.00  0.00    -0.008 A 
ATOM     22  C   UNL     1      38.376 134.479  14.824  1.00  0.00    -0.039 A 
ATOM     23  C   UNL     1      38.736 134.727  18.902  1.00  0.00     0.011 A 
ATOM     24  C   UNL     1      37.502 134.947  16.846  1.00  0.00    -0.039 A 
ATOM     25  C   UNL     1      36.978 134.910  14.509  1.00  0.00     0.041 C 
ATOM     26  C   UNL     1      37.542 135.059  18.234  1.00  0.00     0.005 A 
ATOM     27  C   UNL     1      36.375 135.234  15.905  1.00  0.00     0.041 C 
BRANCH  20  28
ATOM     28  N   UNL     1      41.096 133.947  18.870  1.00  0.00    -0.060 NA
BRANCH  28  29
ATOM     29  N   UNL     1      41.176 133.920  20.099  1.00  0.00     0.005 N 
ATOM     30  N   UNL     1      41.259 133.891  21.326  1.00  0.00    -0.003 NA
ENDBRANCH  28  29
ENDBRANCH  20  28
ENDBRANCH   1  16
TORSDOF 7
ENDMDL
MODEL 6
REMARK VINA RESULT:      -6.7      3.010      5.484
REMARK SMILES C=C(C)/C(O)=[N+]1\C[C@@H]2CC[C@H](Oc3ccc4c5c(ccc(N=[N+]=[N-])c35)CC4)[C@@H]2C1
REMARK SMILES IDX 12 1 11 2 6 3 29 4 7 5 28 6 8 7 9 8 10 9 4 10 5 11 2 13 1 14
REMARK SMILES IDX 3 15 13 16 14 17 25 18 15 19 21 20 17 21 16 22 20 23 18 24
REMARK SMILES IDX 27 25 19 26 26 27 22 28 23 29 24 30
REMARK H PARENT 5 12
ROOT
ATOM      1  O   UNL     1      43.880 131.977  19.228  1.00  0.00    -0.489 OA
ENDROOT
BRANCH   1   2
ATOM      2  C   UNL     1      44.362 131.912  20.573  1.00  0.00     0.183 C 
ATOM      3  N   UNL     1      41.761 133.682  22.380  1.00  0.00    -0.198 N 
ATOM      4  C   UNL     1      42.061 132.903  21.188  1.00  0.00     0.362 C 
ATOM      5  C   UNL     1      42.707 133.427  23.459  1.00  0.00     0.358 C 
ATOM      6  C   UNL     1      43.210 131.960  21.577  1.00  0.00     0.105 C 
ATOM      7  C   UNL     1      43.803 132.545  22.855  1.00  0.00     0.068 C 
ATOM      8  C   UNL     1      45.065 133.320  22.429  1.00  0.00     0.014 C 
ATOM      9  C   UNL     1      45.237 133.108  20.927  1.00  0.00     0.046 C 
BRANCH   3  10
ATOM     10  C   UNL     1      40.792 134.565  22.418  1.00  0.00     0.362 C 
BRANCH  10  11
ATOM     11  O   UNL     1      39.468 134.134  22.313  1.00  0.00    -0.460 OA
ATOM     12  H   UNL     1      39.002 133.661  23.078  1.00  0.00     0.300 HD
ENDBRANCH  10  11
BRANCH  10  13
ATOM     13  C   UNL     1      41.055 136.019  22.548  1.00  0.00     0.053 C 
ATOM     14  C   UNL     1      41.843 136.628  21.659  1.00  0.00     0.023 C 
ATOM     15  C   UNL     1      40.425 136.816  23.654  1.00  0.00     0.055 C 
ENDBRANCH  10  13
ENDBRANCH   3  10
ENDBRANCH   1   2
BRANCH   1  16
ATOM     16  C   UNL     1      44.513 131.435  18.098  1.00  0.00     0.128 A 
ATOM     17  C   UNL     1      45.696 130.646  18.209  1.00  0.00     0.047 A 
ATOM     18  C   UNL     1      43.961 131.668  16.810  1.00  0.00     0.034 A 
ATOM     19  C   UNL     1      46.320 130.109  17.066  1.00  0.00     0.008 A 
ATOM     20  C   UNL     1      42.791 132.428  16.536  1.00  0.00     0.049 A 
ATOM     21  C   UNL     1      44.627 131.110  15.718  1.00  0.00    -0.008 A 
ATOM     22  C   UNL     1      45.756 130.362  15.818  1.00  0.00    -0.039 A 
ATOM     23  C   UNL     1      42.363 132.578  15.186  1.00  0.00     0.011 A 
ATOM     24  C   UNL     1      44.223 131.250  14.428  1.00  0.00    -0.039 A 
ATOM     25  C   UNL     1      46.213 129.916  14.465  1.00  0.00     0.041 C 
ATOM     26  C   UNL     1      43.080 131.988  14.128  1.00  0.00     0.005 A 
ATOM     27  C   UNL     1      45.155 130.529  13.505  1.00  0.00     0.041 C 
BRANCH  20  28
ATOM     28  N   UNL     1      42.055 133.034  17.610  1.00  0.00    -0.060 NA
BRANCH  28  29
ATOM     29  N   UNL     1      40.823 133.054  17.642  1.00  0.00     0.005 N 
ATOM     30  N   UNL     1      39.594 133.076  17.671  1.00  0.00    -0.003 NA
ENDBRANCH  28  29
ENDBRANCH  20  28
ENDBRANCH   1  16
TORSDOF 7
ENDMDL
MODEL 7
REMARK VINA RESULT:      -6.7      0.983      1.205
REMARK SMILES C=C(C)/C(O)=[N+]1\C[C@@H]2CC[C@H](Oc3ccc4c5c(ccc(N=[N+]=[N-])c35)CC4)[C@@H]2C1
REMARK SMILES IDX 12 1 11 2 6 3 29 4 7 5 28 6 8 7 9 8 10 9 4 10 5 11 2 13 1 14
REMARK SMILES IDX 3 15 13 16 14 17 25 18 15 19 21 20 17 21 16 22 20 23 18 24
REMARK SMILES IDX 27 25 19 26 26 27 22 28 23 29 24 30
REMARK H PARENT 5 12
ROOT
ATOM      1  O   UNL     1      41.770 132.875  16.373  1.00  0.00    -0.489 OA
ENDROOT
BRANCH   1   2
ATOM      2  C   UNL     1      40.925 133.905  15.853  1.00  0.00     0.183 C 
ATOM      3  N   UNL     1      42.547 136.899  17.108  1.00  0.00    -0.198 N 
ATOM      4  C   UNL     1      42.746 135.506  16.734  1.00  0.00     0.362 C 
ATOM      5  C   UNL     1      41.376 137.482  16.465  1.00  0.00     0.358 C 
ATOM      6  C   UNL     1      41.701 135.207  15.647  1.00  0.00     0.105 C 
ATOM      7  C   UNL     1      40.668 136.323  15.757  1.00  0.00     0.068 C 
ATOM      8  C   UNL     1      39.482 135.737  16.549  1.00  0.00     0.014 C 
ATOM      9  C   UNL     1      39.804 134.270  16.818  1.00  0.00     0.046 C 
BRANCH   3  10
ATOM     10  C   UNL     1      43.304 137.505  17.990  1.00  0.00     0.362 C 
BRANCH  10  11
ATOM     11  O   UNL     1      43.898 138.725  17.660  1.00  0.00    -0.460 OA
ATOM     12  H   UNL     1      44.639 139.123  18.226  1.00  0.00     0.300 HD
ENDBRANCH  10  11
BRANCH  10  13
ATOM     13  C   UNL     1      43.573 136.927  19.329  1.00  0.00     0.053 C 
ATOM     14  C   UNL     1      42.556 136.692  20.161  1.00  0.00     0.023 C 
ATOM     15  C   UNL     1      44.973 136.581  19.748  1.00  0.00     0.055 C 
ENDBRANCH  10  13
ENDBRANCH   3  10
ENDBRANCH   1   2
BRANCH   1  16
ATOM     16  C   UNL     1      42.751 132.172  15.655  1.00  0.00     0.128 A 
ATOM     17  C   UNL     1      42.670 132.008  14.242  1.00  0.00     0.047 A 
ATOM     18  C   UNL     1      43.858 131.615  16.349  1.00  0.00     0.034 A 
ATOM     19  C   UNL     1      43.661 131.299  13.535  1.00  0.00     0.008 A 
ATOM     20  C   UNL     1      44.082 131.696  17.752  1.00  0.00     0.049 A 
ATOM     21  C   UNL     1      44.806 130.925  15.593  1.00  0.00    -0.008 A 
ATOM     22  C   UNL     1      44.731 130.760  14.247  1.00  0.00    -0.039 A 
ATOM     23  C   UNL     1      45.240 131.079  18.304  1.00  0.00     0.011 A 
ATOM     24  C   UNL     1      45.913 130.335  16.115  1.00  0.00    -0.039 A 
ATOM     25  C   UNL     1      45.902 129.976  13.746  1.00  0.00     0.041 C 
ATOM     26  C   UNL     1      46.160 130.397  17.484  1.00  0.00     0.005 A 
ATOM     27  C   UNL     1      46.718 129.681  15.036  1.00  0.00     0.041 C 
BRANCH  20  28
ATOM     28  N   UNL     1      43.148 132.390  18.593  1.00  0.00    -0.060 NA
BRANCH  28  29
ATOM     29  N   UNL     1      43.464 132.862  19.686  1.00  0.00     0.005 N 
ATOM     30  N   UNL     1      43.778 133.332  20.779  1.00  0.00    -0.003 NA
ENDBRANCH  28  29
ENDBRANCH  20  28
ENDBRANCH   1  16
TORSDOF 7
ENDMDL
MODEL 8
REMARK VINA RESULT:      -6.7      2.813      5.030
REMARK SMILES C=C(C)/C(O)=[N+]1\C[C@@H]2CC[C@H](Oc3ccc4c5c(ccc(N=[N+]=[N-])c35)CC4)[C@@H]2C1
REMARK SMILES IDX 12 1 11 2 6 3 29 4 7 5 28 6 8 7 9 8 10 9 4 10 5 11 2 13 1 14
REMARK SMILES IDX 3 15 13 16 14 17 25 18 15 19 21 20 17 21 16 22 20 23 18 24
REMARK SMILES IDX 27 25 19 26 26 27 22 28 23 29 24 30
REMARK H PARENT 5 12
ROOT
ATOM      1  O   UNL     1      43.621 132.286  19.150  1.00  0.00    -0.489 OA
ENDROOT
BRANCH   1   2
ATOM      2  C   UNL     1      44.197 133.164  20.121  1.00  0.00     0.183 C 
ATOM      3  N   UNL     1      41.247 134.481  21.772  1.00  0.00    -0.198 N 
ATOM      4  C   UNL     1      41.786 133.360  21.016  1.00  0.00     0.362 C 
ATOM      5  C   UNL     1      42.290 135.249  22.440  1.00  0.00     0.358 C 
ATOM      6  C   UNL     1      43.288 133.315  21.341  1.00  0.00     0.105 C 
ATOM      7  C   UNL     1      43.618 134.680  21.934  1.00  0.00     0.068 C 
ATOM      8  C   UNL     1      44.256 135.501  20.797  1.00  0.00     0.014 C 
ATOM      9  C   UNL     1      44.365 134.580  19.584  1.00  0.00     0.046 C 
BRANCH   3  10
ATOM     10  C   UNL     1      39.972 134.786  21.764  1.00  0.00     0.362 C 
BRANCH  10  11
ATOM     11  O   UNL     1      39.070 133.983  22.464  1.00  0.00    -0.460 OA
ATOM     12  H   UNL     1      39.385 133.208  23.037  1.00  0.00     0.300 HD
ENDBRANCH  10  11
BRANCH  10  13
ATOM     13  C   UNL     1      39.445 135.952  21.014  1.00  0.00     0.053 C 
ATOM     14  C   UNL     1      39.700 136.066  19.708  1.00  0.00     0.023 C 
ATOM     15  C   UNL     1      38.608 136.993  21.702  1.00  0.00     0.055 C 
ENDBRANCH  10  13
ENDBRANCH   3  10
ENDBRANCH   1   2
BRANCH   1  16
ATOM     16  C   UNL     1      44.308 131.655  18.100  1.00  0.00     0.128 A 
ATOM     17  C   UNL     1      45.462 130.853  18.334  1.00  0.00     0.047 A 
ATOM     18  C   UNL     1      43.838 131.810  16.767  1.00  0.00     0.034 A 
ATOM     19  C   UNL     1      46.140 130.227  17.270  1.00  0.00     0.008 A 
ATOM     20  C   UNL     1      42.704 132.572  16.373  1.00  0.00     0.049 A 
ATOM     21  C   UNL     1      44.553 131.165  15.758  1.00  0.00    -0.008 A 
ATOM     22  C   UNL     1      45.657 130.404  15.976  1.00  0.00    -0.039 A 
ATOM     23  C   UNL     1      42.361 132.638  14.992  1.00  0.00     0.011 A 
ATOM     24  C   UNL     1      44.230 131.224  14.439  1.00  0.00    -0.039 A 
ATOM     25  C   UNL     1      46.182 129.857  14.686  1.00  0.00     0.041 C 
ATOM     26  C   UNL     1      43.125 131.962  14.022  1.00  0.00     0.005 A 
ATOM     27  C   UNL     1      45.197 130.423  13.625  1.00  0.00     0.041 C 
BRANCH  20  28
ATOM     28  N   UNL     1      41.921 133.264  17.357  1.00  0.00    -0.060 NA
BRANCH  28  29
ATOM     29  N   UNL     1      40.710 133.079  17.492  1.00  0.00     0.005 N 
ATOM     30  N   UNL     1      39.501 132.891  17.623  1.00  0.00    -0.003 NA
ENDBRANCH  28  29
ENDBRANCH  20  28
ENDBRANCH   1  16
TORSDOF 7
ENDMDL
MODEL 9
REMARK VINA RESULT:      -6.7      3.631      6.337
REMARK SMILES C=C(C)/C(O)=[N+]1\C[C@@H]2CC[C@H](Oc3ccc4c5c(ccc(N=[N+]=[N-])c35)CC4)[C@@H]2C1
REMARK SMILES IDX 12 1 11 2 6 3 29 4 7 5 28 6 8 7 9 8 10 9 4 10 5 11 2 13 1 14
REMARK SMILES IDX 3 15 13 16 14 17 25 18 15 19 21 20 17 21 16 22 20 23 18 24
REMARK SMILES IDX 27 25 19 26 26 27 22 28 23 29 24 30
REMARK H PARENT 5 12
ROOT
ATOM      1  O   UNL     1      43.739 132.087  19.079  1.00  0.00    -0.489 OA
ENDROOT
BRANCH   1   2
ATOM      2  C   UNL     1      44.170 133.236  19.812  1.00  0.00     0.183 C 
ATOM      3  N   UNL     1      45.039 131.784  23.022  1.00  0.00    -0.198 N 
ATOM      4  C   UNL     1      44.897 131.522  21.597  1.00  0.00     0.362 C 
ATOM      5  C   UNL     1      45.250 133.198  23.305  1.00  0.00     0.358 C 
ATOM      6  C   UNL     1      45.185 132.857  20.891  1.00  0.00     0.105 C 
ATOM      7  C   UNL     1      45.055 133.925  21.972  1.00  0.00     0.068 C 
ATOM      8  C   UNL     1      43.657 134.548  21.797  1.00  0.00     0.014 C 
ATOM      9  C   UNL     1      43.024 133.895  20.571  1.00  0.00     0.046 C 
BRANCH   3  10
ATOM     10  C   UNL     1      44.904 130.845  23.926  1.00  0.00     0.362 C 
BRANCH  10  11
ATOM     11  O   UNL     1      46.039 130.340  24.565  1.00  0.00    -0.460 OA
ATOM     12  H   UNL     1      46.363 130.721  25.447  1.00  0.00     0.300 HD
ENDBRANCH  10  11
BRANCH  10  13
ATOM     13  C   UNL     1      43.581 130.278  24.284  1.00  0.00     0.053 C 
ATOM     14  C   UNL     1      43.422 128.953  24.328  1.00  0.00     0.023 C 
ATOM     15  C   UNL     1      42.426 131.178  24.620  1.00  0.00     0.055 C 
ENDBRANCH  10  13
ENDBRANCH   3  10
ENDBRANCH   1   2
BRANCH   1  16
ATOM     16  C   UNL     1      44.419 131.493  18.003  1.00  0.00     0.128 A 
ATOM     17  C   UNL     1      45.576 130.685  18.203  1.00  0.00     0.047 A 
ATOM     18  C   UNL     1      43.941 131.692  16.680  1.00  0.00     0.034 A 
ATOM     19  C   UNL     1      46.249 130.096  17.115  1.00  0.00     0.008 A 
ATOM     20  C   UNL     1      42.803 132.466  16.318  1.00  0.00     0.049 A 
ATOM     21  C   UNL     1      44.651 131.083  15.645  1.00  0.00    -0.008 A 
ATOM     22  C   UNL     1      45.757 130.317  15.830  1.00  0.00    -0.039 A 
ATOM     23  C   UNL     1      42.452 132.577  14.943  1.00  0.00     0.011 A 
ATOM     24  C   UNL     1      44.320 131.185  14.331  1.00  0.00    -0.039 A 
ATOM     25  C   UNL     1      46.275 129.815  14.519  1.00  0.00     0.041 C 
ATOM     26  C   UNL     1      43.211 131.935  13.945  1.00  0.00     0.005 A 
ATOM     27  C   UNL     1      45.282 130.415  13.484  1.00  0.00     0.041 C 
BRANCH  20  28
ATOM     28  N   UNL     1      42.026 133.123  17.330  1.00  0.00    -0.060 NA
BRANCH  28  29
ATOM     29  N   UNL     1      41.504 134.225  17.155  1.00  0.00     0.005 N 
ATOM     30  N   UNL     1      40.986 135.327  16.978  1.00  0.00    -0.003 NA
ENDBRANCH  28  29
ENDBRANCH  20  28
ENDBRANCH   1  16
TORSDOF 7
ENDMDL


