REMARK SMILES C#CCO/C([O-])=C\[C@H]1CC[C@H]2C(O/C([O-])=C\CC)=NC(=O)c3c(N=[N+]=[N-])cc(Cl)c1c32
REMARK SMILES IDX 8 1 30 2 28 3 29 4 27 5 23 6 22 7 31 8 11 9 12 10 19 11
REMARK SMILES IDX 20 12 21 13 10 14 9 15 7 16 5 17 6 18 4 19 3 20 2 21 1 22
REMARK SMILES IDX 24 23 25 24 26 25 13 26 14 27 15 28 16 29 17 30 18 31
REMARK H PARENT
ROOT
ATOM      1  C   UNL     1       2.146  -1.567  -0.098  1.00  0.00     0.045 C 
ATOM      2  C   UNL     1       2.488  -0.081  -0.113  1.00  0.00    -0.018 A 
ATOM      3  C   UNL     1       3.839   0.324  -0.164  1.00  0.00     0.045 A 
ATOM      4  Cl  UNL     1       5.153  -0.836  -0.358  1.00  0.00    -0.084 Cl
ATOM      5  C   UNL     1       4.177   1.671  -0.047  1.00  0.00     0.032 A 
ATOM      6  C   UNL     1       3.193   2.649   0.164  1.00  0.00     0.052 A 
ATOM      7  C   UNL     1       1.836   2.262   0.221  1.00  0.00     0.056 A 
ATOM      8  C   UNL     1       1.479   0.905   0.057  1.00  0.00    -0.020 A 
ATOM      9  C   UNL     1       0.008   0.541  -0.106  1.00  0.00     0.077 C 
ATOM     10  C   UNL     1      -0.923   1.503   0.606  1.00  0.00     0.091 C 
ATOM     11  N   UNL     1      -0.562   2.732   0.828  1.00  0.00    -0.205 NA
ATOM     12  C   UNL     1       0.748   3.223   0.530  1.00  0.00     0.278 C 
ATOM     13  O   UNL     1       0.960   4.463   0.580  1.00  0.00    -0.267 OA
ATOM     14  C   UNL     1      -0.263  -0.909   0.314  1.00  0.00     0.016 C 
ATOM     15  C   UNL     1       0.673  -1.845  -0.449  1.00  0.00     0.014 C 
ENDROOT
BRANCH   1  16
ATOM     16  C   UNL     1       2.482  -2.148   1.258  1.00  0.00     0.005 C 
BRANCH  16  17
ATOM     17  C   UNL     1       2.714  -3.449   1.445  1.00  0.00     0.049 C 
ATOM     18  O   UNL     1       3.006  -3.910   2.721  1.00  0.00    -0.547 OA
BRANCH  17  19
ATOM     19  O   UNL     1       2.666  -4.339   0.371  1.00  0.00    -0.601 OA
BRANCH  19  20
ATOM     20  C   UNL     1       2.873  -5.734   0.530  1.00  0.00     0.160 C 
BRANCH  20  21
ATOM     21  C   UNL     1       2.728  -6.391  -0.768  1.00  0.00    -0.095 C 
ATOM     22  C   UNL     1       2.607  -6.926  -1.841  1.00  0.00     0.005 C 
ENDBRANCH  20  21
ENDBRANCH  19  20
ENDBRANCH  17  19
ENDBRANCH  16  17
ENDBRANCH   1  16
BRANCH   6  23
ATOM     23  N   UNL     1       3.561   4.027   0.336  1.00  0.00    -0.060 NA
BRANCH  23  24
ATOM     24  N   UNL     1       4.731   4.412   0.311  1.00  0.00     0.005 N 
ATOM     25  N   UNL     1       5.899   4.797   0.284  1.00  0.00    -0.003 NA
ENDBRANCH  23  24
ENDBRANCH   6  23
BRANCH  10  26
ATOM     26  O   UNL     1      -2.216   1.069   0.935  1.00  0.00    -0.567 OA
BRANCH  26  27
ATOM     27  C   UNL     1      -3.217   1.846   1.529  1.00  0.00     0.053 C 
ATOM     28  O   UNL     1      -2.992   3.179   1.857  1.00  0.00    -0.547 OA
BRANCH  27  29
ATOM     29  C   UNL     1      -4.409   1.307   1.794  1.00  0.00    -0.003 C 
BRANCH  29  30
ATOM     30  C   UNL     1      -4.736  -0.134   1.510  1.00  0.00     0.026 C 
ATOM     31  C   UNL     1      -4.904  -0.390   0.014  1.00  0.00     0.008 C 
ENDBRANCH  29  30
ENDBRANCH  27  29
ENDBRANCH  26  27
ENDBRANCH  10  26
TORSDOF 11


