MODEL 1
REMARK VINA RESULT:      -8.0      0.000      0.000
REMARK SMILES C#CCO[C@]1(O)O[C@H]1[C@H]1CC[C@@H]2C(=O)N([O-])C(=O)c3ccc(N=[N+]=[N-])c1c32
REMARK SMILES IDX 5 1 7 2 8 3 4 4 3 5 2 6 1 7 6 8 9 10 26 11 10 12 22 13 27 14
REMARK SMILES IDX 11 15 21 16 19 17 12 18 20 19 17 20 13 21 15 22 18 23 14 24
REMARK SMILES IDX 16 25 23 26 24 27 25 28
REMARK H PARENT 6 9
ROOT
ATOM      1  C   UNL     1      41.127 133.379  14.130  1.00  0.00     0.310 C 
ATOM      2  O   UNL     1      41.721 132.110  13.969  1.00  0.00    -0.313 OA
ATOM      3  C   UNL     1      42.030 132.800  15.159  1.00  0.00     0.222 C 
ENDROOT
BRANCH   1   4
ATOM      4  O   UNL     1      39.733 133.254  14.269  1.00  0.00    -0.312 OA
BRANCH   4   5
ATOM      5  C   UNL     1      39.153 134.524  14.083  1.00  0.00     0.255 C 
BRANCH   5   6
ATOM      6  C   UNL     1      38.075 134.412  13.099  1.00  0.00    -0.078 C 
ATOM      7  C   UNL     1      37.190 134.318  12.286  1.00  0.00     0.006 C 
ENDBRANCH   5   6
ENDBRANCH   4   5
ENDBRANCH   1   4
BRANCH   1   8
ATOM      8  O   UNL     1      41.600 134.263  13.151  1.00  0.00    -0.341 OA
ATOM      9  H   UNL     1      41.226 135.148  13.394  1.00  0.00     0.216 HD
ENDBRANCH   1   8
BRANCH   3  10
ATOM     10  C   UNL     1      43.490 133.291  15.191  1.00  0.00     0.058 C 
ATOM     11  C   UNL     1      44.302 132.313  16.030  1.00  0.00    -0.028 A 
ATOM     12  C   UNL     1      43.548 134.761  15.702  1.00  0.00     0.012 C 
ATOM     13  C   UNL     1      44.867 131.158  15.441  1.00  0.00     0.041 A 
ATOM     14  C   UNL     1      44.403 132.510  17.429  1.00  0.00    -0.019 A 
ATOM     15  C   UNL     1      44.123 134.942  17.118  1.00  0.00     0.019 C 
ATOM     16  C   UNL     1      45.531 130.223  16.252  1.00  0.00     0.011 A 
ATOM     17  C   UNL     1      45.073 131.557  18.227  1.00  0.00     0.043 A 
ATOM     18  C   UNL     1      43.771 133.754  18.026  1.00  0.00     0.109 C 
ATOM     19  C   UNL     1      45.630 130.419  17.627  1.00  0.00     0.014 A 
ATOM     20  C   UNL     1      45.201 131.769  19.681  1.00  0.00     0.250 C 
ATOM     21  C   UNL     1      44.182 134.025  19.456  1.00  0.00     0.226 C 
ATOM     22  N   UNL     1      44.772 133.001  20.262  1.00  0.00    -0.351 N 
ATOM     23  O   UNL     1      45.699 130.874  20.416  1.00  0.00    -0.269 OA
ATOM     24  O   UNL     1      43.923 135.145  19.977  1.00  0.00    -0.275 OA
ATOM     25  O   UNL     1      44.945 133.211  21.589  1.00  0.00    -0.749 OA
BRANCH  13  26
ATOM     26  N   UNL     1      44.752 130.950  14.024  1.00  0.00    -0.060 NA
BRANCH  26  27
ATOM     27  N   UNL     1      45.722 130.685  13.312  1.00  0.00     0.005 N 
ATOM     28  N   UNL     1      46.688 130.419  12.601  1.00  0.00    -0.003 NA
ENDBRANCH  26  27
ENDBRANCH  13  26
ENDBRANCH   3  10
TORSDOF 7
ENDMDL
MODEL 2
REMARK VINA RESULT:      -7.8      3.275      6.046
REMARK SMILES C#CCO[C@]1(O)O[C@H]1[C@H]1CC[C@@H]2C(=O)N([O-])C(=O)c3ccc(N=[N+]=[N-])c1c32
REMARK SMILES IDX 5 1 7 2 8 3 4 4 3 5 2 6 1 7 6 8 9 10 26 11 10 12 22 13 27 14
REMARK SMILES IDX 11 15 21 16 19 17 12 18 20 19 17 20 13 21 15 22 18 23 14 24
REMARK SMILES IDX 16 25 23 26 24 27 25 28
REMARK H PARENT 6 9
ROOT
ATOM      1  C   UNL     1      45.863 130.005  15.710  1.00  0.00     0.310 C 
ATOM      2  O   UNL     1      44.613 129.916  16.356  1.00  0.00    -0.313 OA
ATOM      3  C   UNL     1      44.835 131.071  15.578  1.00  0.00     0.222 C 
ENDROOT
BRANCH   1   4
ATOM      4  O   UNL     1      45.975 129.012  14.719  1.00  0.00    -0.312 OA
BRANCH   4   5
ATOM      5  C   UNL     1      47.270 129.079  14.169  1.00  0.00     0.255 C 
BRANCH   5   6
ATOM      6  C   UNL     1      47.250 129.982  13.018  1.00  0.00    -0.078 C 
ATOM      7  C   UNL     1      47.230 130.723  12.067  1.00  0.00     0.006 C 
ENDBRANCH   5   6
ENDBRANCH   4   5
ENDBRANCH   1   4
BRANCH   1   8
ATOM      8  O   UNL     1      46.893 130.091  16.655  1.00  0.00    -0.341 OA
ATOM      9  H   UNL     1      47.697 130.365  16.144  1.00  0.00     0.216 HD
ENDBRANCH   1   8
BRANCH   3  10
ATOM     10  C   UNL     1      44.999 132.337  16.440  1.00  0.00     0.058 C 
ATOM     11  C   UNL     1      43.847 132.387  17.436  1.00  0.00    -0.028 A 
ATOM     12  C   UNL     1      45.099 133.595  15.528  1.00  0.00     0.012 C 
ATOM     13  C   UNL     1      43.942 131.717  18.678  1.00  0.00     0.041 A 
ATOM     14  C   UNL     1      42.635 133.021  17.070  1.00  0.00    -0.019 A 
ATOM     15  C   UNL     1      43.866 134.516  15.540  1.00  0.00     0.019 C 
ATOM     16  C   UNL     1      42.833 131.698  19.539  1.00  0.00     0.011 A 
ATOM     17  C   UNL     1      41.531 132.988  17.949  1.00  0.00     0.043 A 
ATOM     18  C   UNL     1      42.567 133.715  15.723  1.00  0.00     0.109 C 
ATOM     19  C   UNL     1      41.643 132.323  19.178  1.00  0.00     0.014 A 
ATOM     20  C   UNL     1      40.274 133.667  17.583  1.00  0.00     0.250 C 
ATOM     21  C   UNL     1      41.356 134.605  15.551  1.00  0.00     0.226 C 
ATOM     22  N   UNL     1      40.216 134.474  16.406  1.00  0.00    -0.351 N 
ATOM     23  O   UNL     1      39.249 133.551  18.309  1.00  0.00    -0.269 OA
ATOM     24  O   UNL     1      41.310 135.417  14.585  1.00  0.00    -0.275 OA
ATOM     25  O   UNL     1      39.075 135.139  16.106  1.00  0.00    -0.749 OA
BRANCH  13  26
ATOM     26  N   UNL     1      45.167 131.060  19.044  1.00  0.00    -0.060 NA
BRANCH  26  27
ATOM     27  N   UNL     1      45.640 131.124  20.179  1.00  0.00     0.005 N 
ATOM     28  N   UNL     1      46.114 131.186  21.312  1.00  0.00    -0.003 NA
ENDBRANCH  26  27
ENDBRANCH  13  26
ENDBRANCH   3  10
TORSDOF 7
ENDMDL
MODEL 3
REMARK VINA RESULT:      -7.7      0.641      1.133
REMARK SMILES C#CCO[C@]1(O)O[C@H]1[C@H]1CC[C@@H]2C(=O)N([O-])C(=O)c3ccc(N=[N+]=[N-])c1c32
REMARK SMILES IDX 5 1 7 2 8 3 4 4 3 5 2 6 1 7 6 8 9 10 26 11 10 12 22 13 27 14
REMARK SMILES IDX 11 15 21 16 19 17 12 18 20 19 17 20 13 21 15 22 18 23 14 24
REMARK SMILES IDX 16 25 23 26 24 27 25 28
REMARK H PARENT 6 9
ROOT
ATOM      1  C   UNL     1      41.089 133.371  14.136  1.00  0.00     0.310 C 
ATOM      2  O   UNL     1      41.717 132.124  13.942  1.00  0.00    -0.313 OA
ATOM      3  C   UNL     1      42.008 132.790  15.150  1.00  0.00     0.222 C 
ENDROOT
BRANCH   1   4
ATOM      4  O   UNL     1      39.699 133.204  14.272  1.00  0.00    -0.312 OA
BRANCH   4   5
ATOM      5  C   UNL     1      39.100 134.479  14.311  1.00  0.00     0.255 C 
BRANCH   5   6
ATOM      6  C   UNL     1      39.244 135.028  15.660  1.00  0.00    -0.078 C 
ATOM      7  C   UNL     1      39.362 135.478  16.772  1.00  0.00     0.006 C 
ENDBRANCH   5   6
ENDBRANCH   4   5
ENDBRANCH   1   4
BRANCH   1   8
ATOM      8  O   UNL     1      41.537 134.294  13.182  1.00  0.00    -0.341 OA
ATOM      9  H   UNL     1      40.720 134.746  12.850  1.00  0.00     0.216 HD
ENDBRANCH   1   8
BRANCH   3  10
ATOM     10  C   UNL     1      43.453 133.319  15.195  1.00  0.00     0.058 C 
ATOM     11  C   UNL     1      44.287 132.355  16.030  1.00  0.00    -0.028 A 
ATOM     12  C   UNL     1      43.470 134.785  15.722  1.00  0.00     0.012 C 
ATOM     13  C   UNL     1      44.886 131.221  15.433  1.00  0.00     0.041 A 
ATOM     14  C   UNL     1      44.375 132.540  17.430  1.00  0.00    -0.019 A 
ATOM     15  C   UNL     1      44.032 134.967  17.143  1.00  0.00     0.019 C 
ATOM     16  C   UNL     1      45.570 130.296  16.238  1.00  0.00     0.011 A 
ATOM     17  C   UNL     1      45.065 131.597  18.223  1.00  0.00     0.043 A 
ATOM     18  C   UNL     1      43.706 133.760  18.036  1.00  0.00     0.109 C 
ATOM     19  C   UNL     1      45.656 130.481  17.615  1.00  0.00     0.014 A 
ATOM     20  C   UNL     1      45.179 131.798  19.680  1.00  0.00     0.250 C 
ATOM     21  C   UNL     1      44.102 134.028  19.471  1.00  0.00     0.226 C 
ATOM     22  N   UNL     1      44.714 133.012  20.271  1.00  0.00    -0.351 N 
ATOM     23  O   UNL     1      45.697 130.908  20.409  1.00  0.00    -0.269 OA
ATOM     24  O   UNL     1      43.810 135.136  20.002  1.00  0.00    -0.275 OA
ATOM     25  O   UNL     1      44.874 133.212  21.601  1.00  0.00    -0.749 OA
BRANCH  13  26
ATOM     26  N   UNL     1      44.784 131.024  14.013  1.00  0.00    -0.060 NA
BRANCH  26  27
ATOM     27  N   UNL     1      45.751 130.712  13.316  1.00  0.00     0.005 N 
ATOM     28  N   UNL     1      46.716 130.402  12.621  1.00  0.00    -0.003 NA
ENDBRANCH  26  27
ENDBRANCH  13  26
ENDBRANCH   3  10
TORSDOF 7
ENDMDL
MODEL 4
REMARK VINA RESULT:      -7.5      3.343      5.473
REMARK SMILES C#CCO[C@]1(O)O[C@H]1[C@H]1CC[C@@H]2C(=O)N([O-])C(=O)c3ccc(N=[N+]=[N-])c1c32
REMARK SMILES IDX 5 1 7 2 8 3 4 4 3 5 2 6 1 7 6 8 9 10 26 11 10 12 22 13 27 14
REMARK SMILES IDX 11 15 21 16 19 17 12 18 20 19 17 20 13 21 15 22 18 23 14 24
REMARK SMILES IDX 16 25 23 26 24 27 25 28
REMARK H PARENT 6 9
ROOT
ATOM      1  C   UNL     1      45.646 131.048  15.598  1.00  0.00     0.310 C 
ATOM      2  O   UNL     1      45.453 132.269  14.920  1.00  0.00    -0.313 OA
ATOM      3  C   UNL     1      45.358 132.312  16.325  1.00  0.00     0.222 C 
ENDROOT
BRANCH   1   4
ATOM      4  O   UNL     1      46.975 130.610  15.451  1.00  0.00    -0.312 OA
BRANCH   4   5
ATOM      5  C   UNL     1      46.995 129.559  14.513  1.00  0.00     0.255 C 
BRANCH   5   6
ATOM      6  C   UNL     1      47.125 130.126  13.170  1.00  0.00    -0.078 C 
ATOM      7  C   UNL     1      47.234 130.591  12.064  1.00  0.00     0.006 C 
ENDBRANCH   5   6
ENDBRANCH   4   5
ENDBRANCH   1   4
BRANCH   1   8
ATOM      8  O   UNL     1      44.629 130.143  15.267  1.00  0.00    -0.341 OA
ATOM      9  H   UNL     1      43.866 130.702  14.974  1.00  0.00     0.216 HD
ENDBRANCH   1   8
BRANCH   3  10
ATOM     10  C   UNL     1      43.915 132.548  16.809  1.00  0.00     0.058 C 
ATOM     11  C   UNL     1      43.693 134.051  16.927  1.00  0.00    -0.028 A 
ATOM     12  C   UNL     1      43.661 131.769  18.134  1.00  0.00     0.012 C 
ATOM     13  C   UNL     1      43.275 134.805  15.805  1.00  0.00     0.041 A 
ATOM     14  C   UNL     1      44.008 134.711  18.139  1.00  0.00    -0.019 A 
ATOM     15  C   UNL     1      43.554 132.638  19.399  1.00  0.00     0.019 C 
ATOM     16  C   UNL     1      43.169 136.202  15.912  1.00  0.00     0.011 A 
ATOM     17  C   UNL     1      43.897 136.117  18.225  1.00  0.00     0.043 A 
ATOM     18  C   UNL     1      44.468 133.870  19.315  1.00  0.00     0.109 C 
ATOM     19  C   UNL     1      43.478 136.848  17.105  1.00  0.00     0.014 A 
ATOM     20  C   UNL     1      44.201 136.806  19.493  1.00  0.00     0.250 C 
ATOM     21  C   UNL     1      44.492 134.615  20.631  1.00  0.00     0.226 C 
ATOM     22  N   UNL     1      44.474 136.045  20.670  1.00  0.00    -0.351 N 
ATOM     23  O   UNL     1      44.211 138.066  19.549  1.00  0.00    -0.269 OA
ATOM     24  O   UNL     1      44.618 133.972  21.710  1.00  0.00    -0.275 OA
ATOM     25  O   UNL     1      44.697 136.685  21.843  1.00  0.00    -0.749 OA
BRANCH  13  26
ATOM     26  N   UNL     1      42.970 134.138  14.570  1.00  0.00    -0.060 NA
BRANCH  26  27
ATOM     27  N   UNL     1      41.851 133.688  14.318  1.00  0.00     0.005 N 
ATOM     28  N   UNL     1      40.736 133.238  14.065  1.00  0.00    -0.003 NA
ENDBRANCH  26  27
ENDBRANCH  13  26
ENDBRANCH   3  10
TORSDOF 7
ENDMDL
MODEL 5
REMARK VINA RESULT:      -7.2      3.151      5.467
REMARK SMILES C#CCO[C@]1(O)O[C@H]1[C@H]1CC[C@@H]2C(=O)N([O-])C(=O)c3ccc(N=[N+]=[N-])c1c32
REMARK SMILES IDX 5 1 7 2 8 3 4 4 3 5 2 6 1 7 6 8 9 10 26 11 10 12 22 13 27 14
REMARK SMILES IDX 11 15 21 16 19 17 12 18 20 19 17 20 13 21 15 22 18 23 14 24
REMARK SMILES IDX 16 25 23 26 24 27 25 28
REMARK H PARENT 6 9
ROOT
ATOM      1  C   UNL     1      45.303 131.820  15.029  1.00  0.00     0.310 C 
ATOM      2  O   UNL     1      44.879 133.135  15.310  1.00  0.00    -0.313 OA
ATOM      3  C   UNL     1      45.288 132.359  16.414  1.00  0.00     0.222 C 
ENDROOT
BRANCH   1   4
ATOM      4  O   UNL     1      46.494 131.837  14.282  1.00  0.00    -0.312 OA
BRANCH   4   5
ATOM      5  C   UNL     1      46.384 130.886  13.248  1.00  0.00     0.255 C 
BRANCH   5   6
ATOM      6  C   UNL     1      47.538 129.987  13.308  1.00  0.00    -0.078 C 
ATOM      7  C   UNL     1      48.487 129.246  13.353  1.00  0.00     0.006 C 
ENDBRANCH   5   6
ENDBRANCH   4   5
ENDBRANCH   1   4
BRANCH   1   8
ATOM      8  O   UNL     1      44.236 131.064  14.524  1.00  0.00    -0.341 OA
ATOM      9  H   UNL     1      43.469 131.263  15.118  1.00  0.00     0.216 HD
ENDBRANCH   1   8
BRANCH   3  10
ATOM     10  C   UNL     1      44.109 131.967  17.324  1.00  0.00     0.058 C 
ATOM     11  C   UNL     1      43.293 133.221  17.612  1.00  0.00    -0.028 A 
ATOM     12  C   UNL     1      44.637 131.251  18.603  1.00  0.00     0.012 C 
ATOM     13  C   UNL     1      42.270 133.631  16.727  1.00  0.00     0.041 A 
ATOM     14  C   UNL     1      43.632 134.036  18.719  1.00  0.00    -0.019 A 
ATOM     15  C   UNL     1      44.542 132.070  19.902  1.00  0.00     0.019 C 
ATOM     16  C   UNL     1      41.595 134.840  16.962  1.00  0.00     0.011 A 
ATOM     17  C   UNL     1      42.944 135.250  18.937  1.00  0.00     0.043 A 
ATOM     18  C   UNL     1      44.746 133.570  19.639  1.00  0.00     0.109 C 
ATOM     19  C   UNL     1      41.930 135.639  18.051  1.00  0.00     0.014 A 
ATOM     20  C   UNL     1      43.278 136.090  20.102  1.00  0.00     0.250 C 
ATOM     21  C   UNL     1      44.833 134.340  20.937  1.00  0.00     0.226 C 
ATOM     22  N   UNL     1      44.198 135.614  21.085  1.00  0.00    -0.351 N 
ATOM     23  O   UNL     1      42.746 137.225  20.245  1.00  0.00    -0.269 OA
ATOM     24  O   UNL     1      45.548 133.897  21.879  1.00  0.00    -0.275 OA
ATOM     25  O   UNL     1      44.456 136.367  22.180  1.00  0.00    -0.749 OA
BRANCH  13  26
ATOM     26  N   UNL     1      41.935 132.812  15.594  1.00  0.00    -0.060 NA
BRANCH  26  27
ATOM     27  N   UNL     1      41.125 133.166  14.737  1.00  0.00     0.005 N 
ATOM     28  N   UNL     1      40.316 133.517  13.879  1.00  0.00    -0.003 NA
ENDBRANCH  26  27
ENDBRANCH  13  26
ENDBRANCH   3  10
TORSDOF 7
ENDMDL
MODEL 6
REMARK VINA RESULT:      -7.1      3.044      5.241
REMARK SMILES C#CCO[C@]1(O)O[C@H]1[C@H]1CC[C@@H]2C(=O)N([O-])C(=O)c3ccc(N=[N+]=[N-])c1c32
REMARK SMILES IDX 5 1 7 2 8 3 4 4 3 5 2 6 1 7 6 8 9 10 26 11 10 12 22 13 27 14
REMARK SMILES IDX 11 15 21 16 19 17 12 18 20 19 17 20 13 21 15 22 18 23 14 24
REMARK SMILES IDX 16 25 23 26 24 27 25 28
REMARK H PARENT 6 9
ROOT
ATOM      1  C   UNL     1      44.087 131.021  14.580  1.00  0.00     0.310 C 
ATOM      2  O   UNL     1      44.710 132.256  14.856  1.00  0.00    -0.313 OA
ATOM      3  C   UNL     1      44.110 131.598  15.949  1.00  0.00     0.222 C 
ENDROOT
BRANCH   1   4
ATOM      4  O   UNL     1      45.046 130.061  14.208  1.00  0.00    -0.312 OA
BRANCH   4   5
ATOM      5  C   UNL     1      45.828 130.596  13.166  1.00  0.00     0.255 C 
BRANCH   5   6
ATOM      6  C   UNL     1      47.169 130.014  13.234  1.00  0.00    -0.078 C 
ATOM      7  C   UNL     1      48.274 129.534  13.287  1.00  0.00     0.006 C 
ENDBRANCH   5   6
ENDBRANCH   4   5
ENDBRANCH   1   4
BRANCH   1   8
ATOM      8  O   UNL     1      42.997 131.208  13.721  1.00  0.00    -0.341 OA
ATOM      9  H   UNL     1      42.249 131.494  14.305  1.00  0.00     0.216 HD
ENDBRANCH   1   8
BRANCH   3  10
ATOM     10  C   UNL     1      42.842 132.320  16.444  1.00  0.00     0.058 C 
ATOM     11  C   UNL     1      43.131 133.816  16.482  1.00  0.00    -0.028 A 
ATOM     12  C   UNL     1      42.392 131.730  17.814  1.00  0.00     0.012 C 
ATOM     13  C   UNL     1      42.945 134.612  15.328  1.00  0.00     0.041 A 
ATOM     14  C   UNL     1      43.687 134.390  17.650  1.00  0.00    -0.019 A 
ATOM     15  C   UNL     1      42.620 132.644  19.031  1.00  0.00     0.019 C 
ATOM     16  C   UNL     1      43.308 135.969  15.359  1.00  0.00     0.011 A 
ATOM     17  C   UNL     1      44.047 135.756  17.661  1.00  0.00     0.043 A 
ATOM     18  C   UNL     1      43.885 133.500  18.863  1.00  0.00     0.109 C 
ATOM     19  C   UNL     1      43.853 136.532  16.509  1.00  0.00     0.014 A 
ATOM     20  C   UNL     1      44.605 136.364  18.883  1.00  0.00     0.250 C 
ATOM     21  C   UNL     1      44.198 134.256  20.135  1.00  0.00     0.226 C 
ATOM     22  N   UNL     1      44.652 135.612  20.096  1.00  0.00    -0.351 N 
ATOM     23  O   UNL     1      45.030 137.552  18.869  1.00  0.00    -0.269 OA
ATOM     24  O   UNL     1      44.143 133.658  21.246  1.00  0.00    -0.275 OA
ATOM     25  O   UNL     1      45.113 136.196  21.227  1.00  0.00    -0.749 OA
BRANCH  13  26
ATOM     26  N   UNL     1      42.395 134.027  14.137  1.00  0.00    -0.060 NA
BRANCH  26  27
ATOM     27  N   UNL     1      41.235 134.227  13.774  1.00  0.00     0.005 N 
ATOM     28  N   UNL     1      40.077 134.428  13.414  1.00  0.00    -0.003 NA
ENDBRANCH  26  27
ENDBRANCH  13  26
ENDBRANCH   3  10
TORSDOF 7
ENDMDL
MODEL 7
REMARK VINA RESULT:      -7.1      3.361      5.501
REMARK SMILES C#CCO[C@]1(O)O[C@H]1[C@H]1CC[C@@H]2C(=O)N([O-])C(=O)c3ccc(N=[N+]=[N-])c1c32
REMARK SMILES IDX 5 1 7 2 8 3 4 4 3 5 2 6 1 7 6 8 9 10 26 11 10 12 22 13 27 14
REMARK SMILES IDX 11 15 21 16 19 17 12 18 20 19 17 20 13 21 15 22 18 23 14 24
REMARK SMILES IDX 16 25 23 26 24 27 25 28
REMARK H PARENT 6 9
ROOT
ATOM      1  C   UNL     1      45.951 130.480  16.075  1.00  0.00     0.310 C 
ATOM      2  O   UNL     1      45.247 131.604  15.598  1.00  0.00    -0.313 OA
ATOM      3  C   UNL     1      45.606 131.622  16.961  1.00  0.00     0.222 C 
ENDROOT
BRANCH   1   4
ATOM      4  O   UNL     1      47.226 130.411  15.484  1.00  0.00    -0.312 OA
BRANCH   4   5
ATOM      5  C   UNL     1      47.192 129.436  14.468  1.00  0.00     0.255 C 
BRANCH   5   6
ATOM      6  C   UNL     1      47.172 130.107  13.167  1.00  0.00    -0.078 C 
ATOM      7  C   UNL     1      47.160 130.662  12.097  1.00  0.00     0.006 C 
ENDBRANCH   5   6
ENDBRANCH   4   5
ENDBRANCH   1   4
BRANCH   1   8
ATOM      8  O   UNL     1      45.145 129.336  16.002  1.00  0.00    -0.341 OA
ATOM      9  H   UNL     1      44.463 129.450  16.712  1.00  0.00     0.216 HD
ENDBRANCH   1   8
BRANCH   3  10
ATOM     10  C   UNL     1      44.387 131.466  17.890  1.00  0.00     0.058 C 
ATOM     11  C   UNL     1      43.694 132.819  17.996  1.00  0.00    -0.028 A 
ATOM     12  C   UNL     1      44.832 130.876  19.261  1.00  0.00     0.012 C 
ATOM     13  C   UNL     1      42.723 133.205  17.044  1.00  0.00     0.041 A 
ATOM     14  C   UNL     1      44.102 133.736  18.995  1.00  0.00    -0.019 A 
ATOM     15  C   UNL     1      44.807 131.864  20.441  1.00  0.00     0.019 C 
ATOM     16  C   UNL     1      42.167 134.493  17.106  1.00  0.00     0.011 A 
ATOM     17  C   UNL     1      43.532 135.027  19.040  1.00  0.00     0.043 A 
ATOM     18  C   UNL     1      45.157 133.290  19.990  1.00  0.00     0.109 C 
ATOM     19  C   UNL     1      42.569 135.393  18.090  1.00  0.00     0.014 A 
ATOM     20  C   UNL     1      43.937 135.977  20.093  1.00  0.00     0.250 C 
ATOM     21  C   UNL     1      45.308 134.211  21.180  1.00  0.00     0.226 C 
ATOM     22  N   UNL     1      44.799 135.548  21.148  1.00  0.00    -0.351 N 
ATOM     23  O   UNL     1      43.517 137.167  20.077  1.00  0.00    -0.269 OA
ATOM     24  O   UNL     1      45.969 133.829  22.185  1.00  0.00    -0.275 OA
ATOM     25  O   UNL     1      45.120 136.410  22.142  1.00  0.00    -0.749 OA
BRANCH  13  26
ATOM     26  N   UNL     1      42.319 132.281  16.020  1.00  0.00    -0.060 NA
BRANCH  26  27
ATOM     27  N   UNL     1      41.871 132.649  14.933  1.00  0.00     0.005 N 
ATOM     28  N   UNL     1      41.425 133.017  13.848  1.00  0.00    -0.003 NA
ENDBRANCH  26  27
ENDBRANCH  13  26
ENDBRANCH   3  10
TORSDOF 7
ENDMDL
MODEL 8
REMARK VINA RESULT:      -7.0      3.355      6.484
REMARK SMILES C#CCO[C@]1(O)O[C@H]1[C@H]1CC[C@@H]2C(=O)N([O-])C(=O)c3ccc(N=[N+]=[N-])c1c32
REMARK SMILES IDX 5 1 7 2 8 3 4 4 3 5 2 6 1 7 6 8 9 10 26 11 10 12 22 13 27 14
REMARK SMILES IDX 11 15 21 16 19 17 12 18 20 19 17 20 13 21 15 22 18 23 14 24
REMARK SMILES IDX 16 25 23 26 24 27 25 28
REMARK H PARENT 6 9
ROOT
ATOM      1  C   UNL     1      44.625 131.675  15.029  1.00  0.00     0.310 C 
ATOM      2  O   UNL     1      44.067 131.391  16.293  1.00  0.00    -0.313 OA
ATOM      3  C   UNL     1      43.277 132.166  15.420  1.00  0.00     0.222 C 
ENDROOT
BRANCH   1   4
ATOM      4  O   UNL     1      44.749 130.495  14.272  1.00  0.00    -0.312 OA
BRANCH   4   5
ATOM      5  C   UNL     1      46.086 130.057  14.351  1.00  0.00     0.255 C 
BRANCH   5   6
ATOM      6  C   UNL     1      46.746 130.320  13.071  1.00  0.00    -0.078 C 
ATOM      7  C   UNL     1      47.292 130.535  12.018  1.00  0.00     0.006 C 
ENDBRANCH   5   6
ENDBRANCH   4   5
ENDBRANCH   1   4
BRANCH   1   8
ATOM      8  O   UNL     1      45.767 132.473  15.171  1.00  0.00    -0.341 OA
ATOM      9  H   UNL     1      46.095 132.301  16.091  1.00  0.00     0.216 HD
ENDBRANCH   1   8
BRANCH   3  10
ATOM     10  C   UNL     1      43.154 133.630  15.883  1.00  0.00     0.058 C 
ATOM     11  C   UNL     1      42.055 133.705  16.936  1.00  0.00    -0.028 A 
ATOM     12  C   UNL     1      42.916 134.560  14.657  1.00  0.00     0.012 C 
ATOM     13  C   UNL     1      42.348 133.461  18.298  1.00  0.00     0.041 A 
ATOM     14  C   UNL     1      40.715 133.916  16.533  1.00  0.00    -0.019 A 
ATOM     15  C   UNL     1      41.496 135.143  14.539  1.00  0.00     0.019 C 
ATOM     16  C   UNL     1      41.304 133.442  19.237  1.00  0.00     0.011 A 
ATOM     17  C   UNL     1      39.678 133.890  17.492  1.00  0.00     0.043 A 
ATOM     18  C   UNL     1      40.439 134.158  15.060  1.00  0.00     0.109 C 
ATOM     19  C   UNL     1      39.987 133.651  18.838  1.00  0.00     0.014 A 
ATOM     20  C   UNL     1      38.283 134.134  17.080  1.00  0.00     0.250 C 
ATOM     21  C   UNL     1      39.042 134.664  14.772  1.00  0.00     0.226 C 
ATOM     22  N   UNL     1      37.995 134.532  15.738  1.00  0.00    -0.351 N 
ATOM     23  O   UNL     1      37.340 134.005  17.907  1.00  0.00    -0.269 OA
ATOM     24  O   UNL     1      38.771 135.131  13.631  1.00  0.00    -0.275 OA
ATOM     25  O   UNL     1      36.718 134.808  15.383  1.00  0.00    -0.749 OA
BRANCH  13  26
ATOM     26  N   UNL     1      43.706 133.231  18.707  1.00  0.00    -0.060 NA
BRANCH  26  27
ATOM     27  N   UNL     1      44.023 132.323  19.476  1.00  0.00     0.005 N 
ATOM     28  N   UNL     1      44.337 131.417  20.245  1.00  0.00    -0.003 NA
ENDBRANCH  26  27
ENDBRANCH  13  26
ENDBRANCH   3  10
TORSDOF 7
ENDMDL
MODEL 9
REMARK VINA RESULT:      -7.0      3.681      5.327
REMARK SMILES C#CCO[C@]1(O)O[C@H]1[C@H]1CC[C@@H]2C(=O)N([O-])C(=O)c3ccc(N=[N+]=[N-])c1c32
REMARK SMILES IDX 5 1 7 2 8 3 4 4 3 5 2 6 1 7 6 8 9 10 26 11 10 12 22 13 27 14
REMARK SMILES IDX 11 15 21 16 19 17 12 18 20 19 17 20 13 21 15 22 18 23 14 24
REMARK SMILES IDX 16 25 23 26 24 27 25 28
REMARK H PARENT 6 9
ROOT
ATOM      1  C   UNL     1      44.869 131.835  15.390  1.00  0.00     0.310 C 
ATOM      2  O   UNL     1      45.403 133.122  15.610  1.00  0.00    -0.313 OA
ATOM      3  C   UNL     1      44.856 132.470  16.734  1.00  0.00     0.222 C 
ENDROOT
BRANCH   1   4
ATOM      4  O   UNL     1      45.892 130.931  15.051  1.00  0.00    -0.312 OA
BRANCH   4   5
ATOM      5  C   UNL     1      45.500 130.232  13.893  1.00  0.00     0.255 C 
BRANCH   5   6
ATOM      6  C   UNL     1      46.513 130.430  12.855  1.00  0.00    -0.078 C 
ATOM      7  C   UNL     1      47.346 130.597  12.000  1.00  0.00     0.006 C 
ENDBRANCH   5   6
ENDBRANCH   4   5
ENDBRANCH   1   4
BRANCH   1   8
ATOM      8  O   UNL     1      43.764 131.909  14.532  1.00  0.00    -0.341 OA
ATOM      9  H   UNL     1      44.116 131.693  13.631  1.00  0.00     0.216 HD
ENDBRANCH   1   8
BRANCH   3  10
ATOM     10  C   UNL     1      43.542 133.120  17.207  1.00  0.00     0.058 C 
ATOM     11  C   UNL     1      43.892 134.363  18.017  1.00  0.00    -0.028 A 
ATOM     12  C   UNL     1      42.682 132.082  17.987  1.00  0.00     0.012 C 
ATOM     13  C   UNL     1      44.093 135.606  17.373  1.00  0.00     0.041 A 
ATOM     14  C   UNL     1      44.118 134.249  19.410  1.00  0.00    -0.019 A 
ATOM     15  C   UNL     1      42.600 132.305  19.507  1.00  0.00     0.019 C 
ATOM     16  C   UNL     1      44.507 136.716  18.127  1.00  0.00     0.011 A 
ATOM     17  C   UNL     1      44.536 135.376  20.150  1.00  0.00     0.043 A 
ATOM     18  C   UNL     1      43.906 132.895  20.062  1.00  0.00     0.109 C 
ATOM     19  C   UNL     1      44.728 136.601  19.497  1.00  0.00     0.014 A 
ATOM     20  C   UNL     1      44.750 135.267  21.605  1.00  0.00     0.250 C 
ATOM     21  C   UNL     1      43.880 132.938  21.573  1.00  0.00     0.226 C 
ATOM     22  N   UNL     1      44.402 134.062  22.289  1.00  0.00    -0.351 N 
ATOM     23  O   UNL     1      45.227 136.236  22.256  1.00  0.00    -0.269 OA
ATOM     24  O   UNL     1      43.472 131.934  22.219  1.00  0.00    -0.275 OA
ATOM     25  O   UNL     1      44.548 133.990  23.633  1.00  0.00    -0.749 OA
BRANCH  13  26
ATOM     26  N   UNL     1      43.879 135.720  15.957  1.00  0.00    -0.060 NA
BRANCH  26  27
ATOM     27  N   UNL     1      42.812 136.104  15.476  1.00  0.00     0.005 N 
ATOM     28  N   UNL     1      41.748 136.487  14.995  1.00  0.00    -0.003 NA
ENDBRANCH  26  27
ENDBRANCH  13  26
ENDBRANCH   3  10
TORSDOF 7
ENDMDL


