REMARK SMILES Cc1nnn(Cc2nc3cc4ccccc4cc3[n-]2)c1-c1nnc([C@@H]2C[C@@H]2C)o1
REMARK SMILES IDX 1 1 2 2 3 3 4 4 5 5 20 6 21 7 22 8 29 9 23 10 24 11 25 12
REMARK SMILES IDX 26 13 27 14 28 15 6 16 7 17 8 18 19 19 9 20 18 21 10 22
REMARK SMILES IDX 17 23 11 24 16 25 12 26 15 27 13 28 14 29
REMARK H PARENT
ROOT
ATOM      1  C   UNL     1      -1.211  -4.008   4.547  1.00  0.00     0.071 C 
ATOM      2  C   UNL     1      -0.825  -2.577   4.361  1.00  0.00     0.093 A 
ATOM      3  N   UNL     1      -1.341  -1.559   5.077  1.00  0.00    -0.135 NA
ATOM      4  N   UNL     1      -0.785  -0.445   4.622  1.00  0.00    -0.066 NA
ATOM      5  N   UNL     1       0.070  -0.714   3.646  1.00  0.00    -0.236 N 
ATOM      6  C   UNL     1       0.068  -2.050   3.444  1.00  0.00     0.149 A 
ENDROOT
BRANCH   6   7
ATOM      7  C   UNL     1       0.834  -2.783   2.414  1.00  0.00     0.267 A 
ATOM      8  N   UNL     1       0.736  -4.108   2.192  1.00  0.00    -0.106 NA
ATOM      9  O   UNL     1       1.681  -2.229   1.581  1.00  0.00    -0.419 OA
ATOM     10  N   UNL     1       1.547  -4.381   1.181  1.00  0.00    -0.112 NA
ATOM     11  C   UNL     1       2.107  -3.210   0.825  1.00  0.00     0.220 A 
BRANCH  11  12
ATOM     12  C   UNL     1       3.090  -3.058  -0.296  1.00  0.00     0.081 C 
ATOM     13  C   UNL     1       3.012  -1.726  -1.041  1.00  0.00     0.017 C 
ATOM     14  C   UNL     1       2.527  -3.002  -1.718  1.00  0.00    -0.001 C 
ATOM     15  C   UNL     1       1.008  -3.091  -1.911  1.00  0.00     0.008 C 
ENDBRANCH  11  12
ENDBRANCH   6   7
BRANCH   5  16
ATOM     16  C   UNL     1       0.799   0.323   2.916  1.00  0.00     0.173 C 
BRANCH  16  17
ATOM     17  C   UNL     1       0.071   0.695   1.661  1.00  0.00    -0.060 A 
ATOM     18  N   UNL     1      -0.274  -0.214   0.711  1.00  0.00    -0.438 NA
ATOM     19  N   UNL     1      -0.259   1.978   1.359  1.00  0.00    -0.438 NA
ATOM     20  C   UNL     1      -0.855   0.548  -0.225  1.00  0.00    -0.038 A 
ATOM     21  C   UNL     1      -0.846   1.853   0.160  1.00  0.00    -0.038 A 
ATOM     22  C   UNL     1      -1.400   0.136  -1.437  1.00  0.00     0.012 A 
ATOM     23  C   UNL     1      -1.384   2.864  -0.631  1.00  0.00     0.012 A 
ATOM     24  C   UNL     1      -1.959   1.124  -2.277  1.00  0.00    -0.018 A 
ATOM     25  C   UNL     1      -1.952   2.496  -1.871  1.00  0.00    -0.018 A 
ATOM     26  C   UNL     1      -2.524   0.772  -3.511  1.00  0.00     0.009 A 
ATOM     27  C   UNL     1      -2.512   3.468  -2.714  1.00  0.00     0.009 A 
ATOM     28  C   UNL     1      -3.077   1.755  -4.336  1.00  0.00     0.001 A 
ATOM     29  C   UNL     1      -3.072   3.096  -3.939  1.00  0.00     0.001 A 
ENDBRANCH  16  17
ENDBRANCH   5  16
TORSDOF 4


