MODEL 1
REMARK VINA RESULT:      -8.0      0.000      0.000
REMARK SMILES COC[C@@H](C)[NH2+]Cc1c(C)nnn1-c1cc2ccccc2c2ccccc12
REMARK SMILES IDX 4 1 5 2 3 3 2 4 1 5 6 6 7 9 8 10 9 11 13 12 11 13 12 14
REMARK SMILES IDX 10 15 14 16 15 17 27 18 16 19 26 20 22 21 17 22 21 23 25 24
REMARK SMILES IDX 23 25 18 26 20 27 24 28 19 29
REMARK H PARENT 6 7 6 8
ROOT
ATOM      1  C   UNL     1      43.903 136.730  17.744  1.00  0.00     0.205 C 
ATOM      2  C   UNL     1      44.309 136.951  19.213  1.00  0.00     0.078 C 
ENDROOT
BRANCH   1   3
ATOM      3  C   UNL     1      42.740 137.656  17.315  1.00  0.00     0.224 C 
BRANCH   3   4
ATOM      4  O   UNL     1      43.170 138.610  16.368  1.00  0.00    -0.379 OA
ATOM      5  C   UNL     1      42.163 138.798  15.400  1.00  0.00     0.195 C 
ENDBRANCH   3   4
ENDBRANCH   1   3
BRANCH   1   6
ATOM      6  N   UNL     1      43.661 135.304  17.410  1.00  0.00    -0.337 N 
ATOM      7  H   UNL     1      44.576 134.855  17.173  1.00  0.00     0.346 HD
ATOM      8  H   UNL     1      43.305 134.823  18.270  1.00  0.00     0.346 HD
BRANCH   6   9
ATOM      9  C   UNL     1      42.688 135.070  16.326  1.00  0.00     0.320 C 
BRANCH   9  10
ATOM     10  C   UNL     1      41.663 134.054  16.751  1.00  0.00     0.122 A 
ATOM     11  C   UNL     1      40.370 134.283  17.177  1.00  0.00     0.089 A 
ATOM     12  N   UNL     1      41.901 132.746  16.961  1.00  0.00    -0.211 N 
ATOM     13  N   UNL     1      39.860 133.113  17.618  1.00  0.00    -0.135 NA
ATOM     14  N   UNL     1      40.809 132.199  17.473  1.00  0.00    -0.062 NA
ATOM     15  C   UNL     1      39.654 135.592  17.235  1.00  0.00     0.071 C 
BRANCH  12  16
ATOM     16  C   UNL     1      43.122 132.038  16.712  1.00  0.00     0.075 A 
ATOM     17  C   UNL     1      43.466 131.749  15.394  1.00  0.00     0.037 A 
ATOM     18  C   UNL     1      43.982 131.665  17.766  1.00  0.00     0.008 A 
ATOM     19  C   UNL     1      44.654 131.082  15.091  1.00  0.00    -0.016 A 
ATOM     20  C   UNL     1      43.652 131.984  19.099  1.00  0.00     0.011 A 
ATOM     21  C   UNL     1      45.203 130.982  17.484  1.00  0.00    -0.008 A 
ATOM     22  C   UNL     1      44.967 130.819  13.746  1.00  0.00     0.009 A 
ATOM     23  C   UNL     1      45.541 130.683  16.128  1.00  0.00    -0.010 A 
ATOM     24  C   UNL     1      44.500 131.633  20.145  1.00  0.00     0.001 A 
ATOM     25  C   UNL     1      46.042 130.638  18.574  1.00  0.00     0.009 A 
ATOM     26  C   UNL     1      46.149 130.163  13.413  1.00  0.00     0.001 A 
ATOM     27  C   UNL     1      46.735 130.015  15.756  1.00  0.00     0.009 A 
ATOM     28  C   UNL     1      45.688 130.962  19.883  1.00  0.00     0.001 A 
ATOM     29  C   UNL     1      47.028 129.763  14.414  1.00  0.00     0.001 A 
ENDBRANCH  12  16
ENDBRANCH   9  10
ENDBRANCH   6   9
ENDBRANCH   1   6
TORSDOF 6
ENDMDL
MODEL 2
REMARK VINA RESULT:      -8.0      1.545      1.874
REMARK SMILES COC[C@@H](C)[NH2+]Cc1c(C)nnn1-c1cc2ccccc2c2ccccc12
REMARK SMILES IDX 4 1 5 2 3 3 2 4 1 5 6 6 7 9 8 10 9 11 13 12 11 13 12 14
REMARK SMILES IDX 10 15 14 16 15 17 27 18 16 19 26 20 22 21 17 22 21 23 25 24
REMARK SMILES IDX 23 25 18 26 20 27 24 28 19 29
REMARK H PARENT 6 7 6 8
ROOT
ATOM      1  C   UNL     1      42.892 136.334  17.351  1.00  0.00     0.205 C 
ATOM      2  C   UNL     1      41.478 135.902  17.783  1.00  0.00     0.078 C 
ENDROOT
BRANCH   1   3
ATOM      3  C   UNL     1      42.888 137.702  16.630  1.00  0.00     0.224 C 
BRANCH   3   4
ATOM      4  O   UNL     1      43.088 138.761  17.542  1.00  0.00    -0.379 OA
ATOM      5  C   UNL     1      41.974 139.625  17.509  1.00  0.00     0.195 C 
ENDBRANCH   3   4
ENDBRANCH   1   3
BRANCH   1   6
ATOM      6  N   UNL     1      43.622 135.283  16.597  1.00  0.00    -0.337 N 
ATOM      7  H   UNL     1      44.639 135.348  16.831  1.00  0.00     0.346 HD
ATOM      8  H   UNL     1      43.293 134.349  16.938  1.00  0.00     0.346 HD
BRANCH   6   9
ATOM      9  C   UNL     1      43.437 135.320  15.133  1.00  0.00     0.320 C 
BRANCH   9  10
ATOM     10  C   UNL     1      42.328 134.390  14.721  1.00  0.00     0.122 A 
ATOM     11  C   UNL     1      41.014 134.710  14.444  1.00  0.00     0.089 A 
ATOM     12  N   UNL     1      42.391 133.046  14.731  1.00  0.00    -0.211 N 
ATOM     13  N   UNL     1      40.326 133.560  14.281  1.00  0.00    -0.135 NA
ATOM     14  N   UNL     1      41.187 132.568  14.459  1.00  0.00    -0.062 NA
ATOM     15  C   UNL     1      40.404 136.073  14.403  1.00  0.00     0.071 C 
BRANCH  12  16
ATOM     16  C   UNL     1      43.541 132.236  15.012  1.00  0.00     0.075 A 
ATOM     17  C   UNL     1      44.314 131.787  13.944  1.00  0.00     0.037 A 
ATOM     18  C   UNL     1      43.911 131.921  16.336  1.00  0.00     0.008 A 
ATOM     19  C   UNL     1      45.457 131.014  14.159  1.00  0.00    -0.016 A 
ATOM     20  C   UNL     1      43.149 132.401  17.420  1.00  0.00     0.011 A 
ATOM     21  C   UNL     1      45.076 131.133  16.584  1.00  0.00    -0.008 A 
ATOM     22  C   UNL     1      46.213 130.590  13.053  1.00  0.00     0.009 A 
ATOM     23  C   UNL     1      45.856 130.670  15.479  1.00  0.00    -0.010 A 
ATOM     24  C   UNL     1      43.513 132.108  18.731  1.00  0.00     0.001 A 
ATOM     25  C   UNL     1      45.416 130.852  17.931  1.00  0.00     0.009 A 
ATOM     26  C   UNL     1      47.362 129.826  13.237  1.00  0.00     0.001 A 
ATOM     27  C   UNL     1      47.029 129.889  15.633  1.00  0.00     0.009 A 
ATOM     28  C   UNL     1      44.640 131.336  18.984  1.00  0.00     0.001 A 
ATOM     29  C   UNL     1      47.767 129.477  14.522  1.00  0.00     0.001 A 
ENDBRANCH  12  16
ENDBRANCH   9  10
ENDBRANCH   6   9
ENDBRANCH   1   6
TORSDOF 6
ENDMDL
MODEL 3
REMARK VINA RESULT:      -7.8      1.130      1.589
REMARK SMILES COC[C@@H](C)[NH2+]Cc1c(C)nnn1-c1cc2ccccc2c2ccccc12
REMARK SMILES IDX 4 1 5 2 3 3 2 4 1 5 6 6 7 9 8 10 9 11 13 12 11 13 12 14
REMARK SMILES IDX 10 15 14 16 15 17 27 18 16 19 26 20 22 21 17 22 21 23 25 24
REMARK SMILES IDX 23 25 18 26 20 27 24 28 19 29
REMARK H PARENT 6 7 6 8
ROOT
ATOM      1  C   UNL     1      43.848 136.174  16.859  1.00  0.00     0.205 C 
ATOM      2  C   UNL     1      44.625 135.081  16.104  1.00  0.00     0.078 C 
ENDROOT
BRANCH   1   3
ATOM      3  C   UNL     1      44.394 136.395  18.290  1.00  0.00     0.224 C 
BRANCH   3   4
ATOM      4  O   UNL     1      44.884 137.709  18.452  1.00  0.00    -0.379 OA
ATOM      5  C   UNL     1      45.808 137.737  19.517  1.00  0.00     0.195 C 
ENDBRANCH   3   4
ENDBRANCH   1   3
BRANCH   1   6
ATOM      6  N   UNL     1      42.376 135.979  16.825  1.00  0.00    -0.337 N 
ATOM      7  H   UNL     1      42.049 135.717  17.784  1.00  0.00     0.346 HD
ATOM      8  H   UNL     1      41.930 136.899  16.597  1.00  0.00     0.346 HD
BRANCH   6   9
ATOM      9  C   UNL     1      41.898 134.989  15.840  1.00  0.00     0.320 C 
BRANCH   9  10
ATOM     10  C   UNL     1      41.014 133.970  16.507  1.00  0.00     0.122 A 
ATOM     11  C   UNL     1      39.725 134.141  16.970  1.00  0.00     0.089 A 
ATOM     12  N   UNL     1      41.407 132.756  16.934  1.00  0.00    -0.211 N 
ATOM     13  N   UNL     1      39.370 133.028  17.646  1.00  0.00    -0.135 NA
ATOM     14  N   UNL     1      40.409 132.205  17.606  1.00  0.00    -0.062 NA
ATOM     15  C   UNL     1      38.870 135.359  16.837  1.00  0.00     0.071 C 
BRANCH  12  16
ATOM     16  C   UNL     1      42.688 132.142  16.736  1.00  0.00     0.075 A 
ATOM     17  C   UNL     1      43.078 131.820  15.439  1.00  0.00     0.037 A 
ATOM     18  C   UNL     1      43.557 131.895  17.819  1.00  0.00     0.008 A 
ATOM     19  C   UNL     1      44.323 131.242  15.185  1.00  0.00    -0.016 A 
ATOM     20  C   UNL     1      43.179 132.249  19.130  1.00  0.00     0.011 A 
ATOM     21  C   UNL     1      44.836 131.304  17.587  1.00  0.00    -0.008 A 
ATOM     22  C   UNL     1      44.680 130.941  13.860  1.00  0.00     0.009 A 
ATOM     23  C   UNL     1      45.222 130.970  16.252  1.00  0.00    -0.010 A 
ATOM     24  C   UNL     1      44.035 132.021  20.204  1.00  0.00     0.001 A 
ATOM     25  C   UNL     1      45.682 131.085  18.704  1.00  0.00     0.009 A 
ATOM     26  C   UNL     1      45.918 130.373  13.575  1.00  0.00     0.001 A 
ATOM     27  C   UNL     1      46.474 130.388  15.930  1.00  0.00     0.009 A 
ATOM     28  C   UNL     1      45.279 131.441  19.991  1.00  0.00     0.001 A 
ATOM     29  C   UNL     1      46.810 130.097  14.606  1.00  0.00     0.001 A 
ENDBRANCH  12  16
ENDBRANCH   9  10
ENDBRANCH   6   9
ENDBRANCH   1   6
TORSDOF 6
ENDMDL
MODEL 4
REMARK VINA RESULT:      -7.8      1.051      1.148
REMARK SMILES COC[C@@H](C)[NH2+]Cc1c(C)nnn1-c1cc2ccccc2c2ccccc12
REMARK SMILES IDX 4 1 5 2 3 3 2 4 1 5 6 6 7 9 8 10 9 11 13 12 11 13 12 14
REMARK SMILES IDX 10 15 14 16 15 17 27 18 16 19 26 20 22 21 17 22 21 23 25 24
REMARK SMILES IDX 23 25 18 26 20 27 24 28 19 29
REMARK H PARENT 6 7 6 8
ROOT
ATOM      1  C   UNL     1      43.923 136.388  17.728  1.00  0.00     0.205 C 
ATOM      2  C   UNL     1      44.201 135.432  18.902  1.00  0.00     0.078 C 
ENDROOT
BRANCH   1   3
ATOM      3  C   UNL     1      44.175 137.866  18.107  1.00  0.00     0.224 C 
BRANCH   3   4
ATOM      4  O   UNL     1      43.880 138.102  19.468  1.00  0.00    -0.379 OA
ATOM      5  C   UNL     1      42.739 138.923  19.565  1.00  0.00     0.195 C 
ENDBRANCH   3   4
ENDBRANCH   1   3
BRANCH   1   6
ATOM      6  N   UNL     1      42.598 136.171  17.094  1.00  0.00    -0.337 N 
ATOM      7  H   UNL     1      41.878 136.071  17.846  1.00  0.00     0.346 HD
ATOM      8  H   UNL     1      42.350 137.033  16.553  1.00  0.00     0.346 HD
BRANCH   6   9
ATOM      9  C   UNL     1      42.526 135.022  16.170  1.00  0.00     0.320 C 
BRANCH   9  10
ATOM     10  C   UNL     1      41.542 134.003  16.677  1.00  0.00     0.122 A 
ATOM     11  C   UNL     1      40.250 134.218  17.114  1.00  0.00     0.089 A 
ATOM     12  N   UNL     1      41.825 132.718  16.963  1.00  0.00    -0.211 N 
ATOM     13  N   UNL     1      39.785 133.063  17.636  1.00  0.00    -0.135 NA
ATOM     14  N   UNL     1      40.761 132.171  17.528  1.00  0.00    -0.062 NA
ATOM     15  C   UNL     1      39.494 135.506  17.105  1.00  0.00     0.071 C 
BRANCH  12  16
ATOM     16  C   UNL     1      43.063 132.034  16.733  1.00  0.00     0.075 A 
ATOM     17  C   UNL     1      43.438 131.758  15.421  1.00  0.00     0.037 A 
ATOM     18  C   UNL     1      43.910 131.672  17.802  1.00  0.00     0.008 A 
ATOM     19  C   UNL     1      44.643 131.114  15.136  1.00  0.00    -0.016 A 
ATOM     20  C   UNL     1      43.549 131.977  19.129  1.00  0.00     0.011 A 
ATOM     21  C   UNL     1      45.149 131.012  17.539  1.00  0.00    -0.008 A 
ATOM     22  C   UNL     1      44.986 130.864  13.797  1.00  0.00     0.009 A 
ATOM     23  C   UNL     1      45.518 130.726  16.188  1.00  0.00    -0.010 A 
ATOM     24  C   UNL     1      44.384 131.636  20.190  1.00  0.00     0.001 A 
ATOM     25  C   UNL     1      45.974 130.678  18.643  1.00  0.00     0.009 A 
ATOM     26  C   UNL     1      46.186 130.232  13.483  1.00  0.00     0.001 A 
ATOM     27  C   UNL     1      46.731 130.082  15.836  1.00  0.00     0.009 A 
ATOM     28  C   UNL     1      45.588 130.989  19.947  1.00  0.00     0.001 A 
ATOM     29  C   UNL     1      47.053 129.842  14.499  1.00  0.00     0.001 A 
ENDBRANCH  12  16
ENDBRANCH   9  10
ENDBRANCH   6   9
ENDBRANCH   1   6
TORSDOF 6
ENDMDL
MODEL 5
REMARK VINA RESULT:      -7.4      2.592      6.575
REMARK SMILES COC[C@@H](C)[NH2+]Cc1c(C)nnn1-c1cc2ccccc2c2ccccc12
REMARK SMILES IDX 4 1 5 2 3 3 2 4 1 5 6 6 7 9 8 10 9 11 13 12 11 13 12 14
REMARK SMILES IDX 10 15 14 16 15 17 27 18 16 19 26 20 22 21 17 22 21 23 25 24
REMARK SMILES IDX 23 25 18 26 20 27 24 28 19 29
REMARK H PARENT 6 7 6 8
ROOT
ATOM      1  C   UNL     1      45.425 130.670  14.446  1.00  0.00     0.205 C 
ATOM      2  C   UNL     1      45.091 129.289  15.039  1.00  0.00     0.078 C 
ENDROOT
BRANCH   1   3
ATOM      3  C   UNL     1      46.924 131.021  14.594  1.00  0.00     0.224 C 
BRANCH   3   4
ATOM      4  O   UNL     1      47.451 131.529  13.386  1.00  0.00    -0.379 OA
ATOM      5  C   UNL     1      47.160 130.636  12.335  1.00  0.00     0.195 C 
ENDBRANCH   3   4
ENDBRANCH   1   3
BRANCH   1   6
ATOM      6  N   UNL     1      44.527 131.749  14.928  1.00  0.00    -0.337 N 
ATOM      7  H   UNL     1      44.212 132.317  14.107  1.00  0.00     0.346 HD
ATOM      8  H   UNL     1      43.669 131.304  15.331  1.00  0.00     0.346 HD
BRANCH   6   9
ATOM      9  C   UNL     1      45.105 132.631  15.960  1.00  0.00     0.320 C 
BRANCH   9  10
ATOM     10  C   UNL     1      44.345 132.495  17.252  1.00  0.00     0.122 A 
ATOM     11  C   UNL     1      44.586 131.614  18.287  1.00  0.00     0.089 A 
ATOM     12  N   UNL     1      43.176 133.098  17.538  1.00  0.00    -0.211 N 
ATOM     13  N   UNL     1      43.571 131.716  19.171  1.00  0.00    -0.135 NA
ATOM     14  N   UNL     1      42.732 132.625  18.691  1.00  0.00    -0.062 NA
ATOM     15  C   UNL     1      45.715 130.643  18.405  1.00  0.00     0.071 C 
BRANCH  12  16
ATOM     16  C   UNL     1      42.486 134.069  16.740  1.00  0.00     0.075 A 
ATOM     17  C   UNL     1      41.508 133.628  15.854  1.00  0.00     0.037 A 
ATOM     18  C   UNL     1      42.758 135.447  16.866  1.00  0.00     0.008 A 
ATOM     19  C   UNL     1      40.789 134.530  15.068  1.00  0.00    -0.016 A 
ATOM     20  C   UNL     1      43.726 135.900  17.786  1.00  0.00     0.011 A 
ATOM     21  C   UNL     1      42.037 136.393  16.075  1.00  0.00    -0.008 A 
ATOM     22  C   UNL     1      39.804 134.043  14.193  1.00  0.00     0.009 A 
ATOM     23  C   UNL     1      41.042 135.927  15.161  1.00  0.00    -0.010 A 
ATOM     24  C   UNL     1      43.992 137.259  17.926  1.00  0.00     0.001 A 
ATOM     25  C   UNL     1      42.336 137.769  16.243  1.00  0.00     0.009 A 
ATOM     26  C   UNL     1      39.064 134.920  13.405  1.00  0.00     0.001 A 
ATOM     27  C   UNL     1      40.274 136.794  14.344  1.00  0.00     0.009 A 
ATOM     28  C   UNL     1      43.302 138.187  17.158  1.00  0.00     0.001 A 
ATOM     29  C   UNL     1      39.300 136.289  13.480  1.00  0.00     0.001 A 
ENDBRANCH  12  16
ENDBRANCH   9  10
ENDBRANCH   6   9
ENDBRANCH   1   6
TORSDOF 6
ENDMDL
MODEL 6
REMARK VINA RESULT:      -7.2      1.546      3.744
REMARK SMILES COC[C@@H](C)[NH2+]Cc1c(C)nnn1-c1cc2ccccc2c2ccccc12
REMARK SMILES IDX 4 1 5 2 3 3 2 4 1 5 6 6 7 9 8 10 9 11 13 12 11 13 12 14
REMARK SMILES IDX 10 15 14 16 15 17 27 18 16 19 26 20 22 21 17 22 21 23 25 24
REMARK SMILES IDX 23 25 18 26 20 27 24 28 19 29
REMARK H PARENT 6 7 6 8
ROOT
ATOM      1  C   UNL     1      42.660 137.237  17.734  1.00  0.00     0.205 C 
ATOM      2  C   UNL     1      42.878 138.309  16.651  1.00  0.00     0.078 C 
ENDROOT
BRANCH   1   3
ATOM      3  C   UNL     1      43.843 137.163  18.728  1.00  0.00     0.224 C 
BRANCH   3   4
ATOM      4  O   UNL     1      44.781 138.190  18.483  1.00  0.00    -0.379 OA
ATOM      5  C   UNL     1      46.002 137.869  19.109  1.00  0.00     0.195 C 
ENDBRANCH   3   4
ENDBRANCH   1   3
BRANCH   1   6
ATOM      6  N   UNL     1      42.284 135.911  17.182  1.00  0.00    -0.337 N 
ATOM      7  H   UNL     1      42.446 135.183  17.916  1.00  0.00     0.346 HD
ATOM      8  H   UNL     1      41.255 135.918  16.987  1.00  0.00     0.346 HD
BRANCH   6   9
ATOM      9  C   UNL     1      42.977 135.532  15.934  1.00  0.00     0.320 C 
BRANCH   9  10
ATOM     10  C   UNL     1      42.225 134.437  15.228  1.00  0.00     0.122 A 
ATOM     11  C   UNL     1      41.136 134.562  14.389  1.00  0.00     0.089 A 
ATOM     12  N   UNL     1      42.379 133.118  15.447  1.00  0.00    -0.211 N 
ATOM     13  N   UNL     1      40.674 133.324  14.113  1.00  0.00    -0.135 NA
ATOM     14  N   UNL     1      41.448 132.469  14.766  1.00  0.00    -0.062 NA
ATOM     15  C   UNL     1      40.500 135.827  13.914  1.00  0.00     0.071 C 
BRANCH  12  16
ATOM     16  C   UNL     1      43.356 132.488  16.287  1.00  0.00     0.075 A 
ATOM     17  C   UNL     1      43.304 132.723  17.658  1.00  0.00     0.037 A 
ATOM     18  C   UNL     1      44.333 131.622  15.754  1.00  0.00     0.008 A 
ATOM     19  C   UNL     1      44.215 132.120  18.527  1.00  0.00    -0.016 A 
ATOM     20  C   UNL     1      44.368 131.356  14.370  1.00  0.00     0.011 A 
ATOM     21  C   UNL     1      45.277 130.991  16.619  1.00  0.00    -0.008 A 
ATOM     22  C   UNL     1      44.121 132.378  19.904  1.00  0.00     0.009 A 
ATOM     23  C   UNL     1      45.219 131.247  18.024  1.00  0.00    -0.010 A 
ATOM     24  C   UNL     1      45.320 130.492  13.835  1.00  0.00     0.001 A 
ATOM     25  C   UNL     1      46.233 130.118  16.041  1.00  0.00     0.009 A 
ATOM     26  C   UNL     1      45.010 131.783  20.795  1.00  0.00     0.001 A 
ATOM     27  C   UNL     1      46.111 130.659  18.956  1.00  0.00     0.009 A 
ATOM     28  C   UNL     1      46.247 129.878  14.667  1.00  0.00     0.001 A 
ATOM     29  C   UNL     1      46.001 130.928  20.322  1.00  0.00     0.001 A 
ENDBRANCH  12  16
ENDBRANCH   9  10
ENDBRANCH   6   9
ENDBRANCH   1   6
TORSDOF 6
ENDMDL
MODEL 7
REMARK VINA RESULT:      -7.2      1.209      1.467
REMARK SMILES COC[C@@H](C)[NH2+]Cc1c(C)nnn1-c1cc2ccccc2c2ccccc12
REMARK SMILES IDX 4 1 5 2 3 3 2 4 1 5 6 6 7 9 8 10 9 11 13 12 11 13 12 14
REMARK SMILES IDX 10 15 14 16 15 17 27 18 16 19 26 20 22 21 17 22 21 23 25 24
REMARK SMILES IDX 23 25 18 26 20 27 24 28 19 29
REMARK H PARENT 6 7 6 8
ROOT
ATOM      1  C   UNL     1      41.858 136.873  15.497  1.00  0.00     0.205 C 
ATOM      2  C   UNL     1      42.935 137.752  14.835  1.00  0.00     0.078 C 
ENDROOT
BRANCH   1   3
ATOM      3  C   UNL     1      41.182 137.581  16.694  1.00  0.00     0.224 C 
BRANCH   3   4
ATOM      4  O   UNL     1      41.025 138.962  16.449  1.00  0.00    -0.379 OA
ATOM      5  C   UNL     1      39.680 139.231  16.121  1.00  0.00     0.195 C 
ENDBRANCH   3   4
ENDBRANCH   1   3
BRANCH   1   6
ATOM      6  N   UNL     1      42.337 135.507  15.827  1.00  0.00    -0.337 N 
ATOM      7  H   UNL     1      41.823 134.817  15.231  1.00  0.00     0.346 HD
ATOM      8  H   UNL     1      43.347 135.441  15.558  1.00  0.00     0.346 HD
BRANCH   6   9
ATOM      9  C   UNL     1      42.223 135.129  17.249  1.00  0.00     0.320 C 
BRANCH   9  10
ATOM     10  C   UNL     1      41.221 134.018  17.418  1.00  0.00     0.122 A 
ATOM     11  C   UNL     1      39.893 134.124  17.777  1.00  0.00     0.089 A 
ATOM     12  N   UNL     1      41.508 132.703  17.424  1.00  0.00    -0.211 N 
ATOM     13  N   UNL     1      39.411 132.879  17.974  1.00  0.00    -0.135 NA
ATOM     14  N   UNL     1      40.411 132.038  17.751  1.00  0.00    -0.062 NA
ATOM     15  C   UNL     1      39.112 135.378  17.998  1.00  0.00     0.071 C 
BRANCH  12  16
ATOM     16  C   UNL     1      42.776 132.093  17.153  1.00  0.00     0.075 A 
ATOM     17  C   UNL     1      43.136 131.865  15.827  1.00  0.00     0.037 A 
ATOM     18  C   UNL     1      43.665 131.756  18.195  1.00  0.00     0.008 A 
ATOM     19  C   UNL     1      44.368 131.295  15.503  1.00  0.00    -0.016 A 
ATOM     20  C   UNL     1      43.318 132.014  19.537  1.00  0.00     0.011 A 
ATOM     21  C   UNL     1      44.932 131.171  17.892  1.00  0.00    -0.008 A 
ATOM     22  C   UNL     1      44.693 131.091  14.152  1.00  0.00     0.009 A 
ATOM     23  C   UNL     1      45.286 130.934  16.527  1.00  0.00    -0.010 A 
ATOM     24  C   UNL     1      44.193 131.697  20.572  1.00  0.00     0.001 A 
ATOM     25  C   UNL     1      45.798 130.860  18.971  1.00  0.00     0.009 A 
ATOM     26  C   UNL     1      45.919 130.532  13.799  1.00  0.00     0.001 A 
ATOM     27  C   UNL     1      46.524 130.365  16.136  1.00  0.00     0.009 A 
ATOM     28  C   UNL     1      45.426 131.122  20.289  1.00  0.00     0.001 A 
ATOM     29  C   UNL     1      46.829 130.170  14.787  1.00  0.00     0.001 A 
ENDBRANCH  12  16
ENDBRANCH   9  10
ENDBRANCH   6   9
ENDBRANCH   1   6
TORSDOF 6
ENDMDL
MODEL 8
REMARK VINA RESULT:      -7.1      1.476      1.881
REMARK SMILES COC[C@@H](C)[NH2+]Cc1c(C)nnn1-c1cc2ccccc2c2ccccc12
REMARK SMILES IDX 4 1 5 2 3 3 2 4 1 5 6 6 7 9 8 10 9 11 13 12 11 13 12 14
REMARK SMILES IDX 10 15 14 16 15 17 27 18 16 19 26 20 22 21 17 22 21 23 25 24
REMARK SMILES IDX 23 25 18 26 20 27 24 28 19 29
REMARK H PARENT 6 7 6 8
ROOT
ATOM      1  C   UNL     1      41.744 135.227  15.331  1.00  0.00     0.205 C 
ATOM      2  C   UNL     1      42.821 135.133  14.235  1.00  0.00     0.078 C 
ENDROOT
BRANCH   1   3
ATOM      3  C   UNL     1      40.410 135.795  14.791  1.00  0.00     0.224 C 
BRANCH   3   4
ATOM      4  O   UNL     1      40.476 137.197  14.642  1.00  0.00    -0.379 OA
ATOM      5  C   UNL     1      39.239 137.766  15.011  1.00  0.00     0.195 C 
ENDBRANCH   3   4
ENDBRANCH   1   3
BRANCH   1   6
ATOM      6  N   UNL     1      42.214 135.919  16.558  1.00  0.00    -0.337 N 
ATOM      7  H   UNL     1      43.123 136.393  16.350  1.00  0.00     0.346 HD
ATOM      8  H   UNL     1      41.527 136.675  16.790  1.00  0.00     0.346 HD
BRANCH   6   9
ATOM      9  C   UNL     1      42.355 135.057  17.749  1.00  0.00     0.320 C 
BRANCH   9  10
ATOM     10  C   UNL     1      41.312 133.972  17.737  1.00  0.00     0.122 A 
ATOM     11  C   UNL     1      39.973 134.081  18.055  1.00  0.00     0.089 A 
ATOM     12  N   UNL     1      41.556 132.657  17.588  1.00  0.00    -0.211 N 
ATOM     13  N   UNL     1      39.444 132.840  18.075  1.00  0.00    -0.135 NA
ATOM     14  N   UNL     1      40.426 131.997  17.787  1.00  0.00    -0.062 NA
ATOM     15  C   UNL     1      39.224 135.326  18.402  1.00  0.00     0.071 C 
BRANCH  12  16
ATOM     16  C   UNL     1      42.815 132.039  17.292  1.00  0.00     0.075 A 
ATOM     17  C   UNL     1      43.144 131.804  15.959  1.00  0.00     0.037 A 
ATOM     18  C   UNL     1      43.725 131.701  18.316  1.00  0.00     0.008 A 
ATOM     19  C   UNL     1      44.365 131.225  15.611  1.00  0.00    -0.016 A 
ATOM     20  C   UNL     1      43.409 131.966  19.663  1.00  0.00     0.011 A 
ATOM     21  C   UNL     1      44.982 131.108  17.987  1.00  0.00    -0.008 A 
ATOM     22  C   UNL     1      44.660 131.015  14.254  1.00  0.00     0.009 A 
ATOM     23  C   UNL     1      45.304 130.863  16.616  1.00  0.00    -0.010 A 
ATOM     24  C   UNL     1      44.305 131.648  20.680  1.00  0.00     0.001 A 
ATOM     25  C   UNL     1      45.869 130.796  19.048  1.00  0.00     0.009 A 
ATOM     26  C   UNL     1      45.875 130.448  13.876  1.00  0.00     0.001 A 
ATOM     27  C   UNL     1      46.530 130.286  16.199  1.00  0.00     0.009 A 
ATOM     28  C   UNL     1      45.528 131.065  20.373  1.00  0.00     0.001 A 
ATOM     29  C   UNL     1      46.804 130.085  14.845  1.00  0.00     0.001 A 
ENDBRANCH  12  16
ENDBRANCH   9  10
ENDBRANCH   6   9
ENDBRANCH   1   6
TORSDOF 6
ENDMDL
MODEL 9
REMARK VINA RESULT:      -7.1      3.028      4.756
REMARK SMILES COC[C@@H](C)[NH2+]Cc1c(C)nnn1-c1cc2ccccc2c2ccccc12
REMARK SMILES IDX 4 1 5 2 3 3 2 4 1 5 6 6 7 9 8 10 9 11 13 12 11 13 12 14
REMARK SMILES IDX 10 15 14 16 15 17 27 18 16 19 26 20 22 21 17 22 21 23 25 24
REMARK SMILES IDX 23 25 18 26 20 27 24 28 19 29
REMARK H PARENT 6 7 6 8
ROOT
ATOM      1  C   UNL     1      47.351 135.302  21.462  1.00  0.00     0.205 C 
ATOM      2  C   UNL     1      48.520 134.842  22.352  1.00  0.00     0.078 C 
ENDROOT
BRANCH   1   3
ATOM      3  C   UNL     1      47.170 136.838  21.484  1.00  0.00     0.224 C 
BRANCH   3   4
ATOM      4  O   UNL     1      47.577 137.417  20.262  1.00  0.00    -0.379 OA
ATOM      5  C   UNL     1      46.439 137.760  19.504  1.00  0.00     0.195 C 
ENDBRANCH   3   4
ENDBRANCH   1   3
BRANCH   1   6
ATOM      6  N   UNL     1      46.088 134.566  21.725  1.00  0.00    -0.337 N 
ATOM      7  H   UNL     1      45.782 134.764  22.706  1.00  0.00     0.346 HD
ATOM      8  H   UNL     1      45.347 134.955  21.095  1.00  0.00     0.346 HD
BRANCH   6   9
ATOM      9  C   UNL     1      46.153 133.109  21.500  1.00  0.00     0.320 C 
BRANCH   9  10
ATOM     10  C   UNL     1      44.771 132.513  21.521  1.00  0.00     0.122 A 
ATOM     11  C   UNL     1      44.016 132.165  22.623  1.00  0.00     0.089 A 
ATOM     12  N   UNL     1      44.106 132.045  20.448  1.00  0.00    -0.211 N 
ATOM     13  N   UNL     1      42.916 131.514  22.189  1.00  0.00    -0.135 NA
ATOM     14  N   UNL     1      42.997 131.458  20.867  1.00  0.00    -0.062 NA
ATOM     15  C   UNL     1      44.360 132.380  24.060  1.00  0.00     0.071 C 
BRANCH  12  16
ATOM     16  C   UNL     1      44.512 132.126  19.075  1.00  0.00     0.075 A 
ATOM     17  C   UNL     1      45.184 131.043  18.515  1.00  0.00     0.037 A 
ATOM     18  C   UNL     1      44.214 133.258  18.289  1.00  0.00     0.008 A 
ATOM     19  C   UNL     1      45.583 131.057  17.178  1.00  0.00    -0.016 A 
ATOM     20  C   UNL     1      43.506 134.344  18.843  1.00  0.00     0.011 A 
ATOM     21  C   UNL     1      44.610 133.299  16.917  1.00  0.00    -0.008 A 
ATOM     22  C   UNL     1      46.250 129.939  16.651  1.00  0.00     0.009 A 
ATOM     23  C   UNL     1      45.308 132.185  16.356  1.00  0.00    -0.010 A 
ATOM     24  C   UNL     1      43.196 135.460  18.072  1.00  0.00     0.001 A 
ATOM     25  C   UNL     1      44.279 134.452  16.161  1.00  0.00     0.009 A 
ATOM     26  C   UNL     1      46.652 129.921  15.318  1.00  0.00     0.001 A 
ATOM     27  C   UNL     1      45.732 132.137  15.004  1.00  0.00     0.009 A 
ATOM     28  C   UNL     1      43.582 135.513  16.738  1.00  0.00     0.001 A 
ATOM     29  C   UNL     1      46.394 131.016  14.499  1.00  0.00     0.001 A 
ENDBRANCH  12  16
ENDBRANCH   9  10
ENDBRANCH   6   9
ENDBRANCH   1   6
TORSDOF 6
ENDMDL


