MODEL 1
REMARK VINA RESULT:      -6.1      0.000      0.000
REMARK SMILES Cc1[nH+]nn(C/C(C#N)=[NH+]\c2cccc(C#N)c2C)c1-c1cc2ccccc2c2ccccc12
REMARK SMILES IDX 10 1 11 3 13 4 14 5 12 6 15 7 18 8 19 9 16 10 17 11 7 12
REMARK SMILES IDX 8 13 9 14 6 15 5 16 4 17 20 18 3 19 2 20 1 22 21 23 22 24
REMARK SMILES IDX 34 25 23 26 33 27 29 28 24 29 28 30 32 31 30 32 25 33 27 34
REMARK SMILES IDX 31 35 26 36
REMARK H PARENT 10 2 3 21
ROOT
ATOM      1  N   UNL     1      43.037 132.485  14.962  1.00  0.00    -0.196 N 
ATOM      2  H   UNL     1      42.381 131.867  14.429  1.00  0.00     0.455 HD
ENDROOT
BRANCH   1   3
ATOM      3  C   UNL     1      42.715 133.886  14.970  1.00  0.00     0.208 A 
ATOM      4  C   UNL     1      43.471 136.166  15.319  1.00  0.00     0.008 A 
ATOM      5  C   UNL     1      42.189 136.641  15.050  1.00  0.00     0.020 A 
ATOM      6  C   UNL     1      43.732 134.797  15.284  1.00  0.00     0.079 A 
ATOM      7  C   UNL     1      41.166 135.753  14.696  1.00  0.00     0.062 A 
ATOM      8  C   UNL     1      41.429 134.365  14.607  1.00  0.00     0.038 A 
ATOM      9  C   UNL     1      40.345 133.417  14.148  1.00  0.00     0.053 C 
BRANCH   7  10
ATOM     10  C   UNL     1      39.855 136.291  14.422  1.00  0.00     0.100 C 
ATOM     11  N   UNL     1      38.803 136.724  14.203  1.00  0.00    -0.192 NA
ENDBRANCH   7  10
ENDBRANCH   1   3
BRANCH   1  12
ATOM     12  C   UNL     1      44.116 131.960  15.484  1.00  0.00     0.302 C 
BRANCH  12  13
ATOM     13  C   UNL     1      44.534 130.649  15.048  1.00  0.00     0.169 C 
ATOM     14  N   UNL     1      44.870 129.598  14.700  1.00  0.00    -0.186 NA
ENDBRANCH  12  13
BRANCH  12  15
ATOM     15  C   UNL     1      44.928 132.635  16.570  1.00  0.00     0.390 C 
BRANCH  15  16
ATOM     16  N   UNL     1      44.679 132.006  17.866  1.00  0.00    -0.118 N 
ATOM     17  N   UNL     1      45.496 131.125  18.427  1.00  0.00     0.089 NA
ATOM     18  C   UNL     1      43.698 132.291  18.751  1.00  0.00     0.201 A 
ATOM     19  N   UNL     1      45.066 130.823  19.642  1.00  0.00    -0.147 N 
ATOM     20  C   UNL     1      43.945 131.531  19.876  1.00  0.00     0.169 A 
ATOM     21  H   UNL     1      45.545 130.165  20.296  1.00  0.00     0.342 HD
ATOM     22  C   UNL     1      43.200 131.551  21.171  1.00  0.00     0.100 C 
BRANCH  18  23
ATOM     23  C   UNL     1      42.630 133.300  18.573  1.00  0.00     0.036 A 
ATOM     24  C   UNL     1      41.366 132.843  18.207  1.00  0.00     0.022 A 
ATOM     25  C   UNL     1      42.859 134.684  18.748  1.00  0.00    -0.006 A 
ATOM     26  C   UNL     1      40.305 133.731  18.018  1.00  0.00    -0.017 A 
ATOM     27  C   UNL     1      44.145 135.166  19.080  1.00  0.00     0.009 A 
ATOM     28  C   UNL     1      41.785 135.612  18.577  1.00  0.00    -0.010 A 
ATOM     29  C   UNL     1      39.045 133.225  17.660  1.00  0.00     0.009 A 
ATOM     30  C   UNL     1      40.496 135.128  18.196  1.00  0.00    -0.010 A 
ATOM     31  C   UNL     1      44.366 136.523  19.293  1.00  0.00     0.001 A 
ATOM     32  C   UNL     1      42.047 136.986  18.804  1.00  0.00     0.009 A 
ATOM     33  C   UNL     1      37.967 134.085  17.470  1.00  0.00     0.001 A 
ATOM     34  C   UNL     1      39.380 135.979  17.987  1.00  0.00     0.009 A 
ATOM     35  C   UNL     1      43.320 137.428  19.163  1.00  0.00     0.001 A 
ATOM     36  C   UNL     1      38.135 135.457  17.632  1.00  0.00     0.001 A 
ENDBRANCH  18  23
ENDBRANCH  15  16
ENDBRANCH  12  15
ENDBRANCH   1  12
TORSDOF 7
ENDMDL
MODEL 2
REMARK VINA RESULT:      -6.1      2.599      5.507
REMARK SMILES Cc1[nH+]nn(C/C(C#N)=[NH+]\c2cccc(C#N)c2C)c1-c1cc2ccccc2c2ccccc12
REMARK SMILES IDX 10 1 11 3 13 4 14 5 12 6 15 7 18 8 19 9 16 10 17 11 7 12
REMARK SMILES IDX 8 13 9 14 6 15 5 16 4 17 20 18 3 19 2 20 1 22 21 23 22 24
REMARK SMILES IDX 34 25 23 26 33 27 29 28 24 29 28 30 32 31 30 32 25 33 27 34
REMARK SMILES IDX 31 35 26 36
REMARK H PARENT 10 2 3 21
ROOT
ATOM      1  N   UNL     1      42.629 136.808  15.141  1.00  0.00    -0.196 N 
ATOM      2  H   UNL     1      43.348 136.601  14.408  1.00  0.00     0.455 HD
ENDROOT
BRANCH   1   3
ATOM      3  C   UNL     1      41.276 136.942  14.675  1.00  0.00     0.208 A 
ATOM      4  C   UNL     1      39.380 138.402  14.264  1.00  0.00     0.008 A 
ATOM      5  C   UNL     1      38.629 137.314  13.822  1.00  0.00     0.020 A 
ATOM      6  C   UNL     1      40.694 138.217  14.691  1.00  0.00     0.079 A 
ATOM      7  C   UNL     1      39.202 136.038  13.759  1.00  0.00     0.062 A 
ATOM      8  C   UNL     1      40.550 135.845  14.143  1.00  0.00     0.038 A 
ATOM      9  C   UNL     1      41.190 134.483  14.001  1.00  0.00     0.053 C 
BRANCH   7  10
ATOM     10  C   UNL     1      38.386 134.943  13.292  1.00  0.00     0.100 C 
ATOM     11  N   UNL     1      37.732 134.064  12.917  1.00  0.00    -0.192 NA
ENDBRANCH   7  10
ENDBRANCH   1   3
BRANCH   1  12
ATOM     12  C   UNL     1      43.024 137.012  16.371  1.00  0.00     0.302 C 
BRANCH  12  13
ATOM     13  C   UNL     1      43.207 138.369  16.829  1.00  0.00     0.169 C 
ATOM     14  N   UNL     1      43.353 139.457  17.196  1.00  0.00    -0.186 NA
ENDBRANCH  12  13
BRANCH  12  15
ATOM     15  C   UNL     1      43.353 135.892  17.336  1.00  0.00     0.390 C 
BRANCH  15  16
ATOM     16  N   UNL     1      42.156 135.112  17.649  1.00  0.00    -0.118 N 
ATOM     17  N   UNL     1      40.961 135.648  17.858  1.00  0.00     0.089 NA
ATOM     18  C   UNL     1      42.019 133.768  17.646  1.00  0.00     0.201 A 
ATOM     19  N   UNL     1      40.059 134.691  18.003  1.00  0.00    -0.147 N 
ATOM     20  C   UNL     1      40.684 133.505  17.878  1.00  0.00     0.169 A 
ATOM     21  H   UNL     1      39.040 134.853  18.161  1.00  0.00     0.342 HD
ATOM     22  C   UNL     1      40.004 132.174  17.881  1.00  0.00     0.100 C 
BRANCH  18  23
ATOM     23  C   UNL     1      43.083 132.784  17.349  1.00  0.00     0.036 A 
ATOM     24  C   UNL     1      43.267 132.412  16.019  1.00  0.00     0.022 A 
ATOM     25  C   UNL     1      43.892 132.215  18.361  1.00  0.00    -0.006 A 
ATOM     26  C   UNL     1      44.249 131.489  15.657  1.00  0.00    -0.017 A 
ATOM     27  C   UNL     1      43.692 132.552  19.717  1.00  0.00     0.009 A 
ATOM     28  C   UNL     1      44.915 131.280  18.013  1.00  0.00    -0.010 A 
ATOM     29  C   UNL     1      44.405 131.151  14.303  1.00  0.00     0.009 A 
ATOM     30  C   UNL     1      45.087 130.905  16.646  1.00  0.00    -0.010 A 
ATOM     31  C   UNL     1      44.511 132.026  20.712  1.00  0.00     0.001 A 
ATOM     32  C   UNL     1      45.731 130.766  19.053  1.00  0.00     0.009 A 
ATOM     33  C   UNL     1      45.379 130.237  13.911  1.00  0.00     0.001 A 
ATOM     34  C   UNL     1      46.064 129.971  16.215  1.00  0.00     0.009 A 
ATOM     35  C   UNL     1      45.530 131.143  20.380  1.00  0.00     0.001 A 
ATOM     36  C   UNL     1      46.204 129.649  14.864  1.00  0.00     0.001 A 
ENDBRANCH  18  23
ENDBRANCH  15  16
ENDBRANCH  12  15
ENDBRANCH   1  12
TORSDOF 7
ENDMDL
MODEL 3
REMARK VINA RESULT:      -6.0      2.182      5.088
REMARK SMILES Cc1[nH+]nn(C/C(C#N)=[NH+]\c2cccc(C#N)c2C)c1-c1cc2ccccc2c2ccccc12
REMARK SMILES IDX 10 1 11 3 13 4 14 5 12 6 15 7 18 8 19 9 16 10 17 11 7 12
REMARK SMILES IDX 8 13 9 14 6 15 5 16 4 17 20 18 3 19 2 20 1 22 21 23 22 24
REMARK SMILES IDX 34 25 23 26 33 27 29 28 24 29 28 30 32 31 30 32 25 33 27 34
REMARK SMILES IDX 31 35 26 36
REMARK H PARENT 10 2 3 21
ROOT
ATOM      1  N   UNL     1      43.029 131.966  15.530  1.00  0.00    -0.196 N 
ATOM      2  H   UNL     1      42.156 131.396  15.626  1.00  0.00     0.455 HD
ENDROOT
BRANCH   1   3
ATOM      3  C   UNL     1      44.257 131.298  15.865  1.00  0.00     0.208 A 
ATOM      4  C   UNL     1      45.781 130.550  17.601  1.00  0.00     0.008 A 
ATOM      5  C   UNL     1      46.646 130.043  16.633  1.00  0.00     0.020 A 
ATOM      6  C   UNL     1      44.596 131.177  17.220  1.00  0.00     0.079 A 
ATOM      7  C   UNL     1      46.310 130.115  15.276  1.00  0.00     0.062 A 
ATOM      8  C   UNL     1      45.086 130.705  14.878  1.00  0.00     0.038 A 
ATOM      9  C   UNL     1      44.688 130.712  13.419  1.00  0.00     0.053 C 
BRANCH   7  10
ATOM     10  C   UNL     1      47.235 129.573  14.310  1.00  0.00     0.100 C 
ATOM     11  N   UNL     1      47.978 129.137  13.536  1.00  0.00    -0.192 NA
ENDBRANCH   7  10
ENDBRANCH   1   3
BRANCH   1  12
ATOM     12  C   UNL     1      42.926 133.230  15.209  1.00  0.00     0.302 C 
BRANCH  12  13
ATOM     13  C   UNL     1      42.005 133.612  14.166  1.00  0.00     0.169 C 
ATOM     14  N   UNL     1      41.266 133.919  13.329  1.00  0.00    -0.186 NA
ENDBRANCH  12  13
BRANCH  12  15
ATOM     15  C   UNL     1      43.766 134.320  15.842  1.00  0.00     0.390 C 
BRANCH  15  16
ATOM     16  N   UNL     1      43.291 134.619  17.192  1.00  0.00    -0.118 N 
ATOM     17  N   UNL     1      44.011 134.422  18.288  1.00  0.00     0.089 NA
ATOM     18  C   UNL     1      42.148 135.247  17.548  1.00  0.00     0.201 A 
ATOM     19  N   UNL     1      43.364 134.891  19.342  1.00  0.00    -0.147 N 
ATOM     20  C   UNL     1      42.196 135.411  18.918  1.00  0.00     0.169 A 
ATOM     21  H   UNL     1      43.728 134.872  20.321  1.00  0.00     0.342 HD
ATOM     22  C   UNL     1      41.214 136.130  19.785  1.00  0.00     0.100 C 
BRANCH  18  23
ATOM     23  C   UNL     1      41.103 135.744  16.627  1.00  0.00     0.036 A 
ATOM     24  C   UNL     1      39.923 135.011  16.533  1.00  0.00     0.022 A 
ATOM     25  C   UNL     1      41.274 136.912  15.848  1.00  0.00    -0.006 A 
ATOM     26  C   UNL     1      38.889 135.413  15.685  1.00  0.00    -0.017 A 
ATOM     27  C   UNL     1      42.481 137.645  15.903  1.00  0.00     0.009 A 
ATOM     28  C   UNL     1      40.224 137.354  14.985  1.00  0.00    -0.010 A 
ATOM     29  C   UNL     1      37.712 134.648  15.630  1.00  0.00     0.009 A 
ATOM     30  C   UNL     1      39.022 136.587  14.895  1.00  0.00    -0.010 A 
ATOM     31  C   UNL     1      42.639 138.816  15.169  1.00  0.00     0.001 A 
ATOM     32  C   UNL     1      40.420 138.552  14.254  1.00  0.00     0.009 A 
ATOM     33  C   UNL     1      36.662 135.027  14.799  1.00  0.00     0.001 A 
ATOM     34  C   UNL     1      37.937 136.942  14.052  1.00  0.00     0.009 A 
ATOM     35  C   UNL     1      41.610 139.272  14.354  1.00  0.00     0.001 A 
ATOM     36  C   UNL     1      36.776 136.169  14.012  1.00  0.00     0.001 A 
ENDBRANCH  18  23
ENDBRANCH  15  16
ENDBRANCH  12  15
ENDBRANCH   1  12
TORSDOF 7
ENDMDL
MODEL 4
REMARK VINA RESULT:      -5.6      2.485      5.126
REMARK SMILES Cc1[nH+]nn(C/C(C#N)=[NH+]\c2cccc(C#N)c2C)c1-c1cc2ccccc2c2ccccc12
REMARK SMILES IDX 10 1 11 3 13 4 14 5 12 6 15 7 18 8 19 9 16 10 17 11 7 12
REMARK SMILES IDX 8 13 9 14 6 15 5 16 4 17 20 18 3 19 2 20 1 22 21 23 22 24
REMARK SMILES IDX 34 25 23 26 33 27 29 28 24 29 28 30 32 31 30 32 25 33 27 34
REMARK SMILES IDX 31 35 26 36
REMARK H PARENT 10 2 3 21
ROOT
ATOM      1  N   UNL     1      39.822 135.010  17.541  1.00  0.00    -0.196 N 
ATOM      2  H   UNL     1      39.104 135.685  17.894  1.00  0.00     0.455 HD
ENDROOT
BRANCH   1   3
ATOM      3  C   UNL     1      39.960 134.927  16.112  1.00  0.00     0.208 A 
ATOM      4  C   UNL     1      41.438 134.952  14.187  1.00  0.00     0.008 A 
ATOM      5  C   UNL     1      40.344 134.813  13.335  1.00  0.00     0.020 A 
ATOM      6  C   UNL     1      41.248 135.013  15.566  1.00  0.00     0.079 A 
ATOM      7  C   UNL     1      39.052 134.685  13.859  1.00  0.00     0.062 A 
ATOM      8  C   UNL     1      38.849 134.695  15.260  1.00  0.00     0.038 A 
ATOM      9  C   UNL     1      37.464 134.479  15.826  1.00  0.00     0.053 C 
BRANCH   7  10
ATOM     10  C   UNL     1      37.950 134.540  12.939  1.00  0.00     0.100 C 
ATOM     11  N   UNL     1      37.066 134.424  12.199  1.00  0.00    -0.192 NA
ENDBRANCH   7  10
ENDBRANCH   1   3
BRANCH   1  12
ATOM     12  C   UNL     1      40.452 134.251  18.401  1.00  0.00     0.302 C 
BRANCH  12  13
ATOM     13  C   UNL     1      40.748 132.885  18.041  1.00  0.00     0.169 C 
ATOM     14  N   UNL     1      40.985 131.790  17.753  1.00  0.00    -0.186 NA
ENDBRANCH  12  13
BRANCH  12  15
ATOM     15  C   UNL     1      40.845 134.716  19.788  1.00  0.00     0.390 C 
BRANCH  15  16
ATOM     16  N   UNL     1      41.902 135.724  19.713  1.00  0.00    -0.118 N 
ATOM     17  N   UNL     1      41.757 136.977  20.120  1.00  0.00     0.089 NA
ATOM     18  C   UNL     1      43.196 135.543  19.366  1.00  0.00     0.201 A 
ATOM     19  N   UNL     1      42.913 137.615  20.035  1.00  0.00    -0.147 N 
ATOM     20  C   UNL     1      43.833 136.751  19.566  1.00  0.00     0.169 A 
ATOM     21  H   UNL     1      43.065 138.610  20.313  1.00  0.00     0.342 HD
ATOM     22  C   UNL     1      45.289 137.050  19.415  1.00  0.00     0.100 C 
BRANCH  18  23
ATOM     23  C   UNL     1      43.817 134.266  18.950  1.00  0.00     0.036 A 
ATOM     24  C   UNL     1      44.023 134.062  17.587  1.00  0.00     0.022 A 
ATOM     25  C   UNL     1      44.186 133.265  19.878  1.00  0.00    -0.006 A 
ATOM     26  C   UNL     1      44.601 132.884  17.113  1.00  0.00    -0.017 A 
ATOM     27  C   UNL     1      43.947 133.440  21.259  1.00  0.00     0.009 A 
ATOM     28  C   UNL     1      44.795 132.056  19.419  1.00  0.00    -0.010 A 
ATOM     29  C   UNL     1      44.799 132.726  15.732  1.00  0.00     0.009 A 
ATOM     30  C   UNL     1      44.995 131.860  18.018  1.00  0.00    -0.010 A 
ATOM     31  C   UNL     1      44.345 132.476  22.180  1.00  0.00     0.001 A 
ATOM     32  C   UNL     1      45.189 131.097  20.387  1.00  0.00     0.009 A 
ATOM     33  C   UNL     1      45.379 131.564  15.230  1.00  0.00     0.001 A 
ATOM     34  C   UNL     1      45.575 130.686  17.475  1.00  0.00     0.009 A 
ATOM     35  C   UNL     1      44.970 131.314  21.747  1.00  0.00     0.001 A 
ATOM     36  C   UNL     1      45.764 130.547  16.099  1.00  0.00     0.001 A 
ENDBRANCH  18  23
ENDBRANCH  15  16
ENDBRANCH  12  15
ENDBRANCH   1  12
TORSDOF 7
ENDMDL
MODEL 5
REMARK VINA RESULT:      -5.5      2.140      5.687
REMARK SMILES Cc1[nH+]nn(C/C(C#N)=[NH+]\c2cccc(C#N)c2C)c1-c1cc2ccccc2c2ccccc12
REMARK SMILES IDX 10 1 11 3 13 4 14 5 12 6 15 7 18 8 19 9 16 10 17 11 7 12
REMARK SMILES IDX 8 13 9 14 6 15 5 16 4 17 20 18 3 19 2 20 1 22 21 23 22 24
REMARK SMILES IDX 34 25 23 26 33 27 29 28 24 29 28 30 32 31 30 32 25 33 27 34
REMARK SMILES IDX 31 35 26 36
REMARK H PARENT 10 2 3 21
ROOT
ATOM      1  N   UNL     1      45.438 133.084  15.942  1.00  0.00    -0.196 N 
ATOM      2  H   UNL     1      46.132 133.491  16.612  1.00  0.00     0.455 HD
ENDROOT
BRANCH   1   3
ATOM      3  C   UNL     1      45.803 131.832  15.339  1.00  0.00     0.208 A 
ATOM      4  C   UNL     1      47.074 130.669  13.628  1.00  0.00     0.008 A 
ATOM      5  C   UNL     1      46.560 129.450  14.064  1.00  0.00     0.020 A 
ATOM      6  C   UNL     1      46.696 131.853  14.259  1.00  0.00     0.079 A 
ATOM      7  C   UNL     1      45.698 129.399  15.166  1.00  0.00     0.062 A 
ATOM      8  C   UNL     1      45.345 130.589  15.847  1.00  0.00     0.038 A 
ATOM      9  C   UNL     1      44.478 130.524  17.084  1.00  0.00     0.053 C 
BRANCH   7  10
ATOM     10  C   UNL     1      45.193 128.113  15.583  1.00  0.00     0.100 C 
ATOM     11  N   UNL     1      44.787 127.081  15.918  1.00  0.00    -0.192 NA
ENDBRANCH   7  10
ENDBRANCH   1   3
BRANCH   1  12
ATOM     12  C   UNL     1      44.365 133.774  15.649  1.00  0.00     0.302 C 
BRANCH  12  13
ATOM     13  C   UNL     1      43.223 133.086  15.097  1.00  0.00     0.169 C 
ATOM     14  N   UNL     1      42.307 132.533  14.654  1.00  0.00    -0.186 NA
ENDBRANCH  12  13
BRANCH  12  15
ATOM     15  C   UNL     1      44.273 135.277  15.809  1.00  0.00     0.390 C 
BRANCH  15  16
ATOM     16  N   UNL     1      42.991 135.655  16.401  1.00  0.00    -0.118 N 
ATOM     17  N   UNL     1      41.963 136.117  15.702  1.00  0.00     0.089 NA
ATOM     18  C   UNL     1      42.586 135.483  17.679  1.00  0.00     0.201 A 
ATOM     19  N   UNL     1      40.911 136.261  16.492  1.00  0.00    -0.147 N 
ATOM     20  C   UNL     1      41.264 135.877  17.733  1.00  0.00     0.169 A 
ATOM     21  H   UNL     1      39.972 136.593  16.177  1.00  0.00     0.342 HD
ATOM     22  C   UNL     1      40.335 135.795  18.900  1.00  0.00     0.100 C 
BRANCH  18  23
ATOM     23  C   UNL     1      43.386 134.893  18.775  1.00  0.00     0.036 A 
ATOM     24  C   UNL     1      43.113 133.575  19.135  1.00  0.00     0.022 A 
ATOM     25  C   UNL     1      44.388 135.620  19.458  1.00  0.00    -0.006 A 
ATOM     26  C   UNL     1      43.823 132.946  20.160  1.00  0.00    -0.017 A 
ATOM     27  C   UNL     1      44.648 136.969  19.131  1.00  0.00     0.009 A 
ATOM     28  C   UNL     1      45.139 134.993  20.500  1.00  0.00    -0.010 A 
ATOM     29  C   UNL     1      43.521 131.613  20.482  1.00  0.00     0.009 A 
ATOM     30  C   UNL     1      44.844 133.643  20.861  1.00  0.00    -0.010 A 
ATOM     31  C   UNL     1      45.660 137.677  19.772  1.00  0.00     0.001 A 
ATOM     32  C   UNL     1      46.163 135.744  21.130  1.00  0.00     0.009 A 
ATOM     33  C   UNL     1      44.215 130.957  21.496  1.00  0.00     0.001 A 
ATOM     34  C   UNL     1      45.527 132.950  21.893  1.00  0.00     0.009 A 
ATOM     35  C   UNL     1      46.419 137.065  20.762  1.00  0.00     0.001 A 
ATOM     36  C   UNL     1      45.214 131.625  22.199  1.00  0.00     0.001 A 
ENDBRANCH  18  23
ENDBRANCH  15  16
ENDBRANCH  12  15
ENDBRANCH   1  12
TORSDOF 7
ENDMDL
MODEL 6
REMARK VINA RESULT:      -5.5      1.302      3.236
REMARK SMILES Cc1[nH+]nn(C/C(C#N)=[NH+]\c2cccc(C#N)c2C)c1-c1cc2ccccc2c2ccccc12
REMARK SMILES IDX 10 1 11 3 13 4 14 5 12 6 15 7 18 8 19 9 16 10 17 11 7 12
REMARK SMILES IDX 8 13 9 14 6 15 5 16 4 17 20 18 3 19 2 20 1 22 21 23 22 24
REMARK SMILES IDX 34 25 23 26 33 27 29 28 24 29 28 30 32 31 30 32 25 33 27 34
REMARK SMILES IDX 31 35 26 36
REMARK H PARENT 10 2 3 21
ROOT
ATOM      1  N   UNL     1      44.510 133.689  15.553  1.00  0.00    -0.196 N 
ATOM      2  H   UNL     1      45.180 134.450  15.812  1.00  0.00     0.455 HD
ENDROOT
BRANCH   1   3
ATOM      3  C   UNL     1      43.191 134.113  15.169  1.00  0.00     0.208 A 
ATOM      4  C   UNL     1      40.965 133.486  14.432  1.00  0.00     0.008 A 
ATOM      5  C   UNL     1      40.598 134.829  14.373  1.00  0.00     0.020 A 
ATOM      6  C   UNL     1      42.254 133.130  14.824  1.00  0.00     0.079 A 
ATOM      7  C   UNL     1      41.504 135.827  14.752  1.00  0.00     0.062 A 
ATOM      8  C   UNL     1      42.800 135.477  15.199  1.00  0.00     0.038 A 
ATOM      9  C   UNL     1      43.750 136.550  15.682  1.00  0.00     0.053 C 
BRANCH   7  10
ATOM     10  C   UNL     1      41.078 137.205  14.677  1.00  0.00     0.100 C 
ATOM     11  N   UNL     1      40.737 138.310  14.617  1.00  0.00    -0.192 NA
ENDBRANCH   7  10
ENDBRANCH   1   3
BRANCH   1  12
ATOM     12  C   UNL     1      44.890 132.443  15.683  1.00  0.00     0.302 C 
BRANCH  12  13
ATOM     13  C   UNL     1      46.057 131.992  14.964  1.00  0.00     0.169 C 
ATOM     14  N   UNL     1      46.993 131.629  14.387  1.00  0.00    -0.186 NA
ENDBRANCH  12  13
BRANCH  12  15
ATOM     15  C   UNL     1      44.135 131.426  16.512  1.00  0.00     0.390 C 
BRANCH  15  16
ATOM     16  N   UNL     1      44.681 131.359  17.867  1.00  0.00    -0.118 N 
ATOM     17  N   UNL     1      45.569 130.456  18.261  1.00  0.00     0.089 NA
ATOM     18  C   UNL     1      44.501 132.238  18.877  1.00  0.00     0.201 A 
ATOM     19  N   UNL     1      45.958 130.718  19.498  1.00  0.00    -0.147 N 
ATOM     20  C   UNL     1      45.310 131.822  19.915  1.00  0.00     0.169 A 
ATOM     21  H   UNL     1      46.666 130.163  20.029  1.00  0.00     0.342 HD
ATOM     22  C   UNL     1      45.541 132.507  21.223  1.00  0.00     0.100 C 
BRANCH  18  23
ATOM     23  C   UNL     1      43.670 133.462  18.830  1.00  0.00     0.036 A 
ATOM     24  C   UNL     1      44.298 134.679  19.089  1.00  0.00     0.022 A 
ATOM     25  C   UNL     1      42.285 133.426  18.548  1.00  0.00    -0.006 A 
ATOM     26  C   UNL     1      43.584 135.878  19.064  1.00  0.00    -0.017 A 
ATOM     27  C   UNL     1      41.627 132.197  18.323  1.00  0.00     0.009 A 
ATOM     28  C   UNL     1      41.535 134.642  18.501  1.00  0.00    -0.010 A 
ATOM     29  C   UNL     1      44.260 137.082  19.321  1.00  0.00     0.009 A 
ATOM     30  C   UNL     1      42.192 135.881  18.774  1.00  0.00    -0.010 A 
ATOM     31  C   UNL     1      40.273 132.160  18.005  1.00  0.00     0.001 A 
ATOM     32  C   UNL     1      40.158 134.566  18.173  1.00  0.00     0.009 A 
ATOM     33  C   UNL     1      43.576 138.294  19.299  1.00  0.00     0.001 A 
ATOM     34  C   UNL     1      41.522 137.131  18.767  1.00  0.00     0.009 A 
ATOM     35  C   UNL     1      39.544 133.339  17.923  1.00  0.00     0.001 A 
ATOM     36  C   UNL     1      42.212 138.318  19.024  1.00  0.00     0.001 A 
ENDBRANCH  18  23
ENDBRANCH  15  16
ENDBRANCH  12  15
ENDBRANCH   1  12
TORSDOF 7
ENDMDL
MODEL 7
REMARK VINA RESULT:      -5.5      2.328      5.846
REMARK SMILES Cc1[nH+]nn(C/C(C#N)=[NH+]\c2cccc(C#N)c2C)c1-c1cc2ccccc2c2ccccc12
REMARK SMILES IDX 10 1 11 3 13 4 14 5 12 6 15 7 18 8 19 9 16 10 17 11 7 12
REMARK SMILES IDX 8 13 9 14 6 15 5 16 4 17 20 18 3 19 2 20 1 22 21 23 22 24
REMARK SMILES IDX 34 25 23 26 33 27 29 28 24 29 28 30 32 31 30 32 25 33 27 34
REMARK SMILES IDX 31 35 26 36
REMARK H PARENT 10 2 3 21
ROOT
ATOM      1  N   UNL     1      43.727 131.449  14.434  1.00  0.00    -0.196 N 
ATOM      2  H   UNL     1      43.267 131.011  13.603  1.00  0.00     0.455 HD
ENDROOT
BRANCH   1   3
ATOM      3  C   UNL     1      44.913 130.796  14.915  1.00  0.00     0.208 A 
ATOM      4  C   UNL     1      46.137 129.892  16.807  1.00  0.00     0.008 A 
ATOM      5  C   UNL     1      47.198 129.554  15.969  1.00  0.00     0.020 A 
ATOM      6  C   UNL     1      45.004 130.513  16.284  1.00  0.00     0.079 A 
ATOM      7  C   UNL     1      47.114 129.790  14.592  1.00  0.00     0.062 A 
ATOM      8  C   UNL     1      45.948 130.374  14.040  1.00  0.00     0.038 A 
ATOM      9  C   UNL     1      45.827 130.556  12.545  1.00  0.00     0.053 C 
BRANCH   7  10
ATOM     10  C   UNL     1      48.236 129.419  13.762  1.00  0.00     0.100 C 
ATOM     11  N   UNL     1      49.136 129.122  13.097  1.00  0.00    -0.192 NA
ENDBRANCH   7  10
ENDBRANCH   1   3
BRANCH   1  12
ATOM     12  C   UNL     1      43.150 132.475  15.007  1.00  0.00     0.302 C 
BRANCH  12  13
ATOM     13  C   UNL     1      42.138 133.202  14.278  1.00  0.00     0.169 C 
ATOM     14  N   UNL     1      41.326 133.784  13.694  1.00  0.00    -0.186 NA
ENDBRANCH  12  13
BRANCH  12  15
ATOM     15  C   UNL     1      43.526 132.979  16.385  1.00  0.00     0.390 C 
BRANCH  15  16
ATOM     16  N   UNL     1      42.329 133.236  17.184  1.00  0.00    -0.118 N 
ATOM     17  N   UNL     1      41.234 132.490  17.133  1.00  0.00     0.089 NA
ATOM     18  C   UNL     1      42.171 134.145  18.171  1.00  0.00     0.201 A 
ATOM     19  N   UNL     1      40.369 132.897  18.048  1.00  0.00    -0.147 N 
ATOM     20  C   UNL     1      40.920 133.930  18.713  1.00  0.00     0.169 A 
ATOM     21  H   UNL     1      39.436 132.461  18.221  1.00  0.00     0.342 HD
ATOM     22  C   UNL     1      40.307 134.614  19.891  1.00  0.00     0.100 C 
BRANCH  18  23
ATOM     23  C   UNL     1      43.191 135.111  18.637  1.00  0.00     0.036 A 
ATOM     24  C   UNL     1      43.170 136.389  18.081  1.00  0.00     0.022 A 
ATOM     25  C   UNL     1      44.170 134.775  19.600  1.00  0.00    -0.006 A 
ATOM     26  C   UNL     1      44.098 137.358  18.466  1.00  0.00    -0.017 A 
ATOM     27  C   UNL     1      44.228 133.473  20.143  1.00  0.00     0.009 A 
ATOM     28  C   UNL     1      45.121 135.755  20.022  1.00  0.00    -0.010 A 
ATOM     29  C   UNL     1      44.033 138.636  17.886  1.00  0.00     0.009 A 
ATOM     30  C   UNL     1      45.090 137.058  19.439  1.00  0.00    -0.010 A 
ATOM     31  C   UNL     1      45.164 133.148  21.120  1.00  0.00     0.001 A 
ATOM     32  C   UNL     1      46.058 135.389  21.021  1.00  0.00     0.009 A 
ATOM     33  C   UNL     1      44.942 139.624  18.254  1.00  0.00     0.001 A 
ATOM     34  C   UNL     1      46.006 138.084  19.786  1.00  0.00     0.009 A 
ATOM     35  C   UNL     1      46.069 134.104  21.562  1.00  0.00     0.001 A 
ATOM     36  C   UNL     1      45.925 139.349  19.199  1.00  0.00     0.001 A 
ENDBRANCH  18  23
ENDBRANCH  15  16
ENDBRANCH  12  15
ENDBRANCH   1  12
TORSDOF 7
ENDMDL
MODEL 8
REMARK VINA RESULT:      -5.5      2.247      5.593
REMARK SMILES Cc1[nH+]nn(C/C(C#N)=[NH+]\c2cccc(C#N)c2C)c1-c1cc2ccccc2c2ccccc12
REMARK SMILES IDX 10 1 11 3 13 4 14 5 12 6 15 7 18 8 19 9 16 10 17 11 7 12
REMARK SMILES IDX 8 13 9 14 6 15 5 16 4 17 20 18 3 19 2 20 1 22 21 23 22 24
REMARK SMILES IDX 34 25 23 26 33 27 29 28 24 29 28 30 32 31 30 32 25 33 27 34
REMARK SMILES IDX 31 35 26 36
REMARK H PARENT 10 2 3 21
ROOT
ATOM      1  N   UNL     1      43.407 133.096  16.228  1.00  0.00    -0.196 N 
ATOM      2  H   UNL     1      43.780 134.056  16.040  1.00  0.00     0.455 HD
ENDROOT
BRANCH   1   3
ATOM      3  C   UNL     1      44.386 132.086  16.522  1.00  0.00     0.208 A 
ATOM      4  C   UNL     1      45.632 130.860  18.206  1.00  0.00     0.008 A 
ATOM      5  C   UNL     1      46.307 130.159  17.209  1.00  0.00     0.020 A 
ATOM      6  C   UNL     1      44.681 131.820  17.865  1.00  0.00     0.079 A 
ATOM      7  C   UNL     1      46.000 130.378  15.860  1.00  0.00     0.062 A 
ATOM      8  C   UNL     1      45.001 131.314  15.501  1.00  0.00     0.038 A 
ATOM      9  C   UNL     1      44.617 131.492  14.050  1.00  0.00     0.053 C 
BRANCH   7  10
ATOM     10  C   UNL     1      46.722 129.625  14.862  1.00  0.00     0.100 C 
ATOM     11  N   UNL     1      47.301 129.022  14.060  1.00  0.00    -0.192 NA
ENDBRANCH   7  10
ENDBRANCH   1   3
BRANCH   1  12
ATOM     12  C   UNL     1      42.123 132.880  16.096  1.00  0.00     0.302 C 
BRANCH  12  13
ATOM     13  C   UNL     1      41.449 133.385  14.923  1.00  0.00     0.169 C 
ATOM     14  N   UNL     1      40.907 133.789  13.984  1.00  0.00    -0.186 NA
ENDBRANCH  12  13
BRANCH  12  15
ATOM     15  C   UNL     1      41.286 132.171  17.140  1.00  0.00     0.390 C 
BRANCH  15  16
ATOM     16  N   UNL     1      40.372 133.107  17.793  1.00  0.00    -0.118 N 
ATOM     17  N   UNL     1      39.062 133.118  17.595  1.00  0.00     0.089 NA
ATOM     18  C   UNL     1      40.656 133.996  18.770  1.00  0.00     0.201 A 
ATOM     19  N   UNL     1      38.491 133.995  18.406  1.00  0.00    -0.147 N 
ATOM     20  C   UNL     1      39.457 134.563  19.152  1.00  0.00     0.169 A 
ATOM     21  H   UNL     1      37.464 134.178  18.456  1.00  0.00     0.342 HD
ATOM     22  C   UNL     1      39.220 135.537  20.260  1.00  0.00     0.100 C 
BRANCH  18  23
ATOM     23  C   UNL     1      41.986 134.232  19.374  1.00  0.00     0.036 A 
ATOM     24  C   UNL     1      42.425 133.332  20.343  1.00  0.00     0.022 A 
ATOM     25  C   UNL     1      42.799 135.331  19.010  1.00  0.00    -0.006 A 
ATOM     26  C   UNL     1      43.667 133.486  20.961  1.00  0.00    -0.017 A 
ATOM     27  C   UNL     1      42.351 136.274  18.058  1.00  0.00     0.009 A 
ATOM     28  C   UNL     1      44.082 135.501  19.616  1.00  0.00    -0.010 A 
ATOM     29  C   UNL     1      44.073 132.548  21.924  1.00  0.00     0.009 A 
ATOM     30  C   UNL     1      44.515 134.572  20.612  1.00  0.00    -0.010 A 
ATOM     31  C   UNL     1      43.163 137.334  17.667  1.00  0.00     0.001 A 
ATOM     32  C   UNL     1      44.882 136.591  19.192  1.00  0.00     0.009 A 
ATOM     33  C   UNL     1      45.308 132.673  22.554  1.00  0.00     0.001 A 
ATOM     34  C   UNL     1      45.764 134.676  21.277  1.00  0.00     0.009 A 
ATOM     35  C   UNL     1      44.426 137.487  18.225  1.00  0.00     0.001 A 
ATOM     36  C   UNL     1      46.149 133.733  22.232  1.00  0.00     0.001 A 
ENDBRANCH  18  23
ENDBRANCH  15  16
ENDBRANCH  12  15
ENDBRANCH   1  12
TORSDOF 7
ENDMDL
MODEL 9
REMARK VINA RESULT:      -5.3      2.371      5.289
REMARK SMILES Cc1[nH+]nn(C/C(C#N)=[NH+]\c2cccc(C#N)c2C)c1-c1cc2ccccc2c2ccccc12
REMARK SMILES IDX 10 1 11 3 13 4 14 5 12 6 15 7 18 8 19 9 16 10 17 11 7 12
REMARK SMILES IDX 8 13 9 14 6 15 5 16 4 17 20 18 3 19 2 20 1 22 21 23 22 24
REMARK SMILES IDX 34 25 23 26 33 27 29 28 24 29 28 30 32 31 30 32 25 33 27 34
REMARK SMILES IDX 31 35 26 36
REMARK H PARENT 10 2 3 21
ROOT
ATOM      1  N   UNL     1      39.656 134.443  14.647  1.00  0.00    -0.196 N 
ATOM      2  H   UNL     1      38.858 133.887  14.258  1.00  0.00     0.455 HD
ENDROOT
BRANCH   1   3
ATOM      3  C   UNL     1      39.642 135.851  14.361  1.00  0.00     0.208 A 
ATOM      4  C   UNL     1      40.889 137.928  14.201  1.00  0.00     0.008 A 
ATOM      5  C   UNL     1      39.724 138.610  13.858  1.00  0.00     0.020 A 
ATOM      6  C   UNL     1      40.848 136.557  14.455  1.00  0.00     0.079 A 
ATOM      7  C   UNL     1      38.514 137.919  13.719  1.00  0.00     0.062 A 
ATOM      8  C   UNL     1      38.468 136.519  13.925  1.00  0.00     0.038 A 
ATOM      9  C   UNL     1      37.179 135.763  13.698  1.00  0.00     0.053 C 
BRANCH   7  10
ATOM     10  C   UNL     1      37.333 138.668  13.359  1.00  0.00     0.100 C 
ATOM     11  N   UNL     1      36.387 139.269  13.070  1.00  0.00    -0.192 NA
ENDBRANCH   7  10
ENDBRANCH   1   3
BRANCH   1  12
ATOM     12  C   UNL     1      40.620 133.812  15.267  1.00  0.00     0.302 C 
BRANCH  12  13
ATOM     13  C   UNL     1      41.527 132.994  14.497  1.00  0.00     0.169 C 
ATOM     14  N   UNL     1      42.253 132.338  13.880  1.00  0.00    -0.186 NA
ENDBRANCH  12  13
BRANCH  12  15
ATOM     15  C   UNL     1      40.809 133.851  16.769  1.00  0.00     0.390 C 
BRANCH  15  16
ATOM     16  N   UNL     1      41.703 134.944  17.149  1.00  0.00    -0.118 N 
ATOM     17  N   UNL     1      41.290 136.176  17.412  1.00  0.00     0.089 NA
ATOM     18  C   UNL     1      43.024 134.876  17.424  1.00  0.00     0.201 A 
ATOM     19  N   UNL     1      42.307 136.909  17.836  1.00  0.00    -0.147 N 
ATOM     20  C   UNL     1      43.405 136.130  17.855  1.00  0.00     0.169 A 
ATOM     21  H   UNL     1      42.238 137.911  18.125  1.00  0.00     0.342 HD
ATOM     22  C   UNL     1      44.745 136.552  18.365  1.00  0.00     0.100 C 
BRANCH  18  23
ATOM     23  C   UNL     1      43.865 133.659  17.367  1.00  0.00     0.036 A 
ATOM     24  C   UNL     1      44.424 133.318  16.137  1.00  0.00     0.022 A 
ATOM     25  C   UNL     1      44.099 132.846  18.500  1.00  0.00    -0.006 A 
ATOM     26  C   UNL     1      45.228 132.186  16.000  1.00  0.00    -0.017 A 
ATOM     27  C   UNL     1      43.508 133.157  19.744  1.00  0.00     0.009 A 
ATOM     28  C   UNL     1      44.932 131.691  18.388  1.00  0.00    -0.010 A 
ATOM     29  C   UNL     1      45.779 131.887  14.743  1.00  0.00     0.009 A 
ATOM     30  C   UNL     1      45.494 131.352  17.119  1.00  0.00    -0.010 A 
ATOM     31  C   UNL     1      43.767 132.383  20.871  1.00  0.00     0.001 A 
ATOM     32  C   UNL     1      45.176 130.927  19.558  1.00  0.00     0.009 A 
ATOM     33  C   UNL     1      46.589 130.767  14.576  1.00  0.00     0.001 A 
ATOM     34  C   UNL     1      46.316 130.214  16.915  1.00  0.00     0.009 A 
ATOM     35  C   UNL     1      44.604 131.278  20.780  1.00  0.00     0.001 A 
ATOM     36  C   UNL     1      46.855 129.933  15.658  1.00  0.00     0.001 A 
ENDBRANCH  18  23
ENDBRANCH  15  16
ENDBRANCH  12  15
ENDBRANCH   1  12
TORSDOF 7
ENDMDL


