MODEL 1
REMARK VINA RESULT:      -7.0      0.000      0.000
REMARK SMILES C#CCO/C([O-])=C\[C@H]1CC[C@@H]2C(O/C([O-])=C/CC)=NC(=O)c3c(N=[N+]=[N-])cc(Cl)c1c32
REMARK SMILES IDX 8 1 30 2 28 3 29 4 27 5 23 6 22 7 31 8 11 9 12 10 19 11
REMARK SMILES IDX 20 12 21 13 10 14 9 15 7 16 5 17 6 18 4 19 3 20 2 21 1 22
REMARK SMILES IDX 24 23 25 24 26 25 13 26 14 27 15 28 16 29 17 30 18 31
REMARK H PARENT
ROOT
ATOM      1  C   UNL     1      41.899 134.154  16.265  1.00  0.00     0.045 C 
ATOM      2  C   UNL     1      42.272 133.407  17.552  1.00  0.00    -0.018 A 
ATOM      3  C   UNL     1      41.381 133.411  18.650  1.00  0.00     0.045 A 
ATOM      4  Cl  UNL     1      39.798 134.185  18.576  1.00  0.00    -0.084 Cl
ATOM      5  C   UNL     1      41.726 132.773  19.840  1.00  0.00     0.032 A 
ATOM      6  C   UNL     1      42.939 132.081  19.966  1.00  0.00     0.052 A 
ATOM      7  C   UNL     1      43.816 132.017  18.860  1.00  0.00     0.056 A 
ATOM      8  C   UNL     1      43.484 132.675  17.655  1.00  0.00    -0.020 A 
ATOM      9  C   UNL     1      44.461 132.658  16.489  1.00  0.00     0.077 C 
ATOM     10  C   UNL     1      45.440 131.501  16.535  1.00  0.00     0.091 C 
ATOM     11  N   UNL     1      45.721 130.908  17.657  1.00  0.00    -0.205 NA
ATOM     12  C   UNL     1      45.055 131.208  18.882  1.00  0.00     0.278 C 
ATOM     13  O   UNL     1      45.521 130.744  19.956  1.00  0.00    -0.267 OA
ATOM     14  C   UNL     1      43.681 132.673  15.170  1.00  0.00     0.016 C 
ATOM     15  C   UNL     1      42.879 133.968  15.079  1.00  0.00     0.014 C 
ENDROOT
BRANCH   1  16
ATOM     16  C   UNL     1      41.694 135.634  16.521  1.00  0.00     0.005 C 
BRANCH  16  17
ATOM     17  C   UNL     1      42.586 136.570  16.176  1.00  0.00     0.049 C 
ATOM     18  O   UNL     1      42.637 137.014  14.858  1.00  0.00    -0.547 OA
BRANCH  17  19
ATOM     19  O   UNL     1      43.453 137.105  17.133  1.00  0.00    -0.601 OA
BRANCH  19  20
ATOM     20  C   UNL     1      44.568 136.393  17.648  1.00  0.00     0.160 C 
BRANCH  20  21
ATOM     21  C   UNL     1      44.343 136.131  19.071  1.00  0.00    -0.095 C 
ATOM     22  C   UNL     1      44.154 135.926  20.242  1.00  0.00     0.005 C 
ENDBRANCH  20  21
ENDBRANCH  19  20
ENDBRANCH  17  19
ENDBRANCH  16  17
ENDBRANCH   1  16
BRANCH   6  23
ATOM     23  N   UNL     1      43.270 131.408  21.192  1.00  0.00    -0.060 NA
BRANCH  23  24
ATOM     24  N   UNL     1      43.243 131.970  22.288  1.00  0.00     0.005 N 
ATOM     25  N   UNL     1      43.216 132.532  23.382  1.00  0.00    -0.003 NA
ENDBRANCH  23  24
ENDBRANCH   6  23
BRANCH  10  26
ATOM     26  O   UNL     1      46.120 131.149  15.358  1.00  0.00    -0.567 OA
BRANCH  26  27
ATOM     27  C   UNL     1      45.714 130.168  14.442  1.00  0.00     0.053 C 
ATOM     28  O   UNL     1      45.191 128.953  14.876  1.00  0.00    -0.547 OA
BRANCH  27  29
ATOM     29  C   UNL     1      45.840 130.419  13.136  1.00  0.00    -0.003 C 
BRANCH  29  30
ATOM     30  C   UNL     1      47.166 130.423  12.430  1.00  0.00     0.026 C 
ATOM     31  C   UNL     1      48.199 129.585  13.181  1.00  0.00     0.008 C 
ENDBRANCH  29  30
ENDBRANCH  27  29
ENDBRANCH  26  27
ENDBRANCH  10  26
TORSDOF 11
ENDMDL
MODEL 2
REMARK VINA RESULT:      -6.8      2.097      3.295
REMARK SMILES C#CCO/C([O-])=C\[C@H]1CC[C@@H]2C(O/C([O-])=C/CC)=NC(=O)c3c(N=[N+]=[N-])cc(Cl)c1c32
REMARK SMILES IDX 8 1 30 2 28 3 29 4 27 5 23 6 22 7 31 8 11 9 12 10 19 11
REMARK SMILES IDX 20 12 21 13 10 14 9 15 7 16 5 17 6 18 4 19 3 20 2 21 1 22
REMARK SMILES IDX 24 23 25 24 26 25 13 26 14 27 15 28 16 29 17 30 18 31
REMARK H PARENT
ROOT
ATOM      1  C   UNL     1      41.978 132.959  15.637  1.00  0.00     0.045 C 
ATOM      2  C   UNL     1      42.244 132.617  17.109  1.00  0.00    -0.018 A 
ATOM      3  C   UNL     1      41.221 132.795  18.068  1.00  0.00     0.045 A 
ATOM      4  Cl  UNL     1      39.598 133.328  17.626  1.00  0.00    -0.084 Cl
ATOM      5  C   UNL     1      41.461 132.530  19.415  1.00  0.00     0.032 A 
ATOM      6  C   UNL     1      42.704 132.044  19.846  1.00  0.00     0.052 A 
ATOM      7  C   UNL     1      43.721 131.805  18.894  1.00  0.00     0.056 A 
ATOM      8  C   UNL     1      43.492 132.087  17.529  1.00  0.00    -0.020 A 
ATOM      9  C   UNL     1      44.611 131.891  16.518  1.00  0.00     0.077 C 
ATOM     10  C   UNL     1      45.675 130.910  16.973  1.00  0.00     0.091 C 
ATOM     11  N   UNL     1      45.858 130.663  18.237  1.00  0.00    -0.205 NA
ATOM     12  C   UNL     1      45.013 131.184  19.261  1.00  0.00     0.278 C 
ATOM     13  O   UNL     1      45.374 131.070  20.462  1.00  0.00    -0.267 OA
ATOM     14  C   UNL     1      44.013 131.473  15.170  1.00  0.00     0.016 C 
ATOM     15  C   UNL     1      43.118 132.595  14.653  1.00  0.00     0.014 C 
ENDROOT
BRANCH   1  16
ATOM     16  C   UNL     1      41.611 134.419  15.464  1.00  0.00     0.005 C 
BRANCH  16  17
ATOM     17  C   UNL     1      40.483 134.828  14.870  1.00  0.00     0.049 C 
ATOM     18  O   UNL     1      40.204 136.189  14.795  1.00  0.00    -0.547 OA
BRANCH  17  19
ATOM     19  O   UNL     1      39.598 133.896  14.322  1.00  0.00    -0.601 OA
BRANCH  19  20
ATOM     20  C   UNL     1      38.187 134.035  14.395  1.00  0.00     0.160 C 
BRANCH  20  21
ATOM     21  C   UNL     1      37.660 134.214  13.042  1.00  0.00    -0.095 C 
ATOM     22  C   UNL     1      37.216 134.367  11.932  1.00  0.00     0.005 C 
ENDBRANCH  20  21
ENDBRANCH  19  20
ENDBRANCH  17  19
ENDBRANCH  16  17
ENDBRANCH   1  16
BRANCH   6  23
ATOM     23  N   UNL     1      42.930 131.753  21.235  1.00  0.00    -0.060 NA
BRANCH  23  24
ATOM     24  N   UNL     1      42.614 132.530  22.138  1.00  0.00     0.005 N 
ATOM     25  N   UNL     1      42.300 133.305  23.040  1.00  0.00    -0.003 NA
ENDBRANCH  23  24
ENDBRANCH   6  23
BRANCH  10  26
ATOM     26  O   UNL     1      46.532 130.353  16.011  1.00  0.00    -0.567 OA
BRANCH  26  27
ATOM     27  C   UNL     1      46.176 129.385  15.062  1.00  0.00     0.053 C 
ATOM     28  O   UNL     1      45.281 128.365  15.377  1.00  0.00    -0.547 OA
BRANCH  27  29
ATOM     29  C   UNL     1      46.711 129.456  13.841  1.00  0.00    -0.003 C 
BRANCH  29  30
ATOM     30  C   UNL     1      47.171 130.747  13.225  1.00  0.00     0.026 C 
ATOM     31  C   UNL     1      47.398 130.597  11.723  1.00  0.00     0.008 C 
ENDBRANCH  29  30
ENDBRANCH  27  29
ENDBRANCH  26  27
ENDBRANCH  10  26
TORSDOF 11
ENDMDL
MODEL 3
REMARK VINA RESULT:      -6.7      3.276      4.996
REMARK SMILES C#CCO/C([O-])=C\[C@H]1CC[C@@H]2C(O/C([O-])=C/CC)=NC(=O)c3c(N=[N+]=[N-])cc(Cl)c1c32
REMARK SMILES IDX 8 1 30 2 28 3 29 4 27 5 23 6 22 7 31 8 11 9 12 10 19 11
REMARK SMILES IDX 20 12 21 13 10 14 9 15 7 16 5 17 6 18 4 19 3 20 2 21 1 22
REMARK SMILES IDX 24 23 25 24 26 25 13 26 14 27 15 28 16 29 17 30 18 31
REMARK H PARENT
ROOT
ATOM      1  C   UNL     1      43.498 132.154  19.843  1.00  0.00     0.045 C 
ATOM      2  C   UNL     1      42.517 132.720  18.808  1.00  0.00    -0.018 A 
ATOM      3  C   UNL     1      41.447 133.543  19.229  1.00  0.00     0.045 A 
ATOM      4  Cl  UNL     1      41.232 134.018  20.914  1.00  0.00    -0.084 Cl
ATOM      5  C   UNL     1      40.524 134.028  18.306  1.00  0.00     0.032 A 
ATOM      6  C   UNL     1      40.654 133.750  16.937  1.00  0.00     0.052 A 
ATOM      7  C   UNL     1      41.749 132.978  16.490  1.00  0.00     0.056 A 
ATOM      8  C   UNL     1      42.681 132.466  17.420  1.00  0.00    -0.020 A 
ATOM      9  C   UNL     1      43.821 131.581  16.941  1.00  0.00     0.077 C 
ATOM     10  C   UNL     1      44.165 131.775  15.476  1.00  0.00     0.091 C 
ATOM     11  N   UNL     1      43.290 132.256  14.643  1.00  0.00    -0.205 NA
ATOM     12  C   UNL     1      42.014 132.744  15.052  1.00  0.00     0.278 C 
ATOM     13  O   UNL     1      41.150 133.000  14.172  1.00  0.00    -0.267 OA
ATOM     14  C   UNL     1      45.048 131.803  17.832  1.00  0.00     0.016 C 
ATOM     15  C   UNL     1      44.710 131.384  19.259  1.00  0.00     0.014 C 
ENDROOT
BRANCH   1  16
ATOM     16  C   UNL     1      42.789 131.281  20.859  1.00  0.00     0.005 C 
BRANCH  16  17
ATOM     17  C   UNL     1      43.253 131.070  22.096  1.00  0.00     0.049 C 
ATOM     18  O   UNL     1      43.329 129.770  22.587  1.00  0.00    -0.547 OA
BRANCH  17  19
ATOM     19  O   UNL     1      43.669 132.145  22.887  1.00  0.00    -0.601 OA
BRANCH  19  20
ATOM     20  C   UNL     1      45.027 132.370  23.232  1.00  0.00     0.160 C 
BRANCH  20  21
ATOM     21  C   UNL     1      45.498 133.568  22.535  1.00  0.00    -0.095 C 
ATOM     22  C   UNL     1      45.896 134.548  21.960  1.00  0.00     0.005 C 
ENDBRANCH  20  21
ENDBRANCH  19  20
ENDBRANCH  17  19
ENDBRANCH  16  17
ENDBRANCH   1  16
BRANCH   6  23
ATOM     23  N   UNL     1      39.706 134.278  15.994  1.00  0.00    -0.060 NA
BRANCH  23  24
ATOM     24  N   UNL     1      39.469 135.482  15.890  1.00  0.00     0.005 N 
ATOM     25  N   UNL     1      39.233 136.685  15.788  1.00  0.00    -0.003 NA
ENDBRANCH  23  24
ENDBRANCH   6  23
BRANCH  10  26
ATOM     26  O   UNL     1      45.411 131.325  15.013  1.00  0.00    -0.567 OA
BRANCH  26  27
ATOM     27  C   UNL     1      45.842 129.992  14.991  1.00  0.00     0.053 C 
ATOM     28  O   UNL     1      44.933 128.941  15.084  1.00  0.00    -0.547 OA
BRANCH  27  29
ATOM     29  C   UNL     1      47.149 129.742  14.880  1.00  0.00    -0.003 C 
BRANCH  29  30
ATOM     30  C   UNL     1      47.839 129.573  13.555  1.00  0.00     0.026 C 
ATOM     31  C   UNL     1      47.369 130.620  12.548  1.00  0.00     0.008 C 
ENDBRANCH  29  30
ENDBRANCH  27  29
ENDBRANCH  26  27
ENDBRANCH  10  26
TORSDOF 11
ENDMDL
MODEL 4
REMARK VINA RESULT:      -6.7      1.413      1.658
REMARK SMILES C#CCO/C([O-])=C\[C@H]1CC[C@@H]2C(O/C([O-])=C/CC)=NC(=O)c3c(N=[N+]=[N-])cc(Cl)c1c32
REMARK SMILES IDX 8 1 30 2 28 3 29 4 27 5 23 6 22 7 31 8 11 9 12 10 19 11
REMARK SMILES IDX 20 12 21 13 10 14 9 15 7 16 5 17 6 18 4 19 3 20 2 21 1 22
REMARK SMILES IDX 24 23 25 24 26 25 13 26 14 27 15 28 16 29 17 30 18 31
REMARK H PARENT
ROOT
ATOM      1  C   UNL     1      42.070 133.474  15.878  1.00  0.00     0.045 C 
ATOM      2  C   UNL     1      42.506 133.439  17.348  1.00  0.00    -0.018 A 
ATOM      3  C   UNL     1      41.798 134.196  18.309  1.00  0.00     0.045 A 
ATOM      4  Cl  UNL     1      40.362 135.134  17.898  1.00  0.00    -0.084 Cl
ATOM      5  C   UNL     1      42.209 134.208  19.641  1.00  0.00     0.032 A 
ATOM      6  C   UNL     1      43.304 133.442  20.068  1.00  0.00     0.052 A 
ATOM      7  C   UNL     1      43.988 132.634  19.133  1.00  0.00     0.056 A 
ATOM      8  C   UNL     1      43.590 132.628  17.777  1.00  0.00    -0.020 A 
ATOM      9  C   UNL     1      44.371 131.808  16.762  1.00  0.00     0.077 C 
ATOM     10  C   UNL     1      45.153 130.663  17.380  1.00  0.00     0.091 C 
ATOM     11  N   UNL     1      45.499 130.691  18.633  1.00  0.00    -0.205 NA
ATOM     12  C   UNL     1      45.075 131.713  19.534  1.00  0.00     0.278 C 
ATOM     13  O   UNL     1      45.615 131.783  20.669  1.00  0.00    -0.267 OA
ATOM     14  C   UNL     1      43.418 131.304  15.673  1.00  0.00     0.016 C 
ATOM     15  C   UNL     1      42.825 132.501  14.937  1.00  0.00     0.014 C 
ENDROOT
BRANCH   1  16
ATOM     16  C   UNL     1      42.140 134.877  15.311  1.00  0.00     0.005 C 
BRANCH  16  17
ATOM     17  C   UNL     1      43.203 135.677  15.457  1.00  0.00     0.049 C 
ATOM     18  O   UNL     1      44.482 135.149  15.314  1.00  0.00    -0.547 OA
BRANCH  17  19
ATOM     19  O   UNL     1      43.030 137.035  15.740  1.00  0.00    -0.601 OA
BRANCH  19  20
ATOM     20  C   UNL     1      42.797 137.526  17.051  1.00  0.00     0.160 C 
BRANCH  20  21
ATOM     21  C   UNL     1      43.878 137.069  17.925  1.00  0.00    -0.095 C 
ATOM     22  C   UNL     1      44.761 136.692  18.654  1.00  0.00     0.005 C 
ENDBRANCH  20  21
ENDBRANCH  19  20
ENDBRANCH  17  19
ENDBRANCH  16  17
ENDBRANCH   1  16
BRANCH   6  23
ATOM     23  N   UNL     1      43.701 133.447  21.449  1.00  0.00    -0.060 NA
BRANCH  23  24
ATOM     24  N   UNL     1      44.038 134.473  22.042  1.00  0.00     0.005 N 
ATOM     25  N   UNL     1      44.375 135.497  22.634  1.00  0.00    -0.003 NA
ENDBRANCH  23  24
ENDBRANCH   6  23
BRANCH  10  26
ATOM     26  O   UNL     1      45.589 129.621  16.547  1.00  0.00    -0.567 OA
BRANCH  26  27
ATOM     27  C   UNL     1      46.475 129.752  15.469  1.00  0.00     0.053 C 
ATOM     28  O   UNL     1      47.842 129.917  15.679  1.00  0.00    -0.547 OA
BRANCH  27  29
ATOM     29  C   UNL     1      45.985 129.717  14.228  1.00  0.00    -0.003 C 
BRANCH  29  30
ATOM     30  C   UNL     1      46.142 130.852  13.255  1.00  0.00     0.026 C 
ATOM     31  C   UNL     1      47.111 130.492  12.132  1.00  0.00     0.008 C 
ENDBRANCH  29  30
ENDBRANCH  27  29
ENDBRANCH  26  27
ENDBRANCH  10  26
TORSDOF 11
ENDMDL
MODEL 5
REMARK VINA RESULT:      -6.5      1.234      2.298
REMARK SMILES C#CCO/C([O-])=C\[C@H]1CC[C@@H]2C(O/C([O-])=C/CC)=NC(=O)c3c(N=[N+]=[N-])cc(Cl)c1c32
REMARK SMILES IDX 8 1 30 2 28 3 29 4 27 5 23 6 22 7 31 8 11 9 12 10 19 11
REMARK SMILES IDX 20 12 21 13 10 14 9 15 7 16 5 17 6 18 4 19 3 20 2 21 1 22
REMARK SMILES IDX 24 23 25 24 26 25 13 26 14 27 15 28 16 29 17 30 18 31
REMARK H PARENT
ROOT
ATOM      1  C   UNL     1      42.012 133.670  16.674  1.00  0.00     0.045 C 
ATOM      2  C   UNL     1      42.478 133.061  18.003  1.00  0.00    -0.018 A 
ATOM      3  C   UNL     1      41.662 133.171  19.152  1.00  0.00     0.045 A 
ATOM      4  Cl  UNL     1      40.068 133.925  19.106  1.00  0.00    -0.084 Cl
ATOM      5  C   UNL     1      42.092 132.661  20.375  1.00  0.00     0.032 A 
ATOM      6  C   UNL     1      43.319 131.991  20.489  1.00  0.00     0.052 A 
ATOM      7  C   UNL     1      44.122 131.820  19.339  1.00  0.00     0.056 A 
ATOM      8  C   UNL     1      43.703 132.350  18.098  1.00  0.00    -0.020 A 
ATOM      9  C   UNL     1      44.601 132.220  16.877  1.00  0.00     0.077 C 
ATOM     10  C   UNL     1      45.596 131.078  16.975  1.00  0.00     0.091 C 
ATOM     11  N   UNL     1      45.957 130.605  18.130  1.00  0.00    -0.205 NA
ATOM     12  C   UNL     1      45.370 131.024  19.361  1.00  0.00     0.278 C 
ATOM     13  O   UNL     1      45.912 130.675  20.442  1.00  0.00    -0.267 OA
ATOM     14  C   UNL     1      43.736 132.095  15.619  1.00  0.00     0.016 C 
ATOM     15  C   UNL     1      42.914 133.369  15.451  1.00  0.00     0.014 C 
ENDROOT
BRANCH   1  16
ATOM     16  C   UNL     1      41.806 135.167  16.792  1.00  0.00     0.005 C 
BRANCH  16  17
ATOM     17  C   UNL     1      42.624 136.067  16.235  1.00  0.00     0.049 C 
ATOM     18  O   UNL     1      43.843 136.353  16.841  1.00  0.00    -0.547 OA
BRANCH  17  19
ATOM     19  O   UNL     1      42.261 136.709  15.047  1.00  0.00    -0.601 OA
BRANCH  19  20
ATOM     20  C   UNL     1      40.926 137.090  14.752  1.00  0.00     0.160 C 
BRANCH  20  21
ATOM     21  C   UNL     1      40.296 136.029  13.966  1.00  0.00    -0.095 C 
ATOM     22  C   UNL     1      39.784 135.147  13.324  1.00  0.00     0.005 C 
ENDBRANCH  20  21
ENDBRANCH  19  20
ENDBRANCH  17  19
ENDBRANCH  16  17
ENDBRANCH   1  16
BRANCH   6  23
ATOM     23  N   UNL     1      43.739 131.450  21.752  1.00  0.00    -0.060 NA
BRANCH  23  24
ATOM     24  N   UNL     1      43.084 130.606  22.366  1.00  0.00     0.005 N 
ATOM     25  N   UNL     1      42.431 129.763  22.978  1.00  0.00    -0.003 NA
ENDBRANCH  23  24
ENDBRANCH   6  23
BRANCH  10  26
ATOM     26  O   UNL     1      46.201 130.612  15.797  1.00  0.00    -0.567 OA
BRANCH  26  27
ATOM     27  C   UNL     1      45.629 129.714  14.885  1.00  0.00     0.053 C 
ATOM     28  O   UNL     1      44.936 128.589  15.323  1.00  0.00    -0.547 OA
BRANCH  27  29
ATOM     29  C   UNL     1      45.761 129.956  13.578  1.00  0.00    -0.003 C 
BRANCH  29  30
ATOM     30  C   UNL     1      46.945 130.678  12.997  1.00  0.00     0.026 C 
ATOM     31  C   UNL     1      48.169 129.768  12.922  1.00  0.00     0.008 C 
ENDBRANCH  29  30
ENDBRANCH  27  29
ENDBRANCH  26  27
ENDBRANCH  10  26
TORSDOF 11
ENDMDL
MODEL 6
REMARK VINA RESULT:      -6.5      1.028      1.175
REMARK SMILES C#CCO/C([O-])=C\[C@H]1CC[C@@H]2C(O/C([O-])=C/CC)=NC(=O)c3c(N=[N+]=[N-])cc(Cl)c1c32
REMARK SMILES IDX 8 1 30 2 28 3 29 4 27 5 23 6 22 7 31 8 11 9 12 10 19 11
REMARK SMILES IDX 20 12 21 13 10 14 9 15 7 16 5 17 6 18 4 19 3 20 2 21 1 22
REMARK SMILES IDX 24 23 25 24 26 25 13 26 14 27 15 28 16 29 17 30 18 31
REMARK H PARENT
ROOT
ATOM      1  C   UNL     1      42.171 133.287  16.161  1.00  0.00     0.045 C 
ATOM      2  C   UNL     1      42.517 132.924  17.611  1.00  0.00    -0.018 A 
ATOM      3  C   UNL     1      41.611 133.239  18.650  1.00  0.00     0.045 A 
ATOM      4  Cl  UNL     1      40.038 133.973  18.337  1.00  0.00    -0.084 Cl
ATOM      5  C   UNL     1      41.931 132.955  19.976  1.00  0.00     0.032 A 
ATOM      6  C   UNL     1      43.134 132.316  20.309  1.00  0.00     0.052 A 
ATOM      7  C   UNL     1      44.026 131.942  19.279  1.00  0.00     0.056 A 
ATOM      8  C   UNL     1      43.719 132.241  17.933  1.00  0.00    -0.020 A 
ATOM      9  C   UNL     1      44.712 131.895  16.835  1.00  0.00     0.077 C 
ATOM     10  C   UNL     1      45.678 130.788  17.216  1.00  0.00     0.091 C 
ATOM     11  N   UNL     1      45.935 130.529  18.464  1.00  0.00    -0.205 NA
ATOM     12  C   UNL     1      45.256 131.161  19.546  1.00  0.00     0.278 C 
ATOM     13  O   UNL     1      45.701 131.011  20.715  1.00  0.00    -0.267 OA
ATOM     14  C   UNL     1      43.951 131.548  15.551  1.00  0.00     0.016 C 
ATOM     15  C   UNL     1      43.166 132.772  15.091  1.00  0.00     0.014 C 
ENDROOT
BRANCH   1  16
ATOM     16  C   UNL     1      41.979 134.781  15.993  1.00  0.00     0.005 C 
BRANCH  16  17
ATOM     17  C   UNL     1      42.986 135.661  16.040  1.00  0.00     0.049 C 
ATOM     18  O   UNL     1      43.700 135.947  14.880  1.00  0.00    -0.547 OA
BRANCH  17  19
ATOM     19  O   UNL     1      43.312 136.295  17.242  1.00  0.00    -0.601 OA
BRANCH  19  20
ATOM     20  C   UNL     1      42.348 136.934  18.064  1.00  0.00     0.160 C 
BRANCH  20  21
ATOM     21  C   UNL     1      42.684 136.684  19.466  1.00  0.00    -0.095 C 
ATOM     22  C   UNL     1      42.951 136.473  20.622  1.00  0.00     0.005 C 
ENDBRANCH  20  21
ENDBRANCH  19  20
ENDBRANCH  17  19
ENDBRANCH  16  17
ENDBRANCH   1  16
BRANCH   6  23
ATOM     23  N   UNL     1      43.440 132.008  21.680  1.00  0.00    -0.060 NA
BRANCH  23  24
ATOM     24  N   UNL     1      42.936 131.056  22.277  1.00  0.00     0.005 N 
ATOM     25  N   UNL     1      42.432 130.106  22.873  1.00  0.00    -0.003 NA
ENDBRANCH  23  24
ENDBRANCH   6  23
BRANCH  10  26
ATOM     26  O   UNL     1      46.370 130.119  16.195  1.00  0.00    -0.567 OA
BRANCH  26  27
ATOM     27  C   UNL     1      45.789 129.315  15.205  1.00  0.00     0.053 C 
ATOM     28  O   UNL     1      45.037 128.192  15.541  1.00  0.00    -0.547 OA
BRANCH  27  29
ATOM     29  C   UNL     1      45.969 129.644  13.923  1.00  0.00    -0.003 C 
BRANCH  29  30
ATOM     30  C   UNL     1      47.330 129.809  13.307  1.00  0.00     0.026 C 
ATOM     31  C   UNL     1      47.259 130.615  12.012  1.00  0.00     0.008 C 
ENDBRANCH  29  30
ENDBRANCH  27  29
ENDBRANCH  26  27
ENDBRANCH  10  26
TORSDOF 11
ENDMDL
MODEL 7
REMARK VINA RESULT:      -6.5      3.390      7.231
REMARK SMILES C#CCO/C([O-])=C\[C@H]1CC[C@@H]2C(O/C([O-])=C/CC)=NC(=O)c3c(N=[N+]=[N-])cc(Cl)c1c32
REMARK SMILES IDX 8 1 30 2 28 3 29 4 27 5 23 6 22 7 31 8 11 9 12 10 19 11
REMARK SMILES IDX 20 12 21 13 10 14 9 15 7 16 5 17 6 18 4 19 3 20 2 21 1 22
REMARK SMILES IDX 24 23 25 24 26 25 13 26 14 27 15 28 16 29 17 30 18 31
REMARK H PARENT
ROOT
ATOM      1  C   UNL     1      44.751 131.172  16.624  1.00  0.00     0.045 C 
ATOM      2  C   UNL     1      43.883 132.400  16.318  1.00  0.00    -0.018 A 
ATOM      3  C   UNL     1      43.235 132.508  15.066  1.00  0.00     0.045 A 
ATOM      4  Cl  UNL     1      43.320 131.235  13.848  1.00  0.00    -0.084 Cl
ATOM      5  C   UNL     1      42.479 133.638  14.758  1.00  0.00     0.032 A 
ATOM      6  C   UNL     1      42.307 134.671  15.691  1.00  0.00     0.052 A 
ATOM      7  C   UNL     1      42.900 134.553  16.968  1.00  0.00     0.056 A 
ATOM      8  C   UNL     1      43.682 133.421  17.284  1.00  0.00    -0.020 A 
ATOM      9  C   UNL     1      44.371 133.329  18.637  1.00  0.00     0.077 C 
ATOM     10  C   UNL     1      43.722 134.187  19.707  1.00  0.00     0.091 C 
ATOM     11  N   UNL     1      42.999 135.220  19.387  1.00  0.00    -0.205 NA
ATOM     12  C   UNL     1      42.664 135.547  18.040  1.00  0.00     0.278 C 
ATOM     13  O   UNL     1      42.140 136.666  17.799  1.00  0.00    -0.267 OA
ATOM     14  C   UNL     1      44.446 131.862  19.073  1.00  0.00     0.016 C 
ATOM     15  C   UNL     1      45.297 131.088  18.072  1.00  0.00     0.014 C 
ENDROOT
BRANCH   1  16
ATOM     16  C   UNL     1      45.900 131.047  15.644  1.00  0.00     0.005 C 
BRANCH  16  17
ATOM     17  C   UNL     1      46.437 129.874  15.287  1.00  0.00     0.049 C 
ATOM     18  O   UNL     1      45.607 128.780  15.068  1.00  0.00    -0.547 OA
BRANCH  17  19
ATOM     19  O   UNL     1      47.820 129.752  15.126  1.00  0.00    -0.601 OA
BRANCH  19  20
ATOM     20  C   UNL     1      48.430 129.482  13.873  1.00  0.00     0.160 C 
BRANCH  20  21
ATOM     21  C   UNL     1      47.638 130.114  12.817  1.00  0.00    -0.095 C 
ATOM     22  C   UNL     1      46.981 130.623  11.945  1.00  0.00     0.005 C 
ENDBRANCH  20  21
ENDBRANCH  19  20
ENDBRANCH  17  19
ENDBRANCH  16  17
ENDBRANCH   1  16
BRANCH   6  23
ATOM     23  N   UNL     1      41.505 135.819  15.367  1.00  0.00    -0.060 NA
BRANCH  23  24
ATOM     24  N   UNL     1      40.371 135.727  14.895  1.00  0.00     0.005 N 
ATOM     25  N   UNL     1      39.238 135.637  14.425  1.00  0.00    -0.003 NA
ENDBRANCH  23  24
ENDBRANCH   6  23
BRANCH  10  26
ATOM     26  O   UNL     1      44.003 133.909  21.054  1.00  0.00    -0.567 OA
BRANCH  26  27
ATOM     27  C   UNL     1      44.649 134.772  21.949  1.00  0.00     0.053 C 
ATOM     28  O   UNL     1      44.116 135.029  23.210  1.00  0.00    -0.547 OA
BRANCH  27  29
ATOM     29  C   UNL     1      45.792 135.351  21.573  1.00  0.00    -0.003 C 
BRANCH  29  30
ATOM     30  C   UNL     1      47.067 135.229  22.360  1.00  0.00     0.026 C 
ATOM     31  C   UNL     1      48.004 134.194  21.742  1.00  0.00     0.008 C 
ENDBRANCH  29  30
ENDBRANCH  27  29
ENDBRANCH  26  27
ENDBRANCH  10  26
TORSDOF 11
ENDMDL
MODEL 8
REMARK VINA RESULT:      -6.4      2.784      6.363
REMARK SMILES C#CCO/C([O-])=C\[C@H]1CC[C@@H]2C(O/C([O-])=C/CC)=NC(=O)c3c(N=[N+]=[N-])cc(Cl)c1c32
REMARK SMILES IDX 8 1 30 2 28 3 29 4 27 5 23 6 22 7 31 8 11 9 12 10 19 11
REMARK SMILES IDX 20 12 21 13 10 14 9 15 7 16 5 17 6 18 4 19 3 20 2 21 1 22
REMARK SMILES IDX 24 23 25 24 26 25 13 26 14 27 15 28 16 29 17 30 18 31
REMARK H PARENT
ROOT
ATOM      1  C   UNL     1      45.074 131.715  16.732  1.00  0.00     0.045 C 
ATOM      2  C   UNL     1      44.136 132.140  17.869  1.00  0.00    -0.018 A 
ATOM      3  C   UNL     1      44.518 131.926  19.212  1.00  0.00     0.045 A 
ATOM      4  Cl  UNL     1      46.087 131.250  19.649  1.00  0.00    -0.084 Cl
ATOM      5  C   UNL     1      43.657 132.266  20.254  1.00  0.00     0.032 A 
ATOM      6  C   UNL     1      42.415 132.866  20.000  1.00  0.00     0.052 A 
ATOM      7  C   UNL     1      42.040 133.141  18.666  1.00  0.00     0.056 A 
ATOM      8  C   UNL     1      42.898 132.783  17.602  1.00  0.00    -0.020 A 
ATOM      9  C   UNL     1      42.462 133.022  16.165  1.00  0.00     0.077 C 
ATOM     10  C   UNL     1      41.405 134.101  16.023  1.00  0.00     0.091 C 
ATOM     11  N   UNL     1      40.635 134.416  17.022  1.00  0.00    -0.205 NA
ATOM     12  C   UNL     1      40.800 133.876  18.331  1.00  0.00     0.278 C 
ATOM     13  O   UNL     1      39.896 134.069  19.187  1.00  0.00    -0.267 OA
ATOM     14  C   UNL     1      43.691 133.333  15.304  1.00  0.00     0.016 C 
ATOM     15  C   UNL     1      44.621 132.123  15.307  1.00  0.00     0.014 C 
ENDROOT
BRANCH   1  16
ATOM     16  C   UNL     1      45.347 130.225  16.765  1.00  0.00     0.005 C 
BRANCH  16  17
ATOM     17  C   UNL     1      45.766 129.531  15.700  1.00  0.00     0.049 C 
ATOM     18  O   UNL     1      44.916 128.599  15.112  1.00  0.00    -0.547 OA
BRANCH  17  19
ATOM     19  O   UNL     1      47.044 129.746  15.176  1.00  0.00    -0.601 OA
BRANCH  19  20
ATOM     20  C   UNL     1      47.398 130.924  14.467  1.00  0.00     0.160 C 
BRANCH  20  21
ATOM     21  C   UNL     1      47.219 130.684  13.035  1.00  0.00    -0.095 C 
ATOM     22  C   UNL     1      47.074 130.475  11.857  1.00  0.00     0.005 C 
ENDBRANCH  20  21
ENDBRANCH  19  20
ENDBRANCH  17  19
ENDBRANCH  16  17
ENDBRANCH   1  16
BRANCH   6  23
ATOM     23  N   UNL     1      41.548 133.233  21.086  1.00  0.00    -0.060 NA
BRANCH  23  24
ATOM     24  N   UNL     1      41.841 134.103  21.907  1.00  0.00     0.005 N 
ATOM     25  N   UNL     1      42.132 134.972  22.728  1.00  0.00    -0.003 NA
ENDBRANCH  23  24
ENDBRANCH   6  23
BRANCH  10  26
ATOM     26  O   UNL     1      41.202 134.680  14.761  1.00  0.00    -0.567 OA
BRANCH  26  27
ATOM     27  C   UNL     1      39.975 135.137  14.259  1.00  0.00     0.053 C 
ATOM     28  O   UNL     1      39.777 136.484  13.964  1.00  0.00    -0.547 OA
BRANCH  27  29
ATOM     29  C   UNL     1      38.992 134.254  14.066  1.00  0.00    -0.003 C 
BRANCH  29  30
ATOM     30  C   UNL     1      37.645 134.378  14.721  1.00  0.00     0.026 C 
ATOM     31  C   UNL     1      36.621 134.998  13.773  1.00  0.00     0.008 C 
ENDBRANCH  29  30
ENDBRANCH  27  29
ENDBRANCH  26  27
ENDBRANCH  10  26
TORSDOF 11
ENDMDL
MODEL 9
REMARK VINA RESULT:      -6.4      1.250      1.454
REMARK SMILES C#CCO/C([O-])=C\[C@H]1CC[C@@H]2C(O/C([O-])=C/CC)=NC(=O)c3c(N=[N+]=[N-])cc(Cl)c1c32
REMARK SMILES IDX 8 1 30 2 28 3 29 4 27 5 23 6 22 7 31 8 11 9 12 10 19 11
REMARK SMILES IDX 20 12 21 13 10 14 9 15 7 16 5 17 6 18 4 19 3 20 2 21 1 22
REMARK SMILES IDX 24 23 25 24 26 25 13 26 14 27 15 28 16 29 17 30 18 31
REMARK H PARENT
ROOT
ATOM      1  C   UNL     1      42.160 132.895  15.588  1.00  0.00     0.045 C 
ATOM      2  C   UNL     1      42.364 132.879  17.109  1.00  0.00    -0.018 A 
ATOM      3  C   UNL     1      41.364 133.407  17.957  1.00  0.00     0.045 A 
ATOM      4  Cl  UNL     1      39.833 134.025  17.337  1.00  0.00    -0.084 Cl
ATOM      5  C   UNL     1      41.554 133.439  19.337  1.00  0.00     0.032 A 
ATOM      6  C   UNL     1      42.716 132.912  19.920  1.00  0.00     0.052 A 
ATOM      7  C   UNL     1      43.700 132.327  19.093  1.00  0.00     0.056 A 
ATOM      8  C   UNL     1      43.525 132.306  17.691  1.00  0.00    -0.020 A 
ATOM      9  C   UNL     1      44.617 131.734  16.800  1.00  0.00     0.077 C 
ATOM     10  C   UNL     1      45.535 130.760  17.514  1.00  0.00     0.091 C 
ATOM     11  N   UNL     1      45.670 130.796  18.807  1.00  0.00    -0.205 NA
ATOM     12  C   UNL     1      44.894 131.648  19.646  1.00  0.00     0.278 C 
ATOM     13  O   UNL     1      45.224 131.776  20.855  1.00  0.00    -0.267 OA
ATOM     14  C   UNL     1      43.980 131.091  15.563  1.00  0.00     0.016 C 
ATOM     15  C   UNL     1      43.251 132.166  14.763  1.00  0.00     0.014 C 
ENDROOT
BRANCH   1  16
ATOM     16  C   UNL     1      41.995 134.308  15.065  1.00  0.00     0.005 C 
BRANCH  16  17
ATOM     17  C   UNL     1      42.787 135.324  15.429  1.00  0.00     0.049 C 
ATOM     18  O   UNL     1      44.092 135.379  14.952  1.00  0.00    -0.547 OA
BRANCH  17  19
ATOM     19  O   UNL     1      42.303 136.327  16.274  1.00  0.00    -0.601 OA
BRANCH  19  20
ATOM     20  C   UNL     1      43.151 137.242  16.950  1.00  0.00     0.160 C 
BRANCH  20  21
ATOM     21  C   UNL     1      43.794 136.551  18.069  1.00  0.00    -0.095 C 
ATOM     22  C   UNL     1      44.332 135.988  18.988  1.00  0.00     0.005 C 
ENDBRANCH  20  21
ENDBRANCH  19  20
ENDBRANCH  17  19
ENDBRANCH  16  17
ENDBRANCH   1  16
BRANCH   6  23
ATOM     23  N   UNL     1      42.887 132.930  21.347  1.00  0.00    -0.060 NA
BRANCH  23  24
ATOM     24  N   UNL     1      42.032 133.374  22.115  1.00  0.00     0.005 N 
ATOM     25  N   UNL     1      41.178 133.817  22.881  1.00  0.00    -0.003 NA
ENDBRANCH  23  24
ENDBRANCH   6  23
BRANCH  10  26
ATOM     26  O   UNL     1      46.318 129.886  16.743  1.00  0.00    -0.567 OA
BRANCH  26  27
ATOM     27  C   UNL     1      46.370 129.855  15.343  1.00  0.00     0.053 C 
ATOM     28  O   UNL     1      45.725 128.854  14.622  1.00  0.00    -0.547 OA
BRANCH  27  29
ATOM     29  C   UNL     1      47.055 130.809  14.706  1.00  0.00    -0.003 C 
BRANCH  29  30
ATOM     30  C   UNL     1      47.882 130.539  13.480  1.00  0.00     0.026 C 
ATOM     31  C   UNL     1      47.042 130.639  12.209  1.00  0.00     0.008 C 
ENDBRANCH  29  30
ENDBRANCH  27  29
ENDBRANCH  26  27
ENDBRANCH  10  26
TORSDOF 11
ENDMDL


