MODEL 1
REMARK VINA RESULT:      -6.4      0.000      0.000
REMARK SMILES C[N+]1(C)Cc2cc3ccc(-n4cc(CCn5cc(CN)cn5)n[nH+]4)cc3cc2C1
REMARK SMILES IDX 15 1 14 2 13 3 11 4 12 5 24 6 23 7 10 9 2 10 4 11 29 12 5 13
REMARK SMILES IDX 28 14 6 15 27 16 7 17 26 18 8 19 25 20 9 21 1 22 3 23 16 24
REMARK SMILES IDX 17 25 22 26 18 27 21 28 19 29 20 30
REMARK H PARENT 24 8 20 31 20 32
ROOT
ATOM      1  C   UNL     1      36.680 134.720  15.290  1.00  0.00     0.151 C 
ENDROOT
BRANCH   1   2
ATOM      2  C   UNL     1      36.805 135.009  16.791  1.00  0.00     0.088 C 
BRANCH   2   3
ATOM      3  C   UNL     1      38.144 134.591  17.319  1.00  0.00     0.134 A 
ATOM      4  N   UNL     1      40.254 134.045  17.416  1.00  0.00    -0.104 N 
ATOM      5  C   UNL     1      39.218 134.168  16.565  1.00  0.00     0.190 A 
ATOM      6  N   UNL     1      39.819 134.378  18.625  1.00  0.00    -0.012 N 
ATOM      7  N   UNL     1      38.542 134.730  18.599  1.00  0.00     0.020 NA
ATOM      8  H   UNL     1      40.409 134.413  19.485  1.00  0.00     0.527 HD
BRANCH   4   9
ATOM      9  C   UNL     1      41.611 133.695  17.084  1.00  0.00     0.107 A 
ATOM     10  N   UNL     1      46.781 130.344  13.448  1.00  0.00    -0.321 N 
ATOM     11  C   UNL     1      47.120 131.346  14.510  1.00  0.00     0.301 C 
ATOM     12  C   UNL     1      45.303 130.435  13.231  1.00  0.00     0.301 C 
ATOM     13  C   UNL     1      45.823 131.817  15.040  1.00  0.00     0.016 A 
ATOM     14  C   UNL     1      44.792 131.301  14.315  1.00  0.00     0.016 A 
ATOM     15  C   UNL     1      45.601 132.687  16.109  1.00  0.00     0.018 A 
ATOM     16  C   UNL     1      43.465 131.616  14.606  1.00  0.00     0.019 A 
ATOM     17  C   UNL     1      44.274 133.025  16.439  1.00  0.00    -0.018 A 
ATOM     18  C   UNL     1      43.197 132.484  15.682  1.00  0.00    -0.016 A 
ATOM     19  C   UNL     1      44.002 133.894  17.504  1.00  0.00     0.011 A 
ATOM     20  C   UNL     1      41.879 132.824  16.012  1.00  0.00     0.041 A 
ATOM     21  C   UNL     1      42.682 134.226  17.822  1.00  0.00     0.033 A 
ATOM     22  C   UNL     1      47.147 128.981  13.901  1.00  0.00     0.334 C 
ATOM     23  C   UNL     1      47.512 130.647  12.195  1.00  0.00     0.334 C 
ENDBRANCH   4   9
ENDBRANCH   2   3
ENDBRANCH   1   2
BRANCH   1  24
ATOM     24  N   UNL     1      37.121 135.863  14.494  1.00  0.00    -0.272 N 
ATOM     25  C   UNL     1      37.395 135.852  13.175  1.00  0.00     0.113 A 
ATOM     26  N   UNL     1      37.440 137.040  15.013  1.00  0.00    -0.181 NA
ATOM     27  C   UNL     1      37.894 137.092  12.837  1.00  0.00     0.004 A 
ATOM     28  C   UNL     1      37.915 137.811  14.015  1.00  0.00     0.140 A 
BRANCH  27  29
ATOM     29  C   UNL     1      38.456 137.510  11.516  1.00  0.00     0.116 C 
BRANCH  29  30
ATOM     30  N   UNL     1      37.602 138.526  10.912  1.00  0.00    -0.326 NA
ATOM     31  H   UNL     1      36.903 138.834  11.628  1.00  0.00     0.119 HD
ATOM     32  H   UNL     1      38.198 139.358  10.699  1.00  0.00     0.119 HD
ENDBRANCH  29  30
ENDBRANCH  27  29
ENDBRANCH   1  24
TORSDOF 6
ENDMDL
MODEL 2
REMARK VINA RESULT:      -6.1      3.884      6.598
REMARK SMILES C[N+]1(C)Cc2cc3ccc(-n4cc(CCn5cc(CN)cn5)n[nH+]4)cc3cc2C1
REMARK SMILES IDX 15 1 14 2 13 3 11 4 12 5 24 6 23 7 10 9 2 10 4 11 29 12 5 13
REMARK SMILES IDX 28 14 6 15 27 16 7 17 26 18 8 19 25 20 9 21 1 22 3 23 16 24
REMARK SMILES IDX 17 25 22 26 18 27 21 28 19 29 20 30
REMARK H PARENT 24 8 20 31 20 32
ROOT
ATOM      1  C   UNL     1      43.256 139.463  20.244  1.00  0.00     0.151 C 
ENDROOT
BRANCH   1   2
ATOM      2  C   UNL     1      42.695 139.625  18.825  1.00  0.00     0.088 C 
BRANCH   2   3
ATOM      3  C   UNL     1      42.167 138.326  18.295  1.00  0.00     0.134 A 
ATOM      4  N   UNL     1      42.069 136.351  17.372  1.00  0.00    -0.104 N 
ATOM      5  C   UNL     1      42.845 137.446  17.478  1.00  0.00     0.190 A 
ATOM      6  N   UNL     1      40.975 136.566  18.092  1.00  0.00    -0.012 N 
ATOM      7  N   UNL     1      41.009 137.754  18.680  1.00  0.00     0.020 NA
ATOM      8  H   UNL     1      40.204 135.877  18.230  1.00  0.00     0.527 HD
BRANCH   4   9
ATOM      9  C   UNL     1      42.384 135.131  16.677  1.00  0.00     0.107 A 
ATOM     10  N   UNL     1      46.673 130.233  13.709  1.00  0.00    -0.321 N 
ATOM     11  C   UNL     1      45.192 130.013  13.774  1.00  0.00     0.301 C 
ATOM     12  C   UNL     1      46.962 131.445  14.540  1.00  0.00     0.301 C 
ATOM     13  C   UNL     1      44.640 131.215  14.434  1.00  0.00     0.016 A 
ATOM     14  C   UNL     1      45.643 132.027  14.869  1.00  0.00     0.016 A 
ATOM     15  C   UNL     1      43.298 131.534  14.647  1.00  0.00     0.018 A 
ATOM     16  C   UNL     1      45.379 133.218  15.546  1.00  0.00     0.019 A 
ATOM     17  C   UNL     1      42.988 132.731  15.321  1.00  0.00    -0.018 A 
ATOM     18  C   UNL     1      44.036 133.580  15.773  1.00  0.00    -0.016 A 
ATOM     19  C   UNL     1      41.655 133.094  15.557  1.00  0.00     0.011 A 
ATOM     20  C   UNL     1      43.724 134.769  16.446  1.00  0.00     0.041 A 
ATOM     21  C   UNL     1      41.358 134.283  16.229  1.00  0.00     0.033 A 
ATOM     22  C   UNL     1      47.090 130.466  12.306  1.00  0.00     0.334 C 
ATOM     23  C   UNL     1      47.398 129.054  14.236  1.00  0.00     0.334 C 
ENDBRANCH   4   9
ENDBRANCH   2   3
ENDBRANCH   1   2
BRANCH   1  24
ATOM     24  N   UNL     1      44.568 138.820  20.222  1.00  0.00    -0.272 N 
ATOM     25  C   UNL     1      44.869 137.617  20.749  1.00  0.00     0.113 A 
ATOM     26  N   UNL     1      45.671 139.414  19.791  1.00  0.00    -0.181 NA
ATOM     27  C   UNL     1      46.230 137.432  20.628  1.00  0.00     0.004 A 
ATOM     28  C   UNL     1      46.704 138.581  20.027  1.00  0.00     0.140 A 
BRANCH  27  29
ATOM     29  C   UNL     1      47.042 136.306  21.184  1.00  0.00     0.116 C 
BRANCH  29  30
ATOM     30  N   UNL     1      48.388 136.770  21.497  1.00  0.00    -0.326 NA
ATOM     31  H   UNL     1      48.779 137.239  20.647  1.00  0.00     0.119 HD
ATOM     32  H   UNL     1      48.307 137.507  22.234  1.00  0.00     0.119 HD
ENDBRANCH  29  30
ENDBRANCH  27  29
ENDBRANCH   1  24
TORSDOF 6
ENDMDL
MODEL 3
REMARK VINA RESULT:      -5.8      2.947      5.003
REMARK SMILES C[N+]1(C)Cc2cc3ccc(-n4cc(CCn5cc(CN)cn5)n[nH+]4)cc3cc2C1
REMARK SMILES IDX 15 1 14 2 13 3 11 4 12 5 24 6 23 7 10 9 2 10 4 11 29 12 5 13
REMARK SMILES IDX 28 14 6 15 27 16 7 17 26 18 8 19 25 20 9 21 1 22 3 23 16 24
REMARK SMILES IDX 17 25 22 26 18 27 21 28 19 29 20 30
REMARK H PARENT 24 8 20 31 20 32
ROOT
ATOM      1  C   UNL     1      37.300 134.951  20.516  1.00  0.00     0.151 C 
ENDROOT
BRANCH   1   2
ATOM      2  C   UNL     1      36.886 135.578  19.178  1.00  0.00     0.088 C 
BRANCH   2   3
ATOM      3  C   UNL     1      37.938 135.377  18.131  1.00  0.00     0.134 A 
ATOM      4  N   UNL     1      39.809 134.825  17.153  1.00  0.00    -0.104 N 
ATOM      5  C   UNL     1      39.262 135.065  18.359  1.00  0.00     0.190 A 
ATOM      6  N   UNL     1      38.857 134.988  16.243  1.00  0.00    -0.012 N 
ATOM      7  N   UNL     1      37.701 135.310  16.806  1.00  0.00     0.020 NA
ATOM      8  H   UNL     1      38.974 134.833  15.218  1.00  0.00     0.527 HD
BRANCH   4   9
ATOM      9  C   UNL     1      41.155 134.393  16.883  1.00  0.00     0.107 A 
ATOM     10  N   UNL     1      46.238 130.449  13.752  1.00  0.00    -0.321 N 
ATOM     11  C   UNL     1      46.602 131.564  14.686  1.00  0.00     0.301 C 
ATOM     12  C   UNL     1      44.765 130.561  13.507  1.00  0.00     0.301 C 
ATOM     13  C   UNL     1      45.318 132.139  15.138  1.00  0.00     0.016 A 
ATOM     14  C   UNL     1      44.276 131.571  14.470  1.00  0.00     0.016 A 
ATOM     15  C   UNL     1      45.117 133.142  16.088  1.00  0.00     0.018 A 
ATOM     16  C   UNL     1      42.958 131.962  14.703  1.00  0.00     0.019 A 
ATOM     17  C   UNL     1      43.800 133.562  16.358  1.00  0.00    -0.018 A 
ATOM     18  C   UNL     1      42.711 132.966  15.661  1.00  0.00    -0.016 A 
ATOM     19  C   UNL     1      43.548 134.564  17.303  1.00  0.00     0.011 A 
ATOM     20  C   UNL     1      41.402 133.387  15.930  1.00  0.00     0.041 A 
ATOM     21  C   UNL     1      42.238 134.976  17.562  1.00  0.00     0.033 A 
ATOM     22  C   UNL     1      46.554 129.142  14.374  1.00  0.00     0.334 C 
ATOM     23  C   UNL     1      46.989 130.570  12.480  1.00  0.00     0.334 C 
ENDBRANCH   4   9
ENDBRANCH   2   3
ENDBRANCH   1   2
BRANCH   1  24
ATOM     24  N   UNL     1      37.747 135.972  21.461  1.00  0.00    -0.272 N 
ATOM     25  C   UNL     1      39.023 136.215  21.820  1.00  0.00     0.113 A 
ATOM     26  N   UNL     1      36.923 136.706  22.195  1.00  0.00    -0.181 NA
ATOM     27  C   UNL     1      39.007 137.166  22.818  1.00  0.00     0.004 A 
ATOM     28  C   UNL     1      37.673 137.448  23.033  1.00  0.00     0.140 A 
BRANCH  27  29
ATOM     29  C   UNL     1      40.172 137.658  23.616  1.00  0.00     0.116 C 
BRANCH  29  30
ATOM     30  N   UNL     1      41.390 137.577  22.819  1.00  0.00    -0.326 NA
ATOM     31  H   UNL     1      42.193 137.884  23.415  1.00  0.00     0.119 HD
ATOM     32  H   UNL     1      41.555 136.570  22.590  1.00  0.00     0.119 HD
ENDBRANCH  29  30
ENDBRANCH  27  29
ENDBRANCH   1  24
TORSDOF 6
ENDMDL
MODEL 4
REMARK VINA RESULT:      -5.8      1.399      1.618
REMARK SMILES C[N+]1(C)Cc2cc3ccc(-n4cc(CCn5cc(CN)cn5)n[nH+]4)cc3cc2C1
REMARK SMILES IDX 15 1 14 2 13 3 11 4 12 5 24 6 23 7 10 9 2 10 4 11 29 12 5 13
REMARK SMILES IDX 28 14 6 15 27 16 7 17 26 18 8 19 25 20 9 21 1 22 3 23 16 24
REMARK SMILES IDX 17 25 22 26 18 27 21 28 19 29 20 30
REMARK H PARENT 24 8 20 31 20 32
ROOT
ATOM      1  C   UNL     1      36.385 136.435  16.794  1.00  0.00     0.151 C 
ENDROOT
BRANCH   1   2
ATOM      2  C   UNL     1      36.604 134.982  17.235  1.00  0.00     0.088 C 
BRANCH   2   3
ATOM      3  C   UNL     1      38.015 134.755  17.686  1.00  0.00     0.134 A 
ATOM      4  N   UNL     1      40.159 134.347  17.660  1.00  0.00    -0.104 N 
ATOM      5  C   UNL     1      39.038 134.232  16.923  1.00  0.00     0.190 A 
ATOM      6  N   UNL     1      39.822 134.911  18.813  1.00  0.00    -0.012 N 
ATOM      7  N   UNL     1      38.526 135.186  18.856  1.00  0.00     0.020 NA
ATOM      8  H   UNL     1      40.490 135.161  19.576  1.00  0.00     0.527 HD
BRANCH   4   9
ATOM      9  C   UNL     1      41.498 134.001  17.260  1.00  0.00     0.107 A 
ATOM     10  N   UNL     1      46.494 130.419  13.600  1.00  0.00    -0.321 N 
ATOM     11  C   UNL     1      46.876 131.540  14.519  1.00  0.00     0.301 C 
ATOM     12  C   UNL     1      45.000 130.445  13.492  1.00  0.00     0.301 C 
ATOM     13  C   UNL     1      45.607 132.029  15.098  1.00  0.00     0.016 A 
ATOM     14  C   UNL     1      44.543 131.409  14.516  1.00  0.00     0.016 A 
ATOM     15  C   UNL     1      45.436 133.004  16.082  1.00  0.00     0.018 A 
ATOM     16  C   UNL     1      43.231 131.717  14.876  1.00  0.00     0.019 A 
ATOM     17  C   UNL     1      44.127 133.339  16.479  1.00  0.00    -0.018 A 
ATOM     18  C   UNL     1      43.016 132.689  15.873  1.00  0.00    -0.016 A 
ATOM     19  C   UNL     1      43.905 134.311  17.464  1.00  0.00     0.011 A 
ATOM     20  C   UNL     1      41.714 133.027  16.269  1.00  0.00     0.041 A 
ATOM     21  C   UNL     1      42.602 134.638  17.849  1.00  0.00     0.033 A 
ATOM     22  C   UNL     1      46.942 129.124  14.164  1.00  0.00     0.334 C 
ATOM     23  C   UNL     1      47.116 130.604  12.268  1.00  0.00     0.334 C 
ENDBRANCH   4   9
ENDBRANCH   2   3
ENDBRANCH   1   2
BRANCH   1  24
ATOM     24  N   UNL     1      37.657 137.104  16.530  1.00  0.00    -0.272 N 
ATOM     25  C   UNL     1      38.286 137.169  15.340  1.00  0.00     0.113 A 
ATOM     26  N   UNL     1      38.425 137.622  17.477  1.00  0.00    -0.181 NA
ATOM     27  C   UNL     1      39.507 137.777  15.541  1.00  0.00     0.004 A 
ATOM     28  C   UNL     1      39.565 138.043  16.894  1.00  0.00     0.140 A 
BRANCH  27  29
ATOM     29  C   UNL     1      40.604 137.952  14.540  1.00  0.00     0.116 C 
BRANCH  29  30
ATOM     30  N   UNL     1      40.039 138.117  13.207  1.00  0.00    -0.326 NA
ATOM     31  H   UNL     1      39.923 137.169  12.780  1.00  0.00     0.119 HD
ATOM     32  H   UNL     1      39.078 138.516  13.315  1.00  0.00     0.119 HD
ENDBRANCH  29  30
ENDBRANCH  27  29
ENDBRANCH   1  24
TORSDOF 6
ENDMDL
MODEL 5
REMARK VINA RESULT:      -5.8      4.180      6.809
REMARK SMILES C[N+]1(C)Cc2cc3ccc(-n4cc(CCn5cc(CN)cn5)n[nH+]4)cc3cc2C1
REMARK SMILES IDX 15 1 14 2 13 3 11 4 12 5 24 6 23 7 10 9 2 10 4 11 29 12 5 13
REMARK SMILES IDX 28 14 6 15 27 16 7 17 26 18 8 19 25 20 9 21 1 22 3 23 16 24
REMARK SMILES IDX 17 25 22 26 18 27 21 28 19 29 20 30
REMARK H PARENT 24 8 20 31 20 32
ROOT
ATOM      1  C   UNL     1      43.289 139.003  20.474  1.00  0.00     0.151 C 
ENDROOT
BRANCH   1   2
ATOM      2  C   UNL     1      42.212 138.003  20.915  1.00  0.00     0.088 C 
BRANCH   2   3
ATOM      3  C   UNL     1      41.947 136.981  19.851  1.00  0.00     0.134 A 
ATOM      4  N   UNL     1      42.147 135.231  18.563  1.00  0.00    -0.104 N 
ATOM      5  C   UNL     1      42.838 136.032  19.396  1.00  0.00     0.190 A 
ATOM      6  N   UNL     1      40.899 135.681  18.520  1.00  0.00    -0.012 N 
ATOM      7  N   UNL     1      40.739 136.737  19.305  1.00  0.00     0.020 NA
ATOM      8  H   UNL     1      40.121 135.239  17.984  1.00  0.00     0.527 HD
BRANCH   4   9
ATOM      9  C   UNL     1      42.632 134.052  17.895  1.00  0.00     0.107 A 
ATOM     10  N   UNL     1      47.062 130.259  13.749  1.00  0.00    -0.321 N 
ATOM     11  C   UNL     1      45.923 129.593  14.462  1.00  0.00     0.301 C 
ATOM     12  C   UNL     1      47.139 131.657  14.281  1.00  0.00     0.301 C 
ATOM     13  C   UNL     1      45.233 130.670  15.202  1.00  0.00     0.016 A 
ATOM     14  C   UNL     1      45.922 131.840  15.100  1.00  0.00     0.016 A 
ATOM     15  C   UNL     1      44.056 130.578  15.946  1.00  0.00     0.018 A 
ATOM     16  C   UNL     1      45.485 133.004  15.733  1.00  0.00     0.019 A 
ATOM     17  C   UNL     1      43.576 131.732  16.596  1.00  0.00    -0.018 A 
ATOM     18  C   UNL     1      44.295 132.955  16.488  1.00  0.00    -0.016 A 
ATOM     19  C   UNL     1      42.399 131.689  17.354  1.00  0.00     0.011 A 
ATOM     20  C   UNL     1      43.817 134.101  17.137  1.00  0.00     0.041 A 
ATOM     21  C   UNL     1      41.932 132.838  17.997  1.00  0.00     0.033 A 
ATOM     22  C   UNL     1      46.803 130.283  12.290  1.00  0.00     0.334 C 
ATOM     23  C   UNL     1      48.329 129.534  14.001  1.00  0.00     0.334 C 
ENDBRANCH   4   9
ENDBRANCH   2   3
ENDBRANCH   1   2
BRANCH   1  24
ATOM     24  N   UNL     1      44.529 138.806  21.222  1.00  0.00    -0.272 N 
ATOM     25  C   UNL     1      45.777 138.998  20.751  1.00  0.00     0.113 A 
ATOM     26  N   UNL     1      44.579 138.276  22.435  1.00  0.00    -0.181 NA
ATOM     27  C   UNL     1      46.663 138.586  21.724  1.00  0.00     0.004 A 
ATOM     28  C   UNL     1      45.878 138.133  22.766  1.00  0.00     0.140 A 
BRANCH  27  29
ATOM     29  C   UNL     1      48.151 138.489  21.609  1.00  0.00     0.116 C 
BRANCH  29  30
ATOM     30  N   UNL     1      48.658 139.582  20.789  1.00  0.00    -0.326 NA
ATOM     31  H   UNL     1      49.537 139.260  20.320  1.00  0.00     0.119 HD
ATOM     32  H   UNL     1      47.962 139.760  20.029  1.00  0.00     0.119 HD
ENDBRANCH  29  30
ENDBRANCH  27  29
ENDBRANCH   1  24
TORSDOF 6
ENDMDL
MODEL 6
REMARK VINA RESULT:      -5.7      1.983      2.742
REMARK SMILES C[N+]1(C)Cc2cc3ccc(-n4cc(CCn5cc(CN)cn5)n[nH+]4)cc3cc2C1
REMARK SMILES IDX 15 1 14 2 13 3 11 4 12 5 24 6 23 7 10 9 2 10 4 11 29 12 5 13
REMARK SMILES IDX 28 14 6 15 27 16 7 17 26 18 8 19 25 20 9 21 1 22 3 23 16 24
REMARK SMILES IDX 17 25 22 26 18 27 21 28 19 29 20 30
REMARK H PARENT 24 8 20 31 20 32
ROOT
ATOM      1  C   UNL     1      38.091 138.959  13.567  1.00  0.00     0.151 C 
ENDROOT
BRANCH   1   2
ATOM      2  C   UNL     1      37.436 138.258  14.765  1.00  0.00     0.088 C 
BRANCH   2   3
ATOM      3  C   UNL     1      38.464 137.720  15.713  1.00  0.00     0.134 A 
ATOM      4  N   UNL     1      40.157 136.604  16.518  1.00  0.00    -0.104 N 
ATOM      5  C   UNL     1      39.296 136.644  15.484  1.00  0.00     0.190 A 
ATOM      6  N   UNL     1      39.854 137.608  17.330  1.00  0.00    -0.012 N 
ATOM      7  N   UNL     1      38.836 138.317  16.862  1.00  0.00     0.020 NA
ATOM      8  H   UNL     1      40.374 137.853  18.201  1.00  0.00     0.527 HD
BRANCH   4   9
ATOM      9  C   UNL     1      41.261 135.696  16.690  1.00  0.00     0.107 A 
ATOM     10  N   UNL     1      45.573 130.261  14.942  1.00  0.00    -0.321 N 
ATOM     11  C   UNL     1      45.844 131.091  16.160  1.00  0.00     0.301 C 
ATOM     12  C   UNL     1      44.478 130.952  14.189  1.00  0.00     0.301 C 
ATOM     13  C   UNL     1      44.762 132.096  16.206  1.00  0.00     0.016 A 
ATOM     14  C   UNL     1      43.987 132.018  15.089  1.00  0.00     0.016 A 
ATOM     15  C   UNL     1      44.516 133.043  17.201  1.00  0.00     0.018 A 
ATOM     16  C   UNL     1      42.909 132.879  14.885  1.00  0.00     0.019 A 
ATOM     17  C   UNL     1      43.432 133.928  17.037  1.00  0.00    -0.018 A 
ATOM     18  C   UNL     1      42.622 133.845  15.871  1.00  0.00    -0.016 A 
ATOM     19  C   UNL     1      43.146 134.895  18.009  1.00  0.00     0.011 A 
ATOM     20  C   UNL     1      41.546 134.728  15.709  1.00  0.00     0.041 A 
ATOM     21  C   UNL     1      42.070 135.770  17.836  1.00  0.00     0.033 A 
ATOM     22  C   UNL     1      45.137 128.901  15.340  1.00  0.00     0.334 C 
ATOM     23  C   UNL     1      46.791 130.149  14.106  1.00  0.00     0.334 C 
ENDBRANCH   4   9
ENDBRANCH   2   3
ENDBRANCH   1   2
BRANCH   1  24
ATOM     24  N   UNL     1      37.692 138.334  12.308  1.00  0.00    -0.272 N 
ATOM     25  C   UNL     1      36.993 137.189  12.177  1.00  0.00     0.113 A 
ATOM     26  N   UNL     1      38.097 138.755  11.118  1.00  0.00    -0.181 NA
ATOM     27  C   UNL     1      36.935 136.881  10.835  1.00  0.00     0.004 A 
ATOM     28  C   UNL     1      37.642 137.882  10.199  1.00  0.00     0.140 A 
BRANCH  27  29
ATOM     29  C   UNL     1      36.375 135.640  10.216  1.00  0.00     0.116 C 
BRANCH  29  30
ATOM     30  N   UNL     1      37.068 134.469  10.739  1.00  0.00    -0.326 NA
ATOM     31  H   UNL     1      37.559 134.745  11.621  1.00  0.00     0.119 HD
ATOM     32  H   UNL     1      36.343 133.764  11.009  1.00  0.00     0.119 HD
ENDBRANCH  29  30
ENDBRANCH  27  29
ENDBRANCH   1  24
TORSDOF 6
ENDMDL
MODEL 7
REMARK VINA RESULT:      -5.6      3.713      5.196
REMARK SMILES C[N+]1(C)Cc2cc3ccc(-n4cc(CCn5cc(CN)cn5)n[nH+]4)cc3cc2C1
REMARK SMILES IDX 15 1 14 2 13 3 11 4 12 5 24 6 23 7 10 9 2 10 4 11 29 12 5 13
REMARK SMILES IDX 28 14 6 15 27 16 7 17 26 18 8 19 25 20 9 21 1 22 3 23 16 24
REMARK SMILES IDX 17 25 22 26 18 27 21 28 19 29 20 30
REMARK H PARENT 24 8 20 31 20 32
ROOT
ATOM      1  C   UNL     1      38.459 137.003  19.075  1.00  0.00     0.151 C 
ENDROOT
BRANCH   1   2
ATOM      2  C   UNL     1      39.842 137.638  19.269  1.00  0.00     0.088 C 
BRANCH   2   3
ATOM      3  C   UNL     1      40.932 136.614  19.178  1.00  0.00     0.134 A 
ATOM      4  N   UNL     1      42.163 134.954  18.477  1.00  0.00    -0.104 N 
ATOM      5  C   UNL     1      40.943 135.509  18.353  1.00  0.00     0.190 A 
ATOM      6  N   UNL     1      42.852 135.692  19.339  1.00  0.00    -0.012 N 
ATOM      7  N   UNL     1      42.137 136.720  19.774  1.00  0.00     0.020 NA
ATOM      8  H   UNL     1      43.847 135.528  19.608  1.00  0.00     0.527 HD
BRANCH   4   9
ATOM      9  C   UNL     1      42.674 133.817  17.758  1.00  0.00     0.107 A 
ATOM     10  N   UNL     1      47.242 130.284  13.533  1.00  0.00    -0.321 N 
ATOM     11  C   UNL     1      46.088 129.574  14.175  1.00  0.00     0.301 C 
ATOM     12  C   UNL     1      47.296 131.650  14.145  1.00  0.00     0.301 C 
ATOM     13  C   UNL     1      45.371 130.604  14.955  1.00  0.00     0.016 A 
ATOM     14  C   UNL     1      46.055 131.782  14.938  1.00  0.00     0.016 A 
ATOM     15  C   UNL     1      44.174 130.465  15.659  1.00  0.00     0.018 A 
ATOM     16  C   UNL     1      45.593 132.906  15.623  1.00  0.00     0.019 A 
ATOM     17  C   UNL     1      43.669 131.578  16.358  1.00  0.00    -0.018 A 
ATOM     18  C   UNL     1      44.383 132.809  16.339  1.00  0.00    -0.016 A 
ATOM     19  C   UNL     1      42.471 131.487  17.079  1.00  0.00     0.011 A 
ATOM     20  C   UNL     1      43.879 133.914  17.038  1.00  0.00     0.041 A 
ATOM     21  C   UNL     1      41.980 132.596  17.772  1.00  0.00     0.033 A 
ATOM     22  C   UNL     1      47.024 130.389  12.071  1.00  0.00     0.334 C 
ATOM     23  C   UNL     1      48.506 129.552  13.779  1.00  0.00     0.334 C 
ENDBRANCH   4   9
ENDBRANCH   2   3
ENDBRANCH   1   2
BRANCH   1  24
ATOM     24  N   UNL     1      37.960 136.434  20.325  1.00  0.00    -0.272 N 
ATOM     25  C   UNL     1      37.919 135.125  20.639  1.00  0.00     0.113 A 
ATOM     26  N   UNL     1      37.350 137.144  21.263  1.00  0.00    -0.181 NA
ATOM     27  C   UNL     1      37.268 135.001  21.848  1.00  0.00     0.004 A 
ATOM     28  C   UNL     1      36.919 136.287  22.209  1.00  0.00     0.140 A 
BRANCH  27  29
ATOM     29  C   UNL     1      36.872 133.733  22.536  1.00  0.00     0.116 C 
BRANCH  29  30
ATOM     30  N   UNL     1      37.458 133.687  23.869  1.00  0.00    -0.326 NA
ATOM     31  H   UNL     1      37.801 132.713  24.043  1.00  0.00     0.119 HD
ATOM     32  H   UNL     1      38.302 134.305  23.868  1.00  0.00     0.119 HD
ENDBRANCH  29  30
ENDBRANCH  27  29
ENDBRANCH   1  24
TORSDOF 6
ENDMDL
MODEL 8
REMARK VINA RESULT:      -5.5      3.702      6.832
REMARK SMILES C[N+]1(C)Cc2cc3ccc(-n4cc(CCn5cc(CN)cn5)n[nH+]4)cc3cc2C1
REMARK SMILES IDX 15 1 14 2 13 3 11 4 12 5 24 6 23 7 10 9 2 10 4 11 29 12 5 13
REMARK SMILES IDX 28 14 6 15 27 16 7 17 26 18 8 19 25 20 9 21 1 22 3 23 16 24
REMARK SMILES IDX 17 25 22 26 18 27 21 28 19 29 20 30
REMARK H PARENT 24 8 20 31 20 32
ROOT
ATOM      1  C   UNL     1      40.737 135.792  23.600  1.00  0.00     0.151 C 
ENDROOT
BRANCH   1   2
ATOM      2  C   UNL     1      39.854 134.879  22.740  1.00  0.00     0.088 C 
BRANCH   2   3
ATOM      3  C   UNL     1      40.168 135.030  21.282  1.00  0.00     0.134 A 
ATOM      4  N   UNL     1      40.836 134.596  19.251  1.00  0.00    -0.104 N 
ATOM      5  C   UNL     1      40.944 134.177  20.526  1.00  0.00     0.190 A 
ATOM      6  N   UNL     1      40.034 135.653  19.244  1.00  0.00    -0.012 N 
ATOM      7  N   UNL     1      39.597 135.935  20.463  1.00  0.00     0.020 NA
ATOM      8  H   UNL     1      39.734 136.172  18.390  1.00  0.00     0.527 HD
BRANCH   4   9
ATOM      9  C   UNL     1      41.413 133.979  18.085  1.00  0.00     0.107 A 
ATOM     10  N   UNL     1      46.437 130.527  14.340  1.00  0.00    -0.321 N 
ATOM     11  C   UNL     1      45.113 130.856  13.720  1.00  0.00     0.301 C 
ATOM     12  C   UNL     1      46.317 130.844  15.798  1.00  0.00     0.301 C 
ATOM     13  C   UNL     1      44.348 131.563  14.768  1.00  0.00     0.016 A 
ATOM     14  C   UNL     1      45.030 131.557  15.947  1.00  0.00     0.016 A 
ATOM     15  C   UNL     1      43.090 132.156  14.656  1.00  0.00     0.018 A 
ATOM     16  C   UNL     1      44.506 132.144  17.098  1.00  0.00     0.019 A 
ATOM     17  C   UNL     1      42.527 132.766  15.794  1.00  0.00    -0.018 A 
ATOM     18  C   UNL     1      43.241 132.761  17.025  1.00  0.00    -0.016 A 
ATOM     19  C   UNL     1      41.267 133.375  15.730  1.00  0.00     0.011 A 
ATOM     20  C   UNL     1      42.677 133.367  18.156  1.00  0.00     0.041 A 
ATOM     21  C   UNL     1      40.716 133.975  16.865  1.00  0.00     0.033 A 
ATOM     22  C   UNL     1      47.504 131.352  13.726  1.00  0.00     0.334 C 
ATOM     23  C   UNL     1      46.764 129.095  14.142  1.00  0.00     0.334 C 
ENDBRANCH   4   9
ENDBRANCH   2   3
ENDBRANCH   1   2
BRANCH   1  24
ATOM     24  N   UNL     1      42.153 135.481  23.418  1.00  0.00    -0.272 N 
ATOM     25  C   UNL     1      42.748 134.304  23.693  1.00  0.00     0.113 A 
ATOM     26  N   UNL     1      43.065 136.381  23.080  1.00  0.00    -0.181 NA
ATOM     27  C   UNL     1      44.104 134.461  23.500  1.00  0.00     0.004 A 
ATOM     28  C   UNL     1      44.269 135.778  23.121  1.00  0.00     0.140 A 
BRANCH  27  29
ATOM     29  C   UNL     1      45.180 133.468  23.804  1.00  0.00     0.116 C 
BRANCH  29  30
ATOM     30  N   UNL     1      46.462 133.959  23.313  1.00  0.00    -0.326 NA
ATOM     31  H   UNL     1      46.531 134.979  23.538  1.00  0.00     0.119 HD
ATOM     32  H   UNL     1      47.216 133.481  23.856  1.00  0.00     0.119 HD
ENDBRANCH  29  30
ENDBRANCH  27  29
ENDBRANCH   1  24
TORSDOF 6
ENDMDL
MODEL 9
REMARK VINA RESULT:      -5.5      4.031      6.917
REMARK SMILES C[N+]1(C)Cc2cc3ccc(-n4cc(CCn5cc(CN)cn5)n[nH+]4)cc3cc2C1
REMARK SMILES IDX 15 1 14 2 13 3 11 4 12 5 24 6 23 7 10 9 2 10 4 11 29 12 5 13
REMARK SMILES IDX 28 14 6 15 27 16 7 17 26 18 8 19 25 20 9 21 1 22 3 23 16 24
REMARK SMILES IDX 17 25 22 26 18 27 21 28 19 29 20 30
REMARK H PARENT 24 8 20 31 20 32
ROOT
ATOM      1  C   UNL     1      42.104 136.577  22.589  1.00  0.00     0.151 C 
ENDROOT
BRANCH   1   2
ATOM      2  C   UNL     1      41.278 137.175  21.443  1.00  0.00     0.088 C 
BRANCH   2   3
ATOM      3  C   UNL     1      41.773 136.706  20.109  1.00  0.00     0.134 A 
ATOM      4  N   UNL     1      42.373 135.408  18.461  1.00  0.00    -0.104 N 
ATOM      5  C   UNL     1      42.145 135.417  19.787  1.00  0.00     0.190 A 
ATOM      6  N   UNL     1      42.149 136.635  18.008  1.00  0.00    -0.012 N 
ATOM      7  N   UNL     1      41.768 137.447  18.984  1.00  0.00     0.020 NA
ATOM      8  H   UNL     1      42.209 136.925  17.007  1.00  0.00     0.527 HD
BRANCH   4   9
ATOM      9  C   UNL     1      42.718 134.269  17.650  1.00  0.00     0.107 A 
ATOM     10  N   UNL     1      46.934 130.270  13.476  1.00  0.00    -0.321 N 
ATOM     11  C   UNL     1      45.582 129.777  13.893  1.00  0.00     0.301 C 
ATOM     12  C   UNL     1      47.200 131.512  14.269  1.00  0.00     0.301 C 
ATOM     13  C   UNL     1      45.007 130.852  14.728  1.00  0.00     0.016 A 
ATOM     14  C   UNL     1      45.923 131.836  14.942  1.00  0.00     0.016 A 
ATOM     15  C   UNL     1      43.726 130.914  15.280  1.00  0.00     0.018 A 
ATOM     16  C   UNL     1      45.627 132.954  15.721  1.00  0.00     0.019 A 
ATOM     17  C   UNL     1      43.384 132.029  16.069  1.00  0.00    -0.018 A 
ATOM     18  C   UNL     1      44.342 133.059  16.290  1.00  0.00    -0.016 A 
ATOM     19  C   UNL     1      42.111 132.136  16.643  1.00  0.00     0.011 A 
ATOM     20  C   UNL     1      43.999 134.166  17.077  1.00  0.00     0.041 A 
ATOM     21  C   UNL     1      41.783 133.246  17.427  1.00  0.00     0.033 A 
ATOM     22  C   UNL     1      46.937 130.581  12.027  1.00  0.00     0.334 C 
ATOM     23  C   UNL     1      47.970 129.246  13.749  1.00  0.00     0.334 C 
ENDBRANCH   4   9
ENDBRANCH   2   3
ENDBRANCH   1   2
BRANCH   1  24
ATOM     24  N   UNL     1      43.456 137.131  22.610  1.00  0.00    -0.272 N 
ATOM     25  C   UNL     1      44.595 136.450  22.378  1.00  0.00     0.113 A 
ATOM     26  N   UNL     1      43.738 138.366  23.000  1.00  0.00    -0.181 NA
ATOM     27  C   UNL     1      45.652 137.303  22.614  1.00  0.00     0.004 A 
ATOM     28  C   UNL     1      45.079 138.496  23.008  1.00  0.00     0.140 A 
BRANCH  27  29
ATOM     29  C   UNL     1      47.108 136.960  22.612  1.00  0.00     0.116 C 
BRANCH  29  30
ATOM     30  N   UNL     1      47.568 136.740  23.978  1.00  0.00    -0.326 NA
ATOM     31  H   UNL     1      47.494 135.717  24.188  1.00  0.00     0.119 HD
ATOM     32  H   UNL     1      48.585 136.979  24.014  1.00  0.00     0.119 HD
ENDBRANCH  29  30
ENDBRANCH  27  29
ENDBRANCH   1  24
TORSDOF 6
ENDMDL


