REMARK SMILES C#CCO/C([O-])=C\[C@H]1[CH][C]2C=CC=C[C@@H]2CC1
REMARK SMILES IDX 4 1 3 2 2 3 1 4 5 5 6 6 7 7 8 8 9 9 17 10 10 11 16 12 11 13
REMARK SMILES IDX 15 14 12 15 14 16 13 17
REMARK H PARENT
ROOT
ATOM      1  O   UNL     1       1.441  -2.780  -1.133  1.00  0.00    -0.601 OA
ENDROOT
BRANCH   1   2
ATOM      2  C   UNL     1       1.768  -3.845  -2.015  1.00  0.00     0.160 C 
BRANCH   2   3
ATOM      3  C   UNL     1       0.778  -3.902  -3.090  1.00  0.00    -0.095 C 
ATOM      4  C   UNL     1      -0.039  -3.948  -3.976  1.00  0.00     0.005 C 
ENDBRANCH   2   3
ENDBRANCH   1   2
BRANCH   1   5
ATOM      5  C   UNL     1       2.214  -2.474  -0.009  1.00  0.00     0.049 C 
ATOM      6  O   UNL     1       3.346  -3.228   0.288  1.00  0.00    -0.547 OA
BRANCH   5   7
ATOM      7  C   UNL     1       1.877  -1.459   0.790  1.00  0.00     0.004 C 
BRANCH   7   8
ATOM      8  C   UNL     1       0.674  -0.587   0.528  1.00  0.00     0.036 C 
ATOM      9  C   UNL     1       0.249   0.105   1.806  1.00  0.00    -0.015 C 
ATOM     10  C   UNL     1       0.970   0.409  -0.612  1.00  0.00     0.013 C 
ATOM     11  C   UNL     1      -0.285   1.401   1.806  1.00  0.00    -0.045 C 
ATOM     12  C   UNL     1      -0.118   1.484  -0.703  1.00  0.00     0.013 C 
ATOM     13  C   UNL     1      -0.919   1.944   3.026  1.00  0.00     0.004 C 
ATOM     14  C   UNL     1      -0.147   2.304   0.593  1.00  0.00     0.041 C 
ATOM     15  C   UNL     1      -1.664   3.050   2.952  1.00  0.00    -0.000 C 
ATOM     16  C   UNL     1      -1.239   3.350   0.553  1.00  0.00    -0.019 C 
ATOM     17  C   UNL     1      -1.884   3.733   1.662  1.00  0.00    -0.004 C 
ENDBRANCH   7   8
ENDBRANCH   5   7
ENDBRANCH   1   5
TORSDOF 5


