REMARK SMILES C#CCOC(=O)C[C@@H]1c2c(N=[N+]=[N-])ccc3c2[C@@H](C[C@H]1C(=O)N=[N+]=[N-])C(=O)N(O)C3=O
REMARK SMILES IDX 7 1 5 2 6 3 4 4 3 5 2 6 1 7 8 8 9 9 20 10 10 11 17 12 19 13
REMARK SMILES IDX 14 14 16 15 18 16 15 17 30 18 26 19 28 20 31 21 27 22 21 23
REMARK SMILES IDX 22 24 23 25 24 26 25 27 11 28 12 29 13 30 29 31
REMARK H PARENT 29 32
ROOT
ATOM      1  C   UNL     1      -1.152   1.847  -0.914  1.00  0.00     0.131 C 
ENDROOT
BRANCH   1   2
ATOM      2  C   UNL     1      -2.455   2.414  -0.441  1.00  0.00     0.307 C 
ATOM      3  O   UNL     1      -3.486   2.302  -1.159  1.00  0.00    -0.252 OA
BRANCH   2   4
ATOM      4  O   UNL     1      -2.519   3.040   0.809  1.00  0.00    -0.452 OA
BRANCH   4   5
ATOM      5  C   UNL     1      -3.740   3.465   1.407  1.00  0.00     0.322 C 
BRANCH   5   6
ATOM      6  C   UNL     1      -4.518   2.301   1.845  1.00  0.00    -0.065 C 
ATOM      7  C   UNL     1      -5.153   1.341   2.202  1.00  0.00     0.007 C 
ENDBRANCH   5   6
ENDBRANCH   4   5
ENDBRANCH   2   4
ENDBRANCH   1   2
BRANCH   1   8
ATOM      8  C   UNL     1      -0.682   0.661  -0.032  1.00  0.00     0.042 C 
ATOM      9  C   UNL     1       0.752   0.296  -0.410  1.00  0.00    -0.029 A 
ATOM     10  C   UNL     1      -1.653  -0.550  -0.114  1.00  0.00     0.072 C 
ATOM     11  C   UNL     1       1.815   1.123   0.030  1.00  0.00     0.041 A 
ATOM     12  C   UNL     1       1.028  -0.793  -1.283  1.00  0.00    -0.019 A 
ATOM     13  C   UNL     1      -1.457  -1.333  -1.420  1.00  0.00     0.030 C 
ATOM     14  C   UNL     1       3.121   0.877  -0.418  1.00  0.00     0.011 A 
ATOM     15  C   UNL     1       2.348  -0.993  -1.751  1.00  0.00     0.047 A 
ATOM     16  C   UNL     1      -0.022  -1.866  -1.554  1.00  0.00     0.113 C 
ATOM     17  C   UNL     1       3.381  -0.156  -1.311  1.00  0.00     0.015 A 
ATOM     18  C   UNL     1       2.622  -2.050  -2.748  1.00  0.00     0.284 C 
ATOM     19  C   UNL     1       0.199  -2.546  -2.886  1.00  0.00     0.261 C 
ATOM     20  N   UNL     1       1.532  -2.733  -3.374  1.00  0.00    -0.151 N 
ATOM     21  O   UNL     1       3.806  -2.327  -3.082  1.00  0.00    -0.266 OA
ATOM     22  O   UNL     1      -0.770  -3.044  -3.521  1.00  0.00    -0.271 OA
BRANCH  10  23
ATOM     23  C   UNL     1      -1.542  -1.459   1.091  1.00  0.00     0.222 C 
ATOM     24  O   UNL     1      -2.565  -2.080   1.491  1.00  0.00    -0.292 OA
BRANCH  23  25
ATOM     25  N   UNL     1      -0.285  -1.652   1.749  1.00  0.00    -0.022 NA
BRANCH  25  26
ATOM     26  N   UNL     1      -0.178  -2.406   2.716  1.00  0.00     0.008 N 
ATOM     27  N   UNL     1      -0.070  -3.160   3.682  1.00  0.00    -0.003 NA
ENDBRANCH  25  26
ENDBRANCH  23  25
ENDBRANCH  10  23
BRANCH  11  28
ATOM     28  N   UNL     1       1.545   2.210   0.932  1.00  0.00    -0.060 NA
BRANCH  28  29
ATOM     29  N   UNL     1       2.426   2.967   1.343  1.00  0.00     0.005 N 
ATOM     30  N   UNL     1       3.304   3.723   1.756  1.00  0.00    -0.003 NA
ENDBRANCH  28  29
ENDBRANCH  11  28
BRANCH  20  31
ATOM     31  O   UNL     1       1.762  -3.567  -4.418  1.00  0.00    -0.278 OA
ATOM     32  H   UNL     1       1.693  -2.994  -5.224  1.00  0.00     0.247 HD
ENDBRANCH  20  31
ENDBRANCH   1   8
TORSDOF 11


