MODEL 1
REMARK VINA RESULT:     -10.8      0.000      0.000
REMARK SMILES C=Cc1ccc(-c2cccc3c[nH+]oc23)[nH+]c1
REMARK SMILES IDX 3 1 4 2 5 3 6 4 16 5 17 6 2 8 1 9 7 10 8 11 15 12 9 13 14 14
REMARK SMILES IDX 11 15 10 16 13 17 12 18
REMARK H PARENT 16 7 13 19
ROOT
ATOM      1  C   UNL     1      46.550 130.923  14.738  1.00  0.00     0.038 A 
ATOM      2  C   UNL     1      46.506 129.803  15.586  1.00  0.00     0.021 A 
ATOM      3  C   UNL     1      45.958 129.910  16.864  1.00  0.00     0.081 A 
ATOM      4  C   UNL     1      45.458 131.143  17.306  1.00  0.00     0.214 A 
ATOM      5  N   UNL     1      45.516 132.224  16.473  1.00  0.00    -0.210 N 
ATOM      6  C   UNL     1      46.046 132.140  15.222  1.00  0.00     0.314 A 
ATOM      7  H   UNL     1      45.125 133.144  16.778  1.00  0.00     0.453 HD
ENDROOT
BRANCH   1   8
ATOM      8  C   UNL     1      47.125 130.881  13.371  1.00  0.00     0.006 C 
ATOM      9  C   UNL     1      48.221 130.197  13.038  1.00  0.00     0.009 C 
ENDBRANCH   1   8
BRANCH   4  10
ATOM     10  C   UNL     1      44.879 131.273  18.665  1.00  0.00     0.097 A 
ATOM     11  C   UNL     1      45.596 130.866  19.817  1.00  0.00     0.019 A 
ATOM     12  C   UNL     1      43.601 131.807  18.873  1.00  0.00     0.230 A 
ATOM     13  C   UNL     1      45.029 130.993  21.106  1.00  0.00     0.002 A 
ATOM     14  O   UNL     1      42.748 132.276  17.995  1.00  0.00    -0.237 OA
ATOM     15  C   UNL     1      43.060 131.926  20.124  1.00  0.00     0.093 A 
ATOM     16  C   UNL     1      43.740 131.531  21.270  1.00  0.00     0.019 A 
ATOM     17  N   UNL     1      41.673 132.691  18.608  1.00  0.00    -0.035 N 
ATOM     18  C   UNL     1      41.821 132.495  19.937  1.00  0.00     0.369 A 
ATOM     19  H   UNL     1      40.843 133.110  18.134  1.00  0.00     0.516 HD
ENDBRANCH   4  10
TORSDOF 2
ENDMDL
MODEL 2
REMARK VINA RESULT:     -10.5      0.777      1.230
REMARK SMILES C=Cc1ccc(-c2cccc3c[nH+]oc23)[nH+]c1
REMARK SMILES IDX 3 1 4 2 5 3 6 4 16 5 17 6 2 8 1 9 7 10 8 11 15 12 9 13 14 14
REMARK SMILES IDX 11 15 10 16 13 17 12 18
REMARK H PARENT 16 7 13 19
ROOT
ATOM      1  C   UNL     1      46.766 130.606  14.895  1.00  0.00     0.038 A 
ATOM      2  C   UNL     1      46.163 131.843  15.182  1.00  0.00     0.021 A 
ATOM      3  C   UNL     1      45.553 132.056  16.418  1.00  0.00     0.081 A 
ATOM      4  C   UNL     1      45.533 131.029  17.372  1.00  0.00     0.214 A 
ATOM      5  N   UNL     1      46.116 129.830  17.073  1.00  0.00    -0.210 N 
ATOM      6  C   UNL     1      46.718 129.602  15.874  1.00  0.00     0.314 A 
ATOM      7  H   UNL     1      46.132 129.063  17.783  1.00  0.00     0.453 HD
ENDROOT
BRANCH   1   8
ATOM      8  C   UNL     1      47.426 130.308  13.599  1.00  0.00     0.006 C 
ATOM      9  C   UNL     1      47.543 131.182  12.599  1.00  0.00     0.009 C 
ENDBRANCH   1   8
BRANCH   4  10
ATOM     10  C   UNL     1      44.881 131.240  18.687  1.00  0.00     0.097 A 
ATOM     11  C   UNL     1      45.533 130.902  19.898  1.00  0.00     0.019 A 
ATOM     12  C   UNL     1      43.596 131.787  18.792  1.00  0.00     0.230 A 
ATOM     13  C   UNL     1      44.896 131.107  21.144  1.00  0.00     0.002 A 
ATOM     14  O   UNL     1      42.794 132.203  17.842  1.00  0.00    -0.237 OA
ATOM     15  C   UNL     1      42.988 131.982  20.003  1.00  0.00     0.093 A 
ATOM     16  C   UNL     1      43.602 131.656  21.206  1.00  0.00     0.019 A 
ATOM     17  N   UNL     1      41.689 132.656  18.369  1.00  0.00    -0.035 N 
ATOM     18  C   UNL     1      41.763 132.539  19.714  1.00  0.00     0.369 A 
ATOM     19  H   UNL     1      40.887 133.046  17.827  1.00  0.00     0.516 HD
ENDBRANCH   4  10
TORSDOF 2
ENDMDL
MODEL 3
REMARK VINA RESULT:     -10.1      1.622      2.275
REMARK SMILES C=Cc1ccc(-c2cccc3c[nH+]oc23)[nH+]c1
REMARK SMILES IDX 3 1 4 2 5 3 6 4 16 5 17 6 2 8 1 9 7 10 8 11 15 12 9 13 14 14
REMARK SMILES IDX 11 15 10 16 13 17 12 18
REMARK H PARENT 16 7 13 19
ROOT
ATOM      1  C   UNL     1      46.768 130.766  14.665  1.00  0.00     0.038 A 
ATOM      2  C   UNL     1      46.377 129.708  15.504  1.00  0.00     0.021 A 
ATOM      3  C   UNL     1      45.550 129.950  16.600  1.00  0.00     0.081 A 
ATOM      4  C   UNL     1      45.117 131.256  16.871  1.00  0.00     0.214 A 
ATOM      5  N   UNL     1      45.513 132.274  16.051  1.00  0.00    -0.210 N 
ATOM      6  C   UNL     1      46.318 132.059  14.975  1.00  0.00     0.314 A 
ATOM      7  H   UNL     1      45.178 133.249  16.225  1.00  0.00     0.453 HD
ENDROOT
BRANCH   1   8
ATOM      8  C   UNL     1      47.651 130.582  13.487  1.00  0.00     0.006 C 
ATOM      9  C   UNL     1      48.471 129.543  13.319  1.00  0.00     0.009 C 
ENDBRANCH   1   8
BRANCH   4  10
ATOM     10  C   UNL     1      44.243 131.528  18.038  1.00  0.00     0.097 A 
ATOM     11  C   UNL     1      42.886 131.902  17.875  1.00  0.00     0.019 A 
ATOM     12  C   UNL     1      44.716 131.424  19.352  1.00  0.00     0.230 A 
ATOM     13  C   UNL     1      42.067 132.161  18.998  1.00  0.00     0.002 A 
ATOM     14  O   UNL     1      45.906 131.077  19.778  1.00  0.00    -0.237 OA
ATOM     15  C   UNL     1      43.916 131.677  20.433  1.00  0.00     0.093 A 
ATOM     16  C   UNL     1      42.583 132.049  20.302  1.00  0.00     0.019 A 
ATOM     17  N   UNL     1      45.928 131.094  21.083  1.00  0.00    -0.035 N 
ATOM     18  C   UNL     1      44.709 131.462  21.537  1.00  0.00     0.369 A 
ATOM     19  H   UNL     1      46.759 130.857  21.667  1.00  0.00     0.516 HD
ENDBRANCH   4  10
TORSDOF 2
ENDMDL
MODEL 4
REMARK VINA RESULT:     -10.0      1.815      2.535
REMARK SMILES C=Cc1ccc(-c2cccc3c[nH+]oc23)[nH+]c1
REMARK SMILES IDX 3 1 4 2 5 3 6 4 16 5 17 6 2 8 1 9 7 10 8 11 15 12 9 13 14 14
REMARK SMILES IDX 11 15 10 16 13 17 12 18
REMARK H PARENT 16 7 13 19
ROOT
ATOM      1  C   UNL     1      46.607 130.522  14.767  1.00  0.00     0.038 A 
ATOM      2  C   UNL     1      45.552 131.439  14.627  1.00  0.00     0.021 A 
ATOM      3  C   UNL     1      44.752 131.762  15.723  1.00  0.00     0.081 A 
ATOM      4  C   UNL     1      44.998 131.162  16.966  1.00  0.00     0.214 A 
ATOM      5  N   UNL     1      46.023 130.266  17.083  1.00  0.00    -0.210 N 
ATOM      6  C   UNL     1      46.815 129.938  16.026  1.00  0.00     0.314 A 
ATOM      7  H   UNL     1      46.234 129.829  18.009  1.00  0.00     0.453 HD
ENDROOT
BRANCH   1   8
ATOM      8  C   UNL     1      47.492 130.126  13.643  1.00  0.00     0.006 C 
ATOM      9  C   UNL     1      47.932 130.965  12.704  1.00  0.00     0.009 C 
ENDBRANCH   1   8
BRANCH   4  10
ATOM     10  C   UNL     1      44.151 131.492  18.138  1.00  0.00     0.097 A 
ATOM     11  C   UNL     1      42.813 131.931  17.983  1.00  0.00     0.019 A 
ATOM     12  C   UNL     1      44.632 131.382  19.448  1.00  0.00     0.230 A 
ATOM     13  C   UNL     1      42.020 132.245  19.111  1.00  0.00     0.002 A 
ATOM     14  O   UNL     1      45.809 130.982  19.866  1.00  0.00    -0.237 OA
ATOM     15  C   UNL     1      43.857 131.688  20.534  1.00  0.00     0.093 A 
ATOM     16  C   UNL     1      42.543 132.124  20.411  1.00  0.00     0.019 A 
ATOM     17  N   UNL     1      45.845 131.015  21.171  1.00  0.00    -0.035 N 
ATOM     18  C   UNL     1      44.650 131.449  21.632  1.00  0.00     0.369 A 
ATOM     19  H   UNL     1      46.669 130.744  21.750  1.00  0.00     0.516 HD
ENDBRANCH   4  10
TORSDOF 2
ENDMDL
MODEL 5
REMARK VINA RESULT:      -9.0      1.799      2.420
REMARK SMILES C=Cc1ccc(-c2cccc3c[nH+]oc23)[nH+]c1
REMARK SMILES IDX 3 1 4 2 5 3 6 4 16 5 17 6 2 8 1 9 7 10 8 11 15 12 9 13 14 14
REMARK SMILES IDX 11 15 10 16 13 17 12 18
REMARK H PARENT 16 7 13 19
ROOT
ATOM      1  C   UNL     1      45.752 131.040  14.803  1.00  0.00     0.038 A 
ATOM      2  C   UNL     1      46.390 130.725  16.015  1.00  0.00     0.021 A 
ATOM      3  C   UNL     1      45.740 130.946  17.229  1.00  0.00     0.081 A 
ATOM      4  C   UNL     1      44.449 131.494  17.237  1.00  0.00     0.214 A 
ATOM      5  N   UNL     1      43.847 131.802  16.051  1.00  0.00    -0.210 N 
ATOM      6  C   UNL     1      44.464 131.593  14.856  1.00  0.00     0.314 A 
ATOM      7  H   UNL     1      42.875 132.187  16.040  1.00  0.00     0.453 HD
ENDROOT
BRANCH   1   8
ATOM      8  C   UNL     1      46.388 130.839  13.477  1.00  0.00     0.006 C 
ATOM      9  C   UNL     1      47.699 130.932  13.252  1.00  0.00     0.009 C 
ENDBRANCH   1   8
BRANCH   4  10
ATOM     10  C   UNL     1      43.748 131.740  18.522  1.00  0.00     0.097 A 
ATOM     11  C   UNL     1      42.485 132.379  18.565  1.00  0.00     0.019 A 
ATOM     12  C   UNL     1      44.301 131.350  19.748  1.00  0.00     0.230 A 
ATOM     13  C   UNL     1      41.831 132.609  19.797  1.00  0.00     0.002 A 
ATOM     14  O   UNL     1      45.430 130.728  19.986  1.00  0.00    -0.237 OA
ATOM     15  C   UNL     1      43.662 131.577  20.937  1.00  0.00     0.093 A 
ATOM     16  C   UNL     1      42.423 132.204  21.008  1.00  0.00     0.019 A 
ATOM     17  N   UNL     1      45.565 130.541  21.271  1.00  0.00    -0.035 N 
ATOM     18  C   UNL     1      44.487 131.053  21.905  1.00  0.00     0.369 A 
ATOM     19  H   UNL     1      46.379 130.067  21.720  1.00  0.00     0.516 HD
ENDBRANCH   4  10
TORSDOF 2
ENDMDL
MODEL 6
REMARK VINA RESULT:      -8.5      2.049      6.295
REMARK SMILES C=Cc1ccc(-c2cccc3c[nH+]oc23)[nH+]c1
REMARK SMILES IDX 3 1 4 2 5 3 6 4 16 5 17 6 2 8 1 9 7 10 8 11 15 12 9 13 14 14
REMARK SMILES IDX 11 15 10 16 13 17 12 18
REMARK H PARENT 16 7 13 19
ROOT
ATOM      1  C   UNL     1      44.476 131.312  21.095  1.00  0.00     0.038 A 
ATOM      2  C   UNL     1      43.452 131.853  20.299  1.00  0.00     0.021 A 
ATOM      3  C   UNL     1      43.539 131.799  18.909  1.00  0.00     0.081 A 
ATOM      4  C   UNL     1      44.659 131.210  18.304  1.00  0.00     0.214 A 
ATOM      5  N   UNL     1      45.650 130.697  19.091  1.00  0.00    -0.210 N 
ATOM      6  C   UNL     1      45.583 130.739  20.450  1.00  0.00     0.314 A 
ATOM      7  H   UNL     1      46.479 130.233  18.656  1.00  0.00     0.453 HD
ENDROOT
BRANCH   1   8
ATOM      8  C   UNL     1      44.452 131.343  22.578  1.00  0.00     0.006 C 
ATOM      9  C   UNL     1      43.342 131.253  23.312  1.00  0.00     0.009 C 
ENDBRANCH   1   8
BRANCH   4  10
ATOM     10  C   UNL     1      44.768 131.151  16.826  1.00  0.00     0.097 A 
ATOM     11  C   UNL     1      43.790 131.741  15.988  1.00  0.00     0.019 A 
ATOM     12  C   UNL     1      45.843 130.516  16.191  1.00  0.00     0.230 A 
ATOM     13  C   UNL     1      43.906 131.673  14.580  1.00  0.00     0.002 A 
ATOM     14  O   UNL     1      46.882 129.920  16.724  1.00  0.00    -0.237 OA
ATOM     15  C   UNL     1      45.948 130.455  14.828  1.00  0.00     0.093 A 
ATOM     16  C   UNL     1      45.000 131.021  13.983  1.00  0.00     0.019 A 
ATOM     17  N   UNL     1      47.660 129.468  15.777  1.00  0.00    -0.035 N 
ATOM     18  C   UNL     1      47.119 129.778  14.578  1.00  0.00     0.369 A 
ATOM     19  H   UNL     1      48.554 128.955  15.937  1.00  0.00     0.516 HD
ENDBRANCH   4  10
TORSDOF 2
ENDMDL
MODEL 7
REMARK VINA RESULT:      -8.1      2.075      2.874
REMARK SMILES C=Cc1ccc(-c2cccc3c[nH+]oc23)[nH+]c1
REMARK SMILES IDX 3 1 4 2 5 3 6 4 16 5 17 6 2 8 1 9 7 10 8 11 15 12 9 13 14 14
REMARK SMILES IDX 11 15 10 16 13 17 12 18
REMARK H PARENT 16 7 13 19
ROOT
ATOM      1  C   UNL     1      45.861 130.599  15.890  1.00  0.00     0.038 A 
ATOM      2  C   UNL     1      44.701 131.388  15.808  1.00  0.00     0.021 A 
ATOM      3  C   UNL     1      43.997 131.725  16.963  1.00  0.00     0.081 A 
ATOM      4  C   UNL     1      44.444 131.265  18.210  1.00  0.00     0.214 A 
ATOM      5  N   UNL     1      45.568 130.492  18.272  1.00  0.00    -0.210 N 
ATOM      6  C   UNL     1      46.270 130.153  17.157  1.00  0.00     0.314 A 
ATOM      7  H   UNL     1      45.928 130.163  19.197  1.00  0.00     0.453 HD
ENDROOT
BRANCH   1   8
ATOM      8  C   UNL     1      46.654 130.197  14.702  1.00  0.00     0.006 C 
ATOM      9  C   UNL     1      46.904 130.995  13.662  1.00  0.00     0.009 C 
ENDBRANCH   1   8
BRANCH   4  10
ATOM     10  C   UNL     1      43.700 131.610  19.447  1.00  0.00     0.097 A 
ATOM     11  C   UNL     1      42.563 132.454  19.414  1.00  0.00     0.019 A 
ATOM     12  C   UNL     1      44.085 131.116  20.699  1.00  0.00     0.230 A 
ATOM     13  C   UNL     1      41.867 132.776  20.602  1.00  0.00     0.002 A 
ATOM     14  O   UNL     1      45.072 130.309  21.002  1.00  0.00    -0.237 OA
ATOM     15  C   UNL     1      43.406 131.434  21.844  1.00  0.00     0.093 A 
ATOM     16  C   UNL     1      42.289 132.261  21.841  1.00  0.00     0.019 A 
ATOM     17  N   UNL     1      45.077 130.085  22.288  1.00  0.00    -0.035 N 
ATOM     18  C   UNL     1      44.055 130.765  22.856  1.00  0.00     0.369 A 
ATOM     19  H   UNL     1      45.762 129.474  22.783  1.00  0.00     0.516 HD
ENDBRANCH   4  10
TORSDOF 2
ENDMDL
MODEL 8
REMARK VINA RESULT:      -8.1      1.944      6.237
REMARK SMILES C=Cc1ccc(-c2cccc3c[nH+]oc23)[nH+]c1
REMARK SMILES IDX 3 1 4 2 5 3 6 4 16 5 17 6 2 8 1 9 7 10 8 11 15 12 9 13 14 14
REMARK SMILES IDX 11 15 10 16 13 17 12 18
REMARK H PARENT 16 7 13 19
ROOT
ATOM      1  C   UNL     1      44.287 131.413  21.158  1.00  0.00     0.038 A 
ATOM      2  C   UNL     1      45.462 130.917  20.568  1.00  0.00     0.021 A 
ATOM      3  C   UNL     1      45.577 130.852  19.180  1.00  0.00     0.081 A 
ATOM      4  C   UNL     1      44.512 131.274  18.372  1.00  0.00     0.214 A 
ATOM      5  N   UNL     1      43.373 131.745  18.961  1.00  0.00    -0.210 N 
ATOM      6  C   UNL     1      43.241 131.817  20.314  1.00  0.00     0.314 A 
ATOM      7  H   UNL     1      42.580 132.087  18.372  1.00  0.00     0.453 HD
ENDROOT
BRANCH   1   8
ATOM      8  C   UNL     1      44.093 131.502  22.627  1.00  0.00     0.006 C 
ATOM      9  C   UNL     1      42.917 131.725  23.216  1.00  0.00     0.009 C 
ENDBRANCH   1   8
BRANCH   4  10
ATOM     10  C   UNL     1      44.619 131.203  16.894  1.00  0.00     0.097 A 
ATOM     11  C   UNL     1      43.639 131.784  16.053  1.00  0.00     0.019 A 
ATOM     12  C   UNL     1      45.694 130.565  16.264  1.00  0.00     0.230 A 
ATOM     13  C   UNL     1      43.753 131.706  14.646  1.00  0.00     0.002 A 
ATOM     14  O   UNL     1      46.735 129.975  16.799  1.00  0.00    -0.237 OA
ATOM     15  C   UNL     1      45.797 130.494  14.901  1.00  0.00     0.093 A 
ATOM     16  C   UNL     1      44.848 131.051  14.052  1.00  0.00     0.019 A 
ATOM     17  N   UNL     1      47.513 129.517  15.856  1.00  0.00    -0.035 N 
ATOM     18  C   UNL     1      46.970 129.817  14.655  1.00  0.00     0.369 A 
ATOM     19  H   UNL     1      48.408 129.007  16.019  1.00  0.00     0.516 HD
ENDBRANCH   4  10
TORSDOF 2
ENDMDL


