REMARK SMILES Cc1ccc(-c2ccc(O)cc2)c2c[nH]nc12
REMARK SMILES IDX 6 1 7 2 8 3 9 4 11 5 12 6 5 7 2 8 3 9 17 10 4 11 16 12 13 13
REMARK SMILES IDX 15 14 14 15 1 16 10 18
REMARK H PARENT 15 17 10 19
ROOT
ATOM      1  C   UNL     1      -0.475  -1.335   0.376  1.00  0.00    -0.017 A 
ATOM      2  C   UNL     1      -1.027  -2.399   1.111  1.00  0.00     0.012 A 
ATOM      3  C   UNL     1      -0.335  -3.607   1.234  1.00  0.00     0.047 A 
ATOM      4  C   UNL     1       0.913  -3.770   0.619  1.00  0.00     0.115 A 
ATOM      5  C   UNL     1       1.462  -2.719  -0.122  1.00  0.00     0.047 A 
ATOM      6  C   UNL     1       0.773  -1.509  -0.247  1.00  0.00     0.012 A 
ENDROOT
BRANCH   1   7
ATOM      7  C   UNL     1      -1.216  -0.059   0.238  1.00  0.00    -0.007 A 
ATOM      8  C   UNL     1      -2.642   2.402  -0.046  1.00  0.00    -0.023 A 
ATOM      9  C   UNL     1      -3.290   1.165  -0.249  1.00  0.00     0.006 A 
ATOM     10  C   UNL     1      -1.294   2.366   0.320  1.00  0.00     0.096 A 
ATOM     11  C   UNL     1      -2.585  -0.051  -0.111  1.00  0.00     0.010 A 
ATOM     12  N   UNL     1      -0.495   3.408   0.617  1.00  0.00    -0.175 NA
ATOM     13  C   UNL     1      -0.608   1.186   0.452  1.00  0.00     0.028 A 
ATOM     14  N   UNL     1       0.689   2.899   0.939  1.00  0.00    -0.284 N 
ATOM     15  C   UNL     1       0.658   1.551   0.857  1.00  0.00     0.114 A 
ATOM     16  C   UNL     1      -3.392   3.697  -0.144  1.00  0.00     0.047 C 
ATOM     17  H   UNL     1       1.512   3.473   1.224  1.00  0.00     0.189 HD
ENDBRANCH   1   7
BRANCH   4  18
ATOM     18  O   UNL     1       1.612  -4.969   0.735  1.00  0.00    -0.508 OA
ATOM     19  H   UNL     1       1.240  -5.749   1.264  1.00  0.00     0.293 HD
ENDBRANCH   4  18
TORSDOF 2


