REMARK SMILES CC(=O)c1ccc(Oc2c(Nc3ccc(C)cc3)ccc3cc[nH]c23)[nH+]n1
REMARK SMILES IDX 9 1 10 2 19 3 20 4 21 5 22 6 23 7 24 8 25 9 8 11 7 12 4 13
REMARK SMILES IDX 5 14 27 15 6 16 26 17 2 19 1 20 3 21 11 22 12 24 13 25 18 26
REMARK SMILES IDX 14 27 17 28 15 29 16 30
REMARK H PARENT 24 10 26 18 11 23
ROOT
ATOM      1  C   UNL     1      -1.657  -0.229   0.440  1.00  0.00     0.181 A 
ATOM      2  C   UNL     1      -1.980  -0.103   1.816  1.00  0.00     0.084 A 
ATOM      3  C   UNL     1      -3.054  -0.850   2.357  1.00  0.00     0.031 A 
ATOM      4  C   UNL     1      -3.847  -1.671   1.538  1.00  0.00     0.013 A 
ATOM      5  C   UNL     1      -3.537  -1.732   0.184  1.00  0.00     0.003 A 
ATOM      6  C   UNL     1      -4.157  -2.411  -0.841  1.00  0.00     0.028 A 
ATOM      7  C   UNL     1      -3.439  -2.077  -1.983  1.00  0.00     0.083 A 
ATOM      8  N   UNL     1      -2.424  -1.235  -1.683  1.00  0.00    -0.358 N 
ATOM      9  C   UNL     1      -2.486  -1.037  -0.354  1.00  0.00     0.091 A 
ATOM     10  H   UNL     1      -1.752  -0.816  -2.362  1.00  0.00     0.166 HD
ENDROOT
BRANCH   1  11
ATOM     11  O   UNL     1      -0.551   0.449  -0.091  1.00  0.00    -0.399 OA
BRANCH  11  12
ATOM     12  C   UNL     1       0.433  -0.134  -0.899  1.00  0.00     0.397 A 
ATOM     13  C   UNL     1       2.389  -1.267  -2.488  1.00  0.00     0.173 A 
ATOM     14  C   UNL     1       2.231   0.124  -2.478  1.00  0.00     0.049 A 
ATOM     15  N   UNL     1       1.579  -2.025  -1.700  1.00  0.00     0.004 NA
ATOM     16  C   UNL     1       1.248   0.692  -1.672  1.00  0.00     0.129 A 
ATOM     17  N   UNL     1       0.634  -1.483  -0.928  1.00  0.00    -0.065 N 
ATOM     18  H   UNL     1       0.061  -2.117  -0.330  1.00  0.00     0.495 HD
BRANCH  13  19
ATOM     19  C   UNL     1       3.417  -1.918  -3.328  1.00  0.00     0.184 C 
ATOM     20  C   UNL     1       3.574  -3.407  -3.326  1.00  0.00     0.095 C 
ATOM     21  O   UNL     1       4.174  -1.222  -4.058  1.00  0.00    -0.293 OA
ENDBRANCH  13  19
ENDBRANCH  11  12
ENDBRANCH   1  11
BRANCH   2  22
ATOM     22  N   UNL     1      -1.186   0.710   2.696  1.00  0.00    -0.352 N 
ATOM     23  H   UNL     1      -0.984   0.339   3.651  1.00  0.00     0.167 HD
BRANCH  22  24
ATOM     24  C   UNL     1      -0.707   2.026   2.367  1.00  0.00     0.038 A 
ATOM     25  C   UNL     1       0.452   2.512   2.988  1.00  0.00     0.026 A 
ATOM     26  C   UNL     1      -1.398   2.851   1.462  1.00  0.00     0.026 A 
ATOM     27  C   UNL     1       0.933   3.790   2.689  1.00  0.00     0.005 A 
ATOM     28  C   UNL     1      -0.916   4.129   1.162  1.00  0.00     0.005 A 
ATOM     29  C   UNL     1       0.246   4.611   1.782  1.00  0.00    -0.051 A 
ATOM     30  C   UNL     1       0.785   5.965   1.428  1.00  0.00     0.044 C 
ENDBRANCH  22  24
ENDBRANCH   2  22
TORSDOF 5


