MODEL 1
REMARK VINA RESULT:      -6.4      0.000      0.000
REMARK SMILES CO/C(O)=C\[C](C)Oc1ccc([C@H]2O[C@@H]2C(=O)c2ccc(F)cc2)cc1F
REMARK SMILES IDX 8 1 6 2 7 3 5 4 3 5 4 6 2 8 1 9 9 10 10 11 26 12 11 13 25 14
REMARK SMILES IDX 12 15 27 16 13 17 14 18 15 19 16 20 17 21 18 22 19 23 24 24
REMARK SMILES IDX 20 25 23 26 21 27 22 28
REMARK H PARENT 4 7
ROOT
ATOM      1  O   UNL     1      42.476 131.546  22.642  1.00  0.00    -0.476 OA
ENDROOT
BRANCH   1   2
ATOM      2  C   UNL     1      43.381 131.431  23.737  1.00  0.00     0.174 C 
ATOM      3  C   UNL     1      43.274 132.665  24.624  1.00  0.00     0.066 C 
BRANCH   2   4
ATOM      4  C   UNL     1      43.080 130.191  24.523  1.00  0.00     0.113 C 
BRANCH   4   5
ATOM      5  C   UNL     1      43.472 128.987  24.099  1.00  0.00     0.276 C 
BRANCH   5   6
ATOM      6  O   UNL     1      44.715 128.829  23.484  1.00  0.00    -0.481 OA
ATOM      7  H   UNL     1      45.498 128.395  23.960  1.00  0.00     0.296 HD
ENDBRANCH   5   6
BRANCH   5   8
ATOM      8  O   UNL     1      42.633 127.881  24.270  1.00  0.00    -0.469 OA
ATOM      9  C   UNL     1      43.133 126.598  24.624  1.00  0.00     0.282 C 
ENDBRANCH   5   8
ENDBRANCH   4   5
ENDBRANCH   2   4
ENDBRANCH   1   2
BRANCH   1  10
ATOM     10  C   UNL     1      42.877 131.660  21.303  1.00  0.00     0.156 A 
ATOM     11  C   UNL     1      44.041 131.038  20.815  1.00  0.00     0.050 A 
ATOM     12  C   UNL     1      42.094 132.427  20.432  1.00  0.00     0.165 A 
ATOM     13  C   UNL     1      44.403 131.173  19.472  1.00  0.00     0.010 A 
ATOM     14  C   UNL     1      42.457 132.563  19.088  1.00  0.00     0.049 A 
ATOM     15  C   UNL     1      43.602 131.922  18.596  1.00  0.00    -0.013 A 
ATOM     16  F   UNL     1      40.977 133.046  20.890  1.00  0.00    -0.203 F 
BRANCH  15  17
ATOM     17  C   UNL     1      44.004 132.097  17.161  1.00  0.00     0.186 C 
ATOM     18  O   UNL     1      45.386 132.349  17.041  1.00  0.00    -0.356 OA
ATOM     19  C   UNL     1      44.941 131.081  16.619  1.00  0.00     0.224 C 
BRANCH  19  20
ATOM     20  C   UNL     1      44.968 130.961  15.123  1.00  0.00     0.194 C 
ATOM     21  O   UNL     1      43.945 131.300  14.468  1.00  0.00    -0.291 OA
BRANCH  20  22
ATOM     22  C   UNL     1      46.174 130.476  14.406  1.00  0.00     0.021 A 
ATOM     23  C   UNL     1      46.788 129.258  14.759  1.00  0.00     0.015 A 
ATOM     24  C   UNL     1      46.728 131.236  13.359  1.00  0.00     0.015 A 
ATOM     25  C   UNL     1      47.923 128.812  14.073  1.00  0.00     0.040 A 
ATOM     26  C   UNL     1      47.863 130.785  12.676  1.00  0.00     0.040 A 
ATOM     27  C   UNL     1      48.459 129.573  13.032  1.00  0.00     0.123 A 
ATOM     28  F   UNL     1      49.559 129.138  12.369  1.00  0.00    -0.207 F 
ENDBRANCH  20  22
ENDBRANCH  19  20
ENDBRANCH  15  17
ENDBRANCH   1  10
TORSDOF 9
ENDMDL
MODEL 2
REMARK VINA RESULT:      -5.8      1.213      1.626
REMARK SMILES CO/C(O)=C\[C](C)Oc1ccc([C@H]2O[C@@H]2C(=O)c2ccc(F)cc2)cc1F
REMARK SMILES IDX 8 1 6 2 7 3 5 4 3 5 4 6 2 8 1 9 9 10 10 11 26 12 11 13 25 14
REMARK SMILES IDX 12 15 27 16 13 17 14 18 15 19 16 20 17 21 18 22 19 23 24 24
REMARK SMILES IDX 20 25 23 26 21 27 22 28
REMARK H PARENT 4 7
ROOT
ATOM      1  O   UNL     1      44.497 132.050  22.421  1.00  0.00    -0.476 OA
ENDROOT
BRANCH   1   2
ATOM      2  C   UNL     1      43.911 131.265  23.457  1.00  0.00     0.174 C 
ATOM      3  C   UNL     1      42.599 130.666  22.969  1.00  0.00     0.066 C 
BRANCH   2   4
ATOM      4  C   UNL     1      44.858 130.183  23.879  1.00  0.00     0.113 C 
BRANCH   4   5
ATOM      5  C   UNL     1      44.598 128.897  23.630  1.00  0.00     0.276 C 
BRANCH   5   6
ATOM      6  O   UNL     1      44.916 128.343  22.388  1.00  0.00    -0.481 OA
ATOM      7  H   UNL     1      45.858 128.373  22.013  1.00  0.00     0.296 HD
ENDBRANCH   5   6
BRANCH   5   8
ATOM      8  O   UNL     1      44.004 128.103  24.616  1.00  0.00    -0.469 OA
ATOM      9  C   UNL     1      43.749 126.718  24.423  1.00  0.00     0.282 C 
ENDBRANCH   5   8
ENDBRANCH   4   5
ENDBRANCH   2   4
ENDBRANCH   1   2
BRANCH   1  10
ATOM     10  C   UNL     1      44.447 131.713  21.061  1.00  0.00     0.156 A 
ATOM     11  C   UNL     1      45.517 131.072  20.409  1.00  0.00     0.050 A 
ATOM     12  C   UNL     1      43.297 132.037  20.332  1.00  0.00     0.165 A 
ATOM     13  C   UNL     1      45.425 130.749  19.052  1.00  0.00     0.010 A 
ATOM     14  C   UNL     1      43.205 131.716  18.974  1.00  0.00     0.049 A 
ATOM     15  C   UNL     1      44.260 131.053  18.330  1.00  0.00    -0.013 A 
ATOM     16  F   UNL     1      42.263 132.669  20.941  1.00  0.00    -0.203 F 
BRANCH  15  17
ATOM     17  C   UNL     1      44.170 130.738  16.867  1.00  0.00     0.186 C 
ATOM     18  O   UNL     1      43.008 131.293  16.292  1.00  0.00    -0.356 OA
ATOM     19  C   UNL     1      44.231 131.900  15.945  1.00  0.00     0.224 C 
BRANCH  19  20
ATOM     20  C   UNL     1      44.618 131.582  14.530  1.00  0.00     0.194 C 
ATOM     21  O   UNL     1      43.829 131.903  13.599  1.00  0.00    -0.291 OA
BRANCH  20  22
ATOM     22  C   UNL     1      45.908 130.922  14.209  1.00  0.00     0.021 A 
ATOM     23  C   UNL     1      46.861 131.551  13.384  1.00  0.00     0.015 A 
ATOM     24  C   UNL     1      46.197 129.645  14.727  1.00  0.00     0.015 A 
ATOM     25  C   UNL     1      48.075 130.919  13.093  1.00  0.00     0.040 A 
ATOM     26  C   UNL     1      47.413 129.018  14.433  1.00  0.00     0.040 A 
ATOM     27  C   UNL     1      48.351 129.655  13.618  1.00  0.00     0.123 A 
ATOM     28  F   UNL     1      49.528 129.044  13.334  1.00  0.00    -0.207 F 
ENDBRANCH  20  22
ENDBRANCH  19  20
ENDBRANCH  15  17
ENDBRANCH   1  10
TORSDOF 9
ENDMDL
MODEL 3
REMARK VINA RESULT:      -5.2      1.477      1.778
REMARK SMILES CO/C(O)=C\[C](C)Oc1ccc([C@H]2O[C@@H]2C(=O)c2ccc(F)cc2)cc1F
REMARK SMILES IDX 8 1 6 2 7 3 5 4 3 5 4 6 2 8 1 9 9 10 10 11 26 12 11 13 25 14
REMARK SMILES IDX 12 15 27 16 13 17 14 18 15 19 16 20 17 21 18 22 19 23 24 24
REMARK SMILES IDX 20 25 23 26 21 27 22 28
REMARK H PARENT 4 7
ROOT
ATOM      1  O   UNL     1      44.895 130.377  23.120  1.00  0.00    -0.476 OA
ENDROOT
BRANCH   1   2
ATOM      2  C   UNL     1      44.077 129.591  23.984  1.00  0.00     0.174 C 
ATOM      3  C   UNL     1      42.765 129.257  23.285  1.00  0.00     0.066 C 
BRANCH   2   4
ATOM      4  C   UNL     1      44.798 128.336  24.373  1.00  0.00     0.113 C 
BRANCH   4   5
ATOM      5  C   UNL     1      44.544 127.173  23.769  1.00  0.00     0.276 C 
BRANCH   5   6
ATOM      6  O   UNL     1      45.154 126.866  22.550  1.00  0.00    -0.481 OA
ATOM      7  H   UNL     1      45.999 127.332  22.241  1.00  0.00     0.296 HD
ENDBRANCH   5   6
BRANCH   5   8
ATOM      8  O   UNL     1      43.664 126.260  24.358  1.00  0.00    -0.469 OA
ATOM      9  C   UNL     1      43.918 124.861  24.370  1.00  0.00     0.282 C 
ENDBRANCH   5   8
ENDBRANCH   4   5
ENDBRANCH   2   4
ENDBRANCH   1   2
BRANCH   1  10
ATOM     10  C   UNL     1      44.711 130.464  21.733  1.00  0.00     0.156 A 
ATOM     11  C   UNL     1      45.578 129.832  20.822  1.00  0.00     0.050 A 
ATOM     12  C   UNL     1      43.635 131.215  21.246  1.00  0.00     0.165 A 
ATOM     13  C   UNL     1      45.356 129.941  19.446  1.00  0.00     0.010 A 
ATOM     14  C   UNL     1      43.414 131.325  19.869  1.00  0.00     0.049 A 
ATOM     15  C   UNL     1      44.262 130.674  18.962  1.00  0.00    -0.013 A 
ATOM     16  F   UNL     1      42.800 131.844  22.110  1.00  0.00    -0.203 F 
BRANCH  15  17
ATOM     17  C   UNL     1      44.039 130.820  17.486  1.00  0.00     0.186 C 
ATOM     18  O   UNL     1      43.516 132.090  17.168  1.00  0.00    -0.356 OA
ATOM     19  C   UNL     1      44.856 131.854  16.803  1.00  0.00     0.224 C 
BRANCH  19  20
ATOM     20  C   UNL     1      44.997 131.688  15.317  1.00  0.00     0.194 C 
ATOM     21  O   UNL     1      44.109 132.174  14.566  1.00  0.00    -0.291 OA
BRANCH  20  22
ATOM     22  C   UNL     1      46.164 130.988  14.724  1.00  0.00     0.021 A 
ATOM     23  C   UNL     1      46.655 129.792  15.282  1.00  0.00     0.015 A 
ATOM     24  C   UNL     1      46.803 131.518  13.587  1.00  0.00     0.015 A 
ATOM     25  C   UNL     1      47.753 129.141  14.710  1.00  0.00     0.040 A 
ATOM     26  C   UNL     1      47.900 130.862  13.019  1.00  0.00     0.040 A 
ATOM     27  C   UNL     1      48.375 129.674  13.580  1.00  0.00     0.123 A 
ATOM     28  F   UNL     1      49.439 129.041  13.027  1.00  0.00    -0.207 F 
ENDBRANCH  20  22
ENDBRANCH  19  20
ENDBRANCH  15  17
ENDBRANCH   1  10
TORSDOF 9
ENDMDL
MODEL 4
REMARK VINA RESULT:      -4.7      2.953      4.527
REMARK SMILES CO/C(O)=C\[C](C)Oc1ccc([C@H]2O[C@@H]2C(=O)c2ccc(F)cc2)cc1F
REMARK SMILES IDX 8 1 6 2 7 3 5 4 3 5 4 6 2 8 1 9 9 10 10 11 26 12 11 13 25 14
REMARK SMILES IDX 12 15 27 16 13 17 14 18 15 19 16 20 17 21 18 22 19 23 24 24
REMARK SMILES IDX 20 25 23 26 21 27 22 28
REMARK H PARENT 4 7
ROOT
ATOM      1  O   UNL     1      45.035 127.140  24.349  1.00  0.00    -0.476 OA
ENDROOT
BRANCH   1   2
ATOM      2  C   UNL     1      44.136 126.039  24.456  1.00  0.00     0.174 C 
ATOM      3  C   UNL     1      43.251 125.976  23.217  1.00  0.00     0.066 C 
BRANCH   2   4
ATOM      4  C   UNL     1      44.905 124.763  24.617  1.00  0.00     0.113 C 
BRANCH   4   5
ATOM      5  C   UNL     1      45.361 124.087  23.559  1.00  0.00     0.276 C 
BRANCH   5   6
ATOM      6  O   UNL     1      44.503 123.262  22.829  1.00  0.00    -0.481 OA
ATOM      7  H   UNL     1      44.810 122.772  21.996  1.00  0.00     0.296 HD
ENDBRANCH   5   6
BRANCH   5   8
ATOM      8  O   UNL     1      46.702 124.206  23.182  1.00  0.00    -0.469 OA
ATOM      9  C   UNL     1      47.745 124.380  24.133  1.00  0.00     0.282 C 
ENDBRANCH   5   8
ENDBRANCH   4   5
ENDBRANCH   2   4
ENDBRANCH   1   2
BRANCH   1  10
ATOM     10  C   UNL     1      44.945 128.131  23.362  1.00  0.00     0.156 A 
ATOM     11  C   UNL     1      44.181 129.300  23.541  1.00  0.00     0.050 A 
ATOM     12  C   UNL     1      45.630 127.941  22.156  1.00  0.00     0.165 A 
ATOM     13  C   UNL     1      44.122 130.266  22.533  1.00  0.00     0.010 A 
ATOM     14  C   UNL     1      45.570 128.906  21.147  1.00  0.00     0.049 A 
ATOM     15  C   UNL     1      44.831 130.083  21.336  1.00  0.00    -0.013 A 
ATOM     16  F   UNL     1      46.358 126.813  21.960  1.00  0.00    -0.203 F 
BRANCH  15  17
ATOM     17  C   UNL     1      44.744 131.102  20.238  1.00  0.00     0.186 C 
ATOM     18  O   UNL     1      45.991 131.285  19.606  1.00  0.00    -0.356 OA
ATOM     19  C   UNL     1      45.006 130.604  18.865  1.00  0.00     0.224 C 
BRANCH  19  20
ATOM     20  C   UNL     1      44.468 131.459  17.754  1.00  0.00     0.194 C 
ATOM     21  O   UNL     1      43.552 132.286  18.015  1.00  0.00    -0.291 OA
BRANCH  20  22
ATOM     22  C   UNL     1      45.005 131.364  16.374  1.00  0.00     0.021 A 
ATOM     23  C   UNL     1      46.387 131.473  16.122  1.00  0.00     0.015 A 
ATOM     24  C   UNL     1      44.132 131.166  15.287  1.00  0.00     0.015 A 
ATOM     25  C   UNL     1      46.879 131.378  14.816  1.00  0.00     0.040 A 
ATOM     26  C   UNL     1      44.630 131.071  13.984  1.00  0.00     0.040 A 
ATOM     27  C   UNL     1      46.002 131.176  13.748  1.00  0.00     0.123 A 
ATOM     28  F   UNL     1      46.482 131.085  12.483  1.00  0.00    -0.207 F 
ENDBRANCH  20  22
ENDBRANCH  19  20
ENDBRANCH  15  17
ENDBRANCH   1  10
TORSDOF 9
ENDMDL
MODEL 5
REMARK VINA RESULT:      -4.4      2.301      3.701
REMARK SMILES CO/C(O)=C\[C](C)Oc1ccc([C@H]2O[C@@H]2C(=O)c2ccc(F)cc2)cc1F
REMARK SMILES IDX 8 1 6 2 7 3 5 4 3 5 4 6 2 8 1 9 9 10 10 11 26 12 11 13 25 14
REMARK SMILES IDX 12 15 27 16 13 17 14 18 15 19 16 20 17 21 18 22 19 23 24 24
REMARK SMILES IDX 20 25 23 26 21 27 22 28
REMARK H PARENT 4 7
ROOT
ATOM      1  O   UNL     1      42.702 128.397  24.361  1.00  0.00    -0.476 OA
ENDROOT
BRANCH   1   2
ATOM      2  C   UNL     1      41.938 127.210  24.170  1.00  0.00     0.174 C 
ATOM      3  C   UNL     1      40.580 127.563  23.576  1.00  0.00     0.066 C 
BRANCH   2   4
ATOM      4  C   UNL     1      42.674 126.264  23.271  1.00  0.00     0.113 C 
BRANCH   4   5
ATOM      5  C   UNL     1      43.224 125.142  23.743  1.00  0.00     0.276 C 
BRANCH   5   6
ATOM      6  O   UNL     1      44.306 125.207  24.624  1.00  0.00    -0.481 OA
ATOM      7  H   UNL     1      45.156 124.676  24.470  1.00  0.00     0.296 HD
ENDBRANCH   5   6
BRANCH   5   8
ATOM      8  O   UNL     1      42.717 123.900  23.353  1.00  0.00    -0.469 OA
ATOM      9  C   UNL     1      43.490 122.962  22.614  1.00  0.00     0.282 C 
ENDBRANCH   5   8
ENDBRANCH   4   5
ENDBRANCH   2   4
ENDBRANCH   1   2
BRANCH   1  10
ATOM     10  C   UNL     1      43.079 129.261  23.322  1.00  0.00     0.156 A 
ATOM     11  C   UNL     1      42.309 130.383  22.965  1.00  0.00     0.050 A 
ATOM     12  C   UNL     1      44.256 128.986  22.615  1.00  0.00     0.165 A 
ATOM     13  C   UNL     1      42.723 131.221  21.926  1.00  0.00     0.010 A 
ATOM     14  C   UNL     1      44.670 129.824  21.575  1.00  0.00     0.049 A 
ATOM     15  C   UNL     1      43.916 130.956  21.236  1.00  0.00    -0.013 A 
ATOM     16  F   UNL     1      45.002 127.900  22.937  1.00  0.00    -0.203 F 
BRANCH  15  17
ATOM     17  C   UNL     1      44.348 131.835  20.100  1.00  0.00     0.186 C 
ATOM     18  O   UNL     1      45.752 131.934  20.031  1.00  0.00    -0.356 OA
ATOM     19  C   UNL     1      45.128 131.173  19.024  1.00  0.00     0.224 C 
BRANCH  19  20
ATOM     20  C   UNL     1      45.146 131.889  17.705  1.00  0.00     0.194 C 
ATOM     21  O   UNL     1      44.692 133.064  17.647  1.00  0.00    -0.291 OA
BRANCH  20  22
ATOM     22  C   UNL     1      45.703 131.252  16.486  1.00  0.00     0.021 A 
ATOM     23  C   UNL     1      45.445 131.782  15.206  1.00  0.00     0.015 A 
ATOM     24  C   UNL     1      46.501 130.097  16.593  1.00  0.00     0.015 A 
ATOM     25  C   UNL     1      45.979 131.173  14.066  1.00  0.00     0.040 A 
ATOM     26  C   UNL     1      47.033 129.493  15.449  1.00  0.00     0.040 A 
ATOM     27  C   UNL     1      46.773 130.031  14.186  1.00  0.00     0.123 A 
ATOM     28  F   UNL     1      47.290 129.443  13.079  1.00  0.00    -0.207 F 
ENDBRANCH  20  22
ENDBRANCH  19  20
ENDBRANCH  15  17
ENDBRANCH   1  10
TORSDOF 9
ENDMDL
MODEL 6
REMARK VINA RESULT:      -4.3      1.533      2.152
REMARK SMILES CO/C(O)=C\[C](C)Oc1ccc([C@H]2O[C@@H]2C(=O)c2ccc(F)cc2)cc1F
REMARK SMILES IDX 8 1 6 2 7 3 5 4 3 5 4 6 2 8 1 9 9 10 10 11 26 12 11 13 25 14
REMARK SMILES IDX 12 15 27 16 13 17 14 18 15 19 16 20 17 21 18 22 19 23 24 24
REMARK SMILES IDX 20 25 23 26 21 27 22 28
REMARK H PARENT 4 7
ROOT
ATOM      1  O   UNL     1      43.206 132.265  21.878  1.00  0.00    -0.476 OA
ENDROOT
BRANCH   1   2
ATOM      2  C   UNL     1      43.549 131.481  23.018  1.00  0.00     0.174 C 
ATOM      3  C   UNL     1      43.038 132.161  24.282  1.00  0.00     0.066 C 
BRANCH   2   4
ATOM      4  C   UNL     1      42.965 130.106  22.889  1.00  0.00     0.113 C 
BRANCH   4   5
ATOM      5  C   UNL     1      42.296 129.539  23.895  1.00  0.00     0.276 C 
BRANCH   5   6
ATOM      6  O   UNL     1      41.013 129.981  24.224  1.00  0.00    -0.481 OA
ATOM      7  H   UNL     1      40.206 129.763  23.649  1.00  0.00     0.296 HD
ENDBRANCH   5   6
BRANCH   5   8
ATOM      8  O   UNL     1      42.882 128.499  24.623  1.00  0.00    -0.469 OA
ATOM      9  C   UNL     1      44.081 127.861  24.203  1.00  0.00     0.282 C 
ENDBRANCH   5   8
ENDBRANCH   4   5
ENDBRANCH   2   4
ENDBRANCH   1   2
BRANCH   1  10
ATOM     10  C   UNL     1      43.499 131.898  20.557  1.00  0.00     0.156 A 
ATOM     11  C   UNL     1      42.539 131.964  19.530  1.00  0.00     0.050 A 
ATOM     12  C   UNL     1      44.789 131.440  20.260  1.00  0.00     0.165 A 
ATOM     13  C   UNL     1      42.875 131.592  18.226  1.00  0.00     0.010 A 
ATOM     14  C   UNL     1      45.124 131.067  18.954  1.00  0.00     0.049 A 
ATOM     15  C   UNL     1      44.175 131.158  17.926  1.00  0.00    -0.013 A 
ATOM     16  F   UNL     1      45.722 131.355  21.240  1.00  0.00    -0.203 F 
BRANCH  15  17
ATOM     17  C   UNL     1      44.530 130.727  16.534  1.00  0.00     0.186 C 
ATOM     18  O   UNL     1      43.425 130.148  15.877  1.00  0.00    -0.356 OA
ATOM     19  C   UNL     1      43.818 131.426  15.435  1.00  0.00     0.224 C 
BRANCH  19  20
ATOM     20  C   UNL     1      44.483 131.358  14.090  1.00  0.00     0.194 C 
ATOM     21  O   UNL     1      43.862 131.796  13.084  1.00  0.00    -0.291 OA
BRANCH  20  22
ATOM     22  C   UNL     1      45.853 130.810  13.930  1.00  0.00     0.021 A 
ATOM     23  C   UNL     1      46.755 131.366  13.002  1.00  0.00     0.015 A 
ATOM     24  C   UNL     1      46.271 129.713  14.707  1.00  0.00     0.015 A 
ATOM     25  C   UNL     1      48.045 130.841  12.865  1.00  0.00     0.040 A 
ATOM     26  C   UNL     1      47.561 129.192  14.565  1.00  0.00     0.040 A 
ATOM     27  C   UNL     1      48.448 129.756  13.646  1.00  0.00     0.123 A 
ATOM     28  F   UNL     1      49.698 129.249  13.510  1.00  0.00    -0.207 F 
ENDBRANCH  20  22
ENDBRANCH  19  20
ENDBRANCH  15  17
ENDBRANCH   1  10
TORSDOF 9
ENDMDL
MODEL 7
REMARK VINA RESULT:      -3.6      1.751      2.620
REMARK SMILES CO/C(O)=C\[C](C)Oc1ccc([C@H]2O[C@@H]2C(=O)c2ccc(F)cc2)cc1F
REMARK SMILES IDX 8 1 6 2 7 3 5 4 3 5 4 6 2 8 1 9 9 10 10 11 26 12 11 13 25 14
REMARK SMILES IDX 12 15 27 16 13 17 14 18 15 19 16 20 17 21 18 22 19 23 24 24
REMARK SMILES IDX 20 25 23 26 21 27 22 28
REMARK H PARENT 4 7
ROOT
ATOM      1  O   UNL     1      42.781 129.617  23.807  1.00  0.00    -0.476 OA
ENDROOT
BRANCH   1   2
ATOM      2  C   UNL     1      42.533 128.284  24.248  1.00  0.00     0.174 C 
ATOM      3  C   UNL     1      41.037 127.999  24.202  1.00  0.00     0.066 C 
BRANCH   2   4
ATOM      4  C   UNL     1      43.279 127.312  23.386  1.00  0.00     0.113 C 
BRANCH   4   5
ATOM      5  C   UNL     1      44.400 126.723  23.812  1.00  0.00     0.276 C 
BRANCH   5   6
ATOM      6  O   UNL     1      45.295 127.422  24.624  1.00  0.00    -0.481 OA
ATOM      7  H   UNL     1      46.076 126.964  25.081  1.00  0.00     0.296 HD
ENDBRANCH   5   6
BRANCH   5   8
ATOM      8  O   UNL     1      44.677 125.403  23.443  1.00  0.00    -0.469 OA
ATOM      9  C   UNL     1      45.805 125.059  22.649  1.00  0.00     0.282 C 
ENDBRANCH   5   8
ENDBRANCH   4   5
ENDBRANCH   2   4
ENDBRANCH   1   2
BRANCH   1  10
ATOM     10  C   UNL     1      43.520 129.937  22.659  1.00  0.00     0.156 A 
ATOM     11  C   UNL     1      44.699 129.251  22.311  1.00  0.00     0.050 A 
ATOM     12  C   UNL     1      43.071 130.982  21.843  1.00  0.00     0.165 A 
ATOM     13  C   UNL     1      45.402 129.599  21.156  1.00  0.00     0.010 A 
ATOM     14  C   UNL     1      43.776 131.331  20.687  1.00  0.00     0.049 A 
ATOM     15  C   UNL     1      44.935 130.630  20.326  1.00  0.00    -0.013 A 
ATOM     16  F   UNL     1      41.946 131.665  22.172  1.00  0.00    -0.203 F 
BRANCH  15  17
ATOM     17  C   UNL     1      45.706 131.028  19.102  1.00  0.00     0.186 C 
ATOM     18  O   UNL     1      45.906 129.930  18.241  1.00  0.00    -0.356 OA
ATOM     19  C   UNL     1      44.985 130.904  17.810  1.00  0.00     0.224 C 
BRANCH  19  20
ATOM     20  C   UNL     1      45.541 131.722  16.680  1.00  0.00     0.194 C 
ATOM     21  O   UNL     1      45.410 132.975  16.716  1.00  0.00    -0.291 OA
BRANCH  20  22
ATOM     22  C   UNL     1      46.254 131.087  15.543  1.00  0.00     0.021 A 
ATOM     23  C   UNL     1      45.891 131.366  14.211  1.00  0.00     0.015 A 
ATOM     24  C   UNL     1      47.308 130.185  15.784  1.00  0.00     0.015 A 
ATOM     25  C   UNL     1      46.574 130.763  13.149  1.00  0.00     0.040 A 
ATOM     26  C   UNL     1      47.987 129.586  14.718  1.00  0.00     0.040 A 
ATOM     27  C   UNL     1      47.621 129.875  13.401  1.00  0.00     0.123 A 
ATOM     28  F   UNL     1      48.280 129.292  12.370  1.00  0.00    -0.207 F 
ENDBRANCH  20  22
ENDBRANCH  19  20
ENDBRANCH  15  17
ENDBRANCH   1  10
TORSDOF 9
ENDMDL


