MODEL 1
REMARK VINA RESULT:      -4.4      0.000      0.000
REMARK SMILES Cc1cccc(C(=O)[N-]c2ccc(-c3ccc(C)c4n[n-]cc34)cc2C(=O)[O-])c1
REMARK SMILES IDX 9 1 7 2 8 3 6 4 2 5 3 6 29 7 4 8 5 9 1 10 10 11 11 12 25 13
REMARK SMILES IDX 12 14 24 15 13 16 26 17 27 18 28 19 14 20 15 21 23 22 16 23
REMARK SMILES IDX 22 24 19 25 17 26 21 27 20 28 18 29
REMARK H PARENT
ROOT
ATOM      1  N   UNL     1      46.633 123.337  23.026  1.00  0.00    -0.622 NA
ENDROOT
BRANCH   1   2
ATOM      2  C   UNL     1      47.437 122.876  21.931  1.00  0.00     0.085 C 
ATOM      3  O   UNL     1      46.861 122.379  20.927  1.00  0.00    -0.315 OA
BRANCH   2   4
ATOM      4  C   UNL     1      48.919 122.923  21.970  1.00  0.00    -0.000 A 
ATOM      5  C   UNL     1      50.996 122.913  23.250  1.00  0.00    -0.050 A 
ATOM      6  C   UNL     1      51.726 123.009  22.057  1.00  0.00     0.003 A 
ATOM      7  C   UNL     1      49.594 122.861  23.201  1.00  0.00     0.013 A 
ATOM      8  C   UNL     1      51.060 123.088  20.832  1.00  0.00     0.001 A 
ATOM      9  C   UNL     1      49.665 123.054  20.786  1.00  0.00     0.010 A 
ATOM     10  C   UNL     1      51.711 122.794  24.564  1.00  0.00     0.044 C 
ENDBRANCH   2   4
ENDBRANCH   1   2
BRANCH   1  11
ATOM     11  C   UNL     1      45.972 124.609  23.118  1.00  0.00    -0.125 A 
ATOM     12  C   UNL     1      46.711 125.767  23.419  1.00  0.00    -0.015 A 
ATOM     13  C   UNL     1      44.583 124.718  22.852  1.00  0.00    -0.017 A 
ATOM     14  C   UNL     1      46.087 127.009  23.502  1.00  0.00     0.007 A 
ATOM     15  C   UNL     1      43.971 125.983  22.938  1.00  0.00     0.017 A 
ATOM     16  C   UNL     1      44.710 127.127  23.276  1.00  0.00    -0.017 A 
BRANCH  13  17
ATOM     17  C   UNL     1      43.745 123.540  22.498  1.00  0.00     0.070 C 
ATOM     18  O   UNL     1      43.181 122.849  23.387  1.00  0.00    -0.545 OA
ATOM     19  O   UNL     1      43.566 123.184  21.166  1.00  0.00    -0.545 OA
ENDBRANCH  13  17
BRANCH  16  20
ATOM     20  C   UNL     1      44.053 128.451  23.364  1.00  0.00    -0.011 A 
ATOM     21  C   UNL     1      43.085 128.715  24.360  1.00  0.00     0.010 A 
ATOM     22  C   UNL     1      44.353 129.497  22.481  1.00  0.00    -0.014 A 
ATOM     23  C   UNL     1      42.468 129.983  24.451  1.00  0.00     0.006 A 
ATOM     24  C   UNL     1      45.193 129.591  21.391  1.00  0.00    -0.113 A 
ATOM     25  C   UNL     1      43.751 130.722  22.566  1.00  0.00     0.050 A 
ATOM     26  C   UNL     1      42.790 131.008  23.538  1.00  0.00    -0.027 A 
ATOM     27  N   UNL     1      45.084 130.837  20.876  1.00  0.00    -0.581 NA
ATOM     28  N   UNL     1      44.203 131.531  21.591  1.00  0.00    -0.367 NA
ATOM     29  C   UNL     1      42.160 132.366  23.636  1.00  0.00     0.046 C 
ENDBRANCH  16  20
ENDBRANCH   1  11
TORSDOF 5
ENDMDL
MODEL 2
REMARK VINA RESULT:      -3.5      3.738      8.693
REMARK SMILES Cc1cccc(C(=O)[N-]c2ccc(-c3ccc(C)c4n[n-]cc34)cc2C(=O)[O-])c1
REMARK SMILES IDX 9 1 7 2 8 3 6 4 2 5 3 6 29 7 4 8 5 9 1 10 10 11 11 12 25 13
REMARK SMILES IDX 12 14 24 15 13 16 26 17 27 18 28 19 14 20 15 21 23 22 16 23
REMARK SMILES IDX 22 24 19 25 17 26 21 27 20 28 18 29
REMARK H PARENT
ROOT
ATOM      1  N   UNL     1      42.418 126.106  24.624  1.00  0.00    -0.622 NA
ENDROOT
BRANCH   1   2
ATOM      2  C   UNL     1      41.355 126.477  23.736  1.00  0.00     0.085 C 
ATOM      3  O   UNL     1      41.637 127.140  22.703  1.00  0.00    -0.315 OA
BRANCH   2   4
ATOM      4  C   UNL     1      39.938 126.149  24.026  1.00  0.00    -0.000 A 
ATOM      5  C   UNL     1      37.656 126.881  24.486  1.00  0.00    -0.050 A 
ATOM      6  C   UNL     1      37.250 125.542  24.571  1.00  0.00     0.003 A 
ATOM      7  C   UNL     1      38.998 127.180  24.203  1.00  0.00     0.013 A 
ATOM      8  C   UNL     1      38.182 124.514  24.412  1.00  0.00     0.001 A 
ATOM      9  C   UNL     1      39.521 124.813  24.149  1.00  0.00     0.010 A 
ATOM     10  C   UNL     1      36.649 127.985  24.622  1.00  0.00     0.044 C 
ENDBRANCH   2   4
ENDBRANCH   1   2
BRANCH   1  11
ATOM     11  C   UNL     1      43.800 125.935  24.270  1.00  0.00    -0.125 A 
ATOM     12  C   UNL     1      44.386 124.658  24.317  1.00  0.00    -0.015 A 
ATOM     13  C   UNL     1      44.568 127.038  23.817  1.00  0.00    -0.017 A 
ATOM     14  C   UNL     1      45.722 124.473  23.967  1.00  0.00     0.007 A 
ATOM     15  C   UNL     1      45.915 126.830  23.464  1.00  0.00     0.017 A 
ATOM     16  C   UNL     1      46.502 125.558  23.551  1.00  0.00    -0.017 A 
BRANCH  13  17
ATOM     17  C   UNL     1      44.005 128.411  23.713  1.00  0.00     0.070 C 
ATOM     18  O   UNL     1      43.282 128.892  24.625  1.00  0.00    -0.545 OA
ATOM     19  O   UNL     1      44.275 129.196  22.597  1.00  0.00    -0.545 OA
ENDBRANCH  13  17
BRANCH  16  20
ATOM     20  C   UNL     1      47.920 125.355  23.178  1.00  0.00    -0.011 A 
ATOM     21  C   UNL     1      48.961 125.923  23.949  1.00  0.00     0.010 A 
ATOM     22  C   UNL     1      48.301 124.598  22.062  1.00  0.00    -0.014 A 
ATOM     23  C   UNL     1      50.314 125.717  23.600  1.00  0.00     0.006 A 
ATOM     24  C   UNL     1      47.581 123.945  21.084  1.00  0.00    -0.113 A 
ATOM     25  C   UNL     1      49.611 124.405  21.721  1.00  0.00     0.050 A 
ATOM     26  C   UNL     1      50.658 124.957  22.463  1.00  0.00    -0.027 A 
ATOM     27  N   UNL     1      48.455 123.384  20.217  1.00  0.00    -0.581 NA
ATOM     28  N   UNL     1      49.696 123.663  20.603  1.00  0.00    -0.367 NA
ATOM     29  C   UNL     1      52.091 124.711  22.093  1.00  0.00     0.046 C 
ENDBRANCH  16  20
ENDBRANCH   1  11
TORSDOF 5
ENDMDL
MODEL 3
REMARK VINA RESULT:      -3.3      5.846      8.875
REMARK SMILES Cc1cccc(C(=O)[N-]c2ccc(-c3ccc(C)c4n[n-]cc34)cc2C(=O)[O-])c1
REMARK SMILES IDX 9 1 7 2 8 3 6 4 2 5 3 6 29 7 4 8 5 9 1 10 10 11 11 12 25 13
REMARK SMILES IDX 12 14 24 15 13 16 26 17 27 18 28 19 14 20 15 21 23 22 16 23
REMARK SMILES IDX 22 24 19 25 17 26 21 27 20 28 18 29
REMARK H PARENT
ROOT
ATOM      1  N   UNL     1      42.591 132.266  22.361  1.00  0.00    -0.622 NA
ENDROOT
BRANCH   1   2
ATOM      2  C   UNL     1      42.467 131.429  23.519  1.00  0.00     0.085 C 
ATOM      3  O   UNL     1      42.194 131.966  24.625  1.00  0.00    -0.315 OA
BRANCH   2   4
ATOM      4  C   UNL     1      42.700 129.966  23.459  1.00  0.00    -0.000 A 
ATOM      5  C   UNL     1      41.848 127.686  23.639  1.00  0.00    -0.050 A 
ATOM      6  C   UNL     1      43.127 127.191  23.347  1.00  0.00     0.003 A 
ATOM      7  C   UNL     1      41.637 129.073  23.684  1.00  0.00     0.013 A 
ATOM      8  C   UNL     1      44.191 128.072  23.140  1.00  0.00     0.001 A 
ATOM      9  C   UNL     1      43.983 129.452  23.203  1.00  0.00     0.010 A 
ATOM     10  C   UNL     1      40.699 126.740  23.828  1.00  0.00     0.044 C 
ENDBRANCH   2   4
ENDBRANCH   1   2
BRANCH   1  11
ATOM     11  C   UNL     1      43.257 131.926  21.134  1.00  0.00    -0.125 A 
ATOM     12  C   UNL     1      42.513 131.457  20.037  1.00  0.00    -0.015 A 
ATOM     13  C   UNL     1      44.656 132.112  21.000  1.00  0.00    -0.017 A 
ATOM     14  C   UNL     1      43.141 131.132  18.836  1.00  0.00     0.007 A 
ATOM     15  C   UNL     1      45.272 131.780  19.778  1.00  0.00     0.017 A 
ATOM     16  C   UNL     1      44.527 131.277  18.701  1.00  0.00    -0.017 A 
BRANCH  13  17
ATOM     17  C   UNL     1      45.500 132.631  22.109  1.00  0.00     0.070 C 
ATOM     18  O   UNL     1      46.476 133.396  21.886  1.00  0.00    -0.545 OA
ATOM     19  O   UNL     1      45.220 132.281  23.425  1.00  0.00    -0.545 OA
ENDBRANCH  13  17
BRANCH  16  20
ATOM     20  C   UNL     1      45.189 130.931  17.422  1.00  0.00    -0.011 A 
ATOM     21  C   UNL     1      46.440 130.274  17.408  1.00  0.00     0.010 A 
ATOM     22  C   UNL     1      44.618 131.230  16.177  1.00  0.00    -0.014 A 
ATOM     23  C   UNL     1      47.065 129.933  16.188  1.00  0.00     0.006 A 
ATOM     24  C   UNL     1      43.459 131.882  15.811  1.00  0.00    -0.113 A 
ATOM     25  C   UNL     1      45.226 130.906  14.997  1.00  0.00     0.050 A 
ATOM     26  C   UNL     1      46.463 130.259  14.955  1.00  0.00    -0.027 A 
ATOM     27  N   UNL     1      43.400 131.917  14.460  1.00  0.00    -0.581 NA
ATOM     28  N   UNL     1      44.479 131.322  13.959  1.00  0.00    -0.367 NA
ATOM     29  C   UNL     1      47.103 129.883  13.650  1.00  0.00     0.046 C 
ENDBRANCH  16  20
ENDBRANCH   1  11
TORSDOF 5
ENDMDL
MODEL 4
REMARK VINA RESULT:      -2.9      5.515      8.625
REMARK SMILES Cc1cccc(C(=O)[N-]c2ccc(-c3ccc(C)c4n[n-]cc34)cc2C(=O)[O-])c1
REMARK SMILES IDX 9 1 7 2 8 3 6 4 2 5 3 6 29 7 4 8 5 9 1 10 10 11 11 12 25 13
REMARK SMILES IDX 12 14 24 15 13 16 26 17 27 18 28 19 14 20 15 21 23 22 16 23
REMARK SMILES IDX 22 24 19 25 17 26 21 27 20 28 18 29
REMARK H PARENT
ROOT
ATOM      1  N   UNL     1      43.530 131.904  22.362  1.00  0.00    -0.622 NA
ENDROOT
BRANCH   1   2
ATOM      2  C   UNL     1      42.743 131.037  23.190  1.00  0.00     0.085 C 
ATOM      3  O   UNL     1      41.741 131.517  23.785  1.00  0.00    -0.315 OA
BRANCH   2   4
ATOM      4  C   UNL     1      43.102 129.614  23.404  1.00  0.00    -0.000 A 
ATOM      5  C   UNL     1      42.424 127.312  23.845  1.00  0.00    -0.050 A 
ATOM      6  C   UNL     1      43.769 126.914  23.809  1.00  0.00     0.003 A 
ATOM      7  C   UNL     1      42.095 128.660  23.632  1.00  0.00     0.013 A 
ATOM      8  C   UNL     1      44.774 127.861  23.598  1.00  0.00     0.001 A 
ATOM      9  C   UNL     1      44.446 129.205  23.405  1.00  0.00     0.010 A 
ATOM     10  C   UNL     1      41.341 126.291  24.036  1.00  0.00     0.044 C 
ENDBRANCH   2   4
ENDBRANCH   1   2
BRANCH   1  11
ATOM     11  C   UNL     1      44.103 131.571  21.088  1.00  0.00    -0.125 A 
ATOM     12  C   UNL     1      45.330 130.887  21.024  1.00  0.00    -0.015 A 
ATOM     13  C   UNL     1      43.413 131.877  19.888  1.00  0.00    -0.017 A 
ATOM     14  C   UNL     1      45.894 130.548  19.796  1.00  0.00     0.007 A 
ATOM     15  C   UNL     1      43.998 131.524  18.657  1.00  0.00     0.017 A 
ATOM     16  C   UNL     1      45.241 130.875  18.602  1.00  0.00    -0.017 A 
BRANCH  13  17
ATOM     17  C   UNL     1      42.098 132.573  19.880  1.00  0.00     0.070 C 
ATOM     18  O   UNL     1      41.716 133.260  20.864  1.00  0.00    -0.545 OA
ATOM     19  O   UNL     1      41.262 132.478  18.773  1.00  0.00    -0.545 OA
ENDBRANCH  13  17
BRANCH  16  20
ATOM     20  C   UNL     1      45.846 130.510  17.300  1.00  0.00    -0.011 A 
ATOM     21  C   UNL     1      46.264 129.185  17.042  1.00  0.00     0.010 A 
ATOM     22  C   UNL     1      46.029 131.444  16.271  1.00  0.00    -0.014 A 
ATOM     23  C   UNL     1      46.828 128.834  15.795  1.00  0.00     0.006 A 
ATOM     24  C   UNL     1      45.784 132.797  16.180  1.00  0.00    -0.113 A 
ATOM     25  C   UNL     1      46.582 131.105  15.067  1.00  0.00     0.050 A 
ATOM     26  C   UNL     1      47.005 129.804  14.787  1.00  0.00    -0.027 A 
ATOM     27  N   UNL     1      46.173 133.218  14.954  1.00  0.00    -0.581 NA
ATOM     28  N   UNL     1      46.661 132.186  14.272  1.00  0.00    -0.367 NA
ATOM     29  C   UNL     1      47.582 129.443  13.449  1.00  0.00     0.046 C 
ENDBRANCH  16  20
ENDBRANCH   1  11
TORSDOF 5
ENDMDL
MODEL 5
REMARK VINA RESULT:      -2.5      5.540      8.909
REMARK SMILES Cc1cccc(C(=O)[N-]c2ccc(-c3ccc(C)c4n[n-]cc34)cc2C(=O)[O-])c1
REMARK SMILES IDX 9 1 7 2 8 3 6 4 2 5 3 6 29 7 4 8 5 9 1 10 10 11 11 12 25 13
REMARK SMILES IDX 12 14 24 15 13 16 26 17 27 18 28 19 14 20 15 21 23 22 16 23
REMARK SMILES IDX 22 24 19 25 17 26 21 27 20 28 18 29
REMARK H PARENT
ROOT
ATOM      1  N   UNL     1      42.345 131.687  21.781  1.00  0.00    -0.622 NA
ENDROOT
BRANCH   1   2
ATOM      2  C   UNL     1      42.746 131.119  23.035  1.00  0.00     0.085 C 
ATOM      3  O   UNL     1      43.251 131.876  23.906  1.00  0.00    -0.315 OA
BRANCH   2   4
ATOM      4  C   UNL     1      42.631 129.667  23.314  1.00  0.00    -0.000 A 
ATOM      5  C   UNL     1      41.268 127.742  23.938  1.00  0.00    -0.050 A 
ATOM      6  C   UNL     1      42.398 126.917  23.842  1.00  0.00     0.003 A 
ATOM      7  C   UNL     1      41.387 129.113  23.663  1.00  0.00     0.013 A 
ATOM      8  C   UNL     1      43.640 127.464  23.512  1.00  0.00     0.001 A 
ATOM      9  C   UNL     1      43.760 128.832  23.257  1.00  0.00     0.010 A 
ATOM     10  C   UNL     1      39.927 127.149  24.259  1.00  0.00     0.044 C 
ENDBRANCH   2   4
ENDBRANCH   1   2
BRANCH   1  11
ATOM     11  C   UNL     1      43.073 131.614  20.545  1.00  0.00    -0.125 A 
ATOM     12  C   UNL     1      42.397 131.754  19.320  1.00  0.00    -0.015 A 
ATOM     13  C   UNL     1      44.482 131.459  20.549  1.00  0.00    -0.017 A 
ATOM     14  C   UNL     1      43.089 131.696  18.112  1.00  0.00     0.007 A 
ATOM     15  C   UNL     1      45.165 131.406  19.318  1.00  0.00     0.017 A 
ATOM     16  C   UNL     1      44.476 131.508  18.100  1.00  0.00    -0.017 A 
BRANCH  13  17
ATOM     17  C   UNL     1      45.266 131.335  21.808  1.00  0.00     0.070 C 
ATOM     18  O   UNL     1      45.701 130.220  22.200  1.00  0.00    -0.545 OA
ATOM     19  O   UNL     1      45.538 132.462  22.576  1.00  0.00    -0.545 OA
ENDBRANCH  13  17
BRANCH  16  20
ATOM     20  C   UNL     1      45.207 131.450  16.813  1.00  0.00    -0.011 A 
ATOM     21  C   UNL     1      45.729 132.623  16.223  1.00  0.00     0.010 A 
ATOM     22  C   UNL     1      45.419 130.247  16.125  1.00  0.00    -0.014 A 
ATOM     23  C   UNL     1      46.438 132.565  15.002  1.00  0.00     0.006 A 
ATOM     24  C   UNL     1      45.031 128.947  16.371  1.00  0.00    -0.113 A 
ATOM     25  C   UNL     1      46.099 130.193  14.940  1.00  0.00     0.050 A 
ATOM     26  C   UNL     1      46.622 131.337  14.334  1.00  0.00    -0.027 A 
ATOM     27  N   UNL     1      45.488 128.170  15.362  1.00  0.00    -0.581 NA
ATOM     28  N   UNL     1      46.140 128.928  14.486  1.00  0.00    -0.367 NA
ATOM     29  C   UNL     1      47.392 131.256  13.048  1.00  0.00     0.046 C 
ENDBRANCH  16  20
ENDBRANCH   1  11
TORSDOF 5
ENDMDL


