MODEL 1
REMARK VINA RESULT:      -9.6      0.000      0.000
REMARK SMILES Cc1[n-]nc2cc(-c3ccc(O)cc3)ccc12
REMARK SMILES IDX 8 1 9 2 10 3 11 4 13 5 14 6 7 7 2 8 3 9 17 10 4 11 16 12
REMARK SMILES IDX 5 13 15 14 6 15 1 16 12 17
REMARK H PARENT 12 18
ROOT
ATOM      1  C   UNL     1      45.854 130.870  16.244  1.00  0.00    -0.018 A 
ATOM      2  C   UNL     1      46.273 129.559  15.951  1.00  0.00     0.012 A 
ATOM      3  C   UNL     1      46.991 129.289  14.783  1.00  0.00     0.047 A 
ATOM      4  C   UNL     1      47.301 130.320  13.892  1.00  0.00     0.115 A 
ATOM      5  C   UNL     1      46.887 131.628  14.174  1.00  0.00     0.047 A 
ATOM      6  C   UNL     1      46.170 131.902  15.342  1.00  0.00     0.012 A 
ENDROOT
BRANCH   1   7
ATOM      7  C   UNL     1      45.091 131.158  17.485  1.00  0.00    -0.016 A 
ATOM      8  C   UNL     1      42.720 132.073  20.733  1.00  0.00    -0.139 A 
ATOM      9  N   UNL     1      41.634 132.527  20.064  1.00  0.00    -0.578 NA
ATOM     10  C   UNL     1      43.673 131.698  19.816  1.00  0.00    -0.020 A 
ATOM     11  N   UNL     1      41.872 132.458  18.757  1.00  0.00    -0.367 NA
ATOM     12  C   UNL     1      44.951 131.164  19.944  1.00  0.00     0.009 A 
ATOM     13  C   UNL     1      43.109 131.954  18.601  1.00  0.00     0.048 A 
ATOM     14  C   UNL     1      45.664 130.894  18.761  1.00  0.00     0.009 A 
ATOM     15  C   UNL     1      43.783 131.699  17.410  1.00  0.00     0.035 A 
ATOM     16  C   UNL     1      42.816 131.970  22.219  1.00  0.00     0.019 C 
ENDBRANCH   1   7
BRANCH   4  17
ATOM     17  O   UNL     1      48.017 130.036  12.731  1.00  0.00    -0.508 OA
ATOM     18  H   UNL     1      47.665 129.386  12.038  1.00  0.00     0.293 HD
ENDBRANCH   4  17
TORSDOF 2
ENDMDL
MODEL 2
REMARK VINA RESULT:      -9.6      0.151      1.182
REMARK SMILES Cc1[n-]nc2cc(-c3ccc(O)cc3)ccc12
REMARK SMILES IDX 8 1 9 2 10 3 11 4 13 5 14 6 7 7 2 8 3 9 17 10 4 11 16 12
REMARK SMILES IDX 5 13 15 14 6 15 1 16 12 17
REMARK H PARENT 12 18
ROOT
ATOM      1  C   UNL     1      45.858 130.876  16.333  1.00  0.00    -0.018 A 
ATOM      2  C   UNL     1      46.060 131.899  15.388  1.00  0.00     0.012 A 
ATOM      3  C   UNL     1      46.759 131.645  14.206  1.00  0.00     0.047 A 
ATOM      4  C   UNL     1      47.268 130.369  13.948  1.00  0.00     0.115 A 
ATOM      5  C   UNL     1      47.074 129.343  14.882  1.00  0.00     0.047 A 
ATOM      6  C   UNL     1      46.373 129.593  16.066  1.00  0.00     0.012 A 
ENDROOT
BRANCH   1   7
ATOM      7  C   UNL     1      45.115 131.144  17.590  1.00  0.00    -0.016 A 
ATOM      8  C   UNL     1      42.801 132.017  20.890  1.00  0.00    -0.139 A 
ATOM      9  N   UNL     1      41.726 132.532  20.248  1.00  0.00    -0.578 NA
ATOM     10  C   UNL     1      43.734 131.644  19.951  1.00  0.00    -0.020 A 
ATOM     11  N   UNL     1      41.952 132.503  18.937  1.00  0.00    -0.367 NA
ATOM     12  C   UNL     1      44.994 131.063  20.048  1.00  0.00     0.009 A 
ATOM     13  C   UNL     1      43.170 131.964  18.752  1.00  0.00     0.048 A 
ATOM     14  C   UNL     1      45.689 130.813  18.850  1.00  0.00     0.009 A 
ATOM     15  C   UNL     1      43.826 131.731  17.546  1.00  0.00     0.035 A 
ATOM     16  C   UNL     1      42.904 131.856  22.371  1.00  0.00     0.019 C 
ENDBRANCH   1   7
BRANCH   4  17
ATOM     17  O   UNL     1      47.963 130.130  12.765  1.00  0.00    -0.508 OA
ATOM     18  H   UNL     1      48.353 130.890  12.218  1.00  0.00     0.293 HD
ENDBRANCH   4  17
TORSDOF 2
ENDMDL
MODEL 3
REMARK VINA RESULT:      -9.5      0.951      1.140
REMARK SMILES Cc1[n-]nc2cc(-c3ccc(O)cc3)ccc12
REMARK SMILES IDX 8 1 9 2 10 3 11 4 13 5 14 6 7 7 2 8 3 9 17 10 4 11 16 12
REMARK SMILES IDX 5 13 15 14 6 15 1 16 12 17
REMARK H PARENT 12 18
ROOT
ATOM      1  C   UNL     1      45.729 130.975  16.913  1.00  0.00    -0.018 A 
ATOM      2  C   UNL     1      46.222 129.749  16.429  1.00  0.00     0.012 A 
ATOM      3  C   UNL     1      46.731 129.653  15.131  1.00  0.00     0.047 A 
ATOM      4  C   UNL     1      46.755 130.775  14.298  1.00  0.00     0.115 A 
ATOM      5  C   UNL     1      46.266 131.999  14.770  1.00  0.00     0.047 A 
ATOM      6  C   UNL     1      45.757 132.100  16.068  1.00  0.00     0.012 A 
ENDROOT
BRANCH   1   7
ATOM      7  C   UNL     1      45.188 131.080  18.292  1.00  0.00    -0.016 A 
ATOM      8  C   UNL     1      43.427 131.551  21.991  1.00  0.00    -0.139 A 
ATOM      9  N   UNL     1      42.335 132.251  21.604  1.00  0.00    -0.578 NA
ATOM     10  C   UNL     1      44.186 131.272  20.879  1.00  0.00    -0.020 A 
ATOM     11  N   UNL     1      42.384 132.431  20.286  1.00  0.00    -0.367 NA
ATOM     12  C   UNL     1      45.382 130.586  20.696  1.00  0.00     0.009 A 
ATOM     13  C   UNL     1      43.506 131.838  19.841  1.00  0.00     0.048 A 
ATOM     14  C   UNL     1      45.885 130.493  19.385  1.00  0.00     0.009 A 
ATOM     15  C   UNL     1      43.971 131.766  18.531  1.00  0.00     0.035 A 
ATOM     16  C   UNL     1      43.706 131.128  23.396  1.00  0.00     0.019 C 
ENDBRANCH   1   7
BRANCH   4  17
ATOM     17  O   UNL     1      47.265 130.663  13.007  1.00  0.00    -0.508 OA
ATOM     18  H   UNL     1      47.315 131.462  12.386  1.00  0.00     0.293 HD
ENDBRANCH   4  17
TORSDOF 2
ENDMDL
MODEL 4
REMARK VINA RESULT:      -9.4      3.879      6.707
REMARK SMILES Cc1[n-]nc2cc(-c3ccc(O)cc3)ccc12
REMARK SMILES IDX 8 1 9 2 10 3 11 4 13 5 14 6 7 7 2 8 3 9 17 10 4 11 16 12
REMARK SMILES IDX 5 13 15 14 6 15 1 16 12 17
REMARK H PARENT 12 18
ROOT
ATOM      1  C   UNL     1      44.596 131.381  18.512  1.00  0.00    -0.018 A 
ATOM      2  C   UNL     1      45.243 131.132  19.737  1.00  0.00     0.012 A 
ATOM      3  C   UNL     1      44.554 131.277  20.945  1.00  0.00     0.047 A 
ATOM      4  C   UNL     1      43.213 131.672  20.948  1.00  0.00     0.115 A 
ATOM      5  C   UNL     1      42.561 131.923  19.735  1.00  0.00     0.047 A 
ATOM      6  C   UNL     1      43.246 131.778  18.525  1.00  0.00     0.012 A 
ENDROOT
BRANCH   1   7
ATOM      7  C   UNL     1      45.326 131.228  17.228  1.00  0.00    -0.016 A 
ATOM      8  C   UNL     1      47.408 130.478  13.748  1.00  0.00    -0.139 A 
ATOM      9  N   UNL     1      47.670 129.166  13.953  1.00  0.00    -0.578 NA
ATOM     10  C   UNL     1      46.694 130.954  14.823  1.00  0.00    -0.020 A 
ATOM     11  N   UNL     1      47.154 128.800  15.123  1.00  0.00    -0.367 NA
ATOM     12  C   UNL     1      46.164 132.203  15.128  1.00  0.00     0.009 A 
ATOM     13  C   UNL     1      46.559 129.883  15.655  1.00  0.00     0.048 A 
ATOM     14  C   UNL     1      45.474 132.336  16.347  1.00  0.00     0.009 A 
ATOM     15  C   UNL     1      45.883 129.975  16.868  1.00  0.00     0.035 A 
ATOM     16  C   UNL     1      47.803 131.239  12.526  1.00  0.00     0.019 C 
ENDBRANCH   1   7
BRANCH   4  17
ATOM     17  O   UNL     1      42.540 131.812  22.159  1.00  0.00    -0.508 OA
ATOM     18  H   UNL     1      42.801 131.270  22.975  1.00  0.00     0.293 HD
ENDBRANCH   4  17
TORSDOF 2
ENDMDL
MODEL 5
REMARK VINA RESULT:      -9.4      3.878      6.749
REMARK SMILES Cc1[n-]nc2cc(-c3ccc(O)cc3)ccc12
REMARK SMILES IDX 8 1 9 2 10 3 11 4 13 5 14 6 7 7 2 8 3 9 17 10 4 11 16 12
REMARK SMILES IDX 5 13 15 14 6 15 1 16 12 17
REMARK H PARENT 12 18
ROOT
ATOM      1  C   UNL     1      44.624 131.392  18.541  1.00  0.00    -0.018 A 
ATOM      2  C   UNL     1      43.280 131.807  18.564  1.00  0.00     0.012 A 
ATOM      3  C   UNL     1      42.604 131.951  19.779  1.00  0.00     0.047 A 
ATOM      4  C   UNL     1      43.257 131.683  20.985  1.00  0.00     0.115 A 
ATOM      5  C   UNL     1      44.594 131.268  20.973  1.00  0.00     0.047 A 
ATOM      6  C   UNL     1      45.274 131.124  19.760  1.00  0.00     0.012 A 
ENDROOT
BRANCH   1   7
ATOM      7  C   UNL     1      45.344 131.238  17.251  1.00  0.00    -0.016 A 
ATOM      8  C   UNL     1      47.397 130.486  13.754  1.00  0.00    -0.139 A 
ATOM      9  N   UNL     1      47.652 129.172  13.952  1.00  0.00    -0.578 NA
ATOM     10  C   UNL     1      46.693 130.964  14.835  1.00  0.00    -0.020 A 
ATOM     11  N   UNL     1      47.141 128.805  15.125  1.00  0.00    -0.367 NA
ATOM     12  C   UNL     1      46.174 132.215  15.148  1.00  0.00     0.009 A 
ATOM     13  C   UNL     1      46.557 129.890  15.665  1.00  0.00     0.048 A 
ATOM     14  C   UNL     1      45.493 132.348  16.373  1.00  0.00     0.009 A 
ATOM     15  C   UNL     1      45.890 129.983  16.883  1.00  0.00     0.035 A 
ATOM     16  C   UNL     1      47.789 131.249  12.532  1.00  0.00     0.019 C 
ENDBRANCH   1   7
BRANCH   4  17
ATOM     17  O   UNL     1      42.570 131.831  22.188  1.00  0.00    -0.508 OA
ATOM     18  H   UNL     1      41.625 132.198  22.216  1.00  0.00     0.293 HD
ENDBRANCH   4  17
TORSDOF 2
ENDMDL
MODEL 6
REMARK VINA RESULT:      -9.1      1.218      1.871
REMARK SMILES Cc1[n-]nc2cc(-c3ccc(O)cc3)ccc12
REMARK SMILES IDX 8 1 9 2 10 3 11 4 13 5 14 6 7 7 2 8 3 9 17 10 4 11 16 12
REMARK SMILES IDX 5 13 15 14 6 15 1 16 12 17
REMARK H PARENT 12 18
ROOT
ATOM      1  C   UNL     1      45.434 131.003  17.127  1.00  0.00    -0.018 A 
ATOM      2  C   UNL     1      44.917 131.894  16.168  1.00  0.00     0.012 A 
ATOM      3  C   UNL     1      45.324 131.813  14.833  1.00  0.00     0.047 A 
ATOM      4  C   UNL     1      46.251 130.845  14.436  1.00  0.00     0.115 A 
ATOM      5  C   UNL     1      46.772 129.954  15.383  1.00  0.00     0.047 A 
ATOM      6  C   UNL     1      46.367 130.031  16.719  1.00  0.00     0.012 A 
ENDROOT
BRANCH   1   7
ATOM      7  C   UNL     1      45.004 131.087  18.545  1.00  0.00    -0.016 A 
ATOM      8  C   UNL     1      43.536 131.495  22.378  1.00  0.00    -0.139 A 
ATOM      9  N   UNL     1      42.403 132.177  22.085  1.00  0.00    -0.578 NA
ATOM     10  C   UNL     1      44.209 131.240  21.206  1.00  0.00    -0.020 A 
ATOM     11  N   UNL     1      42.343 132.367  20.769  1.00  0.00    -0.367 NA
ATOM     12  C   UNL     1      45.399 130.580  20.922  1.00  0.00     0.009 A 
ATOM     13  C   UNL     1      43.437 131.800  20.231  1.00  0.00     0.048 A 
ATOM     14  C   UNL     1      45.797 130.506  19.575  1.00  0.00     0.009 A 
ATOM     15  C   UNL     1      43.797 131.746  18.888  1.00  0.00     0.035 A 
ATOM     16  C   UNL     1      43.935 131.068  23.752  1.00  0.00     0.019 C 
ENDBRANCH   1   7
BRANCH   4  17
ATOM     17  O   UNL     1      46.647 130.777  13.103  1.00  0.00    -0.508 OA
ATOM     18  H   UNL     1      47.124 129.963  12.733  1.00  0.00     0.293 HD
ENDBRANCH   4  17
TORSDOF 2
ENDMDL
MODEL 7
REMARK VINA RESULT:      -8.8      1.454      2.243
REMARK SMILES Cc1[n-]nc2cc(-c3ccc(O)cc3)ccc12
REMARK SMILES IDX 8 1 9 2 10 3 11 4 13 5 14 6 7 7 2 8 3 9 17 10 4 11 16 12
REMARK SMILES IDX 5 13 15 14 6 15 1 16 12 17
REMARK H PARENT 12 18
ROOT
ATOM      1  C   UNL     1      45.906 130.890  16.310  1.00  0.00    -0.018 A 
ATOM      2  C   UNL     1      46.133 131.965  15.431  1.00  0.00     0.012 A 
ATOM      3  C   UNL     1      46.811 131.764  14.226  1.00  0.00     0.047 A 
ATOM      4  C   UNL     1      47.272 130.490  13.880  1.00  0.00     0.115 A 
ATOM      5  C   UNL     1      47.051 129.414  14.748  1.00  0.00     0.047 A 
ATOM      6  C   UNL     1      46.372 129.611  15.954  1.00  0.00     0.012 A 
ENDROOT
BRANCH   1   7
ATOM      7  C   UNL     1      45.186 131.102  17.591  1.00  0.00    -0.016 A 
ATOM      8  C   UNL     1      43.448 131.542  21.306  1.00  0.00    -0.139 A 
ATOM      9  N   UNL     1      44.437 130.998  22.053  1.00  0.00    -0.578 NA
ATOM     10  C   UNL     1      43.825 131.501  19.983  1.00  0.00    -0.020 A 
ATOM     11  N   UNL     1      45.422 130.607  21.247  1.00  0.00    -0.367 NA
ATOM     12  C   UNL     1      43.210 131.923  18.810  1.00  0.00     0.009 A 
ATOM     13  C   UNL     1      45.055 130.911  19.990  1.00  0.00     0.048 A 
ATOM     14  C   UNL     1      43.902 131.718  17.602  1.00  0.00     0.009 A 
ATOM     15  C   UNL     1      45.770 130.693  18.815  1.00  0.00     0.035 A 
ATOM     16  C   UNL     1      42.190 132.122  21.861  1.00  0.00     0.019 C 
ENDBRANCH   1   7
BRANCH   4  17
ATOM     17  O   UNL     1      47.946 130.305  12.675  1.00  0.00    -0.508 OA
ATOM     18  H   UNL     1      48.505 129.478  12.504  1.00  0.00     0.293 HD
ENDBRANCH   4  17
TORSDOF 2
ENDMDL
MODEL 8
REMARK VINA RESULT:      -8.7      1.340      1.830
REMARK SMILES Cc1[n-]nc2cc(-c3ccc(O)cc3)ccc12
REMARK SMILES IDX 8 1 9 2 10 3 11 4 13 5 14 6 7 7 2 8 3 9 17 10 4 11 16 12
REMARK SMILES IDX 5 13 15 14 6 15 1 16 12 17
REMARK H PARENT 12 18
ROOT
ATOM      1  C   UNL     1      45.996 130.789  15.988  1.00  0.00    -0.018 A 
ATOM      2  C   UNL     1      46.403 129.473  15.702  1.00  0.00     0.012 A 
ATOM      3  C   UNL     1      47.132 129.193  14.543  1.00  0.00     0.047 A 
ATOM      4  C   UNL     1      47.466 130.219  13.655  1.00  0.00     0.115 A 
ATOM      5  C   UNL     1      47.066 131.533  13.930  1.00  0.00     0.047 A 
ATOM      6  C   UNL     1      46.337 131.817  15.089  1.00  0.00     0.012 A 
ENDROOT
BRANCH   1   7
ATOM      7  C   UNL     1      45.221 131.089  17.219  1.00  0.00    -0.016 A 
ATOM      8  C   UNL     1      43.324 131.784  20.814  1.00  0.00    -0.139 A 
ATOM      9  N   UNL     1      44.275 131.289  21.639  1.00  0.00    -0.578 NA
ATOM     10  C   UNL     1      43.759 131.653  19.516  1.00  0.00    -0.020 A 
ATOM     11  N   UNL     1      45.292 130.842  20.906  1.00  0.00    -0.367 NA
ATOM     12  C   UNL     1      43.198 131.996  18.291  1.00  0.00     0.009 A 
ATOM     13  C   UNL     1      44.983 131.062  19.616  1.00  0.00     0.048 A 
ATOM     14  C   UNL     1      43.942 131.708  17.131  1.00  0.00     0.009 A 
ATOM     15  C   UNL     1      45.749 130.762  18.493  1.00  0.00     0.035 A 
ATOM     16  C   UNL     1      42.045 132.403  21.272  1.00  0.00     0.019 C 
ENDBRANCH   1   7
BRANCH   4  17
ATOM     17  O   UNL     1      48.193 129.924  12.504  1.00  0.00    -0.508 OA
ATOM     18  H   UNL     1      49.084 129.442  12.550  1.00  0.00     0.293 HD
ENDBRANCH   4  17
TORSDOF 2
ENDMDL
MODEL 9
REMARK VINA RESULT:      -8.7      3.585      6.537
REMARK SMILES Cc1[n-]nc2cc(-c3ccc(O)cc3)ccc12
REMARK SMILES IDX 8 1 9 2 10 3 11 4 13 5 14 6 7 7 2 8 3 9 17 10 4 11 16 12
REMARK SMILES IDX 5 13 15 14 6 15 1 16 12 17
REMARK H PARENT 12 18
ROOT
ATOM      1  C   UNL     1      44.049 131.413  19.879  1.00  0.00    -0.018 A 
ATOM      2  C   UNL     1      42.815 132.046  20.117  1.00  0.00     0.012 A 
ATOM      3  C   UNL     1      42.358 132.239  21.423  1.00  0.00     0.047 A 
ATOM      4  C   UNL     1      43.122 131.803  22.509  1.00  0.00     0.115 A 
ATOM      5  C   UNL     1      44.351 131.171  22.284  1.00  0.00     0.047 A 
ATOM      6  C   UNL     1      44.813 130.977  20.978  1.00  0.00     0.012 A 
ENDROOT
BRANCH   1   7
ATOM      7  C   UNL     1      44.538 131.208  18.492  1.00  0.00    -0.016 A 
ATOM      8  C   UNL     1      45.605 130.779  14.531  1.00  0.00    -0.139 A 
ATOM      9  N   UNL     1      44.511 131.345  13.969  1.00  0.00    -0.578 NA
ATOM     10  C   UNL     1      45.462 130.815  15.899  1.00  0.00    -0.020 A 
ATOM     11  N   UNL     1      43.680 131.730  14.934  1.00  0.00    -0.367 NA
ATOM     12  C   UNL     1      46.271 130.389  16.946  1.00  0.00     0.009 A 
ATOM     13  C   UNL     1      44.253 131.411  16.108  1.00  0.00     0.048 A 
ATOM     14  C   UNL     1      45.798 130.589  18.256  1.00  0.00     0.009 A 
ATOM     15  C   UNL     1      43.753 131.627  17.389  1.00  0.00     0.035 A 
ATOM     16  C   UNL     1      46.773 130.253  13.765  1.00  0.00     0.019 C 
ENDBRANCH   1   7
BRANCH   4  17
ATOM     17  O   UNL     1      42.652 132.002  23.805  1.00  0.00    -0.508 OA
ATOM     18  H   UNL     1      43.031 132.730  24.400  1.00  0.00     0.293 HD
ENDBRANCH   4  17
TORSDOF 2
ENDMDL


