REMARK SMILES C=Cc1cc(-c2cccc3[nH+]coc23)cc(OC(=S)[NH2+][C@H](C)CC)c1F
REMARK SMILES IDX 18 1 19 2 17 3 16 4 3 5 4 6 25 7 5 8 15 9 26 10 2 11 1 12
REMARK SMILES IDX 6 13 7 14 14 15 8 16 13 17 10 18 9 19 12 20 11 21 20 23
REMARK SMILES IDX 21 26 22 27 23 28 24 29
REMARK H PARENT 11 22 20 24 20 25
ROOT
ATOM      1  C   UNL     1      -1.265  -2.215  -2.223  1.00  0.00     0.365 C 
ATOM      2  S   UNL     1      -1.628  -3.391  -3.305  1.00  0.00     0.027 S 
ENDROOT
BRANCH   1   3
ATOM      3  O   UNL     1      -2.064  -2.106  -1.075  1.00  0.00    -0.401 OA
BRANCH   3   4
ATOM      4  C   UNL     1      -1.659  -1.507   0.124  1.00  0.00     0.171 A 
ATOM      5  C   UNL     1      -2.144   0.018   1.961  1.00  0.00     0.014 A 
ATOM      6  C   UNL     1      -0.883  -0.277   2.517  1.00  0.00     0.020 A 
ATOM      7  C   UNL     1      -2.519  -0.604   0.757  1.00  0.00     0.173 A 
ATOM      8  C   UNL     1      -0.026  -1.208   1.906  1.00  0.00    -0.010 A 
ATOM      9  C   UNL     1      -0.429  -1.827   0.713  1.00  0.00     0.059 A 
ATOM     10  F   UNL     1      -3.720  -0.329   0.187  1.00  0.00    -0.202 F 
BRANCH   5  11
ATOM     11  C   UNL     1      -3.071   0.994   2.589  1.00  0.00     0.003 C 
ATOM     12  C   UNL     1      -3.042   1.325   3.881  1.00  0.00     0.009 C 
ENDBRANCH   5  11
BRANCH   8  13
ATOM     13  C   UNL     1       1.294  -1.520   2.506  1.00  0.00     0.032 A 
ATOM     14  C   UNL     1       2.124  -0.502   3.034  1.00  0.00     0.013 A 
ATOM     15  C   UNL     1       1.781  -2.832   2.582  1.00  0.00     0.212 A 
ATOM     16  C   UNL     1       3.382  -0.814   3.600  1.00  0.00     0.008 A 
ATOM     17  O   UNL     1       1.214  -3.950   2.195  1.00  0.00    -0.403 OA
ATOM     18  C   UNL     1       2.995  -3.126   3.129  1.00  0.00     0.249 A 
ATOM     19  C   UNL     1       3.832  -2.146   3.652  1.00  0.00     0.083 A 
ATOM     20  C   UNL     1       2.065  -4.919   2.492  1.00  0.00     0.521 A 
ATOM     21  N   UNL     1       3.193  -4.451   3.078  1.00  0.00    -0.176 N 
ATOM     22  H   UNL     1       4.017  -4.997   3.414  1.00  0.00     0.457 HD
ENDBRANCH   8  13
ENDBRANCH   3   4
ENDBRANCH   1   3
BRANCH   1  23
ATOM     23  N   UNL     1      -0.201  -1.277  -2.502  1.00  0.00    -0.269 N 
ATOM     24  H   UNL     1       0.470  -1.294  -1.704  1.00  0.00     0.356 HD
ATOM     25  H   UNL     1       0.337  -1.580  -3.349  1.00  0.00     0.356 HD
BRANCH  23  26
ATOM     26  C   UNL     1      -0.717   0.095  -2.709  1.00  0.00     0.187 C 
ATOM     27  C   UNL     1      -1.478   0.199  -4.047  1.00  0.00     0.075 C 
BRANCH  26  28
ATOM     28  C   UNL     1       0.453   1.108  -2.656  1.00  0.00     0.062 C 
ATOM     29  C   UNL     1      -0.012   2.565  -2.616  1.00  0.00     0.010 C 
ENDBRANCH  26  28
ENDBRANCH  23  26
ENDBRANCH   1  23
TORSDOF 7


