REMARK SMILES Cc1ccc(-c2ccc(OC(=O)[C@H]3CCC3(C)C)cc2)c2c[n-]nc12
REMARK SMILES IDX 10 1 9 2 6 3 7 4 20 5 8 6 19 7 5 8 2 9 3 10 25 11 4 12 24 13
REMARK SMILES IDX 21 14 23 15 22 16 1 17 11 18 12 19 13 20 14 21 16 22 15 23
REMARK SMILES IDX 17 24 18 25
REMARK H PARENT
ROOT
ATOM      1  O   UNL     1      -0.093   2.071  -1.154  1.00  0.00    -0.426 OA
ENDROOT
BRANCH   1   2
ATOM      2  C   UNL     1       0.124   0.794  -0.617  1.00  0.00     0.130 A 
ATOM      3  C   UNL     1       0.521  -1.816   0.371  1.00  0.00    -0.018 A 
ATOM      4  C   UNL     1       1.247  -0.737   0.902  1.00  0.00     0.012 A 
ATOM      5  C   UNL     1      -0.403  -1.576  -0.659  1.00  0.00     0.012 A 
ATOM      6  C   UNL     1       1.057   0.556   0.408  1.00  0.00     0.048 A 
ATOM      7  C   UNL     1      -0.591  -0.283  -1.153  1.00  0.00     0.048 A 
BRANCH   3   8
ATOM      8  C   UNL     1       0.711  -3.187   0.898  1.00  0.00    -0.011 A 
ATOM      9  C   UNL     1       1.076  -5.825   1.935  1.00  0.00    -0.027 A 
ATOM     10  C   UNL     1      -0.219  -5.297   1.749  1.00  0.00     0.006 A 
ATOM     11  C   UNL     1       2.156  -5.017   1.569  1.00  0.00     0.050 A 
ATOM     12  C   UNL     1      -0.400  -3.992   1.239  1.00  0.00     0.010 A 
ATOM     13  N   UNL     1       3.464  -5.326   1.603  1.00  0.00    -0.367 NA
ATOM     14  C   UNL     1       1.982  -3.753   1.077  1.00  0.00    -0.014 A 
ATOM     15  N   UNL     1       4.131  -4.277   1.134  1.00  0.00    -0.581 NA
ATOM     16  C   UNL     1       3.254  -3.303   0.801  1.00  0.00    -0.113 A 
ATOM     17  C   UNL     1       1.280  -7.226   2.431  1.00  0.00     0.046 C 
ENDBRANCH   3   8
ENDBRANCH   1   2
BRANCH   1  18
ATOM     18  C   UNL     1       0.059   3.281  -0.461  1.00  0.00     0.314 C 
ATOM     19  O   UNL     1       0.100   3.299   0.799  1.00  0.00    -0.251 OA
BRANCH  18  20
ATOM     20  C   UNL     1       0.057   4.593  -1.206  1.00  0.00     0.105 C 
ATOM     21  C   UNL     1       0.545   4.502  -2.654  1.00  0.00     0.016 C 
ATOM     22  C   UNL     1      -1.318   5.094  -1.708  1.00  0.00    -0.022 C 
ATOM     23  C   UNL     1      -0.810   4.995  -3.155  1.00  0.00     0.008 C 
ATOM     24  C   UNL     1      -1.607   6.543  -1.280  1.00  0.00     0.012 C 
ATOM     25  C   UNL     1      -2.527   4.175  -1.439  1.00  0.00     0.012 C 
ENDBRANCH  18  20
ENDBRANCH   1  18
TORSDOF 4


