REMARK SMILES [NH-]C(=O)c1ccc(-c2cc(F)cc(F)c2OCc2n[nH]c3c2CCC3)cc1
REMARK SMILES IDX 8 1 9 2 10 3 11 4 12 5 13 6 14 7 15 8 7 9 4 10 5 11 27 12
REMARK SMILES IDX 6 13 26 14 2 15 3 16 1 17 16 19 17 20 18 21 19 22 22 23
REMARK SMILES IDX 20 24 21 25 23 26 25 27 24 28
REMARK H PARENT 1 18 20 29
ROOT
ATOM      1  C   UNL     1       0.537   0.396  -0.867  1.00  0.00     0.030 A 
ATOM      2  C   UNL     1       0.976   1.684  -1.221  1.00  0.00     0.052 A 
ATOM      3  C   UNL     1       2.275   2.099  -0.916  1.00  0.00     0.127 A 
ATOM      4  F   UNL     1       2.688   3.342  -1.267  1.00  0.00    -0.207 F 
ATOM      5  C   UNL     1       3.148   1.236  -0.253  1.00  0.00     0.082 A 
ATOM      6  C   UNL     1       2.725  -0.044   0.112  1.00  0.00     0.168 A 
ATOM      7  F   UNL     1       3.589  -0.877   0.744  1.00  0.00    -0.203 F 
ATOM      8  C   UNL     1       1.420  -0.469  -0.184  1.00  0.00     0.163 A 
ENDROOT
BRANCH   1   9
ATOM      9  C   UNL     1      -0.861  -0.007  -1.151  1.00  0.00    -0.014 A 
ATOM     10  C   UNL     1      -3.534  -0.796  -1.609  1.00  0.00    -0.001 A 
ATOM     11  C   UNL     1      -3.246   0.452  -1.028  1.00  0.00     0.011 A 
ATOM     12  C   UNL     1      -2.467  -1.637  -1.973  1.00  0.00     0.011 A 
ATOM     13  C   UNL     1      -1.923   0.842  -0.805  1.00  0.00     0.009 A 
ATOM     14  C   UNL     1      -1.145  -1.245  -1.749  1.00  0.00     0.009 A 
BRANCH  10  15
ATOM     15  C   UNL     1      -4.936  -1.220  -1.832  1.00  0.00     0.080 C 
ATOM     16  O   UNL     1      -5.187  -2.337  -2.358  1.00  0.00    -0.315 OA
BRANCH  15  17
ATOM     17  N   UNL     1      -6.019  -0.371  -1.453  1.00  0.00    -0.664 NA
ATOM     18  H   UNL     1      -7.009  -0.664  -1.605  1.00  0.00    -0.121 HD
ENDBRANCH  15  17
ENDBRANCH  10  15
ENDBRANCH   1   9
BRANCH   8  19
ATOM     19  O   UNL     1       0.997  -1.742   0.208  1.00  0.00    -0.483 OA
BRANCH  19  20
ATOM     20  C   UNL     1       0.783  -2.090   1.573  1.00  0.00     0.288 C 
BRANCH  20  21
ATOM     21  C   UNL     1      -0.560  -1.606   2.019  1.00  0.00     0.103 A 
ATOM     22  N   UNL     1      -1.730  -2.126   1.576  1.00  0.00    -0.177 NA
ATOM     23  C   UNL     1      -0.835  -0.442   2.709  1.00  0.00    -0.000 A 
ATOM     24  N   UNL     1      -2.708  -1.318   1.968  1.00  0.00    -0.282 N 
ATOM     25  C   UNL     1      -2.164  -0.307   2.664  1.00  0.00     0.039 A 
ATOM     26  C   UNL     1      -0.125   0.841   2.880  1.00  0.00     0.040 C 
ATOM     27  C   UNL     1      -2.620   1.089   2.804  1.00  0.00     0.056 C 
ATOM     28  C   UNL     1      -1.291   1.850   3.049  1.00  0.00     0.011 C 
ATOM     29  H   UNL     1      -3.702  -1.401   1.660  1.00  0.00     0.190 HD
ENDBRANCH  20  21
ENDBRANCH  19  20
ENDBRANCH   8  19
TORSDOF 6


