REMARK SMILES N[NH2+][C@H]1CCC[C@H]2OC=C[C@@]12c1[nH]c2ccccc2[nH+]1
REMARK SMILES IDX 3 1 4 2 5 3 6 4 7 5 8 6 9 7 10 8 11 9 2 10 1 13 12 16 13 17
REMARK SMILES IDX 20 18 14 19 19 20 15 21 18 22 16 23 17 24
REMARK H PARENT 2 11 2 12 1 14 1 15 13 25 20 26
ROOT
ATOM      1  C   UNL     1       1.353   0.421  -0.594  1.00  0.00     0.227 C 
ATOM      2  C   UNL     1       2.451   1.044  -1.492  1.00  0.00     0.069 C 
ATOM      3  C   UNL     1       2.645   0.309  -2.836  1.00  0.00     0.010 C 
ATOM      4  C   UNL     1       1.863  -1.007  -2.947  1.00  0.00     0.047 C 
ATOM      5  C   UNL     1       1.989  -1.863  -1.680  1.00  0.00     0.201 C 
ATOM      6  O   UNL     1       3.336  -2.275  -1.493  1.00  0.00    -0.496 OA
ATOM      7  C   UNL     1       3.779  -1.965  -0.225  1.00  0.00     0.184 C 
ATOM      8  C   UNL     1       2.861  -1.323   0.465  1.00  0.00     0.041 C 
ATOM      9  C   UNL     1       1.617  -1.107  -0.359  1.00  0.00     0.182 C 
ENDROOT
BRANCH   1  10
ATOM     10  N   UNL     1       1.239   1.161   0.683  1.00  0.00    -0.268 N 
ATOM     11  H   UNL     1       0.600   0.665   1.349  1.00  0.00     0.370 HD
ATOM     12  H   UNL     1       2.180   1.267   1.129  1.00  0.00     0.370 HD
BRANCH  10  13
ATOM     13  N   UNL     1       0.716   2.449   0.438  1.00  0.00    -0.183 NA
ATOM     14  H   UNL     1       0.782   2.999   1.326  1.00  0.00     0.183 HD
ATOM     15  H   UNL     1      -0.306   2.358   0.226  1.00  0.00     0.183 HD
ENDBRANCH  10  13
ENDBRANCH   1  10
BRANCH   9  16
ATOM     16  C   UNL     1       0.402  -1.753   0.286  1.00  0.00     0.273 A 
ATOM     17  N   UNL     1      -0.777  -1.921  -0.369  1.00  0.00    -0.240 N 
ATOM     18  N   UNL     1       0.334  -2.152   1.586  1.00  0.00    -0.240 N 
ATOM     19  C   UNL     1      -1.596  -2.453   0.551  1.00  0.00     0.171 A 
ATOM     20  C   UNL     1      -0.926  -2.593   1.730  1.00  0.00     0.171 A 
ATOM     21  C   UNL     1      -2.933  -2.818   0.412  1.00  0.00     0.056 A 
ATOM     22  C   UNL     1      -1.537  -3.108   2.870  1.00  0.00     0.056 A 
ATOM     23  C   UNL     1      -3.583  -3.348   1.544  1.00  0.00     0.005 A 
ATOM     24  C   UNL     1      -2.888  -3.492   2.768  1.00  0.00     0.005 A 
ATOM     25  H   UNL     1      -1.003  -1.678  -1.360  1.00  0.00     0.312 HD
ATOM     26  H   UNL     1       1.075  -2.115   2.320  1.00  0.00     0.312 HD
ENDBRANCH   9  16
TORSDOF 3


