MODEL 1
REMARK VINA RESULT:      -8.5      0.000      0.000
REMARK SMILES C=CCC(=O)Sc1cccc(-c2ccc3c(c2)CC3)c1
REMARK SMILES IDX 4 1 5 2 3 3 2 4 1 5 6 6 7 7 8 8 20 9 9 10 11 11 10 12 12 13
REMARK SMILES IDX 13 14 17 15 14 16 16 17 15 18 18 19 19 20
REMARK H PARENT
ROOT
ATOM      1  C   UNL     1      44.032 131.335  22.674  1.00  0.00     0.197 C 
ATOM      2  O   UNL     1      43.510 132.008  23.549  1.00  0.00    -0.286 OA
ENDROOT
BRANCH   1   3
ATOM      3  C   UNL     1      43.516 129.957  22.376  1.00  0.00     0.115 C 
BRANCH   3   4
ATOM      4  C   UNL     1      44.308 128.930  23.140  1.00  0.00    -0.026 C 
ATOM      5  C   UNL     1      45.011 127.974  22.526  1.00  0.00     0.004 C 
ENDBRANCH   3   4
ENDBRANCH   1   3
BRANCH   1   6
ATOM      6  S   UNL     1      45.412 132.011  21.746  1.00  0.00    -0.052 SA
BRANCH   6   7
ATOM      7  C   UNL     1      44.551 131.843  20.182  1.00  0.00     0.016 A 
ATOM      8  C   UNL     1      43.199 132.188  20.084  1.00  0.00     0.015 A 
ATOM      9  C   UNL     1      45.242 131.390  19.053  1.00  0.00     0.024 A 
ATOM     10  C   UNL     1      42.543 132.094  18.855  1.00  0.00     0.002 A 
ATOM     11  C   UNL     1      44.595 131.310  17.806  1.00  0.00    -0.017 A 
ATOM     12  C   UNL     1      43.237 131.664  17.719  1.00  0.00     0.009 A 
BRANCH  11  13
ATOM     13  C   UNL     1      45.343 130.879  16.600  1.00  0.00    -0.018 A 
ATOM     14  C   UNL     1      45.361 129.488  16.227  1.00  0.00     0.009 A 
ATOM     15  C   UNL     1      46.027 131.849  15.810  1.00  0.00     0.012 A 
ATOM     16  C   UNL     1      46.050 129.025  15.079  1.00  0.00     0.004 A 
ATOM     17  C   UNL     1      46.688 131.364  14.700  1.00  0.00    -0.044 A 
ATOM     18  C   UNL     1      46.699 129.993  14.346  1.00  0.00    -0.044 A 
ATOM     19  C   UNL     1      47.532 131.696  13.518  1.00  0.00     0.040 C 
ATOM     20  C   UNL     1      47.543 130.290  13.154  1.00  0.00     0.040 C 
ENDBRANCH  11  13
ENDBRANCH   6   7
ENDBRANCH   1   6
TORSDOF 5
ENDMDL
MODEL 2
REMARK VINA RESULT:      -8.3      1.025      1.448
REMARK SMILES C=CCC(=O)Sc1cccc(-c2ccc3c(c2)CC3)c1
REMARK SMILES IDX 4 1 5 2 3 3 2 4 1 5 6 6 7 7 8 8 20 9 9 10 11 11 10 12 12 13
REMARK SMILES IDX 13 14 17 15 14 16 16 17 15 18 18 19 19 20
REMARK H PARENT
ROOT
ATOM      1  C   UNL     1      44.179 130.182  22.216  1.00  0.00     0.197 C 
ATOM      2  O   UNL     1      42.985 130.357  22.406  1.00  0.00    -0.286 OA
ENDROOT
BRANCH   1   3
ATOM      3  C   UNL     1      44.795 128.840  22.484  1.00  0.00     0.115 C 
BRANCH   3   4
ATOM      4  C   UNL     1      44.294 128.292  23.794  1.00  0.00    -0.026 C 
ATOM      5  C   UNL     1      43.343 127.355  23.854  1.00  0.00     0.004 C 
ENDBRANCH   3   4
ENDBRANCH   1   3
BRANCH   1   6
ATOM      6  S   UNL     1      45.182 131.540  21.604  1.00  0.00    -0.052 SA
BRANCH   6   7
ATOM      7  C   UNL     1      44.327 131.573  20.029  1.00  0.00     0.016 A 
ATOM      8  C   UNL     1      42.976 131.930  19.971  1.00  0.00     0.015 A 
ATOM      9  C   UNL     1      45.021 131.266  18.854  1.00  0.00     0.024 A 
ATOM     10  C   UNL     1      42.324 131.994  18.738  1.00  0.00     0.002 A 
ATOM     11  C   UNL     1      44.378 131.347  17.605  1.00  0.00    -0.017 A 
ATOM     12  C   UNL     1      43.020 131.711  17.559  1.00  0.00     0.009 A 
BRANCH  11  13
ATOM     13  C   UNL     1      45.130 131.071  16.356  1.00  0.00    -0.018 A 
ATOM     14  C   UNL     1      44.696 131.657  15.114  1.00  0.00     0.009 A 
ATOM     15  C   UNL     1      46.287 130.239  16.397  1.00  0.00     0.012 A 
ATOM     16  C   UNL     1      45.383 131.436  13.895  1.00  0.00     0.004 A 
ATOM     17  C   UNL     1      46.932 130.044  15.194  1.00  0.00    -0.044 A 
ATOM     18  C   UNL     1      46.493 130.625  13.979  1.00  0.00    -0.044 A 
ATOM     19  C   UNL     1      48.069 129.386  14.490  1.00  0.00     0.040 C 
ATOM     20  C   UNL     1      47.619 129.983  13.245  1.00  0.00     0.040 C 
ENDBRANCH  11  13
ENDBRANCH   6   7
ENDBRANCH   1   6
TORSDOF 5
ENDMDL
MODEL 3
REMARK VINA RESULT:      -8.3      1.301      1.932
REMARK SMILES C=CCC(=O)Sc1cccc(-c2ccc3c(c2)CC3)c1
REMARK SMILES IDX 4 1 5 2 3 3 2 4 1 5 6 6 7 7 8 8 20 9 9 10 11 11 10 12 12 13
REMARK SMILES IDX 13 14 17 15 14 16 16 17 15 18 18 19 19 20
REMARK H PARENT
ROOT
ATOM      1  C   UNL     1      44.763 129.810  22.125  1.00  0.00     0.197 C 
ATOM      2  O   UNL     1      45.153 129.038  21.263  1.00  0.00    -0.286 OA
ENDROOT
BRANCH   1   3
ATOM      3  C   UNL     1      44.069 129.284  23.348  1.00  0.00     0.115 C 
BRANCH   3   4
ATOM      4  C   UNL     1      42.576 129.354  23.168  1.00  0.00    -0.026 C 
ATOM      5  C   UNL     1      41.728 128.861  24.075  1.00  0.00     0.004 C 
ENDBRANCH   3   4
ENDBRANCH   1   3
BRANCH   1   6
ATOM      6  S   UNL     1      45.034 131.573  21.919  1.00  0.00    -0.052 SA
BRANCH   6   7
ATOM      7  C   UNL     1      44.287 131.583  20.290  1.00  0.00     0.016 A 
ATOM      8  C   UNL     1      42.919 131.837  20.147  1.00  0.00     0.015 A 
ATOM      9  C   UNL     1      45.080 131.361  19.160  1.00  0.00     0.024 A 
ATOM     10  C   UNL     1      42.349 131.884  18.873  1.00  0.00     0.002 A 
ATOM     11  C   UNL     1      44.519 131.426  17.871  1.00  0.00    -0.017 A 
ATOM     12  C   UNL     1      43.143 131.686  17.739  1.00  0.00     0.009 A 
BRANCH  11  13
ATOM     13  C   UNL     1      45.372 131.242  16.671  1.00  0.00    -0.018 A 
ATOM     14  C   UNL     1      45.622 132.354  15.791  1.00  0.00     0.009 A 
ATOM     15  C   UNL     1      45.952 129.966  16.406  1.00  0.00     0.012 A 
ATOM     16  C   UNL     1      46.437 132.236  14.639  1.00  0.00     0.004 A 
ATOM     17  C   UNL     1      46.740 129.886  15.277  1.00  0.00    -0.044 A 
ATOM     18  C   UNL     1      46.975 130.987  14.419  1.00  0.00    -0.044 A 
ATOM     19  C   UNL     1      47.589 129.013  14.419  1.00  0.00     0.040 C 
ATOM     20  C   UNL     1      47.831 130.143  13.540  1.00  0.00     0.040 C 
ENDBRANCH  11  13
ENDBRANCH   6   7
ENDBRANCH   1   6
TORSDOF 5
ENDMDL
MODEL 4
REMARK VINA RESULT:      -7.8      1.442      1.850
REMARK SMILES C=CCC(=O)Sc1cccc(-c2ccc3c(c2)CC3)c1
REMARK SMILES IDX 4 1 5 2 3 3 2 4 1 5 6 6 7 7 8 8 20 9 9 10 11 11 10 12 12 13
REMARK SMILES IDX 13 14 17 15 14 16 16 17 15 18 18 19 19 20
REMARK H PARENT
ROOT
ATOM      1  C   UNL     1      44.820 129.848  22.133  1.00  0.00     0.197 C 
ATOM      2  O   UNL     1      45.586 129.453  21.267  1.00  0.00    -0.286 OA
ENDROOT
BRANCH   1   3
ATOM      3  C   UNL     1      44.081 128.863  22.991  1.00  0.00     0.115 C 
BRANCH   3   4
ATOM      4  C   UNL     1      44.694 127.494  22.855  1.00  0.00    -0.026 C 
ATOM      5  C   UNL     1      44.252 126.445  23.554  1.00  0.00     0.004 C 
ENDBRANCH   3   4
ENDBRANCH   1   3
BRANCH   1   6
ATOM      6  S   UNL     1      44.597 131.613  22.372  1.00  0.00    -0.052 SA
BRANCH   6   7
ATOM      7  C   UNL     1      43.724 131.799  20.818  1.00  0.00     0.016 A 
ATOM      8  C   UNL     1      42.425 132.318  20.799  1.00  0.00     0.015 A 
ATOM      9  C   UNL     1      44.354 131.447  19.620  1.00  0.00     0.024 A 
ATOM     10  C   UNL     1      41.764 132.500  19.583  1.00  0.00     0.002 A 
ATOM     11  C   UNL     1      43.704 131.643  18.388  1.00  0.00    -0.017 A 
ATOM     12  C   UNL     1      42.400 132.171  18.381  1.00  0.00     0.009 A 
BRANCH  11  13
ATOM     13  C   UNL     1      44.394 131.318  17.115  1.00  0.00    -0.018 A 
ATOM     14  C   UNL     1      43.788 131.677  15.859  1.00  0.00     0.009 A 
ATOM     15  C   UNL     1      45.660 130.664  17.146  1.00  0.00     0.012 A 
ATOM     16  C   UNL     1      44.408 131.399  14.616  1.00  0.00     0.004 A 
ATOM     17  C   UNL     1      46.237 130.409  15.919  1.00  0.00    -0.044 A 
ATOM     18  C   UNL     1      45.629 130.765  14.692  1.00  0.00    -0.044 A 
ATOM     19  C   UNL     1      47.403 129.829  15.195  1.00  0.00     0.040 C 
ATOM     20  C   UNL     1      46.780 130.196  13.936  1.00  0.00     0.040 C 
ENDBRANCH  11  13
ENDBRANCH   6   7
ENDBRANCH   1   6
TORSDOF 5
ENDMDL
MODEL 5
REMARK VINA RESULT:      -7.5      1.334      1.396
REMARK SMILES C=CCC(=O)Sc1cccc(-c2ccc3c(c2)CC3)c1
REMARK SMILES IDX 4 1 5 2 3 3 2 4 1 5 6 6 7 7 8 8 20 9 9 10 11 11 10 12 12 13
REMARK SMILES IDX 13 14 17 15 14 16 16 17 15 18 18 19 19 20
REMARK H PARENT
ROOT
ATOM      1  C   UNL     1      44.626 129.877  22.138  1.00  0.00     0.197 C 
ATOM      2  O   UNL     1      45.460 129.484  21.337  1.00  0.00    -0.286 OA
ENDROOT
BRANCH   1   3
ATOM      3  C   UNL     1      43.908 128.896  23.019  1.00  0.00     0.115 C 
BRANCH   3   4
ATOM      4  C   UNL     1      44.901 128.057  23.778  1.00  0.00    -0.026 C 
ATOM      5  C   UNL     1      45.261 126.837  23.368  1.00  0.00     0.004 C 
ENDBRANCH   3   4
ENDBRANCH   1   3
BRANCH   1   6
ATOM      6  S   UNL     1      44.278 131.634  22.257  1.00  0.00    -0.052 SA
BRANCH   6   7
ATOM      7  C   UNL     1      43.688 131.717  20.566  1.00  0.00     0.016 A 
ATOM      8  C   UNL     1      42.405 132.202  20.293  1.00  0.00     0.015 A 
ATOM      9  C   UNL     1      44.524 131.319  19.518  1.00  0.00     0.024 A 
ATOM     10  C   UNL     1      41.964 132.304  18.971  1.00  0.00     0.002 A 
ATOM     11  C   UNL     1      44.097 131.436  18.182  1.00  0.00    -0.017 A 
ATOM     12  C   UNL     1      42.806 131.929  17.920  1.00  0.00     0.009 A 
BRANCH  11  13
ATOM     13  C   UNL     1      45.005 131.062  17.069  1.00  0.00    -0.018 A 
ATOM     14  C   UNL     1      46.063 130.113  17.296  1.00  0.00     0.009 A 
ATOM     15  C   UNL     1      44.812 131.636  15.778  1.00  0.00     0.012 A 
ATOM     16  C   UNL     1      46.950 129.714  16.266  1.00  0.00     0.004 A 
ATOM     17  C   UNL     1      45.692 131.226  14.799  1.00  0.00    -0.044 A 
ATOM     18  C   UNL     1      46.730 130.293  15.036  1.00  0.00    -0.044 A 
ATOM     19  C   UNL     1      46.103 131.350  13.372  1.00  0.00     0.040 C 
ATOM     20  C   UNL     1      47.167 130.392  13.615  1.00  0.00     0.040 C 
ENDBRANCH  11  13
ENDBRANCH   6   7
ENDBRANCH   1   6
TORSDOF 5
ENDMDL
MODEL 6
REMARK VINA RESULT:      -7.1      1.504      1.810
REMARK SMILES C=CCC(=O)Sc1cccc(-c2ccc3c(c2)CC3)c1
REMARK SMILES IDX 4 1 5 2 3 3 2 4 1 5 6 6 7 7 8 8 20 9 9 10 11 11 10 12 12 13
REMARK SMILES IDX 13 14 17 15 14 16 16 17 15 18 18 19 19 20
REMARK H PARENT
ROOT
ATOM      1  C   UNL     1      45.559 130.711  21.160  1.00  0.00     0.197 C 
ATOM      2  O   UNL     1      46.564 131.045  20.551  1.00  0.00    -0.286 OA
ENDROOT
BRANCH   1   3
ATOM      3  C   UNL     1      45.332 129.268  21.504  1.00  0.00     0.115 C 
BRANCH   3   4
ATOM      4  C   UNL     1      44.800 129.146  22.907  1.00  0.00    -0.026 C 
ATOM      5  C   UNL     1      43.622 128.574  23.173  1.00  0.00     0.004 C 
ENDBRANCH   3   4
ENDBRANCH   1   3
BRANCH   1   6
ATOM      6  S   UNL     1      44.366 131.962  21.645  1.00  0.00    -0.052 SA
BRANCH   6   7
ATOM      7  C   UNL     1      43.586 131.965  20.031  1.00  0.00     0.016 A 
ATOM      8  C   UNL     1      42.251 132.360  19.897  1.00  0.00     0.015 A 
ATOM      9  C   UNL     1      44.323 131.593  18.902  1.00  0.00     0.024 A 
ATOM     10  C   UNL     1      41.659 132.400  18.632  1.00  0.00     0.002 A 
ATOM     11  C   UNL     1      43.742 131.648  17.622  1.00  0.00    -0.017 A 
ATOM     12  C   UNL     1      42.400 132.052  17.499  1.00  0.00     0.009 A 
BRANCH  11  13
ATOM     13  C   UNL     1      44.541 131.304  16.420  1.00  0.00    -0.018 A 
ATOM     14  C   UNL     1      44.049 131.645  15.110  1.00  0.00     0.009 A 
ATOM     15  C   UNL     1      45.798 130.650  16.572  1.00  0.00     0.012 A 
ATOM     16  C   UNL     1      44.776 131.349  13.931  1.00  0.00     0.004 A 
ATOM     17  C   UNL     1      46.481 130.376  15.405  1.00  0.00    -0.044 A 
ATOM     18  C   UNL     1      45.984 130.716  14.123  1.00  0.00    -0.044 A 
ATOM     19  C   UNL     1      47.705 129.786  14.795  1.00  0.00     0.040 C 
ATOM     20  C   UNL     1      47.196 130.135  13.480  1.00  0.00     0.040 C 
ENDBRANCH  11  13
ENDBRANCH   6   7
ENDBRANCH   1   6
TORSDOF 5
ENDMDL
MODEL 7
REMARK VINA RESULT:      -7.1      1.590      1.800
REMARK SMILES C=CCC(=O)Sc1cccc(-c2ccc3c(c2)CC3)c1
REMARK SMILES IDX 4 1 5 2 3 3 2 4 1 5 6 6 7 7 8 8 20 9 9 10 11 11 10 12 12 13
REMARK SMILES IDX 13 14 17 15 14 16 16 17 15 18 18 19 19 20
REMARK H PARENT
ROOT
ATOM      1  C   UNL     1      43.795 129.801  23.173  1.00  0.00     0.197 C 
ATOM      2  O   UNL     1      44.268 128.819  22.623  1.00  0.00    -0.286 OA
ENDROOT
BRANCH   1   3
ATOM      3  C   UNL     1      42.570 129.666  24.030  1.00  0.00     0.115 C 
BRANCH   3   4
ATOM      4  C   UNL     1      42.224 128.212  24.214  1.00  0.00    -0.026 C 
ATOM      5  C   UNL     1      41.158 127.657  23.630  1.00  0.00     0.004 C 
ENDBRANCH   3   4
ENDBRANCH   1   3
BRANCH   1   6
ATOM      6  S   UNL     1      44.583 131.399  22.955  1.00  0.00    -0.052 SA
BRANCH   6   7
ATOM      7  C   UNL     1      43.926 131.591  21.299  1.00  0.00     0.016 A 
ATOM      8  C   UNL     1      42.659 132.151  21.107  1.00  0.00     0.015 A 
ATOM      9  C   UNL     1      44.693 131.203  20.196  1.00  0.00     0.024 A 
ATOM     10  C   UNL     1      42.167 132.338  19.813  1.00  0.00     0.002 A 
ATOM     11  C   UNL     1      44.215 131.403  18.888  1.00  0.00    -0.017 A 
ATOM     12  C   UNL     1      42.941 131.972  18.708  1.00  0.00     0.009 A 
BRANCH  11  13
ATOM     13  C   UNL     1      45.053 131.039  17.719  1.00  0.00    -0.018 A 
ATOM     14  C   UNL     1      45.761 129.785  17.707  1.00  0.00     0.009 A 
ATOM     15  C   UNL     1      45.139 131.928  16.608  1.00  0.00     0.012 A 
ATOM     16  C   UNL     1      46.564 129.383  16.613  1.00  0.00     0.004 A 
ATOM     17  C   UNL     1      45.930 131.507  15.559  1.00  0.00    -0.044 A 
ATOM     18  C   UNL     1      46.622 130.272  15.562  1.00  0.00    -0.044 A 
ATOM     19  C   UNL     1      46.467 131.827  14.207  1.00  0.00     0.040 C 
ATOM     20  C   UNL     1      47.176 130.559  14.209  1.00  0.00     0.040 C 
ENDBRANCH  11  13
ENDBRANCH   6   7
ENDBRANCH   1   6
TORSDOF 5
ENDMDL
MODEL 8
REMARK VINA RESULT:      -6.4      1.428      2.070
REMARK SMILES C=CCC(=O)Sc1cccc(-c2ccc3c(c2)CC3)c1
REMARK SMILES IDX 4 1 5 2 3 3 2 4 1 5 6 6 7 7 8 8 20 9 9 10 11 11 10 12 12 13
REMARK SMILES IDX 13 14 17 15 14 16 16 17 15 18 18 19 19 20
REMARK H PARENT
ROOT
ATOM      1  C   UNL     1      44.255 129.823  22.795  1.00  0.00     0.197 C 
ATOM      2  O   UNL     1      43.914 128.690  22.493  1.00  0.00    -0.286 OA
ENDROOT
BRANCH   1   3
ATOM      3  C   UNL     1      43.532 130.561  23.885  1.00  0.00     0.115 C 
BRANCH   3   4
ATOM      4  C   UNL     1      43.697 132.046  23.702  1.00  0.00    -0.026 C 
ATOM      5  C   UNL     1      44.304 132.812  24.614  1.00  0.00     0.004 C 
ENDBRANCH   3   4
ENDBRANCH   1   3
BRANCH   1   6
ATOM      6  S   UNL     1      45.629 130.590  21.932  1.00  0.00    -0.052 SA
BRANCH   6   7
ATOM      7  C   UNL     1      44.609 131.036  20.528  1.00  0.00     0.016 A 
ATOM      8  C   UNL     1      43.345 131.601  20.730  1.00  0.00     0.015 A 
ATOM      9  C   UNL     1      45.089 130.842  19.229  1.00  0.00     0.024 A 
ATOM     10  C   UNL     1      42.570 131.985  19.633  1.00  0.00     0.002 A 
ATOM     11  C   UNL     1      44.324 131.243  18.118  1.00  0.00    -0.017 A 
ATOM     12  C   UNL     1      43.057 131.814  18.334  1.00  0.00     0.009 A 
BRANCH  11  13
ATOM     13  C   UNL     1      44.858 131.084  16.743  1.00  0.00    -0.018 A 
ATOM     14  C   UNL     1      44.082 131.535  15.616  1.00  0.00     0.009 A 
ATOM     15  C   UNL     1      46.143 130.497  16.548  1.00  0.00     0.012 A 
ATOM     16  C   UNL     1      44.549 131.417  14.285  1.00  0.00     0.004 A 
ATOM     17  C   UNL     1      46.567 130.398  15.239  1.00  0.00    -0.044 A 
ATOM     18  C   UNL     1      45.793 130.844  14.141  1.00  0.00    -0.044 A 
ATOM     19  C   UNL     1      47.652 129.957  14.319  1.00  0.00     0.040 C 
ATOM     20  C   UNL     1      46.859 130.415  13.192  1.00  0.00     0.040 C 
ENDBRANCH  11  13
ENDBRANCH   6   7
ENDBRANCH   1   6
TORSDOF 5
ENDMDL
MODEL 9
REMARK VINA RESULT:      -6.3      1.758      2.878
REMARK SMILES C=CCC(=O)Sc1cccc(-c2ccc3c(c2)CC3)c1
REMARK SMILES IDX 4 1 5 2 3 3 2 4 1 5 6 6 7 7 8 8 20 9 9 10 11 11 10 12 12 13
REMARK SMILES IDX 13 14 17 15 14 16 16 17 15 18 18 19 19 20
REMARK H PARENT
ROOT
ATOM      1  C   UNL     1      44.217 128.236  23.030  1.00  0.00     0.197 C 
ATOM      2  O   UNL     1      43.121 127.716  23.176  1.00  0.00    -0.286 OA
ENDROOT
BRANCH   1   3
ATOM      3  C   UNL     1      45.267 127.558  22.200  1.00  0.00     0.115 C 
BRANCH   3   4
ATOM      4  C   UNL     1      45.767 126.324  22.904  1.00  0.00    -0.026 C 
ATOM      5  C   UNL     1      44.961 125.303  23.207  1.00  0.00     0.004 C 
ENDBRANCH   3   4
ENDBRANCH   1   3
BRANCH   1   6
ATOM      6  S   UNL     1      44.552 129.818  23.809  1.00  0.00    -0.052 SA
BRANCH   6   7
ATOM      7  C   UNL     1      43.841 130.737  22.444  1.00  0.00     0.016 A 
ATOM      8  C   UNL     1      42.810 131.653  22.675  1.00  0.00     0.015 A 
ATOM      9  C   UNL     1      44.337 130.553  21.149  1.00  0.00     0.024 A 
ATOM     10  C   UNL     1      42.287 132.397  21.615  1.00  0.00     0.002 A 
ATOM     11  C   UNL     1      43.830 131.310  20.077  1.00  0.00    -0.017 A 
ATOM     12  C   UNL     1      42.797 132.233  20.323  1.00  0.00     0.009 A 
BRANCH  11  13
ATOM     13  C   UNL     1      44.393 131.152  18.714  1.00  0.00    -0.018 A 
ATOM     14  C   UNL     1      45.634 130.445  18.529  1.00  0.00     0.009 A 
ATOM     15  C   UNL     1      43.692 131.688  17.594  1.00  0.00     0.012 A 
ATOM     16  C   UNL     1      46.209 130.256  17.248  1.00  0.00     0.004 A 
ATOM     17  C   UNL     1      44.280 131.486  16.362  1.00  0.00    -0.044 A 
ATOM     18  C   UNL     1      45.502 130.791  16.195  1.00  0.00    -0.044 A 
ATOM     19  C   UNL     1      44.185 131.712  14.893  1.00  0.00     0.040 C 
ATOM     20  C   UNL     1      45.438 130.998  14.721  1.00  0.00     0.040 C 
ENDBRANCH  11  13
ENDBRANCH   6   7
ENDBRANCH   1   6
TORSDOF 5
ENDMDL


