REMARK SMILES N[NH2+][C@@H]1CCC[C@@H]2OC=C[C@@]21c1nc2ccccc2[nH]1
REMARK SMILES IDX 3 1 4 2 5 3 6 4 7 5 8 6 9 7 10 8 11 9 2 10 1 13 12 16 13 17
REMARK SMILES IDX 20 18 14 19 19 20 15 21 18 22 16 23 17 24
REMARK H PARENT 2 11 2 12 1 14 1 15 20 25
ROOT
ATOM      1  C   UNL     1      -1.690  -0.269   1.707  1.00  0.00     0.223 C 
ATOM      2  C   UNL     1      -3.017  -0.711   2.374  1.00  0.00     0.068 C 
ATOM      3  C   UNL     1      -4.278  -0.229   1.625  1.00  0.00     0.010 C 
ATOM      4  C   UNL     1      -3.988   0.415   0.262  1.00  0.00     0.047 C 
ATOM      5  C   UNL     1      -2.977  -0.396  -0.558  1.00  0.00     0.196 C 
ATOM      6  O   UNL     1      -3.511  -1.671  -0.883  1.00  0.00    -0.497 OA
ATOM      7  C   UNL     1      -2.642  -2.681  -0.525  1.00  0.00     0.184 C 
ATOM      8  C   UNL     1      -1.571  -2.207   0.074  1.00  0.00     0.036 C 
ATOM      9  C   UNL     1      -1.644  -0.707   0.203  1.00  0.00     0.139 C 
ENDROOT
BRANCH   1  10
ATOM     10  N   UNL     1      -0.527  -0.783   2.466  1.00  0.00    -0.268 N 
ATOM     11  H   UNL     1       0.367  -0.607   1.947  1.00  0.00     0.370 HD
ATOM     12  H   UNL     1      -0.626  -1.812   2.634  1.00  0.00     0.370 HD
BRANCH  10  13
ATOM     13  N   UNL     1      -0.453  -0.133   3.716  1.00  0.00    -0.183 NA
ATOM     14  H   UNL     1       0.281  -0.613   4.287  1.00  0.00     0.183 HD
ATOM     15  H   UNL     1      -0.112   0.845   3.564  1.00  0.00     0.183 HD
ENDBRANCH  10  13
ENDBRANCH   1  10
BRANCH   9  16
ATOM     16  C   UNL     1      -0.472  -0.048  -0.500  1.00  0.00     0.127 A 
ATOM     17  N   UNL     1       0.635  -0.724  -0.918  1.00  0.00    -0.232 NA
ATOM     18  N   UNL     1      -0.403   1.289  -0.724  1.00  0.00    -0.341 N 
ATOM     19  C   UNL     1       1.406   0.251  -1.429  1.00  0.00     0.089 A 
ATOM     20  C   UNL     1       0.786   1.458  -1.313  1.00  0.00     0.066 A 
ATOM     21  C   UNL     1       2.670   0.127  -2.003  1.00  0.00     0.030 A 
ATOM     22  C   UNL     1       1.372   2.641  -1.757  1.00  0.00     0.028 A 
ATOM     23  C   UNL     1       3.295   1.300  -2.466  1.00  0.00     0.002 A 
ATOM     24  C   UNL     1       2.649   2.553  -2.344  1.00  0.00     0.002 A 
ATOM     25  H   UNL     1      -1.109   2.021  -0.485  1.00  0.00     0.168 HD
ENDBRANCH   9  16
TORSDOF 3


