MODEL 1
REMARK VINA RESULT:      -4.2      0.000      0.000
REMARK SMILES CC(F)(F)C[N-]/C(O)=C\CSc1ccc([C@H]2O[C@@H]2C(=O)c2ccc(F)cc2)cc1F
REMARK SMILES IDX 10 1 9 2 7 3 8 4 6 6 5 7 2 8 3 9 4 10 1 11 11 12 12 13 13 14
REMARK SMILES IDX 29 15 14 16 28 17 15 18 30 19 16 20 17 21 18 22 19 23 20 24
REMARK SMILES IDX 21 25 22 26 27 27 23 28 26 29 24 30 25 31
REMARK H PARENT 8 5
ROOT
ATOM      1  C   UNL     1      46.820 132.724  22.903  1.00  0.00     0.104 C 
ENDROOT
BRANCH   1   2
ATOM      2  C   UNL     1      47.348 134.119  22.708  1.00  0.00     0.005 C 
BRANCH   2   3
ATOM      3  C   UNL     1      48.649 134.410  22.608  1.00  0.00     0.007 C 
BRANCH   3   4
ATOM      4  O   UNL     1      49.580 133.468  23.046  1.00  0.00    -0.531 OA
ATOM      5  H   UNL     1      50.302 133.691  23.719  1.00  0.00     0.290 HD
ENDBRANCH   3   4
BRANCH   3   6
ATOM      6  N   UNL     1      49.075 135.666  22.064  1.00  0.00    -0.650 NA
BRANCH   6   7
ATOM      7  C   UNL     1      49.448 135.877  20.674  1.00  0.00    -0.040 C 
BRANCH   7   8
ATOM      8  C   UNL     1      49.324 137.361  20.322  1.00  0.00     0.229 C 
ATOM      9  F   UNL     1      49.809 138.122  21.371  1.00  0.00    -0.209 F 
ATOM     10  F   UNL     1      50.073 137.637  19.189  1.00  0.00    -0.209 F 
ATOM     11  C   UNL     1      47.866 137.739  20.063  1.00  0.00     0.085 C 
ENDBRANCH   7   8
ENDBRANCH   6   7
ENDBRANCH   3   6
ENDBRANCH   2   3
ENDBRANCH   1   2
BRANCH   1  12
ATOM     12  S   UNL     1      44.995 132.717  22.869  1.00  0.00    -0.119 SA
BRANCH  12  13
ATOM     13  C   UNL     1      44.858 132.163  21.164  1.00  0.00     0.043 A 
ATOM     14  C   UNL     1      45.996 131.714  20.483  1.00  0.00     0.018 A 
ATOM     15  C   UNL     1      43.611 132.154  20.520  1.00  0.00     0.137 A 
ATOM     16  C   UNL     1      45.893 131.267  19.162  1.00  0.00     0.008 A 
ATOM     17  C   UNL     1      43.509 131.716  19.196  1.00  0.00     0.047 A 
ATOM     18  C   UNL     1      44.651 131.278  18.507  1.00  0.00    -0.013 A 
ATOM     19  F   UNL     1      42.495 132.562  21.176  1.00  0.00    -0.206 F 
BRANCH  18  20
ATOM     20  C   UNL     1      44.532 130.747  17.110  1.00  0.00     0.186 C 
ATOM     21  O   UNL     1      43.209 130.850  16.635  1.00  0.00    -0.356 OA
ATOM     22  C   UNL     1      44.147 131.734  16.067  1.00  0.00     0.224 C 
BRANCH  22  23
ATOM     23  C   UNL     1      44.468 131.363  14.649  1.00  0.00     0.194 C 
ATOM     24  O   UNL     1      43.578 131.514  13.767  1.00  0.00    -0.291 OA
BRANCH  23  25
ATOM     25  C   UNL     1      45.783 130.776  14.279  1.00  0.00     0.021 A 
ATOM     26  C   UNL     1      46.623 131.398  13.333  1.00  0.00     0.015 A 
ATOM     27  C   UNL     1      46.214 129.579  14.884  1.00  0.00     0.015 A 
ATOM     28  C   UNL     1      47.857 130.833  13.003  1.00  0.00     0.040 A 
ATOM     29  C   UNL     1      47.451 129.021  14.551  1.00  0.00     0.040 A 
ATOM     30  C   UNL     1      48.272 129.647  13.611  1.00  0.00     0.123 A 
ATOM     31  F   UNL     1      49.472 129.101  13.289  1.00  0.00    -0.207 F 
ENDBRANCH  23  25
ENDBRANCH  22  23
ENDBRANCH  18  20
ENDBRANCH  12  13
ENDBRANCH   1  12
TORSDOF 11
ENDMDL
MODEL 2
REMARK VINA RESULT:      -3.1      4.611      8.405
REMARK SMILES CC(F)(F)C[N-]/C(O)=C\CSc1ccc([C@H]2O[C@@H]2C(=O)c2ccc(F)cc2)cc1F
REMARK SMILES IDX 10 1 9 2 7 3 8 4 6 6 5 7 2 8 3 9 4 10 1 11 11 12 12 13 13 14
REMARK SMILES IDX 29 15 14 16 28 17 15 18 30 19 16 20 17 21 18 22 19 23 20 24
REMARK SMILES IDX 21 25 22 26 27 27 23 28 26 29 24 30 25 31
REMARK H PARENT 8 5
ROOT
ATOM      1  C   UNL     1      44.353 131.185  14.752  1.00  0.00     0.104 C 
ENDROOT
BRANCH   1   2
ATOM      2  C   UNL     1      45.160 130.420  15.766  1.00  0.00     0.005 C 
BRANCH   2   3
ATOM      3  C   UNL     1      45.882 129.334  15.469  1.00  0.00     0.007 C 
BRANCH   3   4
ATOM      4  O   UNL     1      45.259 128.088  15.504  1.00  0.00    -0.531 OA
ATOM      5  H   UNL     1      44.367 127.939  15.958  1.00  0.00     0.290 HD
ENDBRANCH   3   4
BRANCH   3   6
ATOM      6  N   UNL     1      47.269 129.454  15.127  1.00  0.00    -0.650 NA
BRANCH   6   7
ATOM      7  C   UNL     1      47.775 129.564  13.767  1.00  0.00    -0.040 C 
BRANCH   7   8
ATOM      8  C   UNL     1      47.395 130.924  13.180  1.00  0.00     0.229 C 
ATOM      9  F   UNL     1      46.069 130.898  12.785  1.00  0.00    -0.209 F 
ATOM     10  F   UNL     1      47.553 131.909  14.142  1.00  0.00    -0.209 F 
ATOM     11  C   UNL     1      48.269 131.260  11.973  1.00  0.00     0.085 C 
ENDBRANCH   7   8
ENDBRANCH   6   7
ENDBRANCH   3   6
ENDBRANCH   2   3
ENDBRANCH   1   2
BRANCH   1  12
ATOM     12  S   UNL     1      43.294 132.422  15.575  1.00  0.00    -0.119 SA
BRANCH  12  13
ATOM     13  C   UNL     1      43.646 131.863  17.247  1.00  0.00     0.043 A 
ATOM     14  C   UNL     1      44.921 131.384  17.568  1.00  0.00     0.018 A 
ATOM     15  C   UNL     1      42.655 131.929  18.239  1.00  0.00     0.137 A 
ATOM     16  C   UNL     1      45.206 130.964  18.871  1.00  0.00     0.008 A 
ATOM     17  C   UNL     1      42.936 131.500  19.540  1.00  0.00     0.047 A 
ATOM     18  C   UNL     1      44.210 131.007  19.860  1.00  0.00    -0.013 A 
ATOM     19  F   UNL     1      41.421 132.416  17.949  1.00  0.00    -0.206 F 
BRANCH  18  20
ATOM     20  C   UNL     1      44.532 130.607  21.270  1.00  0.00     0.186 C 
ATOM     21  O   UNL     1      44.375 131.692  22.157  1.00  0.00    -0.356 OA
ATOM     22  C   UNL     1      43.408 130.671  22.239  1.00  0.00     0.224 C 
BRANCH  22  23
ATOM     23  C   UNL     1      43.563 129.862  23.494  1.00  0.00     0.194 C 
ATOM     24  O   UNL     1      43.433 130.441  24.608  1.00  0.00    -0.291 OA
BRANCH  23  25
ATOM     25  C   UNL     1      43.918 128.420  23.447  1.00  0.00     0.021 A 
ATOM     26  C   UNL     1      43.026 127.430  23.908  1.00  0.00     0.015 A 
ATOM     27  C   UNL     1      45.164 128.019  22.927  1.00  0.00     0.015 A 
ATOM     28  C   UNL     1      43.376 126.079  23.851  1.00  0.00     0.040 A 
ATOM     29  C   UNL     1      45.507 126.665  22.871  1.00  0.00     0.040 A 
ATOM     30  C   UNL     1      44.614 125.696  23.333  1.00  0.00     0.123 A 
ATOM     31  F   UNL     1      44.952 124.383  23.278  1.00  0.00    -0.207 F 
ENDBRANCH  23  25
ENDBRANCH  22  23
ENDBRANCH  18  20
ENDBRANCH  12  13
ENDBRANCH   1  12
TORSDOF 11
ENDMDL
MODEL 3
REMARK VINA RESULT:      -3.0      2.605      4.063
REMARK SMILES CC(F)(F)C[N-]/C(O)=C\CSc1ccc([C@H]2O[C@@H]2C(=O)c2ccc(F)cc2)cc1F
REMARK SMILES IDX 10 1 9 2 7 3 8 4 6 6 5 7 2 8 3 9 4 10 1 11 11 12 12 13 13 14
REMARK SMILES IDX 29 15 14 16 28 17 15 18 30 19 16 20 17 21 18 22 19 23 20 24
REMARK SMILES IDX 21 25 22 26 27 27 23 28 26 29 24 30 25 31
REMARK H PARENT 8 5
ROOT
ATOM      1  C   UNL     1      51.041 135.199  22.782  1.00  0.00     0.104 C 
ENDROOT
BRANCH   1   2
ATOM      2  C   UNL     1      51.976 136.357  23.002  1.00  0.00     0.005 C 
BRANCH   2   3
ATOM      3  C   UNL     1      51.604 137.637  22.899  1.00  0.00     0.007 C 
BRANCH   3   4
ATOM      4  O   UNL     1      52.454 138.621  23.403  1.00  0.00    -0.531 OA
ATOM      5  H   UNL     1      53.066 138.459  24.191  1.00  0.00     0.290 HD
ENDBRANCH   3   4
BRANCH   3   6
ATOM      6  N   UNL     1      50.356 137.987  22.288  1.00  0.00    -0.650 NA
BRANCH   6   7
ATOM      7  C   UNL     1      50.228 138.709  21.031  1.00  0.00    -0.040 C 
BRANCH   7   8
ATOM      8  C   UNL     1      49.314 137.937  20.078  1.00  0.00     0.229 C 
ATOM      9  F   UNL     1      48.320 137.307  20.807  1.00  0.00    -0.209 F 
ATOM     10  F   UNL     1      48.720 138.815  19.185  1.00  0.00    -0.209 F 
ATOM     11  C   UNL     1      50.103 136.887  19.297  1.00  0.00     0.085 C 
ENDBRANCH   7   8
ENDBRANCH   6   7
ENDBRANCH   3   6
ENDBRANCH   2   3
ENDBRANCH   1   2
BRANCH   1  12
ATOM     12  S   UNL     1      49.738 135.174  24.060  1.00  0.00    -0.119 SA
BRANCH  12  13
ATOM     13  C   UNL     1      48.564 134.221  23.088  1.00  0.00     0.043 A 
ATOM     14  C   UNL     1      48.993 133.553  21.935  1.00  0.00     0.018 A 
ATOM     15  C   UNL     1      47.224 134.122  23.494  1.00  0.00     0.137 A 
ATOM     16  C   UNL     1      48.088 132.796  21.184  1.00  0.00     0.008 A 
ATOM     17  C   UNL     1      46.317 133.373  22.738  1.00  0.00     0.047 A 
ATOM     18  C   UNL     1      46.742 132.713  21.575  1.00  0.00    -0.013 A 
ATOM     19  F   UNL     1      46.800 134.743  24.625  1.00  0.00    -0.206 F 
BRANCH  18  20
ATOM     20  C   UNL     1      45.785 131.857  20.800  1.00  0.00     0.186 C 
ATOM     21  O   UNL     1      44.450 132.117  21.173  1.00  0.00    -0.356 OA
ATOM     22  C   UNL     1      44.845 132.578  19.901  1.00  0.00     0.224 C 
BRANCH  22  23
ATOM     23  C   UNL     1      44.223 131.768  18.802  1.00  0.00     0.194 C 
ATOM     24  O   UNL     1      43.014 131.423  18.913  1.00  0.00    -0.291 OA
BRANCH  23  25
ATOM     25  C   UNL     1      45.012 131.325  17.623  1.00  0.00     0.021 A 
ATOM     26  C   UNL     1      45.575 130.035  17.560  1.00  0.00     0.015 A 
ATOM     27  C   UNL     1      45.204 132.202  16.536  1.00  0.00     0.015 A 
ATOM     28  C   UNL     1      46.310 129.636  16.441  1.00  0.00     0.040 A 
ATOM     29  C   UNL     1      45.938 131.795  15.419  1.00  0.00     0.040 A 
ATOM     30  C   UNL     1      46.491 130.514  15.371  1.00  0.00     0.123 A 
ATOM     31  F   UNL     1      47.205 130.124  14.284  1.00  0.00    -0.207 F 
ENDBRANCH  23  25
ENDBRANCH  22  23
ENDBRANCH  18  20
ENDBRANCH  12  13
ENDBRANCH   1  12
TORSDOF 11
ENDMDL
MODEL 4
REMARK VINA RESULT:      -2.9      6.892      9.438
REMARK SMILES CC(F)(F)C[N-]/C(O)=C\CSc1ccc([C@H]2O[C@@H]2C(=O)c2ccc(F)cc2)cc1F
REMARK SMILES IDX 10 1 9 2 7 3 8 4 6 6 5 7 2 8 3 9 4 10 1 11 11 12 12 13 13 14
REMARK SMILES IDX 29 15 14 16 28 17 15 18 30 19 16 20 17 21 18 22 19 23 20 24
REMARK SMILES IDX 21 25 22 26 27 27 23 28 26 29 24 30 25 31
REMARK H PARENT 8 5
ROOT
ATOM      1  C   UNL     1      46.393 123.476  22.210  1.00  0.00     0.104 C 
ENDROOT
BRANCH   1   2
ATOM      2  C   UNL     1      47.658 124.188  21.818  1.00  0.00     0.005 C 
BRANCH   2   3
ATOM      3  C   UNL     1      48.685 123.588  21.206  1.00  0.00     0.007 C 
BRANCH   3   4
ATOM      4  O   UNL     1      48.846 123.774  19.834  1.00  0.00    -0.531 OA
ATOM      5  H   UNL     1      48.560 124.622  19.363  1.00  0.00     0.290 HD
ENDBRANCH   3   4
BRANCH   3   6
ATOM      6  N   UNL     1      49.597 122.768  21.949  1.00  0.00    -0.650 NA
BRANCH   6   7
ATOM      7  C   UNL     1      50.915 123.196  22.392  1.00  0.00    -0.040 C 
BRANCH   7   8
ATOM      8  C   UNL     1      51.416 124.338  21.506  1.00  0.00     0.229 C 
ATOM      9  F   UNL     1      52.460 123.883  20.719  1.00  0.00    -0.209 F 
ATOM     10  F   UNL     1      50.392 124.770  20.678  1.00  0.00    -0.209 F 
ATOM     11  C   UNL     1      51.904 125.512  22.353  1.00  0.00     0.085 C 
ENDBRANCH   7   8
ENDBRANCH   6   7
ENDBRANCH   3   6
ENDBRANCH   2   3
ENDBRANCH   1   2
BRANCH   1  12
ATOM     12  S   UNL     1      46.043 123.717  23.985  1.00  0.00    -0.119 SA
BRANCH  12  13
ATOM     13  C   UNL     1      45.197 125.290  23.780  1.00  0.00     0.043 A 
ATOM     14  C   UNL     1      43.865 125.424  24.189  1.00  0.00     0.018 A 
ATOM     15  C   UNL     1      45.874 126.392  23.235  1.00  0.00     0.137 A 
ATOM     16  C   UNL     1      43.207 126.649  24.047  1.00  0.00     0.008 A 
ATOM     17  C   UNL     1      45.213 127.615  23.084  1.00  0.00     0.047 A 
ATOM     18  C   UNL     1      43.874 127.748  23.481  1.00  0.00    -0.013 A 
ATOM     19  F   UNL     1      47.174 126.285  22.858  1.00  0.00    -0.206 F 
BRANCH  18  20
ATOM     20  C   UNL     1      43.184 129.076  23.381  1.00  0.00     0.186 C 
ATOM     21  O   UNL     1      43.255 129.782  24.599  1.00  0.00    -0.356 OA
ATOM     22  C   UNL     1      44.049 130.274  23.544  1.00  0.00     0.224 C 
BRANCH  22  23
ATOM     23  C   UNL     1      43.508 131.564  23.001  1.00  0.00     0.194 C 
ATOM     24  O   UNL     1      43.175 132.472  23.813  1.00  0.00    -0.291 OA
BRANCH  23  25
ATOM     25  C   UNL     1      43.311 131.769  21.542  1.00  0.00     0.021 A 
ATOM     26  C   UNL     1      42.087 132.239  21.027  1.00  0.00     0.015 A 
ATOM     27  C   UNL     1      44.364 131.497  20.646  1.00  0.00     0.015 A 
ATOM     28  C   UNL     1      41.923 132.429  19.652  1.00  0.00     0.040 A 
ATOM     29  C   UNL     1      44.193 131.692  19.273  1.00  0.00     0.040 A 
ATOM     30  C   UNL     1      42.975 132.157  18.776  1.00  0.00     0.123 A 
ATOM     31  F   UNL     1      42.813 132.343  17.441  1.00  0.00    -0.207 F 
ENDBRANCH  23  25
ENDBRANCH  22  23
ENDBRANCH  18  20
ENDBRANCH  12  13
ENDBRANCH   1  12
TORSDOF 11
ENDMDL
MODEL 5
REMARK VINA RESULT:      -2.2      1.053      1.265
REMARK SMILES CC(F)(F)C[N-]/C(O)=C\CSc1ccc([C@H]2O[C@@H]2C(=O)c2ccc(F)cc2)cc1F
REMARK SMILES IDX 10 1 9 2 7 3 8 4 6 6 5 7 2 8 3 9 4 10 1 11 11 12 12 13 13 14
REMARK SMILES IDX 29 15 14 16 28 17 15 18 30 19 16 20 17 21 18 22 19 23 20 24
REMARK SMILES IDX 21 25 22 26 27 27 23 28 26 29 24 30 25 31
REMARK H PARENT 8 5
ROOT
ATOM      1  C   UNL     1      44.774 133.191  23.123  1.00  0.00     0.104 C 
ENDROOT
BRANCH   1   2
ATOM      2  C   UNL     1      45.915 133.713  22.294  1.00  0.00     0.005 C 
BRANCH   2   3
ATOM      3  C   UNL     1      46.982 134.332  22.811  1.00  0.00     0.007 C 
BRANCH   3   4
ATOM      4  O   UNL     1      47.423 133.956  24.079  1.00  0.00    -0.531 OA
ATOM      5  H   UNL     1      46.844 134.042  24.903  1.00  0.00     0.290 HD
ENDBRANCH   3   4
BRANCH   3   6
ATOM      6  N   UNL     1      47.652 135.365  22.076  1.00  0.00    -0.650 NA
BRANCH   6   7
ATOM      7  C   UNL     1      49.034 135.290  21.627  1.00  0.00    -0.040 C 
BRANCH   7   8
ATOM      8  C   UNL     1      49.418 136.587  20.910  1.00  0.00     0.229 C 
ATOM      9  F   UNL     1      48.269 137.238  20.495  1.00  0.00    -0.209 F 
ATOM     10  F   UNL     1      50.108 137.415  21.781  1.00  0.00    -0.209 F 
ATOM     11  C   UNL     1      50.296 136.297  19.693  1.00  0.00     0.085 C 
ENDBRANCH   7   8
ENDBRANCH   6   7
ENDBRANCH   3   6
ENDBRANCH   2   3
ENDBRANCH   1   2
BRANCH   1  12
ATOM     12  S   UNL     1      44.798 131.368  23.174  1.00  0.00    -0.119 SA
BRANCH  12  13
ATOM     13  C   UNL     1      44.883 131.149  21.392  1.00  0.00     0.043 A 
ATOM     14  C   UNL     1      45.959 130.455  20.825  1.00  0.00     0.018 A 
ATOM     15  C   UNL     1      43.862 131.647  20.567  1.00  0.00     0.137 A 
ATOM     16  C   UNL     1      46.022 130.267  19.441  1.00  0.00     0.008 A 
ATOM     17  C   UNL     1      43.930 131.468  19.182  1.00  0.00     0.047 A 
ATOM     18  C   UNL     1      45.015 130.784  18.611  1.00  0.00    -0.013 A 
ATOM     19  F   UNL     1      42.799 132.299  21.105  1.00  0.00    -0.206 F 
BRANCH  18  20
ATOM     20  C   UNL     1      45.055 130.535  17.133  1.00  0.00     0.186 C 
ATOM     21  O   UNL     1      43.781 130.192  16.637  1.00  0.00    -0.356 OA
ATOM     22  C   UNL     1      44.264 131.469  16.291  1.00  0.00     0.224 C 
BRANCH  22  23
ATOM     23  C   UNL     1      44.642 131.543  14.840  1.00  0.00     0.194 C 
ATOM     24  O   UNL     1      43.861 132.125  14.038  1.00  0.00    -0.291 OA
BRANCH  23  25
ATOM     25  C   UNL     1      45.881 130.900  14.329  1.00  0.00     0.021 A 
ATOM     26  C   UNL     1      46.675 131.519  13.343  1.00  0.00     0.015 A 
ATOM     27  C   UNL     1      46.286 129.650  14.837  1.00  0.00     0.015 A 
ATOM     28  C   UNL     1      47.839 130.902  12.879  1.00  0.00     0.040 A 
ATOM     29  C   UNL     1      47.452 129.039  14.370  1.00  0.00     0.040 A 
ATOM     30  C   UNL     1      48.228 129.663  13.393  1.00  0.00     0.123 A 
ATOM     31  F   UNL     1      49.360 129.065  12.940  1.00  0.00    -0.207 F 
ENDBRANCH  23  25
ENDBRANCH  22  23
ENDBRANCH  18  20
ENDBRANCH  12  13
ENDBRANCH   1  12
TORSDOF 11
ENDMDL
MODEL 6
REMARK VINA RESULT:      -2.2      1.273      1.513
REMARK SMILES CC(F)(F)C[N-]/C(O)=C\CSc1ccc([C@H]2O[C@@H]2C(=O)c2ccc(F)cc2)cc1F
REMARK SMILES IDX 10 1 9 2 7 3 8 4 6 6 5 7 2 8 3 9 4 10 1 11 11 12 12 13 13 14
REMARK SMILES IDX 29 15 14 16 28 17 15 18 30 19 16 20 17 21 18 22 19 23 20 24
REMARK SMILES IDX 21 25 22 26 27 27 23 28 26 29 24 30 25 31
REMARK H PARENT 8 5
ROOT
ATOM      1  C   UNL     1      47.032 132.998  23.346  1.00  0.00     0.104 C 
ENDROOT
BRANCH   1   2
ATOM      2  C   UNL     1      47.364 134.440  23.615  1.00  0.00     0.005 C 
BRANCH   2   3
ATOM      3  C   UNL     1      47.708 135.310  22.659  1.00  0.00     0.007 C 
BRANCH   3   4
ATOM      4  O   UNL     1      46.700 136.022  22.010  1.00  0.00    -0.531 OA
ATOM      5  H   UNL     1      46.404 136.941  22.311  1.00  0.00     0.290 HD
ENDBRANCH   3   4
BRANCH   3   6
ATOM      6  N   UNL     1      49.085 135.501  22.310  1.00  0.00    -0.650 NA
BRANCH   6   7
ATOM      7  C   UNL     1      49.568 135.716  20.954  1.00  0.00    -0.040 C 
BRANCH   7   8
ATOM      8  C   UNL     1      50.520 136.913  20.926  1.00  0.00     0.229 C 
ATOM      9  F   UNL     1      51.267 136.876  19.761  1.00  0.00    -0.209 F 
ATOM     10  F   UNL     1      49.791 138.091  20.949  1.00  0.00    -0.209 F 
ATOM     11  C   UNL     1      51.465 136.886  22.126  1.00  0.00     0.085 C 
ENDBRANCH   7   8
ENDBRANCH   6   7
ENDBRANCH   3   6
ENDBRANCH   2   3
ENDBRANCH   1   2
BRANCH   1  12
ATOM     12  S   UNL     1      45.278 132.661  23.723  1.00  0.00    -0.119 SA
BRANCH  12  13
ATOM     13  C   UNL     1      44.816 132.256  22.033  1.00  0.00     0.043 A 
ATOM     14  C   UNL     1      45.809 132.054  21.068  1.00  0.00     0.018 A 
ATOM     15  C   UNL     1      43.463 132.117  21.683  1.00  0.00     0.137 A 
ATOM     16  C   UNL     1      45.456 131.722  19.757  1.00  0.00     0.008 A 
ATOM     17  C   UNL     1      43.110 131.795  20.370  1.00  0.00     0.047 A 
ATOM     18  C   UNL     1      44.103 131.604  19.397  1.00  0.00    -0.013 A 
ATOM     19  F   UNL     1      42.490 132.284  22.616  1.00  0.00    -0.206 F 
BRANCH  18  20
ATOM     20  C   UNL     1      43.728 131.195  18.004  1.00  0.00     0.186 C 
ATOM     21  O   UNL     1      42.896 132.157  17.396  1.00  0.00    -0.356 OA
ATOM     22  C   UNL     1      44.217 132.075  16.911  1.00  0.00     0.224 C 
BRANCH  22  23
ATOM     23  C   UNL     1      44.265 131.469  15.539  1.00  0.00     0.194 C 
ATOM     24  O   UNL     1      43.204 131.424  14.857  1.00  0.00    -0.291 OA
BRANCH  23  25
ATOM     25  C   UNL     1      45.517 130.877  14.997  1.00  0.00     0.021 A 
ATOM     26  C   UNL     1      45.996 131.221  13.717  1.00  0.00     0.015 A 
ATOM     27  C   UNL     1      46.252 129.958  15.771  1.00  0.00     0.015 A 
ATOM     28  C   UNL     1      47.176 130.658  13.227  1.00  0.00     0.040 A 
ATOM     29  C   UNL     1      47.433 129.400  15.276  1.00  0.00     0.040 A 
ATOM     30  C   UNL     1      47.896 129.749  14.006  1.00  0.00     0.123 A 
ATOM     31  F   UNL     1      49.043 129.203  13.528  1.00  0.00    -0.207 F 
ENDBRANCH  23  25
ENDBRANCH  22  23
ENDBRANCH  18  20
ENDBRANCH  12  13
ENDBRANCH   1  12
TORSDOF 11
ENDMDL
MODEL 7
REMARK VINA RESULT:      -1.4      2.273      3.424
REMARK SMILES CC(F)(F)C[N-]/C(O)=C\CSc1ccc([C@H]2O[C@@H]2C(=O)c2ccc(F)cc2)cc1F
REMARK SMILES IDX 10 1 9 2 7 3 8 4 6 6 5 7 2 8 3 9 4 10 1 11 11 12 12 13 13 14
REMARK SMILES IDX 29 15 14 16 28 17 15 18 30 19 16 20 17 21 18 22 19 23 20 24
REMARK SMILES IDX 21 25 22 26 27 27 23 28 26 29 24 30 25 31
REMARK H PARENT 8 5
ROOT
ATOM      1  C   UNL     1      49.531 135.691  23.285  1.00  0.00     0.104 C 
ENDROOT
BRANCH   1   2
ATOM      2  C   UNL     1      49.345 135.475  21.808  1.00  0.00     0.005 C 
BRANCH   2   3
ATOM      3  C   UNL     1      48.996 136.447  20.957  1.00  0.00     0.007 C 
BRANCH   3   4
ATOM      4  O   UNL     1      47.704 136.966  21.031  1.00  0.00    -0.531 OA
ATOM      5  H   UNL     1      47.370 137.479  21.836  1.00  0.00     0.290 HD
ENDBRANCH   3   4
BRANCH   3   6
ATOM      6  N   UNL     1      49.931 136.937  19.988  1.00  0.00    -0.650 NA
BRANCH   6   7
ATOM      7  C   UNL     1      49.631 137.128  18.577  1.00  0.00    -0.040 C 
BRANCH   7   8
ATOM      8  C   UNL     1      49.331 138.603  18.304  1.00  0.00     0.229 C 
ATOM      9  F   UNL     1      49.827 139.370  19.345  1.00  0.00    -0.209 F 
ATOM     10  F   UNL     1      49.950 138.996  17.128  1.00  0.00    -0.209 F 
ATOM     11  C   UNL     1      47.827 138.840  18.181  1.00  0.00     0.085 C 
ENDBRANCH   7   8
ENDBRANCH   6   7
ENDBRANCH   3   6
ENDBRANCH   2   3
ENDBRANCH   1   2
BRANCH   1  12
ATOM     12  S   UNL     1      49.297 134.127  24.196  1.00  0.00    -0.119 SA
BRANCH  12  13
ATOM     13  C   UNL     1      48.107 133.433  23.042  1.00  0.00     0.043 A 
ATOM     14  C   UNL     1      48.553 132.809  21.871  1.00  0.00     0.018 A 
ATOM     15  C   UNL     1      46.733 133.490  23.322  1.00  0.00     0.137 A 
ATOM     16  C   UNL     1      47.634 132.253  20.977  1.00  0.00     0.008 A 
ATOM     17  C   UNL     1      45.812 132.942  22.424  1.00  0.00     0.047 A 
ATOM     18  C   UNL     1      46.257 132.328  21.243  1.00  0.00    -0.013 A 
ATOM     19  F   UNL     1      46.287 134.068  24.467  1.00  0.00    -0.206 F 
BRANCH  18  20
ATOM     20  C   UNL     1      45.274 131.683  20.311  1.00  0.00     0.186 C 
ATOM     21  O   UNL     1      43.990 132.248  20.451  1.00  0.00    -0.356 OA
ATOM     22  C   UNL     1      44.687 132.564  19.268  1.00  0.00     0.224 C 
BRANCH  22  23
ATOM     23  C   UNL     1      44.091 131.878  18.075  1.00  0.00     0.194 C 
ATOM     24  O   UNL     1      42.837 131.746  18.014  1.00  0.00    -0.291 OA
BRANCH  23  25
ATOM     25  C   UNL     1      44.946 131.308  17.000  1.00  0.00     0.021 A 
ATOM     26  C   UNL     1      45.042 129.917  16.800  1.00  0.00     0.015 A 
ATOM     27  C   UNL     1      45.675 132.167  16.154  1.00  0.00     0.015 A 
ATOM     28  C   UNL     1      45.848 129.402  15.782  1.00  0.00     0.040 A 
ATOM     29  C   UNL     1      46.477 131.645  15.136  1.00  0.00     0.040 A 
ATOM     30  C   UNL     1      46.564 130.264  14.949  1.00  0.00     0.123 A 
ATOM     31  F   UNL     1      47.346 129.761  13.961  1.00  0.00    -0.207 F 
ENDBRANCH  23  25
ENDBRANCH  22  23
ENDBRANCH  18  20
ENDBRANCH  12  13
ENDBRANCH   1  12
TORSDOF 11
ENDMDL
MODEL 8
REMARK VINA RESULT:      -1.4      1.975      2.609
REMARK SMILES CC(F)(F)C[N-]/C(O)=C\CSc1ccc([C@H]2O[C@@H]2C(=O)c2ccc(F)cc2)cc1F
REMARK SMILES IDX 10 1 9 2 7 3 8 4 6 6 5 7 2 8 3 9 4 10 1 11 11 12 12 13 13 14
REMARK SMILES IDX 29 15 14 16 28 17 15 18 30 19 16 20 17 21 18 22 19 23 20 24
REMARK SMILES IDX 21 25 22 26 27 27 23 28 26 29 24 30 25 31
REMARK H PARENT 8 5
ROOT
ATOM      1  C   UNL     1      47.573 133.859  23.906  1.00  0.00     0.104 C 
ENDROOT
BRANCH   1   2
ATOM      2  C   UNL     1      47.628 134.279  22.463  1.00  0.00     0.005 C 
BRANCH   2   3
ATOM      3  C   UNL     1      48.426 135.250  22.005  1.00  0.00     0.007 C 
BRANCH   3   4
ATOM      4  O   UNL     1      47.888 136.206  21.145  1.00  0.00    -0.531 OA
ATOM      5  H   UNL     1      48.132 137.186  21.202  1.00  0.00     0.290 HD
ENDBRANCH   3   4
BRANCH   3   6
ATOM      6  N   UNL     1      49.806 135.299  22.390  1.00  0.00    -0.650 NA
BRANCH   6   7
ATOM      7  C   UNL     1      50.803 136.159  21.769  1.00  0.00    -0.040 C 
BRANCH   7   8
ATOM      8  C   UNL     1      51.051 137.386  22.648  1.00  0.00     0.229 C 
ATOM      9  F   UNL     1      50.409 138.482  22.096  1.00  0.00    -0.209 F 
ATOM     10  F   UNL     1      50.539 137.164  23.916  1.00  0.00    -0.209 F 
ATOM     11  C   UNL     1      52.546 137.686  22.757  1.00  0.00     0.085 C 
ENDBRANCH   7   8
ENDBRANCH   6   7
ENDBRANCH   3   6
ENDBRANCH   2   3
ENDBRANCH   1   2
BRANCH   1  12
ATOM     12  S   UNL     1      45.906 133.253  24.335  1.00  0.00    -0.119 SA
BRANCH  12  13
ATOM     13  C   UNL     1      45.530 132.612  22.699  1.00  0.00     0.043 A 
ATOM     14  C   UNL     1      45.901 133.340  21.562  1.00  0.00     0.018 A 
ATOM     15  C   UNL     1      44.889 131.371  22.554  1.00  0.00     0.137 A 
ATOM     16  C   UNL     1      45.627 132.839  20.287  1.00  0.00     0.008 A 
ATOM     17  C   UNL     1      44.606 130.874  21.278  1.00  0.00     0.047 A 
ATOM     18  C   UNL     1      44.965 131.609  20.138  1.00  0.00    -0.013 A 
ATOM     19  F   UNL     1      44.547 130.642  23.647  1.00  0.00    -0.206 F 
BRANCH  18  20
ATOM     20  C   UNL     1      44.721 131.047  18.769  1.00  0.00     0.186 C 
ATOM     21  O   UNL     1      45.073 131.972  17.766  1.00  0.00    -0.356 OA
ATOM     22  C   UNL     1      45.923 130.859  17.916  1.00  0.00     0.224 C 
BRANCH  22  23
ATOM     23  C   UNL     1      45.784 129.899  16.771  1.00  0.00     0.194 C 
ATOM     24  O   UNL     1      45.185 128.805  16.966  1.00  0.00    -0.291 OA
BRANCH  23  25
ATOM     25  C   UNL     1      46.380 130.188  15.441  1.00  0.00     0.021 A 
ATOM     26  C   UNL     1      47.546 129.529  15.001  1.00  0.00     0.015 A 
ATOM     27  C   UNL     1      45.774 131.133  14.590  1.00  0.00     0.015 A 
ATOM     28  C   UNL     1      48.088 129.811  13.745  1.00  0.00     0.040 A 
ATOM     29  C   UNL     1      46.321 131.409  13.334  1.00  0.00     0.040 A 
ATOM     30  C   UNL     1      47.477 130.749  12.911  1.00  0.00     0.123 A 
ATOM     31  F   UNL     1      48.006 131.021  11.691  1.00  0.00    -0.207 F 
ENDBRANCH  23  25
ENDBRANCH  22  23
ENDBRANCH  18  20
ENDBRANCH  12  13
ENDBRANCH   1  12
TORSDOF 11
ENDMDL


