REMARK SMILES C=Cc1cc(-c2ccc(C(C)=O)nc2)cc([NH2+]c2ccc(C)c(F)c2)c1[O-]
REMARK SMILES IDX 3 1 4 2 5 3 15 4 16 5 26 6 27 7 2 8 1 9 6 10 7 11 14 12 8 13
REMARK SMILES IDX 13 14 9 15 10 16 11 17 12 18 17 19 18 22 19 23 25 24 20 25
REMARK SMILES IDX 23 26 21 27 24 28 22 29
REMARK H PARENT 17 20 17 21
ROOT
ATOM      1  C   UNL     1       0.702  -2.246  -0.723  1.00  0.00    -0.028 A 
ATOM      2  C   UNL     1       0.430  -1.055  -1.421  1.00  0.00     0.016 A 
ATOM      3  C   UNL     1       0.442   0.186  -0.766  1.00  0.00    -0.010 A 
ATOM      4  C   UNL     1       0.740   0.232   0.604  1.00  0.00     0.076 A 
ATOM      5  C   UNL     1       1.033  -0.940   1.320  1.00  0.00     0.127 A 
ATOM      6  C   UNL     1       1.013  -2.181   0.649  1.00  0.00    -0.038 A 
ATOM      7  O   UNL     1       1.296  -3.349   1.351  1.00  0.00    -0.868 OA
ENDROOT
BRANCH   1   8
ATOM      8  C   UNL     1       0.705  -3.564  -1.410  1.00  0.00    -0.000 C 
ATOM      9  C   UNL     1       0.005  -3.824  -2.515  1.00  0.00     0.009 C 
ENDBRANCH   1   8
BRANCH   3  10
ATOM     10  C   UNL     1       0.145   1.435  -1.513  1.00  0.00     0.000 A 
ATOM     11  C   UNL     1      -0.880   1.474  -2.471  1.00  0.00     0.013 A 
ATOM     12  C   UNL     1       0.880   2.609  -1.278  1.00  0.00     0.120 A 
ATOM     13  C   UNL     1      -1.152   2.655  -3.165  1.00  0.00     0.033 A 
ATOM     14  N   UNL     1       0.598   3.746  -1.967  1.00  0.00    -0.253 NA
ATOM     15  C   UNL     1      -0.393   3.804  -2.899  1.00  0.00     0.106 A 
BRANCH  15  16
ATOM     16  C   UNL     1      -0.652   5.072  -3.614  1.00  0.00     0.178 C 
ATOM     17  C   UNL     1       0.165   6.293  -3.322  1.00  0.00     0.095 C 
ATOM     18  O   UNL     1      -1.566   5.139  -4.480  1.00  0.00    -0.293 OA
ENDBRANCH  15  16
ENDBRANCH   3  10
BRANCH   5  19
ATOM     19  N   UNL     1       1.304  -0.866   2.737  1.00  0.00    -0.282 N 
ATOM     20  H   UNL     1       1.958  -1.629   3.029  1.00  0.00     0.358 HD
ATOM     21  H   UNL     1       1.787   0.036   2.962  1.00  0.00     0.358 HD
BRANCH  19  22
ATOM     22  C   UNL     1       0.068  -0.954   3.477  1.00  0.00     0.137 A 
ATOM     23  C   UNL     1      -0.404  -2.196   3.934  1.00  0.00     0.068 A 
ATOM     24  C   UNL     1      -0.701   0.199   3.717  1.00  0.00     0.107 A 
ATOM     25  C   UNL     1      -1.617  -2.283   4.624  1.00  0.00     0.012 A 
ATOM     26  C   UNL     1      -1.914   0.113   4.407  1.00  0.00     0.132 A 
ATOM     27  C   UNL     1      -2.374  -1.129   4.875  1.00  0.00    -0.015 A 
ATOM     28  F   UNL     1      -2.641   1.240   4.616  1.00  0.00    -0.206 F 
ATOM     29  C   UNL     1      -3.690  -1.226   5.591  1.00  0.00     0.047 C 
ENDBRANCH  19  22
ENDBRANCH   5  19
TORSDOF 5


