REMARK SMILES Nc1cccc(Nc2cc(F)cc3cc[nH]c23)c1[O-]
REMARK SMILES IDX 2 1 3 2 4 3 5 4 6 5 18 6 19 7 1 8 7 11 8 13 9 14 17 15 10 16
REMARK SMILES IDX 16 17 13 18 12 19 15 20 14 21 11 22
REMARK H PARENT 1 9 1 10 7 12 16 23
ROOT
ATOM      1  C   UNL     1      -0.513  -2.988  -1.305  1.00  0.00     0.025 A 
ATOM      2  C   UNL     1      -1.103  -4.064  -0.626  1.00  0.00     0.025 A 
ATOM      3  C   UNL     1      -1.070  -4.121   0.768  1.00  0.00     0.004 A 
ATOM      4  C   UNL     1      -0.461  -3.098   1.497  1.00  0.00     0.025 A 
ATOM      5  C   UNL     1       0.110  -2.000   0.839  1.00  0.00     0.033 A 
ATOM      6  C   UNL     1       0.106  -1.959  -0.571  1.00  0.00    -0.061 A 
ATOM      7  O   UNL     1       0.737  -0.915  -1.241  1.00  0.00    -0.870 OA
ENDROOT
BRANCH   1   8
ATOM      8  N   UNL     1      -0.539  -2.953  -2.736  1.00  0.00    -0.399 N 
ATOM      9  H   UNL     1      -0.994  -3.720  -3.279  1.00  0.00     0.156 HD
ATOM     10  H   UNL     1      -0.109  -2.164  -3.268  1.00  0.00     0.156 HD
ENDBRANCH   1   8
BRANCH   5  11
ATOM     11  N   UNL     1       0.736  -0.967   1.617  1.00  0.00    -0.354 N 
ATOM     12  H   UNL     1       1.265  -1.255   2.470  1.00  0.00     0.167 HD
BRANCH  11  13
ATOM     13  C   UNL     1       0.553   0.439   1.375  1.00  0.00     0.066 A 
ATOM     14  C   UNL     1      -0.622   0.943   0.767  1.00  0.00     0.067 A 
ATOM     15  C   UNL     1       1.513   1.373   1.787  1.00  0.00     0.069 A 
ATOM     16  C   UNL     1      -0.792   2.331   0.569  1.00  0.00     0.126 A 
ATOM     17  N   UNL     1       2.697   1.133   2.380  1.00  0.00    -0.359 N 
ATOM     18  C   UNL     1       1.339   2.719   1.591  1.00  0.00     0.004 A 
ATOM     19  C   UNL     1       0.200   3.237   0.983  1.00  0.00     0.049 A 
ATOM     20  C   UNL     1       3.273   2.343   2.565  1.00  0.00     0.083 A 
ATOM     21  C   UNL     1       2.455   3.359   2.085  1.00  0.00     0.028 A 
ATOM     22  F   UNL     1      -1.923   2.794  -0.019  1.00  0.00    -0.207 F 
ATOM     23  H   UNL     1       3.106   0.209   2.639  1.00  0.00     0.166 HD
ENDBRANCH  11  13
ENDBRANCH   5  11
TORSDOF 3


