REMARK SMILES C=Cc1ccc(N)c(-c2ccc3c(c2)[N-]C(=O)C3)c1
REMARK SMILES IDX 3 1 4 2 5 3 6 4 8 5 19 6 2 7 1 8 9 9 10 10 14 11 11 12 13 13
REMARK SMILES IDX 12 14 15 15 18 16 16 17 17 18 7 19
REMARK H PARENT 7 20 7 21
ROOT
ATOM      1  C   UNL     1      -1.148   3.591  -0.015  1.00  0.00    -0.025 A 
ATOM      2  C   UNL     1      -0.411   4.226   0.994  1.00  0.00     0.010 A 
ATOM      3  C   UNL     1       0.519   3.514   1.752  1.00  0.00     0.027 A 
ATOM      4  C   UNL     1       0.745   2.152   1.511  1.00  0.00     0.039 A 
ATOM      5  C   UNL     1       0.039   1.505   0.469  1.00  0.00     0.005 A 
ATOM      6  C   UNL     1      -0.906   2.229  -0.279  1.00  0.00     0.019 A 
ENDROOT
BRANCH   1   7
ATOM      7  C   UNL     1      -2.125   4.394  -0.790  1.00  0.00     0.000 C 
ATOM      8  C   UNL     1      -3.117   3.872  -1.513  1.00  0.00     0.009 C 
ENDBRANCH   1   7
BRANCH   5   9
ATOM      9  C   UNL     1       0.286   0.089   0.119  1.00  0.00    -0.018 A 
ATOM     10  C   UNL     1       1.580  -0.337  -0.266  1.00  0.00     0.009 A 
ATOM     11  C   UNL     1      -0.779  -0.836   0.125  1.00  0.00    -0.007 A 
ATOM     12  C   UNL     1       1.815  -1.674  -0.622  1.00  0.00     0.003 A 
ATOM     13  C   UNL     1      -0.518  -2.157  -0.232  1.00  0.00    -0.130 A 
ATOM     14  C   UNL     1       0.746  -2.568  -0.595  1.00  0.00    -0.057 A 
ATOM     15  N   UNL     1      -1.471  -3.207  -0.273  1.00  0.00    -0.626 NA
ATOM     16  C   UNL     1       0.749  -4.018  -0.930  1.00  0.00     0.089 C 
ATOM     17  C   UNL     1      -0.698  -4.330  -0.695  1.00  0.00     0.059 C 
ATOM     18  O   UNL     1      -1.200  -5.473  -0.852  1.00  0.00    -0.320 OA
ENDBRANCH   5   9
BRANCH   4  19
ATOM     19  N   UNL     1       1.661   1.440   2.355  1.00  0.00    -0.398 N 
ATOM     20  H   UNL     1       2.216   1.947   3.080  1.00  0.00     0.156 HD
ATOM     21  H   UNL     1       1.747   0.401   2.325  1.00  0.00     0.156 HD
ENDBRANCH   4  19
TORSDOF 3


