REMARK SMILES CC(=O)c1ccc2cc[nH]c2c1N
REMARK SMILES IDX 4 1 5 2 6 3 7 4 8 5 9 6 10 7 11 8 12 9 2 11 1 12 3 13 13 14
REMARK H PARENT 10 10 13 15 13 16
ROOT
ATOM      1  C   UNL     1      -0.299   1.915  -1.577  1.00  0.00     0.042 A 
ATOM      2  C   UNL     1      -0.558   1.311  -2.837  1.00  0.00     0.015 A 
ATOM      3  C   UNL     1      -0.170  -0.011  -3.099  1.00  0.00     0.011 A 
ATOM      4  C   UNL     1       0.477  -0.712  -2.090  1.00  0.00     0.002 A 
ATOM      5  C   UNL     1       0.951  -2.005  -2.073  1.00  0.00     0.028 A 
ATOM      6  C   UNL     1       1.481  -2.179  -0.802  1.00  0.00     0.083 A 
ATOM      7  N   UNL     1       1.343  -1.053  -0.066  1.00  0.00    -0.359 N 
ATOM      8  C   UNL     1       0.731  -0.157  -0.864  1.00  0.00     0.069 A 
ATOM      9  C   UNL     1       0.348   1.159  -0.555  1.00  0.00     0.067 A 
ATOM     10  H   UNL     1       1.652  -0.929   0.923  1.00  0.00     0.166 HD
ENDROOT
BRANCH   1  11
ATOM     11  C   UNL     1      -0.669   3.338  -1.380  1.00  0.00     0.161 C 
ATOM     12  C   UNL     1      -1.930   3.898  -1.961  1.00  0.00     0.093 C 
ATOM     13  O   UNL     1       0.121   4.116  -0.781  1.00  0.00    -0.294 OA
ENDBRANCH   1  11
BRANCH   9  14
ATOM     14  N   UNL     1       0.557   1.689   0.763  1.00  0.00    -0.396 N 
ATOM     15  H   UNL     1       1.158   1.196   1.458  1.00  0.00     0.156 HD
ATOM     16  H   UNL     1       0.051   2.537   1.099  1.00  0.00     0.156 HD
ENDBRANCH   9  14
TORSDOF 2


