MODEL 1
REMARK VINA RESULT:      -4.5      0.000      0.000
REMARK SMILES CO[C@H]1CCC[C@H](c2cc3cc(F)ccc3[nH]2)N1C(=O)c1ccc(Cl)c(C)c1
REMARK SMILES IDX 3 1 4 2 5 3 6 4 7 5 18 6 2 7 1 8 19 9 20 10 21 11 22 12
REMARK SMILES IDX 28 13 23 14 26 15 24 16 27 17 25 18 8 19 9 20 17 21 10 22
REMARK SMILES IDX 16 23 11 24 15 25 12 26 14 27 13 29
REMARK H PARENT 17 28
ROOT
ATOM      1  C   UNL     1      45.400 132.182  22.153  1.00  0.00     0.217 C 
ATOM      2  C   UNL     1      45.533 132.980  23.457  1.00  0.00     0.055 C 
ATOM      3  C   UNL     1      44.892 132.235  24.624  1.00  0.00     0.007 C 
ATOM      4  C   UNL     1      43.411 131.965  24.356  1.00  0.00     0.032 C 
ATOM      5  C   UNL     1      43.135 131.303  22.987  1.00  0.00     0.135 C 
ATOM      6  N   UNL     1      43.979 131.859  21.913  1.00  0.00    -0.304 N 
ENDROOT
BRANCH   1   7
ATOM      7  O   UNL     1      45.898 132.976  21.087  1.00  0.00    -0.362 OA
ATOM      8  C   UNL     1      47.038 133.704  21.490  1.00  0.00     0.197 C 
ENDBRANCH   1   7
BRANCH   6   9
ATOM      9  C   UNL     1      43.442 131.874  20.576  1.00  0.00     0.256 C 
ATOM     10  O   UNL     1      42.273 132.309  20.391  1.00  0.00    -0.269 OA
BRANCH   9  11
ATOM     11  C   UNL     1      44.228 131.386  19.417  1.00  0.00     0.040 A 
ATOM     12  C   UNL     1      45.371 130.598  19.622  1.00  0.00     0.015 A 
ATOM     13  C   UNL     1      43.858 131.721  18.105  1.00  0.00     0.018 A 
ATOM     14  C   UNL     1      46.115 130.135  18.536  1.00  0.00     0.021 A 
ATOM     15  C   UNL     1      44.603 131.265  17.007  1.00  0.00    -0.032 A 
ATOM     16  C   UNL     1      45.738 130.461  17.230  1.00  0.00     0.044 A 
ATOM     17  C   UNL     1      44.180 131.632  15.611  1.00  0.00     0.046 C 
ATOM     18  Cl  UNL     1      46.708 129.847  15.894  1.00  0.00    -0.084 Cl
ENDBRANCH   9  11
ENDBRANCH   6   9
BRANCH   5  19
ATOM     19  C   UNL     1      43.238 129.796  23.022  1.00  0.00     0.039 A 
ATOM     20  C   UNL     1      42.270 128.903  23.491  1.00  0.00     0.034 A 
ATOM     21  N   UNL     1      44.372 129.133  22.682  1.00  0.00    -0.357 N 
ATOM     22  C   UNL     1      42.865 127.663  23.425  1.00  0.00     0.003 A 
ATOM     23  C   UNL     1      44.130 127.837  22.932  1.00  0.00     0.046 A 
ATOM     24  C   UNL     1      42.385 126.409  23.795  1.00  0.00     0.049 A 
ATOM     25  C   UNL     1      45.007 126.765  22.772  1.00  0.00     0.029 A 
ATOM     26  C   UNL     1      43.245 125.306  23.641  1.00  0.00     0.123 A 
ATOM     27  C   UNL     1      44.551 125.484  23.132  1.00  0.00     0.041 A 
ATOM     28  H   UNL     1      45.263 129.547  22.330  1.00  0.00     0.166 HD
ATOM     29  F   UNL     1      42.820 124.066  23.990  1.00  0.00    -0.207 F 
ENDBRANCH   5  19
TORSDOF 4
ENDMDL
MODEL 2
REMARK VINA RESULT:      -4.0      0.716      1.214
REMARK SMILES CO[C@H]1CCC[C@H](c2cc3cc(F)ccc3[nH]2)N1C(=O)c1ccc(Cl)c(C)c1
REMARK SMILES IDX 3 1 4 2 5 3 6 4 7 5 18 6 2 7 1 8 19 9 20 10 21 11 22 12
REMARK SMILES IDX 28 13 23 14 26 15 24 16 27 17 25 18 8 19 9 20 17 21 10 22
REMARK SMILES IDX 16 23 11 24 15 25 12 26 14 27 13 29
REMARK H PARENT 17 28
ROOT
ATOM      1  C   UNL     1      45.241 132.139  22.139  1.00  0.00     0.217 C 
ATOM      2  C   UNL     1      45.307 133.003  23.406  1.00  0.00     0.055 C 
ATOM      3  C   UNL     1      44.692 132.275  24.599  1.00  0.00     0.007 C 
ATOM      4  C   UNL     1      43.234 131.906  24.324  1.00  0.00     0.032 C 
ATOM      5  C   UNL     1      43.018 131.167  22.984  1.00  0.00     0.135 C 
ATOM      6  N   UNL     1      43.845 131.722  21.895  1.00  0.00    -0.304 N 
ENDROOT
BRANCH   1   7
ATOM      7  O   UNL     1      45.709 132.911  21.044  1.00  0.00    -0.362 OA
ATOM      8  C   UNL     1      46.853 133.655  21.403  1.00  0.00     0.197 C 
ENDBRANCH   1   7
BRANCH   6   9
ATOM      9  C   UNL     1      43.329 131.644  20.552  1.00  0.00     0.256 C 
ATOM     10  O   UNL     1      42.123 131.945  20.342  1.00  0.00    -0.269 OA
BRANCH   9  11
ATOM     11  C   UNL     1      44.180 131.214  19.417  1.00  0.00     0.040 A 
ATOM     12  C   UNL     1      45.324 130.435  19.649  1.00  0.00     0.015 A 
ATOM     13  C   UNL     1      43.870 131.595  18.101  1.00  0.00     0.018 A 
ATOM     14  C   UNL     1      46.130 130.027  18.584  1.00  0.00     0.021 A 
ATOM     15  C   UNL     1      44.677 131.193  17.026  1.00  0.00    -0.032 A 
ATOM     16  C   UNL     1      45.813 130.398  17.274  1.00  0.00     0.044 A 
ATOM     17  C   UNL     1      44.317 131.608  15.626  1.00  0.00     0.046 C 
ATOM     18  Cl  UNL     1      46.858 129.852  15.967  1.00  0.00    -0.084 Cl
ENDBRANCH   9  11
ENDBRANCH   6   9
BRANCH   5  19
ATOM     19  C   UNL     1      43.208 129.672  23.090  1.00  0.00     0.039 A 
ATOM     20  C   UNL     1      44.369 128.954  22.786  1.00  0.00     0.034 A 
ATOM     21  N   UNL     1      42.196 128.827  23.405  1.00  0.00    -0.357 N 
ATOM     22  C   UNL     1      44.018 127.630  22.929  1.00  0.00     0.003 A 
ATOM     23  C   UNL     1      42.702 127.589  23.303  1.00  0.00     0.046 A 
ATOM     24  C   UNL     1      44.761 126.470  22.722  1.00  0.00     0.049 A 
ATOM     25  C   UNL     1      42.035 126.381  23.501  1.00  0.00     0.029 A 
ATOM     26  C   UNL     1      44.117 125.235  22.918  1.00  0.00     0.123 A 
ATOM     27  C   UNL     1      42.758 125.191  23.305  1.00  0.00     0.041 A 
ATOM     28  H   UNL     1      41.212 129.084  23.646  1.00  0.00     0.166 HD
ATOM     29  F   UNL     1      44.801 124.080  22.726  1.00  0.00    -0.207 F 
ENDBRANCH   5  19
TORSDOF 4
ENDMDL


