MODEL 1
REMARK VINA RESULT:      -7.7      0.000      0.000
REMARK SMILES Cc1ccoc1NC(=O)N1CCC[C@@H](c2ccc3ccc(C)c(F)c3[nH+]2)[C@@H]1F
REMARK SMILES IDX 10 1 11 2 12 3 13 4 14 5 27 6 28 7 8 8 7 9 9 11 6 12 2 13
REMARK SMILES IDX 3 14 4 15 5 16 1 17 15 18 16 19 26 20 17 21 25 22 18 23
REMARK SMILES IDX 23 24 19 25 21 26 20 27 24 29 22 30
REMARK H PARENT 7 10 26 28
ROOT
ATOM      1  N   UNL     1      44.732 130.380  22.468  1.00  0.00    -0.293 N 
ATOM      2  C   UNL     1      44.177 131.561  23.141  1.00  0.00     0.124 C 
ATOM      3  C   UNL     1      42.865 131.965  22.456  1.00  0.00     0.023 C 
ATOM      4  C   UNL     1      43.065 132.145  20.943  1.00  0.00     0.021 C 
ATOM      5  C   UNL     1      43.691 130.885  20.307  1.00  0.00     0.140 C 
ATOM      6  C   UNL     1      45.001 130.517  21.030  1.00  0.00     0.280 C 
ATOM      7  F   UNL     1      45.534 129.351  20.502  1.00  0.00    -0.223 F 
ENDROOT
BRANCH   1   8
ATOM      8  C   UNL     1      44.640 129.089  23.099  1.00  0.00     0.326 C 
ATOM      9  N   UNL     1      44.683 127.894  22.302  1.00  0.00    -0.278 N 
ATOM     10  H   UNL     1      44.630 127.987  21.264  1.00  0.00     0.175 HD
ATOM     11  O   UNL     1      44.515 129.010  24.351  1.00  0.00    -0.248 OA
BRANCH   9  12
ATOM     12  C   UNL     1      44.764 126.578  22.867  1.00  0.00     0.203 A 
ATOM     13  C   UNL     1      45.848 125.729  22.771  1.00  0.00     0.013 A 
ATOM     14  C   UNL     1      45.494 124.586  23.457  1.00  0.00     0.047 A 
ATOM     15  C   UNL     1      44.214 124.812  23.928  1.00  0.00     0.198 A 
ATOM     16  O   UNL     1      43.806 126.007  23.561  1.00  0.00    -0.448 OA
ATOM     17  C   UNL     1      47.145 125.988  22.074  1.00  0.00     0.050 C 
ENDBRANCH   9  12
ENDBRANCH   1   8
BRANCH   5  18
ATOM     18  C   UNL     1      43.912 131.076  18.819  1.00  0.00     0.188 A 
ATOM     19  C   UNL     1      42.976 131.798  18.063  1.00  0.00     0.075 A 
ATOM     20  N   UNL     1      45.016 130.552  18.202  1.00  0.00    -0.205 N 
ATOM     21  C   UNL     1      43.175 131.976  16.696  1.00  0.00     0.021 A 
ATOM     22  C   UNL     1      45.236 130.711  16.862  1.00  0.00     0.247 A 
ATOM     23  C   UNL     1      44.308 131.434  16.080  1.00  0.00     0.049 A 
ATOM     24  C   UNL     1      46.379 130.163  16.249  1.00  0.00     0.197 A 
ATOM     25  C   UNL     1      44.529 131.603  14.707  1.00  0.00     0.015 A 
ATOM     26  C   UNL     1      46.591 130.329  14.869  1.00  0.00    -0.008 A 
ATOM     27  C   UNL     1      45.664 131.056  14.107  1.00  0.00     0.007 A 
ATOM     28  H   UNL     1      45.708 130.017  18.771  1.00  0.00     0.454 HD
ATOM     29  F   UNL     1      47.284 129.471  16.990  1.00  0.00    -0.199 F 
ATOM     30  C   UNL     1      47.820 129.756  14.224  1.00  0.00     0.048 C 
ENDBRANCH   5  18
TORSDOF 3
ENDMDL
MODEL 2
REMARK VINA RESULT:      -7.0      1.387      1.971
REMARK SMILES Cc1ccoc1NC(=O)N1CCC[C@@H](c2ccc3ccc(C)c(F)c3[nH+]2)[C@@H]1F
REMARK SMILES IDX 10 1 11 2 12 3 13 4 14 5 27 6 28 7 8 8 7 9 9 11 6 12 2 13
REMARK SMILES IDX 3 14 4 15 5 16 1 17 15 18 16 19 26 20 17 21 25 22 18 23
REMARK SMILES IDX 23 24 19 25 21 26 20 27 24 29 22 30
REMARK H PARENT 7 10 26 28
ROOT
ATOM      1  N   UNL     1      44.672 130.013  23.134  1.00  0.00    -0.293 N 
ATOM      2  C   UNL     1      44.448 131.213  23.948  1.00  0.00     0.124 C 
ATOM      3  C   UNL     1      43.167 131.914  23.478  1.00  0.00     0.023 C 
ATOM      4  C   UNL     1      43.210 132.185  21.966  1.00  0.00     0.021 C 
ATOM      5  C   UNL     1      43.492 130.891  21.173  1.00  0.00     0.140 C 
ATOM      6  C   UNL     1      44.782 130.223  21.683  1.00  0.00     0.280 C 
ATOM      7  F   UNL     1      45.006 129.028  21.016  1.00  0.00    -0.223 F 
ENDROOT
BRANCH   1   8
ATOM      8  C   UNL     1      44.406 128.711  23.690  1.00  0.00     0.326 C 
ATOM      9  N   UNL     1      43.246 127.974  23.272  1.00  0.00    -0.278 N 
ATOM     10  H   UNL     1      42.535 128.459  22.682  1.00  0.00     0.175 HD
ATOM     11  O   UNL     1      45.190 128.224  24.549  1.00  0.00    -0.248 OA
BRANCH   9  12
ATOM     12  C   UNL     1      43.004 126.612  23.653  1.00  0.00     0.203 A 
ATOM     13  C   UNL     1      41.829 126.125  24.189  1.00  0.00     0.013 A 
ATOM     14  C   UNL     1      42.038 124.777  24.396  1.00  0.00     0.047 A 
ATOM     15  C   UNL     1      43.331 124.530  23.972  1.00  0.00     0.198 A 
ATOM     16  O   UNL     1      43.881 125.641  23.535  1.00  0.00    -0.448 OA
ATOM     17  C   UNL     1      40.580 126.891  24.484  1.00  0.00     0.050 C 
ENDBRANCH   9  12
ENDBRANCH   1   8
BRANCH   5  18
ATOM     18  C   UNL     1      43.561 131.167  19.683  1.00  0.00     0.188 A 
ATOM     19  C   UNL     1      42.499 131.828  19.048  1.00  0.00     0.075 A 
ATOM     20  N   UNL     1      44.649 130.779  18.948  1.00  0.00    -0.205 N 
ATOM     21  C   UNL     1      42.559 132.083  17.680  1.00  0.00     0.021 A 
ATOM     22  C   UNL     1      44.733 131.017  17.605  1.00  0.00     0.247 A 
ATOM     23  C   UNL     1      43.677 131.681  16.943  1.00  0.00     0.049 A 
ATOM     24  C   UNL     1      45.862 130.608  16.869  1.00  0.00     0.197 A 
ATOM     25  C   UNL     1      43.757 131.929  15.566  1.00  0.00     0.015 A 
ATOM     26  C   UNL     1      45.934 130.854  15.487  1.00  0.00    -0.008 A 
ATOM     27  C   UNL     1      44.881 131.520  14.845  1.00  0.00     0.007 A 
ATOM     28  H   UNL     1      45.436 130.288  19.428  1.00  0.00     0.454 HD
ATOM     29  F   UNL     1      46.889 129.974  17.494  1.00  0.00    -0.199 F 
ATOM     30  C   UNL     1      47.148 130.430  14.711  1.00  0.00     0.048 C 
ENDBRANCH   5  18
TORSDOF 3
ENDMDL
MODEL 3
REMARK VINA RESULT:      -6.5      1.489      2.305
REMARK SMILES Cc1ccoc1NC(=O)N1CCC[C@@H](c2ccc3ccc(C)c(F)c3[nH+]2)[C@@H]1F
REMARK SMILES IDX 10 1 11 2 12 3 13 4 14 5 27 6 28 7 8 8 7 9 9 11 6 12 2 13
REMARK SMILES IDX 3 14 4 15 5 16 1 17 15 18 16 19 26 20 17 21 25 22 18 23
REMARK SMILES IDX 23 24 19 25 21 26 20 27 24 29 22 30
REMARK H PARENT 7 10 26 28
ROOT
ATOM      1  N   UNL     1      43.908 132.072  21.088  1.00  0.00    -0.293 N 
ATOM      2  C   UNL     1      42.734 132.943  21.224  1.00  0.00     0.124 C 
ATOM      3  C   UNL     1      41.639 132.474  20.258  1.00  0.00     0.023 C 
ATOM      4  C   UNL     1      42.177 132.372  18.822  1.00  0.00     0.021 C 
ATOM      5  C   UNL     1      43.435 131.478  18.757  1.00  0.00     0.140 C 
ATOM      6  C   UNL     1      44.501 131.985  19.747  1.00  0.00     0.280 C 
ATOM      7  F   UNL     1      45.608 131.150  19.737  1.00  0.00    -0.223 F 
ENDROOT
BRANCH   1   8
ATOM      8  C   UNL     1      44.192 131.092  22.104  1.00  0.00     0.326 C 
ATOM      9  N   UNL     1      44.073 129.692  21.806  1.00  0.00    -0.278 N 
ATOM     10  H   UNL     1      43.638 129.412  20.899  1.00  0.00     0.175 HD
ATOM     11  O   UNL     1      44.539 131.465  23.257  1.00  0.00    -0.248 OA
BRANCH   9  12
ATOM     12  C   UNL     1      44.497 128.660  22.707  1.00  0.00     0.203 A 
ATOM     13  C   UNL     1      43.836 128.278  23.858  1.00  0.00     0.013 A 
ATOM     14  C   UNL     1      44.587 127.259  24.405  1.00  0.00     0.047 A 
ATOM     15  C   UNL     1      45.662 127.086  23.552  1.00  0.00     0.198 A 
ATOM     16  O   UNL     1      45.580 127.934  22.550  1.00  0.00    -0.448 OA
ATOM     17  C   UNL     1      42.563 128.842  24.403  1.00  0.00     0.050 C 
ENDBRANCH   9  12
ENDBRANCH   1   8
BRANCH   5  18
ATOM     18  C   UNL     1      43.980 131.402  17.344  1.00  0.00     0.188 A 
ATOM     19  C   UNL     1      43.254 131.971  16.287  1.00  0.00     0.075 A 
ATOM     20  N   UNL     1      45.174 130.785  17.086  1.00  0.00    -0.205 N 
ATOM     21  C   UNL     1      43.751 131.904  14.987  1.00  0.00     0.021 A 
ATOM     22  C   UNL     1      45.684 130.703  15.820  1.00  0.00     0.247 A 
ATOM     23  C   UNL     1      44.972 131.269  14.739  1.00  0.00     0.049 A 
ATOM     24  C   UNL     1      46.915 130.062  15.579  1.00  0.00     0.197 A 
ATOM     25  C   UNL     1      45.491 131.191  13.440  1.00  0.00     0.015 A 
ATOM     26  C   UNL     1      47.426 129.981  14.272  1.00  0.00    -0.008 A 
ATOM     27  C   UNL     1      46.711 130.554  13.209  1.00  0.00     0.007 A 
ATOM     28  H   UNL     1      45.708 130.364  17.878  1.00  0.00     0.454 HD
ATOM     29  F   UNL     1      47.614 129.519  16.610  1.00  0.00    -0.199 F 
ATOM     30  C   UNL     1      48.747 129.310  14.023  1.00  0.00     0.048 C 
ENDBRANCH   5  18
TORSDOF 3
ENDMDL
MODEL 4
REMARK VINA RESULT:      -6.2      3.764      7.121
REMARK SMILES Cc1ccoc1NC(=O)N1CCC[C@@H](c2ccc3ccc(C)c(F)c3[nH+]2)[C@@H]1F
REMARK SMILES IDX 10 1 11 2 12 3 13 4 14 5 27 6 28 7 8 8 7 9 9 11 6 12 2 13
REMARK SMILES IDX 3 14 4 15 5 16 1 17 15 18 16 19 26 20 17 21 25 22 18 23
REMARK SMILES IDX 23 24 19 25 21 26 20 27 24 29 22 30
REMARK H PARENT 7 10 26 28
ROOT
ATOM      1  N   UNL     1      47.504 123.819  23.884  1.00  0.00    -0.293 N 
ATOM      2  C   UNL     1      46.597 122.668  23.804  1.00  0.00     0.124 C 
ATOM      3  C   UNL     1      45.649 122.850  22.612  1.00  0.00     0.023 C 
ATOM      4  C   UNL     1      44.931 124.207  22.679  1.00  0.00     0.021 C 
ATOM      5  C   UNL     1      45.941 125.369  22.806  1.00  0.00     0.140 C 
ATOM      6  C   UNL     1      46.871 125.139  24.012  1.00  0.00     0.280 C 
ATOM      7  F   UNL     1      47.819 126.148  24.093  1.00  0.00    -0.223 F 
ENDROOT
BRANCH   1   8
ATOM      8  C   UNL     1      48.877 123.678  23.470  1.00  0.00     0.326 C 
ATOM      9  N   UNL     1      49.185 123.227  22.142  1.00  0.00    -0.278 N 
ATOM     10  H   UNL     1      48.407 122.866  21.546  1.00  0.00     0.175 HD
ATOM     11  O   UNL     1      49.806 123.943  24.280  1.00  0.00    -0.248 OA
BRANCH   9  12
ATOM     12  C   UNL     1      50.516 123.220  21.606  1.00  0.00     0.203 A 
ATOM     13  C   UNL     1      50.843 123.334  20.270  1.00  0.00     0.013 A 
ATOM     14  C   UNL     1      52.221 123.285  20.213  1.00  0.00     0.047 A 
ATOM     15  C   UNL     1      52.645 123.142  21.521  1.00  0.00     0.198 A 
ATOM     16  O   UNL     1      51.607 123.107  22.328  1.00  0.00    -0.448 OA
ATOM     17  C   UNL     1      49.906 123.487  19.115  1.00  0.00     0.050 C 
ENDBRANCH   9  12
ENDBRANCH   1   8
BRANCH   5  18
ATOM     18  C   UNL     1      45.229 126.704  22.901  1.00  0.00     0.188 A 
ATOM     19  C   UNL     1      44.265 126.910  23.901  1.00  0.00     0.075 A 
ATOM     20  N   UNL     1      45.514 127.715  22.023  1.00  0.00    -0.205 N 
ATOM     21  C   UNL     1      43.609 128.136  23.991  1.00  0.00     0.021 A 
ATOM     22  C   UNL     1      44.885 128.927  22.089  1.00  0.00     0.247 A 
ATOM     23  C   UNL     1      43.912 129.158  23.086  1.00  0.00     0.049 A 
ATOM     24  C   UNL     1      45.195 129.951  21.173  1.00  0.00     0.197 A 
ATOM     25  C   UNL     1      43.264 130.398  23.161  1.00  0.00     0.015 A 
ATOM     26  C   UNL     1      44.536 131.191  21.249  1.00  0.00    -0.008 A 
ATOM     27  C   UNL     1      43.578 131.408  22.249  1.00  0.00     0.007 A 
ATOM     28  H   UNL     1      46.232 127.554  21.282  1.00  0.00     0.454 HD
ATOM     29  F   UNL     1      46.133 129.745  20.212  1.00  0.00    -0.199 F 
ATOM     30  C   UNL     1      44.883 132.285  20.280  1.00  0.00     0.048 C 
ENDBRANCH   5  18
TORSDOF 3
ENDMDL
MODEL 5
REMARK VINA RESULT:      -5.2      3.473      5.242
REMARK SMILES Cc1ccoc1NC(=O)N1CCC[C@@H](c2ccc3ccc(C)c(F)c3[nH+]2)[C@@H]1F
REMARK SMILES IDX 10 1 11 2 12 3 13 4 14 5 27 6 28 7 8 8 7 9 9 11 6 12 2 13
REMARK SMILES IDX 3 14 4 15 5 16 1 17 15 18 16 19 26 20 17 21 25 22 18 23
REMARK SMILES IDX 23 24 19 25 21 26 20 27 24 29 22 30
REMARK H PARENT 7 10 26 28
ROOT
ATOM      1  N   UNL     1      45.183 132.510  22.371  1.00  0.00    -0.293 N 
ATOM      2  C   UNL     1      44.452 131.467  23.100  1.00  0.00     0.124 C 
ATOM      3  C   UNL     1      44.799 130.095  22.508  1.00  0.00     0.023 C 
ATOM      4  C   UNL     1      44.566 130.074  20.989  1.00  0.00     0.021 C 
ATOM      5  C   UNL     1      45.327 131.222  20.290  1.00  0.00     0.140 C 
ATOM      6  C   UNL     1      44.949 132.575  20.921  1.00  0.00     0.280 C 
ATOM      7  F   UNL     1      45.677 133.602  20.338  1.00  0.00    -0.223 F 
ENDROOT
BRANCH   1   8
ATOM      8  C   UNL     1      46.324 133.143  22.980  1.00  0.00     0.326 C 
ATOM      9  N   UNL     1      47.571 133.217  22.270  1.00  0.00    -0.278 N 
ATOM     10  H   UNL     1      47.669 132.677  21.381  1.00  0.00     0.175 HD
ATOM     11  O   UNL     1      46.228 133.625  24.141  1.00  0.00    -0.248 OA
BRANCH   9  12
ATOM     12  C   UNL     1      48.696 133.972  22.739  1.00  0.00     0.203 A 
ATOM     13  C   UNL     1      49.113 135.188  22.235  1.00  0.00     0.013 A 
ATOM     14  C   UNL     1      50.217 135.547  22.980  1.00  0.00     0.047 A 
ATOM     15  C   UNL     1      50.403 134.524  23.891  1.00  0.00     0.198 A 
ATOM     16  O   UNL     1      49.482 133.601  23.724  1.00  0.00    -0.448 OA
ATOM     17  C   UNL     1      48.498 135.966  21.116  1.00  0.00     0.050 C 
ENDBRANCH   9  12
ENDBRANCH   1   8
BRANCH   5  18
ATOM     18  C   UNL     1      45.072 131.216  18.795  1.00  0.00     0.188 A 
ATOM     19  C   UNL     1      43.866 131.727  18.292  1.00  0.00     0.075 A 
ATOM     20  N   UNL     1      46.006 130.718  17.927  1.00  0.00    -0.205 N 
ATOM     21  C   UNL     1      43.628 131.723  16.920  1.00  0.00     0.021 A 
ATOM     22  C   UNL     1      45.799 130.702  16.576  1.00  0.00     0.247 A 
ATOM     23  C   UNL     1      44.592 131.211  16.046  1.00  0.00     0.049 A 
ATOM     24  C   UNL     1      46.774 130.184  15.702  1.00  0.00     0.197 A 
ATOM     25  C   UNL     1      44.374 131.200  14.662  1.00  0.00     0.015 A 
ATOM     26  C   UNL     1      46.547 130.169  14.315  1.00  0.00    -0.008 A 
ATOM     27  C   UNL     1      45.347 130.684  13.803  1.00  0.00     0.007 A 
ATOM     28  H   UNL     1      46.902 130.340  18.309  1.00  0.00     0.454 HD
ATOM     29  F   UNL     1      47.943 129.697  16.197  1.00  0.00    -0.199 F 
ATOM     30  C   UNL     1      47.598 129.630  13.388  1.00  0.00     0.048 C 
ENDBRANCH   5  18
TORSDOF 3
ENDMDL
MODEL 6
REMARK VINA RESULT:      -5.2      1.465      2.223
REMARK SMILES Cc1ccoc1NC(=O)N1CCC[C@@H](c2ccc3ccc(C)c(F)c3[nH+]2)[C@@H]1F
REMARK SMILES IDX 10 1 11 2 12 3 13 4 14 5 27 6 28 7 8 8 7 9 9 11 6 12 2 13
REMARK SMILES IDX 3 14 4 15 5 16 1 17 15 18 16 19 26 20 17 21 25 22 18 23
REMARK SMILES IDX 23 24 19 25 21 26 20 27 24 29 22 30
REMARK H PARENT 7 10 26 28
ROOT
ATOM      1  N   UNL     1      43.596 131.995  20.776  1.00  0.00    -0.293 N 
ATOM      2  C   UNL     1      42.524 132.997  20.828  1.00  0.00     0.124 C 
ATOM      3  C   UNL     1      41.474 132.673  19.758  1.00  0.00     0.023 C 
ATOM      4  C   UNL     1      42.124 132.526  18.373  1.00  0.00     0.021 C 
ATOM      5  C   UNL     1      43.270 131.492  18.399  1.00  0.00     0.140 C 
ATOM      6  C   UNL     1      44.294 131.856  19.491  1.00  0.00     0.280 C 
ATOM      7  F   UNL     1      45.293 130.896  19.559  1.00  0.00    -0.223 F 
ENDROOT
BRANCH   1   8
ATOM      8  C   UNL     1      43.671 130.975  21.790  1.00  0.00     0.326 C 
ATOM      9  N   UNL     1      44.592 129.882  21.643  1.00  0.00    -0.278 N 
ATOM     10  H   UNL     1      45.086 129.767  20.731  1.00  0.00     0.175 HD
ATOM     11  O   UNL     1      42.922 131.039  22.802  1.00  0.00    -0.248 OA
BRANCH   9  12
ATOM     12  C   UNL     1      44.841 128.923  22.681  1.00  0.00     0.203 A 
ATOM     13  C   UNL     1      45.367 127.660  22.497  1.00  0.00     0.013 A 
ATOM     14  C   UNL     1      45.438 127.094  23.753  1.00  0.00     0.047 A 
ATOM     15  C   UNL     1      44.949 128.051  24.623  1.00  0.00     0.198 A 
ATOM     16  O   UNL     1      44.601 129.129  23.956  1.00  0.00    -0.448 OA
ATOM     17  C   UNL     1      45.783 127.028  21.208  1.00  0.00     0.050 C 
ENDBRANCH   9  12
ENDBRANCH   1   8
BRANCH   5  18
ATOM     18  C   UNL     1      43.928 131.370  17.039  1.00  0.00     0.188 A 
ATOM     19  C   UNL     1      43.279 131.880  15.903  1.00  0.00     0.075 A 
ATOM     20  N   UNL     1      45.150 130.767  16.902  1.00  0.00    -0.205 N 
ATOM     21  C   UNL     1      43.881 131.771  14.652  1.00  0.00     0.021 A 
ATOM     22  C   UNL     1      45.762 130.646  15.685  1.00  0.00     0.247 A 
ATOM     23  C   UNL     1      45.129 131.152  14.529  1.00  0.00     0.049 A 
ATOM     24  C   UNL     1      47.018 130.022  15.570  1.00  0.00     0.197 A 
ATOM     25  C   UNL     1      45.751 131.033  13.279  1.00  0.00     0.015 A 
ATOM     26  C   UNL     1      47.635 129.898  14.312  1.00  0.00    -0.008 A 
ATOM     27  C   UNL     1      46.997 130.412  13.173  1.00  0.00     0.007 A 
ATOM     28  H   UNL     1      45.626 130.390  17.751  1.00  0.00     0.454 HD
ATOM     29  F   UNL     1      47.642 129.535  16.675  1.00  0.00    -0.199 F 
ATOM     30  C   UNL     1      48.982 129.246  14.197  1.00  0.00     0.048 C 
ENDBRANCH   5  18
TORSDOF 3
ENDMDL
MODEL 7
REMARK VINA RESULT:      -5.1      1.133      1.458
REMARK SMILES Cc1ccoc1NC(=O)N1CCC[C@@H](c2ccc3ccc(C)c(F)c3[nH+]2)[C@@H]1F
REMARK SMILES IDX 10 1 11 2 12 3 13 4 14 5 27 6 28 7 8 8 7 9 9 11 6 12 2 13
REMARK SMILES IDX 3 14 4 15 5 16 1 17 15 18 16 19 26 20 17 21 25 22 18 23
REMARK SMILES IDX 23 24 19 25 21 26 20 27 24 29 22 30
REMARK H PARENT 7 10 26 28
ROOT
ATOM      1  N   UNL     1      44.749 130.148  22.523  1.00  0.00    -0.293 N 
ATOM      2  C   UNL     1      43.758 131.060  23.106  1.00  0.00     0.124 C 
ATOM      3  C   UNL     1      42.597 131.244  22.120  1.00  0.00     0.023 C 
ATOM      4  C   UNL     1      43.109 131.679  20.738  1.00  0.00     0.021 C 
ATOM      5  C   UNL     1      44.179 130.702  20.204  1.00  0.00     0.140 C 
ATOM      6  C   UNL     1      45.319 130.547  21.228  1.00  0.00     0.280 C 
ATOM      7  F   UNL     1      46.251 129.624  20.780  1.00  0.00    -0.223 F 
ENDROOT
BRANCH   1   8
ATOM      8  C   UNL     1      44.845 128.793  23.003  1.00  0.00     0.326 C 
ATOM      9  N   UNL     1      44.777 127.696  22.079  1.00  0.00    -0.278 N 
ATOM     10  H   UNL     1      44.510 127.895  21.090  1.00  0.00     0.175 HD
ATOM     11  O   UNL     1      44.980 128.574  24.238  1.00  0.00    -0.248 OA
BRANCH   9  12
ATOM     12  C   UNL     1      45.029 126.336  22.458  1.00  0.00     0.203 A 
ATOM     13  C   UNL     1      44.101 125.467  22.996  1.00  0.00     0.013 A 
ATOM     14  C   UNL     1      44.770 124.278  23.200  1.00  0.00     0.047 A 
ATOM     15  C   UNL     1      46.067 124.500  22.775  1.00  0.00     0.198 A 
ATOM     16  O   UNL     1      46.191 125.734  22.338  1.00  0.00    -0.448 OA
ATOM     17  C   UNL     1      42.662 125.745  23.293  1.00  0.00     0.050 C 
ENDBRANCH   9  12
ENDBRANCH   1   8
BRANCH   5  18
ATOM     18  C   UNL     1      44.702 131.150  18.854  1.00  0.00     0.188 A 
ATOM     19  C   UNL     1      44.506 132.475  18.435  1.00  0.00     0.075 A 
ATOM     20  N   UNL     1      45.367 130.277  18.035  1.00  0.00    -0.205 N 
ATOM     21  C   UNL     1      44.986 132.890  17.195  1.00  0.00     0.021 A 
ATOM     22  C   UNL     1      45.847 130.658  16.813  1.00  0.00     0.247 A 
ATOM     23  C   UNL     1      45.662 131.986  16.370  1.00  0.00     0.049 A 
ATOM     24  C   UNL     1      46.527 129.742  15.988  1.00  0.00     0.197 A 
ATOM     25  C   UNL     1      46.154 132.384  15.120  1.00  0.00     0.015 A 
ATOM     26  C   UNL     1      47.012 130.144  14.731  1.00  0.00    -0.008 A 
ATOM     27  C   UNL     1      46.827 131.469  14.308  1.00  0.00     0.007 A 
ATOM     28  H   UNL     1      45.510 129.293  18.354  1.00  0.00     0.454 HD
ATOM     29  F   UNL     1      46.718 128.462  16.404  1.00  0.00    -0.199 F 
ATOM     30  C   UNL     1      47.750 129.167  13.863  1.00  0.00     0.048 C 
ENDBRANCH   5  18
TORSDOF 3
ENDMDL


