MODEL 1
REMARK VINA RESULT:      -9.5      0.000      0.000
REMARK SMILES Cc1ccc(CCC([O-])=C2CCC2)c(C)c1
REMARK SMILES IDX 6 1 5 2 2 3 3 4 16 5 4 6 14 7 1 8 15 9 7 10 8 11 9 12 10 13
REMARK SMILES IDX 11 14 13 15 12 16
REMARK H PARENT
ROOT
ATOM      1  C   UNL     1      44.039 131.626  16.897  1.00  0.00     0.039 C 
ENDROOT
BRANCH   1   2
ATOM      2  C   UNL     1      44.143 131.491  18.403  1.00  0.00    -0.045 A 
ATOM      3  C   UNL     1      44.482 131.300  21.197  1.00  0.00    -0.051 A 
ATOM      4  C   UNL     1      45.522 130.941  20.333  1.00  0.00     0.004 A 
ATOM      5  C   UNL     1      43.275 131.774  20.664  1.00  0.00     0.007 A 
ATOM      6  C   UNL     1      45.351 131.027  18.952  1.00  0.00     0.004 A 
ATOM      7  C   UNL     1      43.090 131.875  19.273  1.00  0.00    -0.048 A 
ATOM      8  C   UNL     1      44.683 131.249  22.682  1.00  0.00     0.044 C 
ATOM      9  C   UNL     1      41.763 132.358  18.748  1.00  0.00     0.044 C 
ENDBRANCH   1   2
BRANCH   1  10
ATOM     10  C   UNL     1      45.412 131.827  16.237  1.00  0.00     0.023 C 
BRANCH  10  11
ATOM     11  C   UNL     1      45.427 131.335  14.818  1.00  0.00    -0.133 C 
ATOM     12  O   UNL     1      44.277 131.448  14.045  1.00  0.00    -0.875 OA
BRANCH  11  13
ATOM     13  C   UNL     1      46.510 130.761  14.297  1.00  0.00    -0.082 C 
ATOM     14  C   UNL     1      47.288 129.469  14.463  1.00  0.00     0.030 C 
ATOM     15  C   UNL     1      47.539 131.097  13.236  1.00  0.00     0.030 C 
ATOM     16  C   UNL     1      48.290 129.817  13.411  1.00  0.00     0.009 C 
ENDBRANCH  11  13
ENDBRANCH  10  11
ENDBRANCH   1  10
TORSDOF 4
ENDMDL
MODEL 2
REMARK VINA RESULT:      -9.4      1.118      1.291
REMARK SMILES Cc1ccc(CCC([O-])=C2CCC2)c(C)c1
REMARK SMILES IDX 6 1 5 2 2 3 3 4 16 5 4 6 14 7 1 8 15 9 7 10 8 11 9 12 10 13
REMARK SMILES IDX 11 14 13 15 12 16
REMARK H PARENT
ROOT
ATOM      1  C   UNL     1      44.651 131.384  17.359  1.00  0.00     0.039 C 
ENDROOT
BRANCH   1   2
ATOM      2  C   UNL     1      44.410 131.352  18.855  1.00  0.00    -0.045 A 
ATOM      3  C   UNL     1      44.106 131.352  21.660  1.00  0.00    -0.051 A 
ATOM      4  C   UNL     1      45.311 130.940  21.080  1.00  0.00     0.004 A 
ATOM      5  C   UNL     1      43.056 131.783  20.837  1.00  0.00     0.007 A 
ATOM      6  C   UNL     1      45.458 130.932  19.693  1.00  0.00     0.004 A 
ATOM      7  C   UNL     1      43.192 131.789  19.437  1.00  0.00    -0.048 A 
ATOM      8  C   UNL     1      43.965 131.403  23.152  1.00  0.00     0.044 C 
ATOM      9  C   UNL     1      42.023 132.230  18.594  1.00  0.00     0.044 C 
ENDBRANCH   1   2
BRANCH   1  10
ATOM     10  C   UNL     1      45.998 130.753  16.976  1.00  0.00     0.023 C 
BRANCH  10  11
ATOM     11  C   UNL     1      45.899 129.951  15.710  1.00  0.00    -0.133 C 
ATOM     12  O   UNL     1      44.987 128.904  15.635  1.00  0.00    -0.875 OA
BRANCH  11  13
ATOM     13  C   UNL     1      46.691 130.201  14.669  1.00  0.00    -0.082 C 
ATOM     14  C   UNL     1      46.873 131.294  13.632  1.00  0.00     0.030 C 
ATOM     15  C   UNL     1      47.855 129.523  13.975  1.00  0.00     0.030 C 
ATOM     16  C   UNL     1      48.021 130.611  12.964  1.00  0.00     0.009 C 
ENDBRANCH  11  13
ENDBRANCH  10  11
ENDBRANCH   1  10
TORSDOF 4
ENDMDL
MODEL 3
REMARK VINA RESULT:      -9.1      0.825      2.198
REMARK SMILES Cc1ccc(CCC([O-])=C2CCC2)c(C)c1
REMARK SMILES IDX 6 1 5 2 2 3 3 4 16 5 4 6 14 7 1 8 15 9 7 10 8 11 9 12 10 13
REMARK SMILES IDX 11 14 13 15 12 16
REMARK H PARENT
ROOT
ATOM      1  C   UNL     1      45.485 130.912  17.255  1.00  0.00     0.039 C 
ENDROOT
BRANCH   1   2
ATOM      2  C   UNL     1      44.553 131.395  18.348  1.00  0.00    -0.045 A 
ATOM      3  C   UNL     1      42.702 132.221  20.310  1.00  0.00    -0.051 A 
ATOM      4  C   UNL     1      42.359 132.260  18.954  1.00  0.00     0.004 A 
ATOM      5  C   UNL     1      43.966 131.749  20.689  1.00  0.00     0.007 A 
ATOM      6  C   UNL     1      43.278 131.861  17.984  1.00  0.00     0.004 A 
ATOM      7  C   UNL     1      44.900 131.334  19.723  1.00  0.00    -0.048 A 
ATOM      8  C   UNL     1      41.697 132.609  21.354  1.00  0.00     0.044 C 
ATOM      9  C   UNL     1      46.259 130.866  20.177  1.00  0.00     0.044 C 
ENDBRANCH   1   2
BRANCH   1  10
ATOM     10  C   UNL     1      45.574 131.908  16.088  1.00  0.00     0.023 C 
BRANCH  10  11
ATOM     11  C   UNL     1      45.487 131.218  14.757  1.00  0.00    -0.133 C 
ATOM     12  O   UNL     1      44.254 131.110  14.124  1.00  0.00    -0.875 OA
BRANCH  11  13
ATOM     13  C   UNL     1      46.563 130.677  14.187  1.00  0.00    -0.082 C 
ATOM     14  C   UNL     1      47.528 131.010  13.064  1.00  0.00     0.030 C 
ATOM     15  C   UNL     1      47.409 129.435  14.376  1.00  0.00     0.030 C 
ATOM     16  C   UNL     1      48.352 129.781  13.269  1.00  0.00     0.009 C 
ENDBRANCH  11  13
ENDBRANCH  10  11
ENDBRANCH   1  10
TORSDOF 4
ENDMDL
MODEL 4
REMARK VINA RESULT:      -8.8      1.250      2.381
REMARK SMILES Cc1ccc(CCC([O-])=C2CCC2)c(C)c1
REMARK SMILES IDX 6 1 5 2 2 3 3 4 16 5 4 6 14 7 1 8 15 9 7 10 8 11 9 12 10 13
REMARK SMILES IDX 11 14 13 15 12 16
REMARK H PARENT
ROOT
ATOM      1  C   UNL     1      45.546 130.542  17.826  1.00  0.00     0.039 C 
ENDROOT
BRANCH   1   2
ATOM      2  C   UNL     1      44.482 131.276  18.616  1.00  0.00    -0.045 A 
ATOM      3  C   UNL     1      42.393 132.551  20.019  1.00  0.00    -0.051 A 
ATOM      4  C   UNL     1      42.245 132.239  18.663  1.00  0.00     0.004 A 
ATOM      5  C   UNL     1      43.579 132.208  20.681  1.00  0.00     0.007 A 
ATOM      6  C   UNL     1      43.282 131.617  17.968  1.00  0.00     0.004 A 
ATOM      7  C   UNL     1      44.630 131.572  19.996  1.00  0.00    -0.048 A 
ATOM      8  C   UNL     1      41.260 133.180  20.776  1.00  0.00     0.044 C 
ATOM      9  C   UNL     1      45.900 131.254  20.744  1.00  0.00     0.044 C 
ENDBRANCH   1   2
BRANCH   1  10
ATOM     10  C   UNL     1      45.753 131.148  16.430  1.00  0.00     0.023 C 
BRANCH  10  11
ATOM     11  C   UNL     1      45.873 130.088  15.373  1.00  0.00    -0.133 C 
ATOM     12  O   UNL     1      45.046 128.972  15.428  1.00  0.00    -0.875 OA
BRANCH  11  13
ATOM     13  C   UNL     1      46.780 130.180  14.402  1.00  0.00    -0.082 C 
ATOM     14  C   UNL     1      47.967 129.382  13.893  1.00  0.00     0.030 C 
ATOM     15  C   UNL     1      47.097 131.135  13.269  1.00  0.00     0.030 C 
ATOM     16  C   UNL     1      48.260 130.334  12.780  1.00  0.00     0.009 C 
ENDBRANCH  11  13
ENDBRANCH  10  11
ENDBRANCH   1  10
TORSDOF 4
ENDMDL
MODEL 5
REMARK VINA RESULT:      -8.6      1.010      1.140
REMARK SMILES Cc1ccc(CCC([O-])=C2CCC2)c(C)c1
REMARK SMILES IDX 6 1 5 2 2 3 3 4 16 5 4 6 14 7 1 8 15 9 7 10 8 11 9 12 10 13
REMARK SMILES IDX 11 14 13 15 12 16
REMARK H PARENT
ROOT
ATOM      1  C   UNL     1      44.929 131.786  18.069  1.00  0.00     0.039 C 
ENDROOT
BRANCH   1   2
ATOM      2  C   UNL     1      44.545 131.363  19.473  1.00  0.00    -0.045 A 
ATOM      3  C   UNL     1      43.972 130.622  22.133  1.00  0.00    -0.051 A 
ATOM      4  C   UNL     1      45.218 130.327  21.571  1.00  0.00     0.004 A 
ATOM      5  C   UNL     1      43.015 131.307  21.371  1.00  0.00     0.007 A 
ATOM      6  C   UNL     1      45.498 130.685  20.252  1.00  0.00     0.004 A 
ATOM      7  C   UNL     1      43.286 131.683  20.043  1.00  0.00    -0.048 A 
ATOM      8  C   UNL     1      43.689 130.276  23.565  1.00  0.00     0.044 C 
ATOM      9  C   UNL     1      42.212 132.388  19.253  1.00  0.00     0.044 C 
ENDBRANCH   1   2
BRANCH   1  10
ATOM     10  C   UNL     1      45.529 130.626  17.259  1.00  0.00     0.023 C 
BRANCH  10  11
ATOM     11  C   UNL     1      45.301 130.799  15.784  1.00  0.00    -0.133 C 
ATOM     12  O   UNL     1      44.035 131.147  15.326  1.00  0.00    -0.875 OA
BRANCH  11  13
ATOM     13  C   UNL     1      46.279 130.592  14.905  1.00  0.00    -0.082 C 
ATOM     14  C   UNL     1      47.065 129.416  14.352  1.00  0.00     0.030 C 
ATOM     15  C   UNL     1      47.121 131.433  13.967  1.00  0.00     0.030 C 
ATOM     16  C   UNL     1      47.882 130.262  13.432  1.00  0.00     0.009 C 
ENDBRANCH  11  13
ENDBRANCH  10  11
ENDBRANCH   1  10
TORSDOF 4
ENDMDL
MODEL 6
REMARK VINA RESULT:      -8.4      1.724      6.585
REMARK SMILES Cc1ccc(CCC([O-])=C2CCC2)c(C)c1
REMARK SMILES IDX 6 1 5 2 2 3 3 4 16 5 4 6 14 7 1 8 15 9 7 10 8 11 9 12 10 13
REMARK SMILES IDX 11 14 13 15 12 16
REMARK H PARENT
ROOT
ATOM      1  C   UNL     1      43.809 131.572  17.124  1.00  0.00     0.039 C 
ENDROOT
BRANCH   1   2
ATOM      2  C   UNL     1      44.885 131.119  16.159  1.00  0.00    -0.045 A 
ATOM      3  C   UNL     1      46.907 130.144  14.450  1.00  0.00    -0.051 A 
ATOM      4  C   UNL     1      47.045 130.039  15.838  1.00  0.00     0.004 A 
ATOM      5  C   UNL     1      45.747 130.720  13.913  1.00  0.00     0.007 A 
ATOM      6  C   UNL     1      46.050 130.530  16.683  1.00  0.00     0.004 A 
ATOM      7  C   UNL     1      44.730 131.210  14.752  1.00  0.00    -0.048 A 
ATOM      8  C   UNL     1      47.958 129.577  13.542  1.00  0.00     0.044 C 
ATOM      9  C   UNL     1      43.517 131.851  14.127  1.00  0.00     0.044 C 
ENDBRANCH   1   2
BRANCH   1  10
ATOM     10  C   UNL     1      44.273 131.495  18.587  1.00  0.00     0.023 C 
BRANCH  10  11
ATOM     11  C   UNL     1      43.156 131.803  19.543  1.00  0.00    -0.133 C 
ATOM     12  O   UNL     1      41.928 132.225  19.046  1.00  0.00    -0.875 OA
BRANCH  11  13
ATOM     13  C   UNL     1      43.330 131.713  20.860  1.00  0.00    -0.082 C 
ATOM     14  C   UNL     1      42.514 131.939  22.121  1.00  0.00     0.030 C 
ATOM     15  C   UNL     1      44.446 131.315  21.805  1.00  0.00     0.030 C 
ATOM     16  C   UNL     1      43.626 131.539  23.035  1.00  0.00     0.009 C 
ENDBRANCH  11  13
ENDBRANCH  10  11
ENDBRANCH   1  10
TORSDOF 4
ENDMDL
MODEL 7
REMARK VINA RESULT:      -8.3      0.545      1.898
REMARK SMILES Cc1ccc(CCC([O-])=C2CCC2)c(C)c1
REMARK SMILES IDX 6 1 5 2 2 3 3 4 16 5 4 6 14 7 1 8 15 9 7 10 8 11 9 12 10 13
REMARK SMILES IDX 11 14 13 15 12 16
REMARK H PARENT
ROOT
ATOM      1  C   UNL     1      43.699 131.593  16.867  1.00  0.00     0.039 C 
ENDROOT
BRANCH   1   2
ATOM      2  C   UNL     1      43.796 131.597  18.379  1.00  0.00    -0.045 A 
ATOM      3  C   UNL     1      43.826 131.561  21.200  1.00  0.00    -0.051 A 
ATOM      4  C   UNL     1      42.737 132.109  20.512  1.00  0.00     0.004 A 
ATOM      5  C   UNL     1      44.894 131.012  20.477  1.00  0.00     0.007 A 
ATOM      6  C   UNL     1      42.728 132.135  19.118  1.00  0.00     0.004 A 
ATOM      7  C   UNL     1      44.894 131.022  19.071  1.00  0.00    -0.048 A 
ATOM      8  C   UNL     1      43.815 131.494  22.698  1.00  0.00     0.044 C 
ATOM      9  C   UNL     1      46.081 130.450  18.338  1.00  0.00     0.044 C 
ENDBRANCH   1   2
BRANCH   1  10
ATOM     10  C   UNL     1      45.058 131.854  16.199  1.00  0.00     0.023 C 
BRANCH  10  11
ATOM     11  C   UNL     1      45.102 131.316  14.797  1.00  0.00    -0.133 C 
ATOM     12  O   UNL     1      43.951 131.341  14.019  1.00  0.00    -0.875 OA
BRANCH  11  13
ATOM     13  C   UNL     1      46.216 130.784  14.296  1.00  0.00    -0.082 C 
ATOM     14  C   UNL     1      47.236 131.115  13.222  1.00  0.00     0.030 C 
ATOM     15  C   UNL     1      47.070 129.558  14.552  1.00  0.00     0.030 C 
ATOM     16  C   UNL     1      48.067 129.903  13.493  1.00  0.00     0.009 C 
ENDBRANCH  11  13
ENDBRANCH  10  11
ENDBRANCH   1  10
TORSDOF 4
ENDMDL
MODEL 8
REMARK VINA RESULT:      -8.3      1.031      2.307
REMARK SMILES Cc1ccc(CCC([O-])=C2CCC2)c(C)c1
REMARK SMILES IDX 6 1 5 2 2 3 3 4 16 5 4 6 14 7 1 8 15 9 7 10 8 11 9 12 10 13
REMARK SMILES IDX 11 14 13 15 12 16
REMARK H PARENT
ROOT
ATOM      1  C   UNL     1      44.746 131.721  17.803  1.00  0.00     0.039 C 
ENDROOT
BRANCH   1   2
ATOM      2  C   UNL     1      44.223 131.734  19.225  1.00  0.00    -0.045 A 
ATOM      3  C   UNL     1      43.109 131.720  21.817  1.00  0.00    -0.051 A 
ATOM      4  C   UNL     1      42.405 132.286  20.749  1.00  0.00     0.004 A 
ATOM      5  C   UNL     1      44.365 131.141  21.587  1.00  0.00     0.007 A 
ATOM      6  C   UNL     1      42.960 132.301  19.469  1.00  0.00     0.004 A 
ATOM      7  C   UNL     1      44.934 131.141  20.300  1.00  0.00    -0.048 A 
ATOM      8  C   UNL     1      42.492 131.665  23.183  1.00  0.00     0.044 C 
ATOM      9  C   UNL     1      46.302 130.537  20.110  1.00  0.00     0.044 C 
ENDBRANCH   1   2
BRANCH   1  10
ATOM     10  C   UNL     1      43.672 131.281  16.796  1.00  0.00     0.023 C 
BRANCH  10  11
ATOM     11  C   UNL     1      44.171 131.352  15.381  1.00  0.00    -0.133 C 
ATOM     12  O   UNL     1      43.377 131.943  14.405  1.00  0.00    -0.875 OA
BRANCH  11  13
ATOM     13  C   UNL     1      45.347 130.830  15.036  1.00  0.00    -0.082 C 
ATOM     14  C   UNL     1      46.665 131.311  14.457  1.00  0.00     0.030 C 
ATOM     15  C   UNL     1      46.001 129.463  15.058  1.00  0.00     0.030 C 
ATOM     16  C   UNL     1      47.293 129.956  14.490  1.00  0.00     0.009 C 
ENDBRANCH  11  13
ENDBRANCH  10  11
ENDBRANCH   1  10
TORSDOF 4
ENDMDL
MODEL 9
REMARK VINA RESULT:      -8.1      0.908      2.020
REMARK SMILES Cc1ccc(CCC([O-])=C2CCC2)c(C)c1
REMARK SMILES IDX 6 1 5 2 2 3 3 4 16 5 4 6 14 7 1 8 15 9 7 10 8 11 9 12 10 13
REMARK SMILES IDX 11 14 13 15 12 16
REMARK H PARENT
ROOT
ATOM      1  C   UNL     1      45.082 131.149  17.332  1.00  0.00     0.039 C 
ENDROOT
BRANCH   1   2
ATOM      2  C   UNL     1      44.420 131.411  18.670  1.00  0.00    -0.045 A 
ATOM      3  C   UNL     1      43.051 131.843  21.098  1.00  0.00    -0.051 A 
ATOM      4  C   UNL     1      42.448 132.173  19.880  1.00  0.00     0.004 A 
ATOM      5  C   UNL     1      44.333 131.277  21.103  1.00  0.00     0.007 A 
ATOM      6  C   UNL     1      43.129 131.968  18.680  1.00  0.00     0.004 A 
ATOM      7  C   UNL     1      45.029 131.055  19.901  1.00  0.00    -0.048 A 
ATOM      8  C   UNL     1      42.301 132.023  22.384  1.00  0.00     0.044 C 
ATOM      9  C   UNL     1      46.419 130.476  19.960  1.00  0.00     0.044 C 
ENDBRANCH   1   2
BRANCH   1  10
ATOM     10  C   UNL     1      44.412 131.930  16.191  1.00  0.00     0.023 C 
BRANCH  10  11
ATOM     11  C   UNL     1      44.613 131.259  14.862  1.00  0.00    -0.133 C 
ATOM     12  O   UNL     1      43.545 131.161  13.979  1.00  0.00    -0.875 OA
BRANCH  11  13
ATOM     13  C   UNL     1      45.787 130.727  14.528  1.00  0.00    -0.082 C 
ATOM     14  C   UNL     1      46.499 129.394  14.672  1.00  0.00     0.030 C 
ATOM     15  C   UNL     1      47.040 131.174  13.803  1.00  0.00     0.030 C 
ATOM     16  C   UNL     1      47.724 129.853  13.951  1.00  0.00     0.009 C 
ENDBRANCH  11  13
ENDBRANCH  10  11
ENDBRANCH   1  10
TORSDOF 4
ENDMDL


