MODEL 1
REMARK VINA RESULT:      -5.2      0.000      0.000
REMARK SMILES Cc1cc(N)c(OC(=O)/C=C(\N)C(N)=O)c(-n2nc3ccccc3[nH+]2)c1
REMARK SMILES IDX 8 1 9 2 10 3 11 4 13 5 14 6 15 7 12 10 7 13 6 14 4 15 16 16
REMARK SMILES IDX 3 17 26 18 2 19 1 20 5 21 17 24 18 25 25 26 19 27 24 28
REMARK SMILES IDX 20 29 23 30 21 31 22 32
REMARK H PARENT 14 8 14 9 12 11 12 12 5 22 5 23 25 33
ROOT
ATOM      1  C   UNL     1      45.457 127.008  22.108  1.00  0.00     0.338 C 
ATOM      2  O   UNL     1      44.296 126.535  22.252  1.00  0.00    -0.246 OA
ENDROOT
BRANCH   1   3
ATOM      3  C   UNL     1      46.649 126.140  22.150  1.00  0.00     0.125 C 
BRANCH   3   4
ATOM      4  C   UNL     1      46.663 124.836  22.499  1.00  0.00     0.104 C 
BRANCH   4   5
ATOM      5  C   UNL     1      47.828 123.993  22.134  1.00  0.00     0.264 C 
ATOM      6  N   UNL     1      48.958 124.551  21.460  1.00  0.00    -0.364 N 
ATOM      7  O   UNL     1      47.832 122.763  22.416  1.00  0.00    -0.268 OA
ATOM      8  H   UNL     1      48.952 125.530  21.102  1.00  0.00     0.160 HD
ATOM      9  H   UNL     1      49.789 123.953  21.253  1.00  0.00     0.160 HD
ENDBRANCH   4   5
BRANCH   4  10
ATOM     10  N   UNL     1      45.583 124.248  23.239  1.00  0.00    -0.394 N 
ATOM     11  H   UNL     1      45.761 123.464  23.904  1.00  0.00     0.156 HD
ATOM     12  H   UNL     1      44.622 124.653  23.224  1.00  0.00     0.156 HD
ENDBRANCH   4  10
ENDBRANCH   3   4
ENDBRANCH   1   3
BRANCH   1  13
ATOM     13  O   UNL     1      45.634 128.372  21.847  1.00  0.00    -0.419 OA
BRANCH  13  14
ATOM     14  C   UNL     1      44.868 129.382  22.446  1.00  0.00     0.185 A 
ATOM     15  C   UNL     1      44.626 129.321  23.831  1.00  0.00     0.078 A 
ATOM     16  C   UNL     1      44.344 130.454  21.687  1.00  0.00     0.173 A 
ATOM     17  C   UNL     1      43.815 130.289  24.440  1.00  0.00     0.033 A 
ATOM     18  C   UNL     1      43.523 131.406  22.314  1.00  0.00     0.042 A 
ATOM     19  C   UNL     1      43.241 131.317  23.682  1.00  0.00    -0.046 A 
ATOM     20  C   UNL     1      42.404 132.369  24.350  1.00  0.00     0.044 C 
BRANCH  15  21
ATOM     21  N   UNL     1      45.181 128.265  24.624  1.00  0.00    -0.396 N 
ATOM     22  H   UNL     1      45.459 128.419  25.618  1.00  0.00     0.156 HD
ATOM     23  H   UNL     1      45.317 127.312  24.220  1.00  0.00     0.156 HD
ENDBRANCH  15  21
BRANCH  16  24
ATOM     24  N   UNL     1      44.685 130.620  20.301  1.00  0.00    -0.009 N 
ATOM     25  N   UNL     1      44.087 131.496  19.492  1.00  0.00     0.054 NA
ATOM     26  N   UNL     1      45.621 129.912  19.671  1.00  0.00    -0.161 N 
ATOM     27  C   UNL     1      44.688 131.335  18.301  1.00  0.00     0.249 A 
ATOM     28  C   UNL     1      45.634 130.361  18.409  1.00  0.00     0.198 A 
ATOM     29  C   UNL     1      44.461 132.015  17.108  1.00  0.00     0.064 A 
ATOM     30  C   UNL     1      46.437 129.978  17.339  1.00  0.00     0.058 A 
ATOM     31  C   UNL     1      45.252 131.656  15.998  1.00  0.00     0.005 A 
ATOM     32  C   UNL     1      46.235 130.643  16.113  1.00  0.00     0.005 A 
ATOM     33  H   UNL     1      46.233 129.180  20.094  1.00  0.00     0.340 HD
ENDBRANCH  16  24
ENDBRANCH  13  14
ENDBRANCH   1  13
TORSDOF 8
ENDMDL
MODEL 2
REMARK VINA RESULT:      -5.1      2.310      3.025
REMARK SMILES Cc1cc(N)c(OC(=O)/C=C(\N)C(N)=O)c(-n2nc3ccccc3[nH+]2)c1
REMARK SMILES IDX 8 1 9 2 10 3 11 4 13 5 14 6 15 7 12 10 7 13 6 14 4 15 16 16
REMARK SMILES IDX 3 17 26 18 2 19 1 20 5 21 17 24 18 25 25 26 19 27 24 28
REMARK SMILES IDX 20 29 23 30 21 31 22 32
REMARK H PARENT 14 8 14 9 12 11 12 12 5 22 5 23 25 33
ROOT
ATOM      1  C   UNL     1      45.411 129.017  21.474  1.00  0.00     0.338 C 
ATOM      2  O   UNL     1      46.070 128.202  20.773  1.00  0.00    -0.246 OA
ENDROOT
BRANCH   1   3
ATOM      3  C   UNL     1      44.659 128.572  22.663  1.00  0.00     0.125 C 
BRANCH   3   4
ATOM      4  C   UNL     1      44.803 127.385  23.288  1.00  0.00     0.104 C 
BRANCH   4   5
ATOM      5  C   UNL     1      43.660 126.441  23.342  1.00  0.00     0.264 C 
ATOM      6  N   UNL     1      43.783 125.107  22.845  1.00  0.00    -0.364 N 
ATOM      7  O   UNL     1      42.556 126.811  23.828  1.00  0.00    -0.268 OA
ATOM      8  H   UNL     1      44.632 124.792  22.328  1.00  0.00     0.160 HD
ATOM      9  H   UNL     1      42.982 124.441  22.933  1.00  0.00     0.160 HD
ENDBRANCH   4   5
BRANCH   4  10
ATOM     10  N   UNL     1      46.051 126.999  23.883  1.00  0.00    -0.394 N 
ATOM     11  H   UNL     1      46.134 126.100  24.407  1.00  0.00     0.156 HD
ATOM     12  H   UNL     1      46.928 127.539  23.719  1.00  0.00     0.156 HD
ENDBRANCH   4  10
ENDBRANCH   3   4
ENDBRANCH   1   3
BRANCH   1  13
ATOM     13  O   UNL     1      45.427 130.383  21.168  1.00  0.00    -0.419 OA
BRANCH  13  14
ATOM     14  C   UNL     1      44.281 131.191  21.171  1.00  0.00     0.185 A 
ATOM     15  C   UNL     1      43.738 131.598  22.403  1.00  0.00     0.078 A 
ATOM     16  C   UNL     1      43.671 131.604  19.963  1.00  0.00     0.173 A 
ATOM     17  C   UNL     1      42.560 132.359  22.430  1.00  0.00     0.033 A 
ATOM     18  C   UNL     1      42.485 132.355  20.011  1.00  0.00     0.042 A 
ATOM     19  C   UNL     1      41.917 132.716  21.238  1.00  0.00    -0.046 A 
ATOM     20  C   UNL     1      40.677 133.561  21.276  1.00  0.00     0.044 C 
BRANCH  15  21
ATOM     21  N   UNL     1      44.363 131.224  23.636  1.00  0.00    -0.396 N 
ATOM     22  H   UNL     1      43.924 131.441  24.558  1.00  0.00     0.156 HD
ATOM     23  H   UNL     1      45.278 130.719  23.638  1.00  0.00     0.156 HD
ENDBRANCH  15  21
BRANCH  16  24
ATOM     24  N   UNL     1      44.276 131.321  18.690  1.00  0.00    -0.009 N 
ATOM     25  N   UNL     1      43.774 131.734  17.526  1.00  0.00     0.054 NA
ATOM     26  N   UNL     1      45.390 130.609  18.533  1.00  0.00    -0.161 N 
ATOM     27  C   UNL     1      44.624 131.266  16.596  1.00  0.00     0.249 A 
ATOM     28  C   UNL     1      45.621 130.574  17.215  1.00  0.00     0.198 A 
ATOM     29  C   UNL     1      44.584 131.426  15.214  1.00  0.00     0.064 A 
ATOM     30  C   UNL     1      46.665 129.979  16.512  1.00  0.00     0.058 A 
ATOM     31  C   UNL     1      45.622 130.838  14.464  1.00  0.00     0.005 A 
ATOM     32  C   UNL     1      46.657 130.118  15.110  1.00  0.00     0.005 A 
ATOM     33  H   UNL     1      45.971 130.192  19.294  1.00  0.00     0.340 HD
ENDBRANCH  16  24
ENDBRANCH  13  14
ENDBRANCH   1  13
TORSDOF 8
ENDMDL
MODEL 3
REMARK VINA RESULT:      -4.7      1.956      2.686
REMARK SMILES Cc1cc(N)c(OC(=O)/C=C(\N)C(N)=O)c(-n2nc3ccccc3[nH+]2)c1
REMARK SMILES IDX 8 1 9 2 10 3 11 4 13 5 14 6 15 7 12 10 7 13 6 14 4 15 16 16
REMARK SMILES IDX 3 17 26 18 2 19 1 20 5 21 17 24 18 25 25 26 19 27 24 28
REMARK SMILES IDX 20 29 23 30 21 31 22 32
REMARK H PARENT 14 8 14 9 12 11 12 12 5 22 5 23 25 33
ROOT
ATOM      1  C   UNL     1      45.456 128.956  21.567  1.00  0.00     0.338 C 
ATOM      2  O   UNL     1      45.989 128.103  20.805  1.00  0.00    -0.246 OA
ENDROOT
BRANCH   1   3
ATOM      3  C   UNL     1      44.832 128.558  22.843  1.00  0.00     0.125 C 
BRANCH   3   4
ATOM      4  C   UNL     1      44.456 127.306  23.180  1.00  0.00     0.104 C 
BRANCH   4   5
ATOM      5  C   UNL     1      45.485 126.248  23.332  1.00  0.00     0.264 C 
ATOM      6  N   UNL     1      45.332 124.976  22.699  1.00  0.00    -0.364 N 
ATOM      7  O   UNL     1      46.513 126.461  24.031  1.00  0.00    -0.268 OA
ATOM      8  H   UNL     1      44.448 124.710  22.212  1.00  0.00     0.160 HD
ATOM      9  H   UNL     1      46.087 124.259  22.778  1.00  0.00     0.160 HD
ENDBRANCH   4   5
BRANCH   4  10
ATOM     10  N   UNL     1      43.080 126.976  23.421  1.00  0.00    -0.394 N 
ATOM     11  H   UNL     1      42.339 127.710  23.357  1.00  0.00     0.156 HD
ATOM     12  H   UNL     1      42.765 125.991  23.551  1.00  0.00     0.156 HD
ENDBRANCH   4  10
ENDBRANCH   3   4
ENDBRANCH   1   3
BRANCH   1  13
ATOM     13  O   UNL     1      45.497 130.316  21.241  1.00  0.00    -0.419 OA
BRANCH  13  14
ATOM     14  C   UNL     1      44.359 131.133  21.179  1.00  0.00     0.185 A 
ATOM     15  C   UNL     1      43.717 131.496  22.377  1.00  0.00     0.078 A 
ATOM     16  C   UNL     1      43.855 131.598  19.942  1.00  0.00     0.173 A 
ATOM     17  C   UNL     1      42.545 132.265  22.335  1.00  0.00     0.033 A 
ATOM     18  C   UNL     1      42.673 132.356  19.920  1.00  0.00     0.042 A 
ATOM     19  C   UNL     1      42.006 132.674  21.109  1.00  0.00    -0.046 A 
ATOM     20  C   UNL     1      40.771 133.527  21.076  1.00  0.00     0.044 C 
BRANCH  15  21
ATOM     21  N   UNL     1      44.234 131.069  23.643  1.00  0.00    -0.396 N 
ATOM     22  H   UNL     1      43.764 131.326  24.538  1.00  0.00     0.156 HD
ATOM     23  H   UNL     1      45.097 130.484  23.694  1.00  0.00     0.156 HD
ENDBRANCH  15  21
BRANCH  16  24
ATOM     24  N   UNL     1      44.564 131.360  18.714  1.00  0.00    -0.009 N 
ATOM     25  N   UNL     1      44.551 132.200  17.679  1.00  0.00     0.054 NA
ATOM     26  N   UNL     1      45.296 130.274  18.472  1.00  0.00    -0.161 N 
ATOM     27  C   UNL     1      45.324 131.616  16.748  1.00  0.00     0.249 A 
ATOM     28  C   UNL     1      45.784 130.430  17.235  1.00  0.00     0.198 A 
ATOM     29  C   UNL     1      45.666 132.077  15.480  1.00  0.00     0.064 A 
ATOM     30  C   UNL     1      46.626 129.598  16.502  1.00  0.00     0.058 A 
ATOM     31  C   UNL     1      46.516 131.263  14.703  1.00  0.00     0.005 A 
ATOM     32  C   UNL     1      46.994 130.030  15.212  1.00  0.00     0.005 A 
ATOM     33  H   UNL     1      45.469 129.484  19.131  1.00  0.00     0.340 HD
ENDBRANCH  16  24
ENDBRANCH  13  14
ENDBRANCH   1  13
TORSDOF 8
ENDMDL
MODEL 4
REMARK VINA RESULT:      -3.9      4.341      6.437
REMARK SMILES Cc1cc(N)c(OC(=O)/C=C(\N)C(N)=O)c(-n2nc3ccccc3[nH+]2)c1
REMARK SMILES IDX 8 1 9 2 10 3 11 4 13 5 14 6 15 7 12 10 7 13 6 14 4 15 16 16
REMARK SMILES IDX 3 17 26 18 2 19 1 20 5 21 17 24 18 25 25 26 19 27 24 28
REMARK SMILES IDX 20 29 23 30 21 31 22 32
REMARK H PARENT 14 8 14 9 12 11 12 12 5 22 5 23 25 33
ROOT
ATOM      1  C   UNL     1      47.726 133.766  21.870  1.00  0.00     0.338 C 
ATOM      2  O   UNL     1      48.680 133.145  22.415  1.00  0.00    -0.246 OA
ENDROOT
BRANCH   1   3
ATOM      3  C   UNL     1      47.689 135.241  21.843  1.00  0.00     0.125 C 
BRANCH   3   4
ATOM      4  C   UNL     1      48.653 136.045  21.348  1.00  0.00     0.104 C 
BRANCH   4   5
ATOM      5  C   UNL     1      49.974 136.105  22.022  1.00  0.00     0.264 C 
ATOM      6  N   UNL     1      50.166 135.531  23.317  1.00  0.00    -0.364 N 
ATOM      7  O   UNL     1      50.948 136.671  21.455  1.00  0.00    -0.268 OA
ATOM      8  H   UNL     1      49.366 135.160  23.874  1.00  0.00     0.160 HD
ATOM      9  H   UNL     1      51.113 135.541  23.756  1.00  0.00     0.160 HD
ENDBRANCH   4   5
BRANCH   4  10
ATOM     10  N   UNL     1      48.440 136.829  20.165  1.00  0.00    -0.394 N 
ATOM     11  H   UNL     1      47.582 136.693  19.586  1.00  0.00     0.156 HD
ATOM     12  H   UNL     1      49.065 137.625  19.914  1.00  0.00     0.156 HD
ENDBRANCH   4  10
ENDBRANCH   3   4
ENDBRANCH   1   3
BRANCH   1  13
ATOM     13  O   UNL     1      46.704 133.061  21.223  1.00  0.00    -0.419 OA
BRANCH  13  14
ATOM     14  C   UNL     1      45.675 132.393  21.902  1.00  0.00     0.185 A 
ATOM     15  C   UNL     1      45.479 132.656  23.270  1.00  0.00     0.078 A 
ATOM     16  C   UNL     1      44.834 131.471  21.235  1.00  0.00     0.173 A 
ATOM     17  C   UNL     1      44.493 131.956  23.980  1.00  0.00     0.033 A 
ATOM     18  C   UNL     1      43.861 130.772  21.967  1.00  0.00     0.042 A 
ATOM     19  C   UNL     1      43.701 130.996  23.340  1.00  0.00    -0.046 A 
ATOM     20  C   UNL     1      42.623 130.279  24.100  1.00  0.00     0.044 C 
BRANCH  15  21
ATOM     21  N   UNL     1      46.294 133.615  23.954  1.00  0.00    -0.396 N 
ATOM     22  H   UNL     1      47.321 133.681  23.778  1.00  0.00     0.156 HD
ATOM     23  H   UNL     1      45.873 134.274  24.646  1.00  0.00     0.156 HD
ENDBRANCH  15  21
BRANCH  16  24
ATOM     24  N   UNL     1      44.918 131.283  19.813  1.00  0.00    -0.009 N 
ATOM     25  N   UNL     1      44.041 131.792  18.947  1.00  0.00     0.054 NA
ATOM     26  N   UNL     1      45.868 130.573  19.207  1.00  0.00    -0.161 N 
ATOM     27  C   UNL     1      44.471 131.390  17.739  1.00  0.00     0.249 A 
ATOM     28  C   UNL     1      45.597 130.640  17.897  1.00  0.00     0.198 A 
ATOM     29  C   UNL     1      43.933 131.659  16.484  1.00  0.00     0.064 A 
ATOM     30  C   UNL     1      46.286 130.091  16.819  1.00  0.00     0.058 A 
ATOM     31  C   UNL     1      44.600 131.120  15.365  1.00  0.00     0.005 A 
ATOM     32  C   UNL     1      45.770 130.340  15.532  1.00  0.00     0.005 A 
ATOM     33  H   UNL     1      46.671 130.091  19.669  1.00  0.00     0.340 HD
ENDBRANCH  16  24
ENDBRANCH  13  14
ENDBRANCH   1  13
TORSDOF 8
ENDMDL
MODEL 5
REMARK VINA RESULT:      -3.9      3.999      6.015
REMARK SMILES Cc1cc(N)c(OC(=O)/C=C(\N)C(N)=O)c(-n2nc3ccccc3[nH+]2)c1
REMARK SMILES IDX 8 1 9 2 10 3 11 4 13 5 14 6 15 7 12 10 7 13 6 14 4 15 16 16
REMARK SMILES IDX 3 17 26 18 2 19 1 20 5 21 17 24 18 25 25 26 19 27 24 28
REMARK SMILES IDX 20 29 23 30 21 31 22 32
REMARK H PARENT 14 8 14 9 12 11 12 12 5 22 5 23 25 33
ROOT
ATOM      1  C   UNL     1      47.236 133.083  21.825  1.00  0.00     0.338 C 
ATOM      2  O   UNL     1      47.859 132.312  21.044  1.00  0.00    -0.246 OA
ENDROOT
BRANCH   1   3
ATOM      3  C   UNL     1      47.950 134.057  22.672  1.00  0.00     0.125 C 
BRANCH   3   4
ATOM      4  C   UNL     1      48.991 134.824  22.285  1.00  0.00     0.104 C 
BRANCH   4   5
ATOM      5  C   UNL     1      48.785 135.871  21.254  1.00  0.00     0.264 C 
ATOM      6  N   UNL     1      49.879 136.360  20.474  1.00  0.00    -0.364 N 
ATOM      7  O   UNL     1      47.634 136.346  21.055  1.00  0.00    -0.268 OA
ATOM      8  H   UNL     1      50.864 136.087  20.682  1.00  0.00     0.160 HD
ATOM      9  H   UNL     1      49.709 137.063  19.721  1.00  0.00     0.160 HD
ENDBRANCH   4   5
BRANCH   4  10
ATOM     10  N   UNL     1      50.293 134.667  22.867  1.00  0.00    -0.394 N 
ATOM     11  H   UNL     1      51.129 135.110  22.425  1.00  0.00     0.156 HD
ATOM     12  H   UNL     1      50.429 134.212  23.795  1.00  0.00     0.156 HD
ENDBRANCH   4  10
ENDBRANCH   3   4
ENDBRANCH   1   3
BRANCH   1  13
ATOM     13  O   UNL     1      45.836 133.068  21.861  1.00  0.00    -0.419 OA
BRANCH  13  14
ATOM     14  C   UNL     1      45.087 132.026  22.425  1.00  0.00     0.185 A 
ATOM     15  C   UNL     1      44.832 132.043  23.809  1.00  0.00     0.078 A 
ATOM     16  C   UNL     1      44.582 130.970  21.630  1.00  0.00     0.173 A 
ATOM     17  C   UNL     1      44.133 130.982  24.402  1.00  0.00     0.033 A 
ATOM     18  C   UNL     1      43.896 129.911  22.246  1.00  0.00     0.042 A 
ATOM     19  C   UNL     1      43.687 129.903  23.630  1.00  0.00    -0.046 A 
ATOM     20  C   UNL     1      42.909 128.789  24.269  1.00  0.00     0.044 C 
BRANCH  15  21
ATOM     21  N   UNL     1      45.300 133.123  24.625  1.00  0.00    -0.396 N 
ATOM     22  H   UNL     1      46.024 132.974  25.362  1.00  0.00     0.156 HD
ATOM     23  H   UNL     1      44.926 134.089  24.495  1.00  0.00     0.156 HD
ENDBRANCH  15  21
BRANCH  16  24
ATOM     24  N   UNL     1      44.706 130.994  20.198  1.00  0.00    -0.009 N 
ATOM     25  N   UNL     1      43.785 131.512  19.385  1.00  0.00     0.054 NA
ATOM     26  N   UNL     1      45.742 130.492  19.529  1.00  0.00    -0.161 N 
ATOM     27  C   UNL     1      44.276 131.336  18.146  1.00  0.00     0.249 A 
ATOM     28  C   UNL     1      45.482 130.709  18.233  1.00  0.00     0.198 A 
ATOM     29  C   UNL     1      43.725 131.712  16.926  1.00  0.00     0.064 A 
ATOM     30  C   UNL     1      46.246 130.400  17.111  1.00  0.00     0.058 A 
ATOM     31  C   UNL     1      44.466 131.417  15.763  1.00  0.00     0.005 A 
ATOM     32  C   UNL     1      45.720 130.765  15.856  1.00  0.00     0.005 A 
ATOM     33  H   UNL     1      46.591 130.048  19.944  1.00  0.00     0.340 HD
ENDBRANCH  16  24
ENDBRANCH  13  14
ENDBRANCH   1  13
TORSDOF 8
ENDMDL
MODEL 6
REMARK VINA RESULT:      -3.8      4.377      6.619
REMARK SMILES Cc1cc(N)c(OC(=O)/C=C(\N)C(N)=O)c(-n2nc3ccccc3[nH+]2)c1
REMARK SMILES IDX 8 1 9 2 10 3 11 4 13 5 14 6 15 7 12 10 7 13 6 14 4 15 16 16
REMARK SMILES IDX 3 17 26 18 2 19 1 20 5 21 17 24 18 25 25 26 19 27 24 28
REMARK SMILES IDX 20 29 23 30 21 31 22 32
REMARK H PARENT 14 8 14 9 12 11 12 12 5 22 5 23 25 33
ROOT
ATOM      1  C   UNL     1      47.611 133.728  21.699  1.00  0.00     0.338 C 
ATOM      2  O   UNL     1      48.383 132.887  22.234  1.00  0.00    -0.246 OA
ENDROOT
BRANCH   1   3
ATOM      3  C   UNL     1      48.059 135.103  21.407  1.00  0.00     0.125 C 
BRANCH   3   4
ATOM      4  C   UNL     1      49.182 135.683  21.883  1.00  0.00     0.104 C 
BRANCH   4   5
ATOM      5  C   UNL     1      49.799 136.806  21.134  1.00  0.00     0.264 C 
ATOM      6  N   UNL     1      49.806 136.822  19.705  1.00  0.00    -0.364 N 
ATOM      7  O   UNL     1      50.332 137.765  21.757  1.00  0.00    -0.268 OA
ATOM      8  H   UNL     1      49.487 136.001  19.147  1.00  0.00     0.160 HD
ATOM      9  H   UNL     1      50.203 137.643  19.195  1.00  0.00     0.160 HD
ENDBRANCH   4   5
BRANCH   4  10
ATOM     10  N   UNL     1      49.782 135.255  23.113  1.00  0.00    -0.394 N 
ATOM     11  H   UNL     1      50.400 135.899  23.656  1.00  0.00     0.156 HD
ATOM     12  H   UNL     1      49.536 134.344  23.557  1.00  0.00     0.156 HD
ENDBRANCH   4  10
ENDBRANCH   3   4
ENDBRANCH   1   3
BRANCH   1  13
ATOM     13  O   UNL     1      46.318 133.353  21.314  1.00  0.00    -0.419 OA
BRANCH  13  14
ATOM     14  C   UNL     1      45.536 132.431  22.023  1.00  0.00     0.185 A 
ATOM     15  C   UNL     1      45.360 132.611  23.408  1.00  0.00     0.078 A 
ATOM     16  C   UNL     1      44.920 131.337  21.372  1.00  0.00     0.173 A 
ATOM     17  C   UNL     1      44.629 131.670  24.146  1.00  0.00     0.033 A 
ATOM     18  C   UNL     1      44.202 130.398  22.132  1.00  0.00     0.042 A 
ATOM     19  C   UNL     1      44.071 130.550  23.517  1.00  0.00    -0.046 A 
ATOM     20  C   UNL     1      43.259 129.567  24.310  1.00  0.00     0.044 C 
BRANCH  15  21
ATOM     21  N   UNL     1      45.942 133.734  24.078  1.00  0.00    -0.396 N 
ATOM     22  H   UNL     1      46.395 133.636  25.014  1.00  0.00     0.156 HD
ATOM     23  H   UNL     1      45.928 134.682  23.639  1.00  0.00     0.156 HD
ENDBRANCH  15  21
BRANCH  16  24
ATOM     24  N   UNL     1      44.965 131.201  19.942  1.00  0.00    -0.009 N 
ATOM     25  N   UNL     1      45.880 130.476  19.298  1.00  0.00     0.054 NA
ATOM     26  N   UNL     1      44.113 131.792  19.107  1.00  0.00    -0.161 N 
ATOM     27  C   UNL     1      45.575 130.610  17.995  1.00  0.00     0.249 A 
ATOM     28  C   UNL     1      44.486 131.420  17.876  1.00  0.00     0.198 A 
ATOM     29  C   UNL     1      46.199 130.043  16.888  1.00  0.00     0.064 A 
ATOM     30  C   UNL     1      43.923 131.737  16.644  1.00  0.00     0.058 A 
ATOM     31  C   UNL     1      45.661 130.340  15.620  1.00  0.00     0.005 A 
ATOM     32  C   UNL     1      44.528 131.182  15.498  1.00  0.00     0.005 A 
ATOM     33  H   UNL     1      43.304 132.397  19.373  1.00  0.00     0.340 HD
ENDBRANCH  16  24
ENDBRANCH  13  14
ENDBRANCH   1  13
TORSDOF 8
ENDMDL
MODEL 7
REMARK VINA RESULT:      -3.7      1.840      2.721
REMARK SMILES Cc1cc(N)c(OC(=O)/C=C(\N)C(N)=O)c(-n2nc3ccccc3[nH+]2)c1
REMARK SMILES IDX 8 1 9 2 10 3 11 4 13 5 14 6 15 7 12 10 7 13 6 14 4 15 16 16
REMARK SMILES IDX 3 17 26 18 2 19 1 20 5 21 17 24 18 25 25 26 19 27 24 28
REMARK SMILES IDX 20 29 23 30 21 31 22 32
REMARK H PARENT 14 8 14 9 12 11 12 12 5 22 5 23 25 33
ROOT
ATOM      1  C   UNL     1      45.354 128.737  21.689  1.00  0.00     0.338 C 
ATOM      2  O   UNL     1      46.235 127.940  21.261  1.00  0.00    -0.246 OA
ENDROOT
BRANCH   1   3
ATOM      3  C   UNL     1      44.255 128.271  22.555  1.00  0.00     0.125 C 
BRANCH   3   4
ATOM      4  C   UNL     1      44.304 127.210  23.389  1.00  0.00     0.104 C 
BRANCH   4   5
ATOM      5  C   UNL     1      45.419 126.238  23.274  1.00  0.00     0.264 C 
ATOM      6  N   UNL     1      46.693 126.507  23.865  1.00  0.00    -0.364 N 
ATOM      7  O   UNL     1      45.255 125.158  22.645  1.00  0.00    -0.268 OA
ATOM      8  H   UNL     1      46.914 127.433  24.290  1.00  0.00     0.160 HD
ATOM      9  H   UNL     1      47.452 125.792  23.814  1.00  0.00     0.160 HD
ENDBRANCH   4   5
BRANCH   4  10
ATOM     10  N   UNL     1      43.311 127.012  24.407  1.00  0.00    -0.394 N 
ATOM     11  H   UNL     1      43.560 127.108  25.416  1.00  0.00     0.156 HD
ATOM     12  H   UNL     1      42.304 126.881  24.173  1.00  0.00     0.156 HD
ENDBRANCH   4  10
ENDBRANCH   3   4
ENDBRANCH   1   3
BRANCH   1  13
ATOM     13  O   UNL     1      45.438 130.102  21.394  1.00  0.00    -0.419 OA
BRANCH  13  14
ATOM     14  C   UNL     1      44.331 130.963  21.388  1.00  0.00     0.185 A 
ATOM     15  C   UNL     1      43.703 131.273  22.609  1.00  0.00     0.078 A 
ATOM     16  C   UNL     1      43.842 131.523  20.184  1.00  0.00     0.173 A 
ATOM     17  C   UNL     1      42.561 132.086  22.619  1.00  0.00     0.033 A 
ATOM     18  C   UNL     1      42.689 132.323  20.215  1.00  0.00     0.042 A 
ATOM     19  C   UNL     1      42.036 132.590  21.423  1.00  0.00    -0.046 A 
ATOM     20  C   UNL     1      40.833 133.489  21.448  1.00  0.00     0.044 C 
BRANCH  15  21
ATOM     21  N   UNL     1      44.206 130.748  23.843  1.00  0.00    -0.396 N 
ATOM     22  H   UNL     1      43.565 130.376  24.578  1.00  0.00     0.156 HD
ATOM     23  H   UNL     1      45.233 130.724  24.032  1.00  0.00     0.156 HD
ENDBRANCH  15  21
BRANCH  16  24
ATOM     24  N   UNL     1      44.540 131.337  18.942  1.00  0.00    -0.009 N 
ATOM     25  N   UNL     1      45.244 130.243  18.647  1.00  0.00     0.054 NA
ATOM     26  N   UNL     1      44.571 132.235  17.959  1.00  0.00    -0.161 N 
ATOM     27  C   UNL     1      45.729 130.464  17.413  1.00  0.00     0.249 A 
ATOM     28  C   UNL     1      45.315 131.690  16.987  1.00  0.00     0.198 A 
ATOM     29  C   UNL     1      46.515 129.634  16.620  1.00  0.00     0.064 A 
ATOM     30  C   UNL     1      45.647 132.198  15.734  1.00  0.00     0.058 A 
ATOM     31  C   UNL     1      46.876 130.110  15.343  1.00  0.00     0.005 A 
ATOM     32  C   UNL     1      46.444 131.386  14.903  1.00  0.00     0.005 A 
ATOM     33  H   UNL     1      44.087 133.159  17.949  1.00  0.00     0.340 HD
ENDBRANCH  16  24
ENDBRANCH  13  14
ENDBRANCH   1  13
TORSDOF 8
ENDMDL
MODEL 8
REMARK VINA RESULT:      -3.6      2.624      3.478
REMARK SMILES Cc1cc(N)c(OC(=O)/C=C(\N)C(N)=O)c(-n2nc3ccccc3[nH+]2)c1
REMARK SMILES IDX 8 1 9 2 10 3 11 4 13 5 14 6 15 7 12 10 7 13 6 14 4 15 16 16
REMARK SMILES IDX 3 17 26 18 2 19 1 20 5 21 17 24 18 25 25 26 19 27 24 28
REMARK SMILES IDX 20 29 23 30 21 31 22 32
REMARK H PARENT 14 8 14 9 12 11 12 12 5 22 5 23 25 33
ROOT
ATOM      1  C   UNL     1      45.803 129.170  20.786  1.00  0.00     0.338 C 
ATOM      2  O   UNL     1      45.861 128.598  19.663  1.00  0.00    -0.246 OA
ENDROOT
BRANCH   1   3
ATOM      3  C   UNL     1      45.864 128.399  22.043  1.00  0.00     0.125 C 
BRANCH   3   4
ATOM      4  C   UNL     1      44.858 127.671  22.570  1.00  0.00     0.104 C 
BRANCH   4   5
ATOM      5  C   UNL     1      43.990 128.269  23.614  1.00  0.00     0.264 C 
ATOM      6  N   UNL     1      42.565 128.216  23.507  1.00  0.00    -0.364 N 
ATOM      7  O   UNL     1      44.504 128.839  24.615  1.00  0.00    -0.268 OA
ATOM      8  H   UNL     1      42.095 127.863  22.645  1.00  0.00     0.160 HD
ATOM      9  H   UNL     1      41.970 128.600  24.273  1.00  0.00     0.160 HD
ENDBRANCH   4   5
BRANCH   4  10
ATOM     10  N   UNL     1      44.589 126.333  22.126  1.00  0.00    -0.394 N 
ATOM     11  H   UNL     1      43.650 125.902  22.275  1.00  0.00     0.156 HD
ATOM     12  H   UNL     1      45.273 125.799  21.548  1.00  0.00     0.156 HD
ENDBRANCH   4  10
ENDBRANCH   3   4
ENDBRANCH   1   3
BRANCH   1  13
ATOM     13  O   UNL     1      45.737 130.566  20.863  1.00  0.00    -0.419 OA
BRANCH  13  14
ATOM     14  C   UNL     1      44.536 131.288  20.835  1.00  0.00     0.185 A 
ATOM     15  C   UNL     1      43.949 131.681  22.052  1.00  0.00     0.078 A 
ATOM     16  C   UNL     1      43.912 131.629  19.612  1.00  0.00     0.173 A 
ATOM     17  C   UNL     1      42.719 132.353  22.049  1.00  0.00     0.033 A 
ATOM     18  C   UNL     1      42.674 132.291  19.630  1.00  0.00     0.042 A 
ATOM     19  C   UNL     1      42.066 132.637  20.843  1.00  0.00    -0.046 A 
ATOM     20  C   UNL     1      40.767 133.389  20.848  1.00  0.00     0.044 C 
BRANCH  15  21
ATOM     21  N   UNL     1      44.585 131.380  23.300  1.00  0.00    -0.396 N 
ATOM     22  H   UNL     1      44.041 131.023  24.116  1.00  0.00     0.156 HD
ATOM     23  H   UNL     1      45.615 131.510  23.418  1.00  0.00     0.156 HD
ENDBRANCH  15  21
BRANCH  16  24
ATOM     24  N   UNL     1      44.552 131.363  18.352  1.00  0.00    -0.009 N 
ATOM     25  N   UNL     1      45.059 132.314  17.566  1.00  0.00     0.054 NA
ATOM     26  N   UNL     1      44.697 130.148  17.828  1.00  0.00    -0.161 N 
ATOM     27  C   UNL     1      45.556 131.658  16.504  1.00  0.00     0.249 A 
ATOM     28  C   UNL     1      45.335 130.323  16.664  1.00  0.00     0.198 A 
ATOM     29  C   UNL     1      46.216 132.169  15.391  1.00  0.00     0.064 A 
ATOM     30  C   UNL     1      45.751 129.380  15.729  1.00  0.00     0.058 A 
ATOM     31  C   UNL     1      46.653 131.247  14.418  1.00  0.00     0.005 A 
ATOM     32  C   UNL     1      46.422 129.859  14.586  1.00  0.00     0.005 A 
ATOM     33  H   UNL     1      44.395 129.247  18.261  1.00  0.00     0.340 HD
ENDBRANCH  16  24
ENDBRANCH  13  14
ENDBRANCH   1  13
TORSDOF 8
ENDMDL
MODEL 9
REMARK VINA RESULT:      -3.4      1.803      2.542
REMARK SMILES Cc1cc(N)c(OC(=O)/C=C(\N)C(N)=O)c(-n2nc3ccccc3[nH+]2)c1
REMARK SMILES IDX 8 1 9 2 10 3 11 4 13 5 14 6 15 7 12 10 7 13 6 14 4 15 16 16
REMARK SMILES IDX 3 17 26 18 2 19 1 20 5 21 17 24 18 25 25 26 19 27 24 28
REMARK SMILES IDX 20 29 23 30 21 31 22 32
REMARK H PARENT 14 8 14 9 12 11 12 12 5 22 5 23 25 33
ROOT
ATOM      1  C   UNL     1      45.266 128.558  21.882  1.00  0.00     0.338 C 
ATOM      2  O   UNL     1      44.166 128.181  22.372  1.00  0.00    -0.246 OA
ENDROOT
BRANCH   1   3
ATOM      3  C   UNL     1      46.453 127.681  21.898  1.00  0.00     0.125 C 
BRANCH   3   4
ATOM      4  C   UNL     1      46.518 126.454  22.457  1.00  0.00     0.104 C 
BRANCH   4   5
ATOM      5  C   UNL     1      46.588 126.323  23.933  1.00  0.00     0.264 C 
ATOM      6  N   UNL     1      47.832 126.456  24.625  1.00  0.00    -0.364 N 
ATOM      7  O   UNL     1      45.543 126.089  24.599  1.00  0.00    -0.268 OA
ATOM      8  H   UNL     1      48.738 126.530  24.113  1.00  0.00     0.160 HD
ATOM      9  H   UNL     1      47.857 126.408  25.668  1.00  0.00     0.160 HD
ENDBRANCH   4   5
BRANCH   4  10
ATOM     10  N   UNL     1      46.496 125.264  21.654  1.00  0.00    -0.394 N 
ATOM     11  H   UNL     1      46.960 124.390  21.987  1.00  0.00     0.156 HD
ATOM     12  H   UNL     1      45.928 125.200  20.782  1.00  0.00     0.156 HD
ENDBRANCH   4  10
ENDBRANCH   3   4
ENDBRANCH   1   3
BRANCH   1  13
ATOM     13  O   UNL     1      45.368 129.805  21.255  1.00  0.00    -0.419 OA
BRANCH  13  14
ATOM     14  C   UNL     1      44.345 130.764  21.267  1.00  0.00     0.185 A 
ATOM     15  C   UNL     1      43.724 131.081  22.489  1.00  0.00     0.078 A 
ATOM     16  C   UNL     1      43.935 131.415  20.080  1.00  0.00     0.173 A 
ATOM     17  C   UNL     1      42.661 131.995  22.514  1.00  0.00     0.033 A 
ATOM     18  C   UNL     1      42.860 132.317  20.124  1.00  0.00     0.042 A 
ATOM     19  C   UNL     1      42.209 132.594  21.332  1.00  0.00    -0.046 A 
ATOM     20  C   UNL     1      41.093 133.598  21.374  1.00  0.00     0.044 C 
BRANCH  15  21
ATOM     21  N   UNL     1      44.151 130.463  23.708  1.00  0.00    -0.396 N 
ATOM     22  H   UNL     1      44.465 129.468  23.733  1.00  0.00     0.156 HD
ATOM     23  H   UNL     1      44.158 131.000  24.603  1.00  0.00     0.156 HD
ENDBRANCH  15  21
BRANCH  16  24
ATOM     24  N   UNL     1      44.639 131.215  18.842  1.00  0.00    -0.009 N 
ATOM     25  N   UNL     1      45.364 130.129  18.572  1.00  0.00     0.054 NA
ATOM     26  N   UNL     1      44.654 132.092  17.840  1.00  0.00    -0.161 N 
ATOM     27  C   UNL     1      45.847 130.333  17.334  1.00  0.00     0.249 A 
ATOM     28  C   UNL     1      45.409 131.541  16.881  1.00  0.00     0.198 A 
ATOM     29  C   UNL     1      46.650 129.501  16.561  1.00  0.00     0.064 A 
ATOM     30  C   UNL     1      45.734 132.027  15.618  1.00  0.00     0.058 A 
ATOM     31  C   UNL     1      47.004 129.956  15.274  1.00  0.00     0.005 A 
ATOM     32  C   UNL     1      46.548 131.213  14.805  1.00  0.00     0.005 A 
ATOM     33  H   UNL     1      44.151 133.006  17.809  1.00  0.00     0.340 HD
ENDBRANCH  16  24
ENDBRANCH  13  14
ENDBRANCH   1  13
TORSDOF 8
ENDMDL


