REMARK SMILES O=C1NC[C@H](/C(O)=[N+]2/CCC[C@H](c3ccc4cc(F)ccc4n3)[C@@H]2F)N1
REMARK SMILES IDX 8 1 9 2 10 3 11 4 12 5 24 6 25 7 6 8 7 9 5 11 26 12 4 13
REMARK SMILES IDX 2 14 3 15 1 17 13 19 23 20 14 21 22 22 15 23 21 24 16 25
REMARK SMILES IDX 20 26 17 27 18 28 19 29
REMARK H PARENT 7 10 26 16 3 18
ROOT
ATOM      1  N   UNL     1       2.393  -1.394  -0.009  1.00  0.00    -0.168 N 
ATOM      2  C   UNL     1       3.003  -2.267   1.018  1.00  0.00     0.357 C 
ATOM      3  C   UNL     1       3.102  -1.536   2.360  1.00  0.00     0.074 C 
ATOM      4  C   UNL     1       1.734  -1.002   2.786  1.00  0.00     0.026 C 
ATOM      5  C   UNL     1       1.159  -0.081   1.697  1.00  0.00     0.142 C 
ATOM      6  C   UNL     1       1.076  -0.812   0.342  1.00  0.00     0.454 C 
ATOM      7  F   UNL     1       0.129  -1.823   0.390  1.00  0.00    -0.174 F 
ENDROOT
BRANCH   1   8
ATOM      8  C   UNL     1       2.959  -1.253  -1.195  1.00  0.00     0.361 C 
BRANCH   8   9
ATOM      9  O   UNL     1       4.238  -1.783  -1.410  1.00  0.00    -0.462 OA
ATOM     10  H   UNL     1       4.761  -1.638  -2.264  1.00  0.00     0.299 HD
ENDBRANCH   8   9
BRANCH   8  11
ATOM     11  C   UNL     1       2.293  -0.491  -2.336  1.00  0.00     0.240 C 
ATOM     12  N   UNL     1       2.867  -0.856  -3.627  1.00  0.00    -0.321 N 
ATOM     13  C   UNL     1       2.514   1.046  -2.203  1.00  0.00     0.158 C 
ATOM     14  C   UNL     1       3.365   0.315  -4.229  1.00  0.00     0.315 C 
ATOM     15  N   UNL     1       3.184   1.458  -3.429  1.00  0.00    -0.335 N 
ATOM     16  H   UNL     1       2.853  -1.807  -4.060  1.00  0.00     0.166 HD
ATOM     17  O   UNL     1       3.909   0.338  -5.364  1.00  0.00    -0.249 OA
ATOM     18  H   UNL     1       3.470   2.432  -3.675  1.00  0.00     0.165 HD
ENDBRANCH   8  11
ENDBRANCH   1   8
BRANCH   5  19
ATOM     19  C   UNL     1      -0.194   0.467   2.094  1.00  0.00     0.054 A 
ATOM     20  N   UNL     1      -1.135  -0.361   2.631  1.00  0.00    -0.252 NA
ATOM     21  C   UNL     1      -0.514   1.812   1.853  1.00  0.00     0.025 A 
ATOM     22  C   UNL     1      -2.376   0.079   2.967  1.00  0.00     0.071 A 
ATOM     23  C   UNL     1      -1.781   2.293   2.189  1.00  0.00     0.012 A 
ATOM     24  C   UNL     1      -3.308  -0.804   3.524  1.00  0.00     0.032 A 
ATOM     25  C   UNL     1      -2.727   1.430   2.753  1.00  0.00     0.003 A 
ATOM     26  C   UNL     1      -4.584  -0.349   3.869  1.00  0.00     0.041 A 
ATOM     27  C   UNL     1      -4.010   1.879   3.101  1.00  0.00     0.049 A 
ATOM     28  C   UNL     1      -4.935   0.990   3.658  1.00  0.00     0.123 A 
ATOM     29  F   UNL     1      -6.174   1.425   3.994  1.00  0.00    -0.207 F 
ENDBRANCH   5  19
TORSDOF 4


