MODEL 1
REMARK VINA RESULT:      -3.2      0.000      0.000
REMARK SMILES C=C([NH3+])/C(C=O)=C(\O)Oc1c(N)cc(-c2ccc(C(C)=O)[nH+]c2)cc1[NH2+]c1ccc(C)c(F)c1
REMARK SMILES IDX 7 1 8 2 9 4 10 5 11 6 25 7 13 8 24 9 14 10 12 11 26 14 27 17
REMARK SMILES IDX 28 18 34 19 29 20 32 21 30 22 33 23 31 24 15 25 16 26 23 27
REMARK SMILES IDX 17 28 22 29 18 30 19 32 21 33 20 34 4 35 5 36 6 37 2 38 1 39
REMARK SMILES IDX 3 40
REMARK H PARENT 8 3 12 12 12 13 26 15 26 16 22 31 3 41 3 42 3 43
ROOT
ATOM      1  C   UNL     1      44.142 128.896  23.170  1.00  0.00     0.299 C 
ENDROOT
BRANCH   1   2
ATOM      2  O   UNL     1      45.427 128.567  23.613  1.00  0.00    -0.480 OA
ATOM      3  H   UNL     1      45.688 127.623  23.869  1.00  0.00     0.297 HD
ENDBRANCH   1   2
BRANCH   1   4
ATOM      4  O   UNL     1      43.947 130.013  22.344  1.00  0.00    -0.417 OA
BRANCH   4   5
ATOM      5  C   UNL     1      44.854 131.073  22.244  1.00  0.00     0.214 A 
ATOM      6  C   UNL     1      44.818 132.143  23.163  1.00  0.00     0.082 A 
ATOM      7  C   UNL     1      45.809 131.067  21.204  1.00  0.00     0.180 A 
ATOM      8  C   UNL     1      45.770 133.167  23.074  1.00  0.00     0.039 A 
ATOM      9  C   UNL     1      46.753 132.106  21.132  1.00  0.00     0.081 A 
ATOM     10  C   UNL     1      46.747 133.156  22.065  1.00  0.00    -0.004 A 
BRANCH   6  11
ATOM     11  N   UNL     1      43.804 132.214  24.174  1.00  0.00    -0.395 N 
ATOM     12  H   UNL     1      43.337 131.359  24.542  1.00  0.00     0.156 HD
ATOM     13  H   UNL     1      43.469 133.137  24.530  1.00  0.00     0.156 HD
ENDBRANCH   6  11
BRANCH   7  14
ATOM     14  N   UNL     1      45.857 129.981  20.251  1.00  0.00    -0.278 N 
ATOM     15  H   UNL     1      45.239 129.194  20.560  1.00  0.00     0.358 HD
ATOM     16  H   UNL     1      46.828 129.595  20.207  1.00  0.00     0.358 HD
BRANCH  14  17
ATOM     17  C   UNL     1      45.422 130.438  18.953  1.00  0.00     0.137 A 
ATOM     18  C   UNL     1      46.209 130.208  17.814  1.00  0.00     0.068 A 
ATOM     19  C   UNL     1      44.206 131.129  18.811  1.00  0.00     0.107 A 
ATOM     20  C   UNL     1      45.810 130.692  16.565  1.00  0.00     0.012 A 
ATOM     21  C   UNL     1      43.800 131.605  17.561  1.00  0.00     0.132 A 
ATOM     22  C   UNL     1      44.611 131.406  16.430  1.00  0.00    -0.015 A 
ATOM     23  F   UNL     1      42.617 132.262  17.453  1.00  0.00    -0.206 F 
ATOM     24  C   UNL     1      44.168 131.894  15.081  1.00  0.00     0.047 C 
ENDBRANCH  14  17
ENDBRANCH   7  14
BRANCH  10  25
ATOM     25  C   UNL     1      47.753 134.246  21.977  1.00  0.00     0.046 A 
ATOM     26  C   UNL     1      47.611 135.281  21.044  1.00  0.00     0.022 A 
ATOM     27  C   UNL     1      48.872 134.264  22.824  1.00  0.00     0.315 A 
ATOM     28  C   UNL     1      48.566 136.293  20.966  1.00  0.00     0.084 A 
ATOM     29  N   UNL     1      49.794 135.260  22.734  1.00  0.00    -0.208 N 
ATOM     30  C   UNL     1      49.675 136.276  21.827  1.00  0.00     0.246 A 
ATOM     31  H   UNL     1      50.603 135.224  23.393  1.00  0.00     0.454 HD
BRANCH  30  32
ATOM     32  C   UNL     1      50.696 137.353  21.744  1.00  0.00     0.223 C 
ATOM     33  O   UNL     1      50.372 138.490  21.305  1.00  0.00    -0.288 OA
ATOM     34  C   UNL     1      52.112 137.134  22.178  1.00  0.00     0.100 C 
ENDBRANCH  30  32
ENDBRANCH  10  25
ENDBRANCH   4   5
ENDBRANCH   1   4
BRANCH   1  35
ATOM     35  C   UNL     1      43.100 128.108  23.506  1.00  0.00     0.155 C 
BRANCH  35  36
ATOM     36  C   UNL     1      41.856 128.653  24.107  1.00  0.00     0.273 C 
ATOM     37  O   UNL     1      40.714 128.400  23.635  1.00  0.00    -0.297 OA
ENDBRANCH  35  36
BRANCH  35  38
ATOM     38  C   UNL     1      43.164 126.640  23.271  1.00  0.00     0.138 C 
ATOM     39  C   UNL     1      44.347 126.018  23.255  1.00  0.00     0.083 C 
BRANCH  38  40
ATOM     40  N   UNL     1      41.959 125.873  23.094  1.00  0.00    -0.325 N 
ATOM     41  H   UNL     1      42.162 124.848  23.152  1.00  0.00     0.350 HD
ATOM     42  H   UNL     1      41.541 126.093  22.159  1.00  0.00     0.350 HD
ATOM     43  H   UNL     1      41.274 126.111  23.849  1.00  0.00     0.350 HD
ENDBRANCH  38  40
ENDBRANCH  35  38
ENDBRANCH   1  35
TORSDOF 12
ENDMDL
MODEL 2
REMARK VINA RESULT:      -2.0      3.164      6.536
REMARK SMILES C=C([NH3+])/C(C=O)=C(\O)Oc1c(N)cc(-c2ccc(C(C)=O)[nH+]c2)cc1[NH2+]c1ccc(C)c(F)c1
REMARK SMILES IDX 7 1 8 2 9 4 10 5 11 6 25 7 13 8 24 9 14 10 12 11 26 14 27 17
REMARK SMILES IDX 28 18 34 19 29 20 32 21 30 22 33 23 31 24 15 25 16 26 23 27
REMARK SMILES IDX 17 28 22 29 18 30 19 32 21 33 20 34 4 35 5 36 6 37 2 38 1 39
REMARK SMILES IDX 3 40
REMARK H PARENT 8 3 12 12 12 13 26 15 26 16 22 31 3 41 3 42 3 43
ROOT
ATOM      1  C   UNL     1      42.672 131.912  22.762  1.00  0.00     0.299 C 
ENDROOT
BRANCH   1   2
ATOM      2  O   UNL     1      41.305 131.939  23.052  1.00  0.00    -0.480 OA
ATOM      3  H   UNL     1      40.899 132.600  23.702  1.00  0.00     0.297 HD
ENDBRANCH   1   2
BRANCH   1   4
ATOM      4  O   UNL     1      43.212 132.814  21.833  1.00  0.00    -0.417 OA
BRANCH   4   5
ATOM      5  C   UNL     1      43.812 132.424  20.631  1.00  0.00     0.214 A 
ATOM      6  C   UNL     1      43.065 132.372  19.435  1.00  0.00     0.082 A 
ATOM      7  C   UNL     1      45.178 132.072  20.625  1.00  0.00     0.180 A 
ATOM      8  C   UNL     1      43.700 132.028  18.234  1.00  0.00     0.039 A 
ATOM      9  C   UNL     1      45.795 131.728  19.409  1.00  0.00     0.081 A 
ATOM     10  C   UNL     1      45.067 131.709  18.208  1.00  0.00    -0.004 A 
BRANCH   6  11
ATOM     11  N   UNL     1      41.656 132.641  19.431  1.00  0.00    -0.395 N 
ATOM     12  H   UNL     1      41.097 132.621  18.552  1.00  0.00     0.156 HD
ATOM     13  H   UNL     1      41.164 132.918  20.310  1.00  0.00     0.156 HD
ENDBRANCH   6  11
BRANCH   7  14
ATOM     14  N   UNL     1      45.958 132.115  21.842  1.00  0.00    -0.278 N 
ATOM     15  H   UNL     1      46.442 131.199  22.001  1.00  0.00     0.358 HD
ATOM     16  H   UNL     1      45.324 132.260  22.661  1.00  0.00     0.358 HD
BRANCH  14  17
ATOM     17  C   UNL     1      46.949 133.161  21.763  1.00  0.00     0.137 A 
ATOM     18  C   UNL     1      48.185 133.026  22.413  1.00  0.00     0.068 A 
ATOM     19  C   UNL     1      46.685 134.338  21.041  1.00  0.00     0.107 A 
ATOM     20  C   UNL     1      49.124 134.060  22.376  1.00  0.00     0.012 A 
ATOM     21  C   UNL     1      47.628 135.370  20.995  1.00  0.00     0.132 A 
ATOM     22  C   UNL     1      48.849 135.244  21.679  1.00  0.00    -0.015 A 
ATOM     23  F   UNL     1      47.349 136.492  20.283  1.00  0.00    -0.206 F 
ATOM     24  C   UNL     1      49.875 136.339  21.612  1.00  0.00     0.047 C 
ENDBRANCH  14  17
ENDBRANCH   7  14
BRANCH  10  25
ATOM     25  C   UNL     1      45.734 131.345  16.931  1.00  0.00     0.046 A 
ATOM     26  C   UNL     1      45.570 132.134  15.785  1.00  0.00     0.022 A 
ATOM     27  C   UNL     1      46.543 130.202  16.841  1.00  0.00     0.315 A 
ATOM     28  C   UNL     1      46.194 131.778  14.591  1.00  0.00     0.084 A 
ATOM     29  N   UNL     1      47.146 129.870  15.668  1.00  0.00    -0.208 N 
ATOM     30  C   UNL     1      46.993 130.624  14.537  1.00  0.00     0.246 A 
ATOM     31  H   UNL     1      47.739 129.012  15.661  1.00  0.00     0.454 HD
BRANCH  30  32
ATOM     32  C   UNL     1      47.658 130.241  13.264  1.00  0.00     0.223 C 
ATOM     33  O   UNL     1      47.477 130.938  12.230  1.00  0.00    -0.288 OA
ATOM     34  C   UNL     1      48.555 129.045  13.171  1.00  0.00     0.100 C 
ENDBRANCH  30  32
ENDBRANCH  10  25
ENDBRANCH   4   5
ENDBRANCH   1   4
BRANCH   1  35
ATOM     35  C   UNL     1      43.474 131.046  23.415  1.00  0.00     0.155 C 
BRANCH  35  36
ATOM     36  C   UNL     1      44.243 131.435  24.624  1.00  0.00     0.273 C 
ATOM     37  O   UNL     1      45.264 132.175  24.563  1.00  0.00    -0.297 OA
ENDBRANCH  35  36
BRANCH  35  38
ATOM     38  C   UNL     1      43.609 129.644  22.936  1.00  0.00     0.138 C 
ATOM     39  C   UNL     1      42.517 128.896  22.744  1.00  0.00     0.083 C 
BRANCH  38  40
ATOM     40  N   UNL     1      44.905 129.090  22.646  1.00  0.00    -0.325 N 
ATOM     41  H   UNL     1      45.654 129.616  23.155  1.00  0.00     0.350 HD
ATOM     42  H   UNL     1      45.083 129.142  21.615  1.00  0.00     0.350 HD
ATOM     43  H   UNL     1      44.942 128.092  22.958  1.00  0.00     0.350 HD
ENDBRANCH  38  40
ENDBRANCH  35  38
ENDBRANCH   1  35
TORSDOF 12
ENDMDL


