MODEL 1
REMARK VINA RESULT:      -7.9      0.000      0.000
REMARK SMILES C/C=C(/O)[N-]c1cc(F)cnc1Nc1c[n-]c2nccc-2c1
REMARK SMILES IDX 5 1 3 2 4 3 2 5 1 6 6 7 12 8 7 9 11 10 8 11 10 12 9 13 13 14
REMARK SMILES IDX 14 16 15 17 22 18 16 19 21 20 17 21 20 22 18 23 19 24
REMARK H PARENT 4 4 13 15
ROOT
ATOM      1  N   UNL     1      44.743 131.130  21.747  1.00  0.00    -0.625 NA
ENDROOT
BRANCH   1   2
ATOM      2  C   UNL     1      44.520 130.282  22.880  1.00  0.00     0.009 C 
BRANCH   2   3
ATOM      3  O   UNL     1      44.772 130.755  24.169  1.00  0.00    -0.531 OA
ATOM      4  H   UNL     1      44.418 130.281  24.993  1.00  0.00     0.290 HD
ENDBRANCH   2   3
BRANCH   2   5
ATOM      5  C   UNL     1      44.106 129.022  22.699  1.00  0.00    -0.009 C 
ATOM      6  C   UNL     1      45.025 127.849  22.853  1.00  0.00     0.037 C 
ENDBRANCH   2   5
ENDBRANCH   1   2
BRANCH   1   7
ATOM      7  C   UNL     1      43.755 131.645  20.842  1.00  0.00    -0.087 A 
ATOM      8  C   UNL     1      43.892 131.427  19.454  1.00  0.00     0.115 A 
ATOM      9  C   UNL     1      42.628 132.344  21.305  1.00  0.00     0.028 A 
ATOM     10  N   UNL     1      42.986 131.970  18.595  1.00  0.00    -0.237 NA
ATOM     11  C   UNL     1      41.704 132.863  20.396  1.00  0.00     0.140 A 
ATOM     12  C   UNL     1      41.909 132.674  19.030  1.00  0.00     0.152 A 
ATOM     13  F   UNL     1      40.618 133.544  20.837  1.00  0.00    -0.205 F 
BRANCH   8  14
ATOM     14  N   UNL     1      45.014 130.710  18.910  1.00  0.00    -0.342 N 
ATOM     15  H   UNL     1      45.533 130.070  19.553  1.00  0.00     0.168 HD
BRANCH  14  16
ATOM     16  C   UNL     1      45.522 130.890  17.577  1.00  0.00     0.036 A 
ATOM     17  C   UNL     1      45.455 132.178  16.977  1.00  0.00     0.004 A 
ATOM     18  C   UNL     1      46.056 129.799  16.848  1.00  0.00     0.033 A 
ATOM     19  N   UNL     1      45.933 132.404  15.716  1.00  0.00    -0.440 NA
ATOM     20  C   UNL     1      46.531 130.060  15.574  1.00  0.00    -0.025 A 
ATOM     21  C   UNL     1      46.465 131.370  15.025  1.00  0.00    -0.052 A 
ATOM     22  C   UNL     1      47.120 129.279  14.614  1.00  0.00     0.003 A 
ATOM     23  N   UNL     1      46.983 131.417  13.788  1.00  0.00    -0.442 NA
ATOM     24  C   UNL     1      47.381 130.140  13.545  1.00  0.00    -0.022 A 
ENDBRANCH  14  16
ENDBRANCH   8  14
ENDBRANCH   1   7
TORSDOF 6
ENDMDL
MODEL 2
REMARK VINA RESULT:      -6.8      3.233      7.220
REMARK SMILES C/C=C(/O)[N-]c1cc(F)cnc1Nc1c[n-]c2nccc-2c1
REMARK SMILES IDX 5 1 3 2 4 3 2 5 1 6 6 7 12 8 7 9 11 10 8 11 10 12 9 13 13 14
REMARK SMILES IDX 14 16 15 17 22 18 16 19 21 20 17 21 20 22 18 23 19 24
REMARK H PARENT 4 4 13 15
ROOT
ATOM      1  N   UNL     1      46.852 130.222  15.660  1.00  0.00    -0.625 NA
ENDROOT
BRANCH   1   2
ATOM      2  C   UNL     1      47.552 129.988  14.432  1.00  0.00     0.009 C 
BRANCH   2   3
ATOM      3  O   UNL     1      47.968 128.699  14.097  1.00  0.00    -0.531 OA
ATOM      4  H   UNL     1      48.949 128.442  14.068  1.00  0.00     0.290 HD
ENDBRANCH   2   3
BRANCH   2   5
ATOM      5  C   UNL     1      47.841 131.016  13.624  1.00  0.00    -0.009 C 
ATOM      6  C   UNL     1      47.758 130.909  12.132  1.00  0.00     0.037 C 
ENDBRANCH   2   5
ENDBRANCH   1   2
BRANCH   1   7
ATOM      7  C   UNL     1      45.549 130.802  15.817  1.00  0.00    -0.087 A 
ATOM      8  C   UNL     1      45.082 131.143  17.106  1.00  0.00     0.115 A 
ATOM      9  C   UNL     1      44.725 131.070  14.712  1.00  0.00     0.028 A 
ATOM     10  N   UNL     1      43.822 131.636  17.256  1.00  0.00    -0.237 NA
ATOM     11  C   UNL     1      43.449 131.602  14.902  1.00  0.00     0.140 A 
ATOM     12  C   UNL     1      43.006 131.869  16.197  1.00  0.00     0.152 A 
ATOM     13  F   UNL     1      42.647 131.856  13.839  1.00  0.00    -0.205 F 
BRANCH   8  14
ATOM     14  N   UNL     1      45.876 130.908  18.281  1.00  0.00    -0.342 N 
ATOM     15  H   UNL     1      46.908 130.801  18.153  1.00  0.00     0.168 HD
BRANCH  14  16
ATOM     16  C   UNL     1      45.335 130.717  19.600  1.00  0.00     0.036 A 
ATOM     17  C   UNL     1      45.779 129.611  20.377  1.00  0.00     0.004 A 
ATOM     18  C   UNL     1      44.350 131.592  20.118  1.00  0.00     0.033 A 
ATOM     19  N   UNL     1      45.304 129.390  21.641  1.00  0.00    -0.440 NA
ATOM     20  C   UNL     1      43.888 131.341  21.399  1.00  0.00    -0.025 A 
ATOM     21  C   UNL     1      44.379 130.238  22.147  1.00  0.00    -0.052 A 
ATOM     22  C   UNL     1      42.981 131.972  22.209  1.00  0.00     0.003 A 
ATOM     23  N   UNL     1      43.816 130.171  23.363  1.00  0.00    -0.442 NA
ATOM     24  C   UNL     1      42.966 131.232  23.394  1.00  0.00    -0.022 A 
ENDBRANCH  14  16
ENDBRANCH   8  14
ENDBRANCH   1   7
TORSDOF 6
ENDMDL
MODEL 3
REMARK VINA RESULT:      -6.5      3.128      7.012
REMARK SMILES C/C=C(/O)[N-]c1cc(F)cnc1Nc1c[n-]c2nccc-2c1
REMARK SMILES IDX 5 1 3 2 4 3 2 5 1 6 6 7 12 8 7 9 11 10 8 11 10 12 9 13 13 14
REMARK SMILES IDX 14 16 15 17 22 18 16 19 21 20 17 21 20 22 18 23 19 24
REMARK H PARENT 4 4 13 15
ROOT
ATOM      1  N   UNL     1      46.928 130.539  15.407  1.00  0.00    -0.625 NA
ENDROOT
BRANCH   1   2
ATOM      2  C   UNL     1      47.396 129.575  14.455  1.00  0.00     0.009 C 
BRANCH   2   3
ATOM      3  O   UNL     1      47.075 128.226  14.608  1.00  0.00    -0.531 OA
ATOM      4  H   UNL     1      46.461 127.743  13.961  1.00  0.00     0.290 HD
ENDBRANCH   2   3
BRANCH   2   5
ATOM      5  C   UNL     1      48.176 129.966  13.440  1.00  0.00    -0.009 C 
ATOM      6  C   UNL     1      47.874 131.184  12.622  1.00  0.00     0.037 C 
ENDBRANCH   2   5
ENDBRANCH   1   2
BRANCH   1   7
ATOM      7  C   UNL     1      45.578 130.993  15.586  1.00  0.00    -0.087 A 
ATOM      8  C   UNL     1      45.076 131.204  16.889  1.00  0.00     0.115 A 
ATOM      9  C   UNL     1      44.741 131.262  14.491  1.00  0.00     0.028 A 
ATOM     10  N   UNL     1      43.776 131.575  17.056  1.00  0.00    -0.237 NA
ATOM     11  C   UNL     1      43.422 131.667  14.701  1.00  0.00     0.140 A 
ATOM     12  C   UNL     1      42.949 131.808  16.005  1.00  0.00     0.152 A 
ATOM     13  F   UNL     1      42.608 131.922  13.647  1.00  0.00    -0.205 F 
BRANCH   8  14
ATOM     14  N   UNL     1      45.879 130.961  18.056  1.00  0.00    -0.342 N 
ATOM     15  H   UNL     1      46.882 130.708  17.906  1.00  0.00     0.168 HD
BRANCH  14  16
ATOM     16  C   UNL     1      45.372 130.949  19.401  1.00  0.00     0.036 A 
ATOM     17  C   UNL     1      44.766 132.124  19.925  1.00  0.00     0.004 A 
ATOM     18  C   UNL     1      45.496 129.797  20.216  1.00  0.00     0.033 A 
ATOM     19  N   UNL     1      44.259 132.162  21.194  1.00  0.00    -0.440 NA
ATOM     20  C   UNL     1      44.974 129.866  21.497  1.00  0.00    -0.025 A 
ATOM     21  C   UNL     1      44.355 131.056  21.968  1.00  0.00    -0.052 A 
ATOM     22  C   UNL     1      44.894 128.966  22.527  1.00  0.00     0.003 A 
ATOM     23  N   UNL     1      43.908 130.919  23.225  1.00  0.00    -0.442 NA
ATOM     24  C   UNL     1      44.238 129.643  23.559  1.00  0.00    -0.022 A 
ENDBRANCH  14  16
ENDBRANCH   8  14
ENDBRANCH   1   7
TORSDOF 6
ENDMDL
MODEL 4
REMARK VINA RESULT:      -5.7      3.028      7.094
REMARK SMILES C/C=C(/O)[N-]c1cc(F)cnc1Nc1c[n-]c2nccc-2c1
REMARK SMILES IDX 5 1 3 2 4 3 2 5 1 6 6 7 12 8 7 9 11 10 8 11 10 12 9 13 13 14
REMARK SMILES IDX 14 16 15 17 22 18 16 19 21 20 17 21 20 22 18 23 19 24
REMARK H PARENT 4 4 13 15
ROOT
ATOM      1  N   UNL     1      46.596 129.999  16.423  1.00  0.00    -0.625 NA
ENDROOT
BRANCH   1   2
ATOM      2  C   UNL     1      46.974 129.357  15.199  1.00  0.00     0.009 C 
BRANCH   2   3
ATOM      3  O   UNL     1      46.424 128.121  14.857  1.00  0.00    -0.531 OA
ATOM      4  H   UNL     1      46.014 127.504  15.552  1.00  0.00     0.290 HD
ENDBRANCH   2   3
BRANCH   2   5
ATOM      5  C   UNL     1      47.887 129.925  14.402  1.00  0.00    -0.009 C 
ATOM      6  C   UNL     1      47.522 130.953  13.374  1.00  0.00     0.037 C 
ENDBRANCH   2   5
ENDBRANCH   1   2
BRANCH   1   7
ATOM      7  C   UNL     1      45.376 130.707  16.688  1.00  0.00    -0.087 A 
ATOM      8  C   UNL     1      45.036 131.047  18.016  1.00  0.00     0.115 A 
ATOM      9  C   UNL     1      44.513 131.100  15.651  1.00  0.00     0.028 A 
ATOM     10  N   UNL     1      43.849 131.663  18.269  1.00  0.00    -0.237 NA
ATOM     11  C   UNL     1      43.317 131.755  15.947  1.00  0.00     0.140 A 
ATOM     12  C   UNL     1      42.993 132.020  17.277  1.00  0.00     0.152 A 
ATOM     13  F   UNL     1      42.478 132.131  14.951  1.00  0.00    -0.205 F 
BRANCH   8  14
ATOM     14  N   UNL     1      45.877 130.687  19.125  1.00  0.00    -0.342 N 
ATOM     15  H   UNL     1      46.896 130.556  18.934  1.00  0.00     0.168 HD
BRANCH  14  16
ATOM     16  C   UNL     1      45.394 130.404  20.450  1.00  0.00     0.036 A 
ATOM     17  C   UNL     1      45.537 129.089  20.973  1.00  0.00     0.004 A 
ATOM     18  C   UNL     1      44.756 131.405  21.222  1.00  0.00     0.033 A 
ATOM     19  N   UNL     1      45.104 128.770  22.231  1.00  0.00    -0.440 NA
ATOM     20  C   UNL     1      44.328 131.051  22.490  1.00  0.00    -0.025 A 
ATOM     21  C   UNL     1      44.514 129.729  22.980  1.00  0.00    -0.052 A 
ATOM     22  C   UNL     1      43.709 131.742  23.499  1.00  0.00     0.003 A 
ATOM     23  N   UNL     1      44.041 129.590  24.228  1.00  0.00    -0.442 NA
ATOM     24  C   UNL     1      43.553 130.821  24.538  1.00  0.00    -0.022 A 
ENDBRANCH  14  16
ENDBRANCH   8  14
ENDBRANCH   1   7
TORSDOF 6
ENDMDL
MODEL 5
REMARK VINA RESULT:      -5.6      2.910      6.433
REMARK SMILES C/C=C(/O)[N-]c1cc(F)cnc1Nc1c[n-]c2nccc-2c1
REMARK SMILES IDX 5 1 3 2 4 3 2 5 1 6 6 7 12 8 7 9 11 10 8 11 10 12 9 13 13 14
REMARK SMILES IDX 14 16 15 17 22 18 16 19 21 20 17 21 20 22 18 23 19 24
REMARK H PARENT 4 4 13 15
ROOT
ATOM      1  N   UNL     1      43.840 132.391  18.594  1.00  0.00    -0.625 NA
ENDROOT
BRANCH   1   2
ATOM      2  C   UNL     1      42.430 132.417  18.848  1.00  0.00     0.009 C 
BRANCH   2   3
ATOM      3  O   UNL     1      41.551 132.896  17.877  1.00  0.00    -0.531 OA
ATOM      4  H   UNL     1      41.865 133.148  16.945  1.00  0.00     0.290 HD
ENDBRANCH   2   3
BRANCH   2   5
ATOM      5  C   UNL     1      41.961 132.018  20.037  1.00  0.00    -0.009 C 
ATOM      6  C   UNL     1      41.668 132.982  21.146  1.00  0.00     0.037 C 
ENDBRANCH   2   5
ENDBRANCH   1   2
BRANCH   1   7
ATOM      7  C   UNL     1      44.555 131.452  17.777  1.00  0.00    -0.087 A 
ATOM      8  C   UNL     1      45.646 130.738  18.319  1.00  0.00     0.115 A 
ATOM      9  C   UNL     1      44.180 131.199  16.447  1.00  0.00     0.028 A 
ATOM     10  N   UNL     1      46.359 129.894  17.523  1.00  0.00    -0.237 NA
ATOM     11  C   UNL     1      44.919 130.307  15.669  1.00  0.00     0.140 A 
ATOM     12  C   UNL     1      46.024 129.666  16.227  1.00  0.00     0.152 A 
ATOM     13  F   UNL     1      44.566 130.064  14.382  1.00  0.00    -0.205 F 
BRANCH   8  14
ATOM     14  N   UNL     1      46.078 130.936  19.675  1.00  0.00    -0.342 N 
ATOM     15  H   UNL     1      46.903 131.558  19.832  1.00  0.00     0.168 HD
BRANCH  14  16
ATOM     16  C   UNL     1      45.513 130.262  20.813  1.00  0.00     0.036 A 
ATOM     17  C   UNL     1      44.809 131.020  21.789  1.00  0.00     0.004 A 
ATOM     18  C   UNL     1      45.673 128.866  20.986  1.00  0.00     0.033 A 
ATOM     19  N   UNL     1      44.244 130.426  22.884  1.00  0.00    -0.440 NA
ATOM     20  C   UNL     1      45.091 128.294  22.105  1.00  0.00    -0.025 A 
ATOM     21  C   UNL     1      44.376 129.089  23.041  1.00  0.00    -0.052 A 
ATOM     22  C   UNL     1      45.022 127.008  22.573  1.00  0.00     0.003 A 
ATOM     23  N   UNL     1      43.882 128.350  24.046  1.00  0.00    -0.442 NA
ATOM     24  C   UNL     1      44.279 127.082  23.753  1.00  0.00    -0.022 A 
ENDBRANCH  14  16
ENDBRANCH   8  14
ENDBRANCH   1   7
TORSDOF 6
ENDMDL
MODEL 6
REMARK VINA RESULT:      -5.5      2.507      3.762
REMARK SMILES C/C=C(/O)[N-]c1cc(F)cnc1Nc1c[n-]c2nccc-2c1
REMARK SMILES IDX 5 1 3 2 4 3 2 5 1 6 6 7 12 8 7 9 11 10 8 11 10 12 9 13 13 14
REMARK SMILES IDX 14 16 15 17 22 18 16 19 21 20 17 21 20 22 18 23 19 24
REMARK H PARENT 4 4 13 15
ROOT
ATOM      1  N   UNL     1      44.106 131.493  21.938  1.00  0.00    -0.625 NA
ENDROOT
BRANCH   1   2
ATOM      2  C   UNL     1      42.759 131.918  22.179  1.00  0.00     0.009 C 
BRANCH   2   3
ATOM      3  O   UNL     1      42.005 132.476  21.147  1.00  0.00    -0.531 OA
ATOM      4  H   UNL     1      42.437 132.958  20.365  1.00  0.00     0.290 HD
ENDBRANCH   2   3
BRANCH   2   5
ATOM      5  C   UNL     1      42.239 131.816  23.408  1.00  0.00    -0.009 C 
ATOM      6  C   UNL     1      42.957 132.315  24.625  1.00  0.00     0.037 C 
ENDBRANCH   2   5
ENDBRANCH   1   2
BRANCH   1   7
ATOM      7  C   UNL     1      44.603 130.146  21.945  1.00  0.00    -0.087 A 
ATOM      8  C   UNL     1      45.596 129.759  21.018  1.00  0.00     0.115 A 
ATOM      9  C   UNL     1      44.144 129.198  22.874  1.00  0.00     0.028 A 
ATOM     10  N   UNL     1      46.019 128.465  20.988  1.00  0.00    -0.237 NA
ATOM     11  C   UNL     1      44.621 127.887  22.831  1.00  0.00     0.140 A 
ATOM     12  C   UNL     1      45.559 127.533  21.862  1.00  0.00     0.152 A 
ATOM     13  F   UNL     1      44.177 126.966  23.721  1.00  0.00    -0.205 F 
BRANCH   8  14
ATOM     14  N   UNL     1      46.120 130.679  20.047  1.00  0.00    -0.342 N 
ATOM     15  H   UNL     1      46.889 131.317  20.353  1.00  0.00     0.168 HD
BRANCH  14  16
ATOM     16  C   UNL     1      45.592 130.844  18.719  1.00  0.00     0.036 A 
ATOM     17  C   UNL     1      44.481 131.710  18.518  1.00  0.00     0.004 A 
ATOM     18  C   UNL     1      46.143 130.137  17.623  1.00  0.00     0.033 A 
ATOM     19  N   UNL     1      43.948 131.909  17.274  1.00  0.00    -0.440 NA
ATOM     20  C   UNL     1      45.581 130.360  16.377  1.00  0.00    -0.025 A 
ATOM     21  C   UNL     1      44.486 131.253  16.221  1.00  0.00    -0.052 A 
ATOM     22  C   UNL     1      45.860 129.883  15.123  1.00  0.00     0.003 A 
ATOM     23  N   UNL     1      44.092 131.338  14.941  1.00  0.00    -0.442 NA
ATOM     24  C   UNL     1      44.935 130.501  14.278  1.00  0.00    -0.022 A 
ENDBRANCH  14  16
ENDBRANCH   8  14
ENDBRANCH   1   7
TORSDOF 6
ENDMDL
MODEL 7
REMARK VINA RESULT:      -5.4      1.235      1.693
REMARK SMILES C/C=C(/O)[N-]c1cc(F)cnc1Nc1c[n-]c2nccc-2c1
REMARK SMILES IDX 5 1 3 2 4 3 2 5 1 6 6 7 12 8 7 9 11 10 8 11 10 12 9 13 13 14
REMARK SMILES IDX 14 16 15 17 22 18 16 19 21 20 17 21 20 22 18 23 19 24
REMARK H PARENT 4 4 13 15
ROOT
ATOM      1  N   UNL     1      44.535 131.255  22.141  1.00  0.00    -0.625 NA
ENDROOT
BRANCH   1   2
ATOM      2  C   UNL     1      44.485 129.988  22.810  1.00  0.00     0.009 C 
BRANCH   2   3
ATOM      3  O   UNL     1      44.884 128.829  22.145  1.00  0.00    -0.531 OA
ATOM      4  H   UNL     1      44.249 128.303  21.553  1.00  0.00     0.290 HD
ENDBRANCH   2   3
BRANCH   2   5
ATOM      5  C   UNL     1      44.016 129.914  24.062  1.00  0.00    -0.009 C 
ATOM      6  C   UNL     1      42.745 129.196  24.398  1.00  0.00     0.037 C 
ENDBRANCH   2   5
ENDBRANCH   1   2
BRANCH   1   7
ATOM      7  C   UNL     1      43.640 131.733  21.125  1.00  0.00    -0.087 A 
ATOM      8  C   UNL     1      43.942 131.512  19.763  1.00  0.00     0.115 A 
ATOM      9  C   UNL     1      42.446 132.398  21.450  1.00  0.00     0.028 A 
ATOM     10  N   UNL     1      43.122 132.021  18.802  1.00  0.00    -0.237 NA
ATOM     11  C   UNL     1      41.617 132.882  20.437  1.00  0.00     0.140 A 
ATOM     12  C   UNL     1      41.982 132.693  19.105  1.00  0.00     0.152 A 
ATOM     13  F   UNL     1      40.467 133.531  20.746  1.00  0.00    -0.205 F 
BRANCH   8  14
ATOM     14  N   UNL     1      45.139 130.828  19.358  1.00  0.00    -0.342 N 
ATOM     15  H   UNL     1      45.790 130.509  20.110  1.00  0.00     0.168 HD
BRANCH  14  16
ATOM     16  C   UNL     1      45.544 130.643  17.990  1.00  0.00     0.036 A 
ATOM     17  C   UNL     1      46.005 129.365  17.570  1.00  0.00     0.004 A 
ATOM     18  C   UNL     1      45.517 131.720  17.071  1.00  0.00     0.033 A 
ATOM     19  N   UNL     1      46.391 129.134  16.279  1.00  0.00    -0.440 NA
ATOM     20  C   UNL     1      45.915 131.455  15.771  1.00  0.00    -0.025 A 
ATOM     21  C   UNL     1      46.345 130.155  15.392  1.00  0.00    -0.052 A 
ATOM     22  C   UNL     1      45.995 132.223  14.639  1.00  0.00     0.003 A 
ATOM     23  N   UNL     1      46.680 130.101  14.093  1.00  0.00    -0.442 NA
ATOM     24  C   UNL     1      46.462 131.365  13.641  1.00  0.00    -0.022 A 
ENDBRANCH  14  16
ENDBRANCH   8  14
ENDBRANCH   1   7
TORSDOF 6
ENDMDL
MODEL 8
REMARK VINA RESULT:      -5.4      2.746      4.353
REMARK SMILES C/C=C(/O)[N-]c1cc(F)cnc1Nc1c[n-]c2nccc-2c1
REMARK SMILES IDX 5 1 3 2 4 3 2 5 1 6 6 7 12 8 7 9 11 10 8 11 10 12 9 13 13 14
REMARK SMILES IDX 14 16 15 17 22 18 16 19 21 20 17 21 20 22 18 23 19 24
REMARK H PARENT 4 4 13 15
ROOT
ATOM      1  N   UNL     1      45.668 127.426  21.890  1.00  0.00    -0.625 NA
ENDROOT
BRANCH   1   2
ATOM      2  C   UNL     1      46.322 126.196  22.224  1.00  0.00     0.009 C 
BRANCH   2   3
ATOM      3  O   UNL     1      47.702 126.168  22.427  1.00  0.00    -0.531 OA
ATOM      4  H   UNL     1      48.360 126.241  21.658  1.00  0.00     0.290 HD
ENDBRANCH   2   3
BRANCH   2   5
ATOM      5  C   UNL     1      45.611 125.064  22.302  1.00  0.00    -0.009 C 
ATOM      6  C   UNL     1      45.665 124.166  23.500  1.00  0.00     0.037 C 
ENDBRANCH   2   5
ENDBRANCH   1   2
BRANCH   1   7
ATOM      7  C   UNL     1      44.523 128.001  22.537  1.00  0.00    -0.087 A 
ATOM      8  C   UNL     1      44.287 129.391  22.441  1.00  0.00     0.115 A 
ATOM      9  C   UNL     1      43.605 127.211  23.247  1.00  0.00     0.028 A 
ATOM     10  N   UNL     1      43.234 129.940  23.108  1.00  0.00    -0.237 NA
ATOM     11  C   UNL     1      42.522 127.807  23.895  1.00  0.00     0.140 A 
ATOM     12  C   UNL     1      42.359 129.189  23.823  1.00  0.00     0.152 A 
ATOM     13  F   UNL     1      41.637 127.049  24.588  1.00  0.00    -0.205 F 
BRANCH   8  14
ATOM     14  N   UNL     1      45.177 130.259  21.721  1.00  0.00    -0.342 N 
ATOM     15  H   UNL     1      45.981 130.670  22.248  1.00  0.00     0.168 HD
BRANCH  14  16
ATOM     16  C   UNL     1      44.979 130.672  20.358  1.00  0.00     0.036 A 
ATOM     17  C   UNL     1      43.891 131.534  20.046  1.00  0.00     0.004 A 
ATOM     18  C   UNL     1      45.831 130.211  19.325  1.00  0.00     0.033 A 
ATOM     19  N   UNL     1      43.664 131.964  18.767  1.00  0.00    -0.440 NA
ATOM     20  C   UNL     1      45.576 130.664  18.041  1.00  0.00    -0.025 A 
ATOM     21  C   UNL     1      44.490 131.543  17.782  1.00  0.00    -0.052 A 
ATOM     22  C   UNL     1      46.187 130.453  16.833  1.00  0.00     0.003 A 
ATOM     23  N   UNL     1      44.416 131.872  16.483  1.00  0.00    -0.442 NA
ATOM     24  C   UNL     1      45.455 131.205  15.912  1.00  0.00    -0.022 A 
ENDBRANCH  14  16
ENDBRANCH   8  14
ENDBRANCH   1   7
TORSDOF 6
ENDMDL
MODEL 9
REMARK VINA RESULT:      -5.3      2.769      6.309
REMARK SMILES C/C=C(/O)[N-]c1cc(F)cnc1Nc1c[n-]c2nccc-2c1
REMARK SMILES IDX 5 1 3 2 4 3 2 5 1 6 6 7 12 8 7 9 11 10 8 11 10 12 9 13 13 14
REMARK SMILES IDX 14 16 15 17 22 18 16 19 21 20 17 21 20 22 18 23 19 24
REMARK H PARENT 4 4 13 15
ROOT
ATOM      1  N   UNL     1      44.023 132.197  18.771  1.00  0.00    -0.625 NA
ENDROOT
BRANCH   1   2
ATOM      2  C   UNL     1      42.644 132.364  19.126  1.00  0.00     0.009 C 
BRANCH   2   3
ATOM      3  O   UNL     1      41.697 132.651  18.143  1.00  0.00    -0.531 OA
ATOM      4  H   UNL     1      40.736 132.880  18.372  1.00  0.00     0.290 HD
ENDBRANCH   2   3
BRANCH   2   5
ATOM      5  C   UNL     1      42.273 132.283  20.410  1.00  0.00    -0.009 C 
ATOM      6  C   UNL     1      41.257 133.209  21.008  1.00  0.00     0.037 C 
ENDBRANCH   2   5
ENDBRANCH   1   2
BRANCH   1   7
ATOM      7  C   UNL     1      44.548 131.437  17.673  1.00  0.00    -0.087 A 
ATOM      8  C   UNL     1      45.668 130.600  17.871  1.00  0.00     0.115 A 
ATOM      9  C   UNL     1      43.957 131.479  16.399  1.00  0.00     0.028 A 
ATOM     10  N   UNL     1      46.200 129.928  16.813  1.00  0.00    -0.237 NA
ATOM     11  C   UNL     1      44.515 130.756  15.344  1.00  0.00     0.140 A 
ATOM     12  C   UNL     1      45.656 129.987  15.570  1.00  0.00     0.152 A 
ATOM     13  F   UNL     1      43.953 130.799  14.111  1.00  0.00    -0.205 F 
BRANCH   8  14
ATOM     14  N   UNL     1      46.316 130.497  19.150  1.00  0.00    -0.342 N 
ATOM     15  H   UNL     1      47.304 130.155  19.164  1.00  0.00     0.168 HD
BRANCH  14  16
ATOM     16  C   UNL     1      45.666 130.738  20.409  1.00  0.00     0.036 A 
ATOM     17  C   UNL     1      45.795 132.015  21.023  1.00  0.00     0.004 A 
ATOM     18  C   UNL     1      44.929 129.717  21.056  1.00  0.00     0.033 A 
ATOM     19  N   UNL     1      45.188 132.299  22.215  1.00  0.00    -0.440 NA
ATOM     20  C   UNL     1      44.327 130.035  22.263  1.00  0.00    -0.025 A 
ATOM     21  C   UNL     1      44.464 131.333  22.825  1.00  0.00    -0.052 A 
ATOM     22  C   UNL     1      43.541 129.328  23.134  1.00  0.00     0.003 A 
ATOM     23  N   UNL     1      43.803 131.443  23.987  1.00  0.00    -0.442 NA
ATOM     24  C   UNL     1      43.241 130.218  24.168  1.00  0.00    -0.022 A 
ENDBRANCH  14  16
ENDBRANCH   8  14
ENDBRANCH   1   7
TORSDOF 6
ENDMDL


