REMARK SMILES NN(C(=O)[NH+]1CCOCC1)c1ccc2cc3ccccc3cc2c1
REMARK SMILES IDX 2 1 1 2 3 5 4 6 5 7 6 8 10 9 7 10 9 11 8 12 11 14 12 15
REMARK SMILES IDX 24 16 13 17 23 18 14 19 22 20 15 21 21 22 16 23 20 24 17 25
REMARK SMILES IDX 19 26 18 27
REMARK H PARENT 1 3 1 4 5 13
ROOT
ATOM      1  N   UNL     1      -1.462  -1.819   1.794  1.00  0.00    -0.197 N 
ENDROOT
BRANCH   1   2
ATOM      2  N   UNL     1      -1.679  -2.759   2.817  1.00  0.00    -0.236 NA
ATOM      3  H   UNL     1      -1.482  -2.289   3.729  1.00  0.00     0.144 HD
ATOM      4  H   UNL     1      -2.691  -3.023   2.802  1.00  0.00     0.144 HD
ENDBRANCH   1   2
BRANCH   1   5
ATOM      5  C   UNL     1      -2.313  -0.656   1.699  1.00  0.00     0.436 C 
ATOM      6  O   UNL     1      -2.889  -0.234   2.741  1.00  0.00    -0.205 OA
BRANCH   5   7
ATOM      7  N   UNL     1      -2.603  -0.043   0.419  1.00  0.00    -0.246 N 
ATOM      8  C   UNL     1      -2.399   1.419   0.475  1.00  0.00     0.300 C 
ATOM      9  C   UNL     1      -3.989  -0.351   0.018  1.00  0.00     0.300 C 
ATOM     10  C   UNL     1      -2.811   2.060  -0.859  1.00  0.00     0.222 C 
ATOM     11  C   UNL     1      -4.334   0.371  -1.294  1.00  0.00     0.222 C 
ATOM     12  O   UNL     1      -4.163   1.769  -1.157  1.00  0.00    -0.370 OA
ATOM     13  H   UNL     1      -1.966  -0.434  -0.313  1.00  0.00     0.358 HD
ENDBRANCH   5   7
ENDBRANCH   1   5
BRANCH   1  14
ATOM     14  C   UNL     1      -0.347  -2.022   0.909  1.00  0.00     0.067 A 
ATOM     15  C   UNL     1      -0.110  -3.292   0.363  1.00  0.00     0.029 A 
ATOM     16  C   UNL     1       0.532  -0.968   0.611  1.00  0.00     0.037 A 
ATOM     17  C   UNL     1       0.972  -3.505  -0.495  1.00  0.00     0.011 A 
ATOM     18  C   UNL     1       1.619  -1.170  -0.253  1.00  0.00    -0.016 A 
ATOM     19  C   UNL     1       1.840  -2.450  -0.813  1.00  0.00    -0.018 A 
ATOM     20  C   UNL     1       2.488  -0.113  -0.562  1.00  0.00     0.017 A 
ATOM     21  C   UNL     1       2.925  -2.657  -1.677  1.00  0.00     0.017 A 
ATOM     22  C   UNL     1       3.573  -0.318  -1.427  1.00  0.00    -0.018 A 
ATOM     23  C   UNL     1       3.793  -1.600  -1.989  1.00  0.00    -0.018 A 
ATOM     24  C   UNL     1       4.444   0.737  -1.742  1.00  0.00     0.009 A 
ATOM     25  C   UNL     1       4.880  -1.800  -2.854  1.00  0.00     0.009 A 
ATOM     26  C   UNL     1       5.522   0.523  -2.605  1.00  0.00     0.001 A 
ATOM     27  C   UNL     1       5.740  -0.741  -3.159  1.00  0.00     0.001 A 
ENDBRANCH   1  14
TORSDOF 4


