MODEL 1
REMARK VINA RESULT:      -9.8      0.000      0.000
REMARK SMILES Cc1cc(N)c(O)c(-n2nc3ccccc3n2)c1F
REMARK SMILES IDX 1 1 2 2 3 3 4 4 6 5 8 6 18 7 19 8 5 9 9 12 10 13 17 14 11 15
REMARK SMILES IDX 16 16 12 17 15 18 13 19 14 20 7 21
REMARK H PARENT 5 10 5 11 7 22
ROOT
ATOM      1  C   UNL     1      44.901 131.172  21.888  1.00  0.00     0.048 C 
ATOM      2  C   UNL     1      44.362 131.428  20.509  1.00  0.00    -0.011 A 
ATOM      3  C   UNL     1      43.034 131.837  20.336  1.00  0.00     0.036 A 
ATOM      4  C   UNL     1      42.515 132.057  19.055  1.00  0.00     0.077 A 
ATOM      5  C   UNL     1      43.330 131.858  17.924  1.00  0.00     0.169 A 
ATOM      6  C   UNL     1      44.657 131.395  18.087  1.00  0.00     0.165 A 
ATOM      7  C   UNL     1      45.166 131.194  19.382  1.00  0.00     0.157 A 
ATOM      8  F   UNL     1      46.434 130.734  19.546  1.00  0.00    -0.204 F 
ENDROOT
BRANCH   4   9
ATOM      9  N   UNL     1      41.161 132.500  18.909  1.00  0.00    -0.396 N 
ATOM     10  H   UNL     1      40.819 133.345  19.419  1.00  0.00     0.156 HD
ATOM     11  H   UNL     1      40.483 131.993  18.298  1.00  0.00     0.156 HD
ENDBRANCH   4   9
BRANCH   6  12
ATOM     12  N   UNL     1      45.484 131.096  16.953  1.00  0.00    -0.143 N 
ATOM     13  N   UNL     1      45.981 129.883  16.708  1.00  0.00    -0.148 NA
ATOM     14  N   UNL     1      45.777 131.981  15.999  1.00  0.00    -0.148 NA
ATOM     15  C   UNL     1      46.639 130.012  15.547  1.00  0.00     0.113 A 
ATOM     16  C   UNL     1      46.514 131.295  15.113  1.00  0.00     0.113 A 
ATOM     17  C   UNL     1      47.346 129.052  14.831  1.00  0.00     0.032 A 
ATOM     18  C   UNL     1      47.086 131.736  13.924  1.00  0.00     0.032 A 
ATOM     19  C   UNL     1      47.943 129.458  13.620  1.00  0.00     0.002 A 
ATOM     20  C   UNL     1      47.813 130.794  13.169  1.00  0.00     0.002 A 
ENDBRANCH   6  12
BRANCH   5  21
ATOM     21  O   UNL     1      42.812 132.153  16.661  1.00  0.00    -0.504 OA
ATOM     22  H   UNL     1      42.229 131.514  16.138  1.00  0.00     0.293 HD
ENDBRANCH   5  21
TORSDOF 3
ENDMDL
MODEL 2
REMARK VINA RESULT:      -9.8      1.986      2.522
REMARK SMILES Cc1cc(N)c(O)c(-n2nc3ccccc3n2)c1F
REMARK SMILES IDX 1 1 2 2 3 3 4 4 6 5 8 6 18 7 19 8 5 9 9 12 10 13 17 14 11 15
REMARK SMILES IDX 16 16 12 17 15 18 13 19 14 20 7 21
REMARK H PARENT 5 10 5 11 7 22
ROOT
ATOM      1  C   UNL     1      41.318 132.560  19.138  1.00  0.00     0.048 C 
ATOM      2  C   UNL     1      42.713 132.018  19.272  1.00  0.00    -0.011 A 
ATOM      3  C   UNL     1      43.288 131.860  20.539  1.00  0.00     0.036 A 
ATOM      4  C   UNL     1      44.595 131.376  20.675  1.00  0.00     0.077 A 
ATOM      5  C   UNL     1      45.347 131.053  19.529  1.00  0.00     0.169 A 
ATOM      6  C   UNL     1      44.791 131.259  18.245  1.00  0.00     0.165 A 
ATOM      7  C   UNL     1      43.472 131.730  18.127  1.00  0.00     0.157 A 
ATOM      8  F   UNL     1      42.938 131.946  16.897  1.00  0.00    -0.204 F 
ENDROOT
BRANCH   4   9
ATOM      9  N   UNL     1      45.148 131.200  21.985  1.00  0.00    -0.396 N 
ATOM     10  H   UNL     1      46.126 130.852  22.107  1.00  0.00     0.156 HD
ATOM     11  H   UNL     1      44.594 131.407  22.844  1.00  0.00     0.156 HD
ENDBRANCH   4   9
BRANCH   6  12
ATOM     12  N   UNL     1      45.562 131.025  17.056  1.00  0.00    -0.143 N 
ATOM     13  N   UNL     1      46.127 129.853  16.768  1.00  0.00    -0.148 NA
ATOM     14  N   UNL     1      45.728 131.933  16.094  1.00  0.00    -0.148 NA
ATOM     15  C   UNL     1      46.697 130.034  15.568  1.00  0.00     0.113 A 
ATOM     16  C   UNL     1      46.452 131.307  15.155  1.00  0.00     0.113 A 
ATOM     17  C   UNL     1      47.422 129.130  14.798  1.00  0.00     0.032 A 
ATOM     18  C   UNL     1      46.912 131.793  13.936  1.00  0.00     0.032 A 
ATOM     19  C   UNL     1      47.908 129.584  13.555  1.00  0.00     0.002 A 
ATOM     20  C   UNL     1      47.654 130.910  13.126  1.00  0.00     0.002 A 
ENDBRANCH   6  12
BRANCH   5  21
ATOM     21  O   UNL     1      46.621 130.505  19.693  1.00  0.00    -0.504 OA
ATOM     22  H   UNL     1      46.945 130.108  20.564  1.00  0.00     0.293 HD
ENDBRANCH   5  21
TORSDOF 3
ENDMDL
MODEL 3
REMARK VINA RESULT:      -9.7      2.022      2.862
REMARK SMILES Cc1cc(N)c(O)c(-n2nc3ccccc3n2)c1F
REMARK SMILES IDX 1 1 2 2 3 3 4 4 6 5 8 6 18 7 19 8 5 9 9 12 10 13 17 14 11 15
REMARK SMILES IDX 16 16 12 17 15 18 13 19 14 20 7 21
REMARK H PARENT 5 10 5 11 7 22
ROOT
ATOM      1  C   UNL     1      41.293 132.735  19.444  1.00  0.00     0.048 C 
ATOM      2  C   UNL     1      42.656 132.106  19.513  1.00  0.00    -0.011 A 
ATOM      3  C   UNL     1      43.264 131.876  20.754  1.00  0.00     0.036 A 
ATOM      4  C   UNL     1      44.542 131.311  20.829  1.00  0.00     0.077 A 
ATOM      5  C   UNL     1      45.233 130.976  19.649  1.00  0.00     0.169 A 
ATOM      6  C   UNL     1      44.647 131.252  18.391  1.00  0.00     0.165 A 
ATOM      7  C   UNL     1      43.357 131.806  18.334  1.00  0.00     0.157 A 
ATOM      8  F   UNL     1      42.795 132.089  17.130  1.00  0.00    -0.204 F 
ENDROOT
BRANCH   4   9
ATOM      9  N   UNL     1      45.129 131.063  22.112  1.00  0.00    -0.396 N 
ATOM     10  H   UNL     1      46.165 130.993  22.219  1.00  0.00     0.156 HD
ATOM     11  H   UNL     1      44.542 130.942  22.967  1.00  0.00     0.156 HD
ENDBRANCH   4   9
BRANCH   6  12
ATOM     12  N   UNL     1      45.361 131.007  17.169  1.00  0.00    -0.143 N 
ATOM     13  N   UNL     1      45.610 131.953  16.264  1.00  0.00    -0.148 NA
ATOM     14  N   UNL     1      45.904 129.831  16.856  1.00  0.00    -0.148 NA
ATOM     15  C   UNL     1      46.333 131.339  15.317  1.00  0.00     0.113 A 
ATOM     16  C   UNL     1      46.513 130.039  15.679  1.00  0.00     0.113 A 
ATOM     17  C   UNL     1      46.860 131.861  14.141  1.00  0.00     0.032 A 
ATOM     18  C   UNL     1      47.236 129.144  14.897  1.00  0.00     0.032 A 
ATOM     19  C   UNL     1      47.597 130.986  13.318  1.00  0.00     0.002 A 
ATOM     20  C   UNL     1      47.784 129.634  13.695  1.00  0.00     0.002 A 
ENDBRANCH   6  12
BRANCH   5  21
ATOM     21  O   UNL     1      46.476 130.348  19.752  1.00  0.00    -0.504 OA
ATOM     22  H   UNL     1      46.927 130.153  20.635  1.00  0.00     0.293 HD
ENDBRANCH   5  21
TORSDOF 3
ENDMDL
MODEL 4
REMARK VINA RESULT:      -9.7      0.181      1.345
REMARK SMILES Cc1cc(N)c(O)c(-n2nc3ccccc3n2)c1F
REMARK SMILES IDX 1 1 2 2 3 3 4 4 6 5 8 6 18 7 19 8 5 9 9 12 10 13 17 14 11 15
REMARK SMILES IDX 16 16 12 17 15 18 13 19 14 20 7 21
REMARK H PARENT 5 10 5 11 7 22
ROOT
ATOM      1  C   UNL     1      44.986 131.028  21.701  1.00  0.00     0.048 C 
ATOM      2  C   UNL     1      44.422 131.328  20.341  1.00  0.00    -0.011 A 
ATOM      3  C   UNL     1      43.105 131.788  20.210  1.00  0.00     0.036 A 
ATOM      4  C   UNL     1      42.562 132.050  18.947  1.00  0.00     0.077 A 
ATOM      5  C   UNL     1      43.340 131.843  17.792  1.00  0.00     0.169 A 
ATOM      6  C   UNL     1      44.653 131.330  17.912  1.00  0.00     0.165 A 
ATOM      7  C   UNL     1      45.187 131.087  19.189  1.00  0.00     0.157 A 
ATOM      8  F   UNL     1      46.441 130.579  19.312  1.00  0.00    -0.204 F 
ENDROOT
BRANCH   4   9
ATOM      9  N   UNL     1      41.221 132.544  18.845  1.00  0.00    -0.396 N 
ATOM     10  H   UNL     1      40.881 132.979  17.959  1.00  0.00     0.156 HD
ATOM     11  H   UNL     1      40.556 132.487  19.647  1.00  0.00     0.156 HD
ENDBRANCH   4   9
BRANCH   6  12
ATOM     12  N   UNL     1      45.440 131.022  16.751  1.00  0.00    -0.143 N 
ATOM     13  N   UNL     1      45.792 131.932  15.843  1.00  0.00    -0.148 NA
ATOM     14  N   UNL     1      45.952 129.816  16.507  1.00  0.00    -0.148 NA
ATOM     15  C   UNL     1      46.553 131.262  14.966  1.00  0.00     0.113 A 
ATOM     16  C   UNL     1      46.652 129.967  15.372  1.00  0.00     0.113 A 
ATOM     17  C   UNL     1      47.184 131.729  13.818  1.00  0.00     0.032 A 
ATOM     18  C   UNL     1      47.388 129.021  14.666  1.00  0.00     0.032 A 
ATOM     19  C   UNL     1      47.939 130.802  13.072  1.00  0.00     0.002 A 
ATOM     20  C   UNL     1      48.041 129.454  13.494  1.00  0.00     0.002 A 
ENDBRANCH   6  12
BRANCH   5  21
ATOM     21  O   UNL     1      42.800 132.179  16.549  1.00  0.00    -0.504 OA
ATOM     22  H   UNL     1      43.349 132.229  15.701  1.00  0.00     0.293 HD
ENDBRANCH   5  21
TORSDOF 3
ENDMDL
MODEL 5
REMARK VINA RESULT:      -8.6      1.499      2.150
REMARK SMILES Cc1cc(N)c(O)c(-n2nc3ccccc3n2)c1F
REMARK SMILES IDX 1 1 2 2 3 3 4 4 6 5 8 6 18 7 19 8 5 9 9 12 10 13 17 14 11 15
REMARK SMILES IDX 16 16 12 17 15 18 13 19 14 20 7 21
REMARK H PARENT 5 10 5 11 7 22
ROOT
ATOM      1  C   UNL     1      44.513 130.701  23.085  1.00  0.00     0.048 C 
ATOM      2  C   UNL     1      43.865 131.291  21.865  1.00  0.00    -0.011 A 
ATOM      3  C   UNL     1      42.668 132.010  21.981  1.00  0.00     0.036 A 
ATOM      4  C   UNL     1      42.044 132.545  20.849  1.00  0.00     0.077 A 
ATOM      5  C   UNL     1      42.615 132.355  19.576  1.00  0.00     0.169 A 
ATOM      6  C   UNL     1      43.797 131.588  19.445  1.00  0.00     0.165 A 
ATOM      7  C   UNL     1      44.418 131.070  20.595  1.00  0.00     0.157 A 
ATOM      8  F   UNL     1      45.543 130.319  20.475  1.00  0.00    -0.204 F 
ENDROOT
BRANCH   4   9
ATOM      9  N   UNL     1      40.834 133.297  21.000  1.00  0.00    -0.396 N 
ATOM     10  H   UNL     1      40.468 133.532  21.950  1.00  0.00     0.156 HD
ATOM     11  H   UNL     1      40.288 133.624  20.173  1.00  0.00     0.156 HD
ENDBRANCH   4   9
BRANCH   6  12
ATOM     12  N   UNL     1      44.356 131.299  18.154  1.00  0.00    -0.143 N 
ATOM     13  N   UNL     1      43.834 131.749  17.013  1.00  0.00    -0.148 NA
ATOM     14  N   UNL     1      45.486 130.616  17.976  1.00  0.00    -0.148 NA
ATOM     15  C   UNL     1      44.669 131.310  16.060  1.00  0.00     0.113 A 
ATOM     16  C   UNL     1      45.680 130.617  16.649  1.00  0.00     0.113 A 
ATOM     17  C   UNL     1      44.599 131.494  14.683  1.00  0.00     0.032 A 
ATOM     18  C   UNL     1      46.713 130.043  15.915  1.00  0.00     0.032 A 
ATOM     19  C   UNL     1      45.625 130.926  13.902  1.00  0.00     0.002 A 
ATOM     20  C   UNL     1      46.678 130.204  14.515  1.00  0.00     0.002 A 
ENDBRANCH   6  12
BRANCH   5  21
ATOM     21  O   UNL     1      42.013 132.960  18.471  1.00  0.00    -0.504 OA
ATOM     22  H   UNL     1      42.130 132.626  17.524  1.00  0.00     0.293 HD
ENDBRANCH   5  21
TORSDOF 3
ENDMDL
MODEL 6
REMARK VINA RESULT:      -8.5      1.466      1.789
REMARK SMILES Cc1cc(N)c(O)c(-n2nc3ccccc3n2)c1F
REMARK SMILES IDX 1 1 2 2 3 3 4 4 6 5 8 6 18 7 19 8 5 9 9 12 10 13 17 14 11 15
REMARK SMILES IDX 16 16 12 17 15 18 13 19 14 20 7 21
REMARK H PARENT 5 10 5 11 7 22
ROOT
ATOM      1  C   UNL     1      44.640 130.586  23.119  1.00  0.00     0.048 C 
ATOM      2  C   UNL     1      43.997 131.198  21.907  1.00  0.00    -0.011 A 
ATOM      3  C   UNL     1      42.781 131.883  22.025  1.00  0.00     0.036 A 
ATOM      4  C   UNL     1      42.161 132.438  20.900  1.00  0.00     0.077 A 
ATOM      5  C   UNL     1      42.757 132.302  19.631  1.00  0.00     0.169 A 
ATOM      6  C   UNL     1      43.959 131.568  19.496  1.00  0.00     0.165 A 
ATOM      7  C   UNL     1      44.575 131.030  20.639  1.00  0.00     0.157 A 
ATOM      8  F   UNL     1      45.720 130.310  20.514  1.00  0.00    -0.204 F 
ENDROOT
BRANCH   4   9
ATOM      9  N   UNL     1      40.931 133.156  21.054  1.00  0.00    -0.396 N 
ATOM     10  H   UNL     1      40.914 134.088  21.525  1.00  0.00     0.156 HD
ATOM     11  H   UNL     1      40.026 132.769  20.708  1.00  0.00     0.156 HD
ENDBRANCH   4   9
BRANCH   6  12
ATOM     12  N   UNL     1      44.545 131.333  18.206  1.00  0.00    -0.143 N 
ATOM     13  N   UNL     1      45.608 130.552  18.016  1.00  0.00    -0.148 NA
ATOM     14  N   UNL     1      44.042 131.815  17.069  1.00  0.00    -0.148 NA
ATOM     15  C   UNL     1      45.800 130.554  16.689  1.00  0.00     0.113 A 
ATOM     16  C   UNL     1      44.842 131.327  16.109  1.00  0.00     0.113 A 
ATOM     17  C   UNL     1      46.777 129.901  15.945  1.00  0.00     0.032 A 
ATOM     18  C   UNL     1      44.774 131.518  14.733  1.00  0.00     0.032 A 
ATOM     19  C   UNL     1      46.744 130.069  14.546  1.00  0.00     0.002 A 
ATOM     20  C   UNL     1      45.747 130.874  13.943  1.00  0.00     0.002 A 
ENDBRANCH   6  12
BRANCH   5  21
ATOM     21  O   UNL     1      42.157 132.926  18.536  1.00  0.00    -0.504 OA
ATOM     22  H   UNL     1      42.466 133.815  18.167  1.00  0.00     0.293 HD
ENDBRANCH   5  21
TORSDOF 3
ENDMDL
MODEL 7
REMARK VINA RESULT:      -8.2      2.338      3.063
REMARK SMILES Cc1cc(N)c(O)c(-n2nc3ccccc3n2)c1F
REMARK SMILES IDX 1 1 2 2 3 3 4 4 6 5 8 6 18 7 19 8 5 9 9 12 10 13 17 14 11 15
REMARK SMILES IDX 16 16 12 17 15 18 13 19 14 20 7 21
REMARK H PARENT 5 10 5 11 7 22
ROOT
ATOM      1  C   UNL     1      41.162 133.140  20.594  1.00  0.00     0.048 C 
ATOM      2  C   UNL     1      42.429 132.337  20.509  1.00  0.00    -0.011 A 
ATOM      3  C   UNL     1      43.087 131.932  21.677  1.00  0.00     0.036 A 
ATOM      4  C   UNL     1      44.279 131.203  21.610  1.00  0.00     0.077 A 
ATOM      5  C   UNL     1      44.834 130.878  20.357  1.00  0.00     0.169 A 
ATOM      6  C   UNL     1      44.204 131.328  19.173  1.00  0.00     0.165 A 
ATOM      7  C   UNL     1      42.998 132.046  19.259  1.00  0.00     0.157 A 
ATOM      8  F   UNL     1      42.396 132.495  18.127  1.00  0.00    -0.204 F 
ENDROOT
BRANCH   4   9
ATOM      9  N   UNL     1      44.916 130.779  22.821  1.00  0.00    -0.396 N 
ATOM     10  H   UNL     1      44.507 131.021  23.750  1.00  0.00     0.156 HD
ATOM     11  H   UNL     1      45.801 130.226  22.808  1.00  0.00     0.156 HD
ENDBRANCH   4   9
BRANCH   6  12
ATOM     12  N   UNL     1      44.790 131.092  17.883  1.00  0.00    -0.143 N 
ATOM     13  N   UNL     1      44.406 131.729  16.777  1.00  0.00    -0.148 NA
ATOM     14  N   UNL     1      45.819 130.270  17.680  1.00  0.00    -0.148 NA
ATOM     15  C   UNL     1      45.224 131.271  15.818  1.00  0.00     0.113 A 
ATOM     16  C   UNL     1      46.089 130.378  16.371  1.00  0.00     0.113 A 
ATOM     17  C   UNL     1      45.262 131.602  14.468  1.00  0.00     0.032 A 
ATOM     18  C   UNL     1      47.070 129.734  15.624  1.00  0.00     0.032 A 
ATOM     19  C   UNL     1      46.241 130.970  13.674  1.00  0.00     0.002 A 
ATOM     20  C   UNL     1      47.141 130.041  14.250  1.00  0.00     0.002 A 
ENDBRANCH   6  12
BRANCH   5  21
ATOM     21  O   UNL     1      45.985 130.089  20.315  1.00  0.00    -0.504 OA
ATOM     22  H   UNL     1      46.037 129.163  20.716  1.00  0.00     0.293 HD
ENDBRANCH   5  21
TORSDOF 3
ENDMDL
MODEL 8
REMARK VINA RESULT:      -7.8      2.537      3.126
REMARK SMILES Cc1cc(N)c(O)c(-n2nc3ccccc3n2)c1F
REMARK SMILES IDX 1 1 2 2 3 3 4 4 6 5 8 6 18 7 19 8 5 9 9 12 10 13 17 14 11 15
REMARK SMILES IDX 16 16 12 17 15 18 13 19 14 20 7 21
REMARK H PARENT 5 10 5 11 7 22
ROOT
ATOM      1  C   UNL     1      40.979 133.390  21.198  1.00  0.00     0.048 C 
ATOM      2  C   UNL     1      42.209 132.541  21.042  1.00  0.00    -0.011 A 
ATOM      3  C   UNL     1      42.876 132.053  22.173  1.00  0.00     0.036 A 
ATOM      4  C   UNL     1      44.035 131.280  22.040  1.00  0.00     0.077 A 
ATOM      5  C   UNL     1      44.546 130.994  20.760  1.00  0.00     0.169 A 
ATOM      6  C   UNL     1      43.907 131.526  19.615  1.00  0.00     0.165 A 
ATOM      7  C   UNL     1      42.736 132.288  19.766  1.00  0.00     0.157 A 
ATOM      8  F   UNL     1      42.127 132.816  18.672  1.00  0.00    -0.204 F 
ENDROOT
BRANCH   4   9
ATOM      9  N   UNL     1      44.682 130.772  23.213  1.00  0.00    -0.396 N 
ATOM     10  H   UNL     1      44.170 130.146  23.875  1.00  0.00     0.156 HD
ATOM     11  H   UNL     1      45.671 131.015  23.440  1.00  0.00     0.156 HD
ENDBRANCH   4   9
BRANCH   6  12
ATOM     12  N   UNL     1      44.453 131.330  18.301  1.00  0.00    -0.143 N 
ATOM     13  N   UNL     1      45.568 130.638  18.067  1.00  0.00    -0.148 NA
ATOM     14  N   UNL     1      43.862 131.758  17.186  1.00  0.00    -0.148 NA
ATOM     15  C   UNL     1      45.700 130.644  16.733  1.00  0.00     0.113 A 
ATOM     16  C   UNL     1      44.656 131.330  16.193  1.00  0.00     0.113 A 
ATOM     17  C   UNL     1      46.693 130.067  15.949  1.00  0.00     0.032 A 
ATOM     18  C   UNL     1      44.511 131.502  14.820  1.00  0.00     0.032 A 
ATOM     19  C   UNL     1      46.585 130.220  14.552  1.00  0.00     0.002 A 
ATOM     20  C   UNL     1      45.498 130.934  13.990  1.00  0.00     0.002 A 
ENDBRANCH   6  12
BRANCH   5  21
ATOM     21  O   UNL     1      45.661 130.161  20.651  1.00  0.00    -0.504 OA
ATOM     22  H   UNL     1      45.713 129.385  20.005  1.00  0.00     0.293 HD
ENDBRANCH   5  21
TORSDOF 3
ENDMDL
MODEL 9
REMARK VINA RESULT:      -7.7      2.345      6.399
REMARK SMILES Cc1cc(N)c(O)c(-n2nc3ccccc3n2)c1F
REMARK SMILES IDX 1 1 2 2 3 3 4 4 6 5 8 6 18 7 19 8 5 9 9 12 10 13 17 14 11 15
REMARK SMILES IDX 16 16 12 17 15 18 13 19 14 20 7 21
REMARK H PARENT 5 10 5 11 7 22
ROOT
ATOM      1  C   UNL     1      43.199 131.782  13.681  1.00  0.00     0.048 C 
ATOM      2  C   UNL     1      44.185 131.329  14.721  1.00  0.00    -0.011 A 
ATOM      3  C   UNL     1      45.341 130.636  14.340  1.00  0.00     0.036 A 
ATOM      4  C   UNL     1      46.255 130.190  15.302  1.00  0.00     0.077 A 
ATOM      5  C   UNL     1      46.010 130.429  16.668  1.00  0.00     0.169 A 
ATOM      6  C   UNL     1      44.820 131.083  17.063  1.00  0.00     0.165 A 
ATOM      7  C   UNL     1      43.920 131.538  16.083  1.00  0.00     0.157 A 
ATOM      8  F   UNL     1      42.767 132.151  16.456  1.00  0.00    -0.204 F 
ENDROOT
BRANCH   4   9
ATOM      9  N   UNL     1      47.443 129.507  14.883  1.00  0.00    -0.396 N 
ATOM     10  H   UNL     1      47.686 129.437  13.870  1.00  0.00     0.156 HD
ATOM     11  H   UNL     1      48.088 129.061  15.571  1.00  0.00     0.156 HD
ENDBRANCH   4   9
BRANCH   6  12
ATOM     12  N   UNL     1      44.496 131.262  18.451  1.00  0.00    -0.143 N 
ATOM     13  N   UNL     1      43.345 131.785  18.872  1.00  0.00    -0.148 NA
ATOM     14  N   UNL     1      45.282 130.860  19.449  1.00  0.00    -0.148 NA
ATOM     15  C   UNL     1      43.413 131.728  20.210  1.00  0.00     0.113 A 
ATOM     16  C   UNL     1      44.599 131.161  20.563  1.00  0.00     0.113 A 
ATOM     17  C   UNL     1      42.479 132.142  21.154  1.00  0.00     0.032 A 
ATOM     18  C   UNL     1      44.958 130.958  21.892  1.00  0.00     0.032 A 
ATOM     19  C   UNL     1      42.805 131.955  22.512  1.00  0.00     0.002 A 
ATOM     20  C   UNL     1      44.039 131.366  22.879  1.00  0.00     0.002 A 
ENDBRANCH   6  12
BRANCH   5  21
ATOM     21  O   UNL     1      46.972 130.038  17.602  1.00  0.00    -0.504 OA
ATOM     22  H   UNL     1      47.928 130.366  17.584  1.00  0.00     0.293 HD
ENDBRANCH   5  21
TORSDOF 3
ENDMDL


