MODEL 1
REMARK VINA RESULT:      -8.7      0.000      0.000
REMARK SMILES Cc1cc(O[C@@H]2C=CC(O)=CO2)ccc1/C(O)=N/[C@H]1CC12CCC2
REMARK SMILES IDX 4 1 13 2 14 3 15 4 2 5 1 6 3 7 5 8 6 9 9 10 11 11 8 12 12 13
REMARK SMILES IDX 7 14 10 15 16 17 18 18 19 19 20 20 21 21 22 22 24 23 23 24
REMARK SMILES IDX 17 25
REMARK H PARENT 10 16 17 26
ROOT
ATOM      1  C   UNL     1      44.771 131.384  21.179  1.00  0.00     0.124 A 
ATOM      2  C   UNL     1      45.649 130.975  20.163  1.00  0.00     0.047 A 
ATOM      3  C   UNL     1      45.266 131.062  18.825  1.00  0.00     0.018 A 
ATOM      4  C   UNL     1      43.999 131.556  18.464  1.00  0.00     0.039 A 
ATOM      5  C   UNL     1      43.118 131.995  19.488  1.00  0.00    -0.035 A 
ATOM      6  C   UNL     1      41.764 132.581  19.184  1.00  0.00     0.045 C 
ATOM      7  C   UNL     1      43.514 131.884  20.832  1.00  0.00     0.050 A 
ENDROOT
BRANCH   1   8
ATOM      8  O   UNL     1      45.106 131.311  22.540  1.00  0.00    -0.451 OA
BRANCH   8   9
ATOM      9  C   UNL     1      44.369 130.591  23.527  1.00  0.00     0.388 C 
ATOM     10  C   UNL     1      41.922 129.121  23.792  1.00  0.00     0.150 C 
ATOM     11  C   UNL     1      41.922 130.443  23.965  1.00  0.00     0.238 C 
ATOM     12  C   UNL     1      43.139 128.456  23.292  1.00  0.00     0.053 C 
ATOM     13  O   UNL     1      43.076 131.188  23.694  1.00  0.00    -0.455 OA
ATOM     14  C   UNL     1      44.267 129.147  23.110  1.00  0.00     0.066 C 
BRANCH  10  15
ATOM     15  O   UNL     1      40.771 128.385  24.056  1.00  0.00    -0.505 OA
ATOM     16  H   UNL     1      39.907 128.840  24.324  1.00  0.00     0.293 HD
ENDBRANCH  10  15
ENDBRANCH   8   9
ENDBRANCH   1   8
BRANCH   4  17
ATOM     17  C   UNL     1      43.632 131.593  17.025  1.00  0.00     0.214 C 
BRANCH  17  18
ATOM     18  N   UNL     1      44.386 130.976  16.161  1.00  0.00    -0.247 NA
BRANCH  18  19
ATOM     19  C   UNL     1      44.990 131.608  14.994  1.00  0.00     0.116 C 
ATOM     20  C   UNL     1      46.320 132.305  15.313  1.00  0.00     0.037 C 
ATOM     21  C   UNL     1      46.293 130.976  14.574  1.00  0.00    -0.005 C 
ATOM     22  C   UNL     1      47.064 129.823  15.150  1.00  0.00     0.009 C 
ATOM     23  C   UNL     1      46.926 130.905  13.217  1.00  0.00     0.009 C 
ATOM     24  C   UNL     1      47.739 129.712  13.766  1.00  0.00     0.001 C 
ENDBRANCH  18  19
ENDBRANCH  17  18
BRANCH  17  25
ATOM     25  O   UNL     1      42.471 132.260  16.624  1.00  0.00    -0.493 OA
ATOM     26  H   UNL     1      42.173 132.321  15.659  1.00  0.00     0.295 HD
ENDBRANCH  17  25
ENDBRANCH   4  17
TORSDOF 7
ENDMDL
MODEL 2
REMARK VINA RESULT:      -8.7      2.505      8.275
REMARK SMILES Cc1cc(O[C@@H]2C=CC(O)=CO2)ccc1/C(O)=N/[C@H]1CC12CCC2
REMARK SMILES IDX 4 1 13 2 14 3 15 4 2 5 1 6 3 7 5 8 6 9 9 10 11 11 8 12 12 13
REMARK SMILES IDX 7 14 10 15 16 17 18 18 19 19 20 20 21 21 22 22 24 23 23 24
REMARK SMILES IDX 17 25
REMARK H PARENT 10 16 17 26
ROOT
ATOM      1  C   UNL     1      44.472 131.614  17.443  1.00  0.00     0.124 A 
ATOM      2  C   UNL     1      43.111 131.726  17.769  1.00  0.00     0.047 A 
ATOM      3  C   UNL     1      42.707 131.752  19.104  1.00  0.00     0.018 A 
ATOM      4  C   UNL     1      43.647 131.667  20.147  1.00  0.00     0.039 A 
ATOM      5  C   UNL     1      45.026 131.580  19.821  1.00  0.00    -0.035 A 
ATOM      6  C   UNL     1      46.099 131.533  20.878  1.00  0.00     0.045 C 
ATOM      7  C   UNL     1      45.415 131.537  18.470  1.00  0.00     0.050 A 
ENDROOT
BRANCH   1   8
ATOM      8  O   UNL     1      44.929 131.577  16.116  1.00  0.00    -0.451 OA
BRANCH   8   9
ATOM      9  C   UNL     1      46.281 131.353  15.723  1.00  0.00     0.388 C 
ATOM     10  C   UNL     1      47.790 129.747  13.888  1.00  0.00     0.150 C 
ATOM     11  C   UNL     1      47.483 129.264  15.092  1.00  0.00     0.238 C 
ATOM     12  C   UNL     1      47.200 131.025  13.448  1.00  0.00     0.053 C 
ATOM     13  O   UNL     1      46.624 129.977  15.937  1.00  0.00    -0.455 OA
ATOM     14  C   UNL     1      46.448 131.750  14.279  1.00  0.00     0.066 C 
BRANCH  10  15
ATOM     15  O   UNL     1      48.638 129.032  13.047  1.00  0.00    -0.505 OA
ATOM     16  H   UNL     1      48.848 128.056  13.219  1.00  0.00     0.293 HD
ENDBRANCH  10  15
ENDBRANCH   8   9
ENDBRANCH   1   8
BRANCH   4  17
ATOM     17  C   UNL     1      43.157 131.665  21.549  1.00  0.00     0.214 C 
BRANCH  17  18
ATOM     18  N   UNL     1      43.865 131.073  22.468  1.00  0.00    -0.247 NA
BRANCH  18  19
ATOM     19  C   UNL     1      43.970 129.627  22.625  1.00  0.00     0.116 C 
ATOM     20  C   UNL     1      44.485 129.211  24.010  1.00  0.00     0.037 C 
ATOM     21  C   UNL     1      43.017 129.061  23.646  1.00  0.00    -0.005 C 
ATOM     22  C   UNL     1      41.993 129.727  24.520  1.00  0.00     0.009 C 
ATOM     23  C   UNL     1      42.402 127.696  23.725  1.00  0.00     0.009 C 
ATOM     24  C   UNL     1      41.325 128.339  24.625  1.00  0.00     0.001 C 
ENDBRANCH  18  19
ENDBRANCH  17  18
BRANCH  17  25
ATOM     25  O   UNL     1      41.965 132.322  21.867  1.00  0.00    -0.493 OA
ATOM     26  H   UNL     1      41.832 133.318  21.742  1.00  0.00     0.295 HD
ENDBRANCH  17  25
ENDBRANCH   4  17
TORSDOF 7
ENDMDL
MODEL 3
REMARK VINA RESULT:      -8.7      2.518      8.007
REMARK SMILES Cc1cc(O[C@@H]2C=CC(O)=CO2)ccc1/C(O)=N/[C@H]1CC12CCC2
REMARK SMILES IDX 4 1 13 2 14 3 15 4 2 5 1 6 3 7 5 8 6 9 9 10 11 11 8 12 12 13
REMARK SMILES IDX 7 14 10 15 16 17 18 18 19 19 20 20 21 21 22 22 24 23 23 24
REMARK SMILES IDX 17 25
REMARK H PARENT 10 16 17 26
ROOT
ATOM      1  C   UNL     1      44.312 131.650  17.458  1.00  0.00     0.124 A 
ATOM      2  C   UNL     1      42.934 131.621  17.719  1.00  0.00     0.047 A 
ATOM      3  C   UNL     1      42.466 131.594  19.033  1.00  0.00     0.018 A 
ATOM      4  C   UNL     1      43.360 131.594  20.119  1.00  0.00     0.039 A 
ATOM      5  C   UNL     1      44.755 131.650  19.860  1.00  0.00    -0.035 A 
ATOM      6  C   UNL     1      45.776 131.702  20.967  1.00  0.00     0.045 C 
ATOM      7  C   UNL     1      45.209 131.659  18.529  1.00  0.00     0.050 A 
ENDROOT
BRANCH   1   8
ATOM      8  O   UNL     1      44.834 131.672  16.154  1.00  0.00    -0.451 OA
BRANCH   8   9
ATOM      9  C   UNL     1      46.192 131.406  15.812  1.00  0.00     0.388 C 
ATOM     10  C   UNL     1      47.715 129.846  13.949  1.00  0.00     0.150 C 
ATOM     11  C   UNL     1      47.325 129.304  15.103  1.00  0.00     0.238 C 
ATOM     12  C   UNL     1      47.209 131.177  13.567  1.00  0.00     0.053 C 
ATOM     13  O   UNL     1      46.459 130.003  15.951  1.00  0.00    -0.455 OA
ATOM     14  C   UNL     1      46.449 131.885  14.407  1.00  0.00     0.066 C 
BRANCH  10  15
ATOM     15  O   UNL     1      48.570 129.145  13.104  1.00  0.00    -0.505 OA
ATOM     16  H   UNL     1      48.265 128.830  12.191  1.00  0.00     0.293 HD
ENDBRANCH  10  15
ENDBRANCH   8   9
ENDBRANCH   1   8
BRANCH   4  17
ATOM     17  C   UNL     1      42.807 131.530  21.497  1.00  0.00     0.214 C 
BRANCH  17  18
ATOM     18  N   UNL     1      42.942 130.432  22.184  1.00  0.00    -0.247 NA
BRANCH  18  19
ATOM     19  C   UNL     1      44.213 129.924  22.687  1.00  0.00     0.116 C 
ATOM     20  C   UNL     1      44.241 129.791  24.216  1.00  0.00     0.037 C 
ATOM     21  C   UNL     1      44.106 128.564  23.330  1.00  0.00    -0.005 C 
ATOM     22  C   UNL     1      42.926 127.659  23.538  1.00  0.00     0.009 C 
ATOM     23  C   UNL     1      45.137 127.482  23.452  1.00  0.00     0.009 C 
ATOM     24  C   UNL     1      43.954 126.514  23.668  1.00  0.00     0.001 C 
ENDBRANCH  18  19
ENDBRANCH  17  18
BRANCH  17  25
ATOM     25  O   UNL     1      42.180 132.653  22.045  1.00  0.00    -0.493 OA
ATOM     26  H   UNL     1      41.969 132.742  23.031  1.00  0.00     0.295 HD
ENDBRANCH  17  25
ENDBRANCH   4  17
TORSDOF 7
ENDMDL
MODEL 4
REMARK VINA RESULT:      -8.2      2.330      7.767
REMARK SMILES Cc1cc(O[C@@H]2C=CC(O)=CO2)ccc1/C(O)=N/[C@H]1CC12CCC2
REMARK SMILES IDX 4 1 13 2 14 3 15 4 2 5 1 6 3 7 5 8 6 9 9 10 11 11 8 12 12 13
REMARK SMILES IDX 7 14 10 15 16 17 18 18 19 19 20 20 21 21 22 22 24 23 23 24
REMARK SMILES IDX 17 25
REMARK H PARENT 10 16 17 26
ROOT
ATOM      1  C   UNL     1      43.998 131.709  17.064  1.00  0.00     0.124 A 
ATOM      2  C   UNL     1      45.194 131.319  17.686  1.00  0.00     0.047 A 
ATOM      3  C   UNL     1      45.265 131.221  19.075  1.00  0.00     0.018 A 
ATOM      4  C   UNL     1      44.147 131.507  19.880  1.00  0.00     0.039 A 
ATOM      5  C   UNL     1      42.928 131.876  19.253  1.00  0.00    -0.035 A 
ATOM      6  C   UNL     1      41.673 132.153  20.039  1.00  0.00     0.045 C 
ATOM      7  C   UNL     1      42.879 131.988  17.852  1.00  0.00     0.050 A 
ENDROOT
BRANCH   1   8
ATOM      8  O   UNL     1      43.877 131.830  15.670  1.00  0.00    -0.451 OA
BRANCH   8   9
ATOM      9  C   UNL     1      44.568 131.028  14.716  1.00  0.00     0.388 C 
ATOM     10  C   UNL     1      47.075 129.673  14.401  1.00  0.00     0.150 C 
ATOM     11  C   UNL     1      46.971 130.958  14.063  1.00  0.00     0.238 C 
ATOM     12  C   UNL     1      45.955 129.013  15.096  1.00  0.00     0.053 C 
ATOM     13  O   UNL     1      45.799 131.668  14.350  1.00  0.00    -0.455 OA
ATOM     14  C   UNL     1      44.804 129.659  15.299  1.00  0.00     0.066 C 
BRANCH  10  15
ATOM     15  O   UNL     1      48.245 128.972  14.120  1.00  0.00    -0.505 OA
ATOM     16  H   UNL     1      49.083 129.451  13.814  1.00  0.00     0.293 HD
ENDBRANCH  10  15
ENDBRANCH   8   9
ENDBRANCH   1   8
BRANCH   4  17
ATOM     17  C   UNL     1      44.290 131.419  21.356  1.00  0.00     0.214 C 
BRANCH  17  18
ATOM     18  N   UNL     1      43.275 131.025  22.070  1.00  0.00    -0.247 NA
BRANCH  18  19
ATOM     19  C   UNL     1      43.374 130.506  23.429  1.00  0.00     0.116 C 
ATOM     20  C   UNL     1      42.494 129.269  23.662  1.00  0.00     0.037 C 
ATOM     21  C   UNL     1      44.001 129.136  23.506  1.00  0.00    -0.005 C 
ATOM     22  C   UNL     1      44.530 128.230  22.433  1.00  0.00     0.009 C 
ATOM     23  C   UNL     1      44.777 128.504  24.621  1.00  0.00     0.009 C 
ATOM     24  C   UNL     1      45.350 127.550  23.551  1.00  0.00     0.001 C 
ENDBRANCH  18  19
ENDBRANCH  17  18
BRANCH  17  25
ATOM     25  O   UNL     1      45.516 131.728  21.953  1.00  0.00    -0.493 OA
ATOM     26  H   UNL     1      46.381 131.806  21.432  1.00  0.00     0.295 HD
ENDBRANCH  17  25
ENDBRANCH   4  17
TORSDOF 7
ENDMDL
MODEL 5
REMARK VINA RESULT:      -8.2      2.372      7.736
REMARK SMILES Cc1cc(O[C@@H]2C=CC(O)=CO2)ccc1/C(O)=N/[C@H]1CC12CCC2
REMARK SMILES IDX 4 1 13 2 14 3 15 4 2 5 1 6 3 7 5 8 6 9 9 10 11 11 8 12 12 13
REMARK SMILES IDX 7 14 10 15 16 17 18 18 19 19 20 20 21 21 22 22 24 23 23 24
REMARK SMILES IDX 17 25
REMARK H PARENT 10 16 17 26
ROOT
ATOM      1  C   UNL     1      43.568 131.773  17.457  1.00  0.00     0.124 A 
ATOM      2  C   UNL     1      42.422 131.896  18.257  1.00  0.00     0.047 A 
ATOM      3  C   UNL     1      42.497 131.686  19.634  1.00  0.00     0.018 A 
ATOM      4  C   UNL     1      43.716 131.347  20.249  1.00  0.00     0.039 A 
ATOM      5  C   UNL     1      44.884 131.246  19.447  1.00  0.00    -0.035 A 
ATOM      6  C   UNL     1      46.236 130.934  20.034  1.00  0.00     0.045 C 
ATOM      7  C   UNL     1      44.786 131.444  18.059  1.00  0.00     0.050 A 
ENDROOT
BRANCH   1   8
ATOM      8  O   UNL     1      43.544 131.967  16.068  1.00  0.00    -0.451 OA
BRANCH   8   9
ATOM      9  C   UNL     1      44.324 131.235  15.125  1.00  0.00     0.388 C 
ATOM     10  C   UNL     1      46.901 129.999  14.906  1.00  0.00     0.150 C 
ATOM     11  C   UNL     1      46.761 131.292  14.613  1.00  0.00     0.238 C 
ATOM     12  C   UNL     1      45.773 129.266  15.508  1.00  0.00     0.053 C 
ATOM     13  O   UNL     1      45.544 131.940  14.858  1.00  0.00    -0.455 OA
ATOM     14  C   UNL     1      44.585 129.854  15.667  1.00  0.00     0.066 C 
BRANCH  10  15
ATOM     15  O   UNL     1      48.115 129.360  14.669  1.00  0.00    -0.505 OA
ATOM     16  H   UNL     1      48.927 129.876  14.351  1.00  0.00     0.293 HD
ENDBRANCH  10  15
ENDBRANCH   8   9
ENDBRANCH   1   8
BRANCH   4  17
ATOM     17  C   UNL     1      43.731 131.100  21.714  1.00  0.00     0.214 C 
BRANCH  17  18
ATOM     18  N   UNL     1      44.510 130.174  22.195  1.00  0.00    -0.247 NA
BRANCH  18  19
ATOM     19  C   UNL     1      44.322 129.526  23.487  1.00  0.00     0.116 C 
ATOM     20  C   UNL     1      43.240 128.436  23.457  1.00  0.00     0.037 C 
ATOM     21  C   UNL     1      44.715 128.070  23.493  1.00  0.00    -0.005 C 
ATOM     22  C   UNL     1      45.259 127.188  22.406  1.00  0.00     0.009 C 
ATOM     23  C   UNL     1      45.208 127.220  24.625  1.00  0.00     0.009 C 
ATOM     24  C   UNL     1      45.787 126.284  23.541  1.00  0.00     0.001 C 
ENDBRANCH  18  19
ENDBRANCH  17  18
BRANCH  17  25
ATOM     25  O   UNL     1      42.935 131.883  22.555  1.00  0.00    -0.493 OA
ATOM     26  H   UNL     1      43.075 132.877  22.682  1.00  0.00     0.295 HD
ENDBRANCH  17  25
ENDBRANCH   4  17
TORSDOF 7
ENDMDL
MODEL 6
REMARK VINA RESULT:      -8.2      1.346      2.404
REMARK SMILES Cc1cc(O[C@@H]2C=CC(O)=CO2)ccc1/C(O)=N/[C@H]1CC12CCC2
REMARK SMILES IDX 4 1 13 2 14 3 15 4 2 5 1 6 3 7 5 8 6 9 9 10 11 11 8 12 12 13
REMARK SMILES IDX 7 14 10 15 16 17 18 18 19 19 20 20 21 21 22 22 24 23 23 24
REMARK SMILES IDX 17 25
REMARK H PARENT 10 16 17 26
ROOT
ATOM      1  C   UNL     1      42.772 131.931  21.170  1.00  0.00     0.124 A 
ATOM      2  C   UNL     1      42.029 132.268  20.028  1.00  0.00     0.047 A 
ATOM      3  C   UNL     1      42.592 132.143  18.759  1.00  0.00     0.018 A 
ATOM      4  C   UNL     1      43.910 131.679  18.594  1.00  0.00     0.039 A 
ATOM      5  C   UNL     1      44.656 131.312  19.745  1.00  0.00    -0.035 A 
ATOM      6  C   UNL     1      46.056 130.762  19.652  1.00  0.00     0.045 C 
ATOM      7  C   UNL     1      44.079 131.461  21.018  1.00  0.00     0.050 A 
ENDROOT
BRANCH   1   8
ATOM      8  O   UNL     1      42.253 132.045  22.469  1.00  0.00    -0.451 OA
BRANCH   8   9
ATOM      9  C   UNL     1      42.500 131.128  23.533  1.00  0.00     0.388 C 
ATOM     10  C   UNL     1      44.245 128.948  24.182  1.00  0.00     0.150 C 
ATOM     11  C   UNL     1      43.117 128.715  23.510  1.00  0.00     0.238 C 
ATOM     12  C   UNL     1      44.669 130.338  24.427  1.00  0.00     0.053 C 
ATOM     13  O   UNL     1      42.334 129.784  23.059  1.00  0.00    -0.455 OA
ATOM     14  C   UNL     1      43.887 131.361  24.073  1.00  0.00     0.066 C 
BRANCH  10  15
ATOM     15  O   UNL     1      45.025 127.882  24.622  1.00  0.00    -0.505 OA
ATOM     16  H   UNL     1      45.950 128.031  25.006  1.00  0.00     0.293 HD
ENDBRANCH  10  15
ENDBRANCH   8   9
ENDBRANCH   1   8
BRANCH   4  17
ATOM     17  C   UNL     1      44.471 131.599  17.220  1.00  0.00     0.214 C 
BRANCH  17  18
ATOM     18  N   UNL     1      45.708 131.225  17.061  1.00  0.00    -0.247 NA
BRANCH  18  19
ATOM     19  C   UNL     1      46.119 130.001  16.382  1.00  0.00     0.116 C 
ATOM     20  C   UNL     1      45.250 129.676  15.158  1.00  0.00     0.037 C 
ATOM     21  C   UNL     1      46.654 130.234  14.991  1.00  0.00    -0.005 C 
ATOM     22  C   UNL     1      46.830 131.498  14.199  1.00  0.00     0.009 C 
ATOM     23  C   UNL     1      47.648 129.434  14.205  1.00  0.00     0.009 C 
ATOM     24  C   UNL     1      47.864 130.711  13.364  1.00  0.00     0.001 C 
ENDBRANCH  18  19
ENDBRANCH  17  18
BRANCH  17  25
ATOM     25  O   UNL     1      43.658 131.895  16.123  1.00  0.00    -0.493 OA
ATOM     26  H   UNL     1      42.650 131.802  16.140  1.00  0.00     0.295 HD
ENDBRANCH  17  25
ENDBRANCH   4  17
TORSDOF 7
ENDMDL
MODEL 7
REMARK VINA RESULT:      -8.0      2.445      8.156
REMARK SMILES Cc1cc(O[C@@H]2C=CC(O)=CO2)ccc1/C(O)=N/[C@H]1CC12CCC2
REMARK SMILES IDX 4 1 13 2 14 3 15 4 2 5 1 6 3 7 5 8 6 9 9 10 11 11 8 12 12 13
REMARK SMILES IDX 7 14 10 15 16 17 18 18 19 19 20 20 21 21 22 22 24 23 23 24
REMARK SMILES IDX 17 25
REMARK H PARENT 10 16 17 26
ROOT
ATOM      1  C   UNL     1      44.496 131.973  17.550  1.00  0.00     0.124 A 
ATOM      2  C   UNL     1      43.134 131.836  17.860  1.00  0.00     0.047 A 
ATOM      3  C   UNL     1      42.720 131.733  19.187  1.00  0.00     0.018 A 
ATOM      4  C   UNL     1      43.652 131.763  20.241  1.00  0.00     0.039 A 
ATOM      5  C   UNL     1      45.028 131.927  19.934  1.00  0.00    -0.035 A 
ATOM      6  C   UNL     1      46.084 132.016  21.005  1.00  0.00     0.045 C 
ATOM      7  C   UNL     1      45.430 132.011  18.589  1.00  0.00     0.050 A 
ENDROOT
BRANCH   1   8
ATOM      8  O   UNL     1      44.965 132.073  16.231  1.00  0.00    -0.451 OA
BRANCH   8   9
ATOM      9  C   UNL     1      45.280 130.967  15.388  1.00  0.00     0.388 C 
ATOM     10  C   UNL     1      47.527 129.831  14.017  1.00  0.00     0.150 C 
ATOM     11  C   UNL     1      46.802 130.781  13.425  1.00  0.00     0.238 C 
ATOM     12  C   UNL     1      47.276 129.504  15.432  1.00  0.00     0.053 C 
ATOM     13  O   UNL     1      45.798 131.445  14.139  1.00  0.00    -0.455 OA
ATOM     14  C   UNL     1      46.267 130.074  16.095  1.00  0.00     0.066 C 
BRANCH  10  15
ATOM     15  O   UNL     1      48.530 129.178  13.306  1.00  0.00    -0.505 OA
ATOM     16  H   UNL     1      48.336 128.722  12.422  1.00  0.00     0.293 HD
ENDBRANCH  10  15
ENDBRANCH   8   9
ENDBRANCH   1   8
BRANCH   4  17
ATOM     17  C   UNL     1      43.157 131.614  21.634  1.00  0.00     0.214 C 
BRANCH  17  18
ATOM     18  N   UNL     1      43.889 130.978  22.503  1.00  0.00    -0.247 NA
BRANCH  18  19
ATOM     19  C   UNL     1      44.034 129.527  22.555  1.00  0.00     0.116 C 
ATOM     20  C   UNL     1      44.631 129.033  23.880  1.00  0.00     0.037 C 
ATOM     21  C   UNL     1      43.148 128.870  23.584  1.00  0.00    -0.005 C 
ATOM     22  C   UNL     1      42.159 129.451  24.553  1.00  0.00     0.009 C 
ATOM     23  C   UNL     1      42.569 127.488  23.601  1.00  0.00     0.009 C 
ATOM     24  C   UNL     1      41.528 128.043  24.598  1.00  0.00     0.001 C 
ENDBRANCH  18  19
ENDBRANCH  17  18
BRANCH  17  25
ATOM     25  O   UNL     1      41.934 132.184  21.999  1.00  0.00    -0.493 OA
ATOM     26  H   UNL     1      41.053 131.689  21.940  1.00  0.00     0.295 HD
ENDBRANCH  17  25
ENDBRANCH   4  17
TORSDOF 7
ENDMDL
MODEL 8
REMARK VINA RESULT:      -7.9      2.557      7.771
REMARK SMILES Cc1cc(O[C@@H]2C=CC(O)=CO2)ccc1/C(O)=N/[C@H]1CC12CCC2
REMARK SMILES IDX 4 1 13 2 14 3 15 4 2 5 1 6 3 7 5 8 6 9 9 10 11 11 8 12 12 13
REMARK SMILES IDX 7 14 10 15 16 17 18 18 19 19 20 20 21 21 22 22 24 23 23 24
REMARK SMILES IDX 17 25
REMARK H PARENT 10 16 17 26
ROOT
ATOM      1  C   UNL     1      44.942 131.950  18.053  1.00  0.00     0.124 A 
ATOM      2  C   UNL     1      45.648 131.662  19.232  1.00  0.00     0.047 A 
ATOM      3  C   UNL     1      44.963 131.426  20.423  1.00  0.00     0.018 A 
ATOM      4  C   UNL     1      43.557 131.471  20.472  1.00  0.00     0.039 A 
ATOM      5  C   UNL     1      42.839 131.737  19.276  1.00  0.00    -0.035 A 
ATOM      6  C   UNL     1      41.332 131.756  19.233  1.00  0.00     0.045 C 
ATOM      7  C   UNL     1      43.546 131.990  18.088  1.00  0.00     0.050 A 
ENDROOT
BRANCH   1   8
ATOM      8  O   UNL     1      45.584 132.201  16.831  1.00  0.00    -0.451 OA
BRANCH   8   9
ATOM      9  C   UNL     1      45.647 131.290  15.736  1.00  0.00     0.388 C 
ATOM     10  C   UNL     1      47.593 129.929  14.130  1.00  0.00     0.150 C 
ATOM     11  C   UNL     1      47.203 131.159  13.795  1.00  0.00     0.238 C 
ATOM     12  C   UNL     1      47.156 129.354  15.415  1.00  0.00     0.053 C 
ATOM     13  O   UNL     1      46.369 131.888  14.651  1.00  0.00    -0.455 OA
ATOM     14  C   UNL     1      46.294 130.009  16.197  1.00  0.00     0.066 C 
BRANCH  10  15
ATOM     15  O   UNL     1      48.429 129.209  13.281  1.00  0.00    -0.505 OA
ATOM     16  H   UNL     1      49.435 129.321  13.315  1.00  0.00     0.293 HD
ENDBRANCH  10  15
ENDBRANCH   8   9
ENDBRANCH   1   8
BRANCH   4  17
ATOM     17  C   UNL     1      42.882 131.246  21.776  1.00  0.00     0.214 C 
BRANCH  17  18
ATOM     18  N   UNL     1      43.068 130.119  22.401  1.00  0.00    -0.247 NA
BRANCH  18  19
ATOM     19  C   UNL     1      44.367 129.626  22.843  1.00  0.00     0.116 C 
ATOM     20  C   UNL     1      44.399 129.281  24.339  1.00  0.00     0.037 C 
ATOM     21  C   UNL     1      44.345 128.185  23.288  1.00  0.00    -0.005 C 
ATOM     22  C   UNL     1      43.225 127.187  23.352  1.00  0.00     0.009 C 
ATOM     23  C   UNL     1      45.442 127.164  23.270  1.00  0.00     0.009 C 
ATOM     24  C   UNL     1      44.323 126.102  23.333  1.00  0.00     0.001 C 
ENDBRANCH  18  19
ENDBRANCH  17  18
BRANCH  17  25
ATOM     25  O   UNL     1      42.085 132.254  22.325  1.00  0.00    -0.493 OA
ATOM     26  H   UNL     1      42.168 133.229  22.065  1.00  0.00     0.295 HD
ENDBRANCH  17  25
ENDBRANCH   4  17
TORSDOF 7
ENDMDL
MODEL 9
REMARK VINA RESULT:      -7.3      0.720      1.608
REMARK SMILES Cc1cc(O[C@@H]2C=CC(O)=CO2)ccc1/C(O)=N/[C@H]1CC12CCC2
REMARK SMILES IDX 4 1 13 2 14 3 15 4 2 5 1 6 3 7 5 8 6 9 9 10 11 11 8 12 12 13
REMARK SMILES IDX 7 14 10 15 16 17 18 18 19 19 20 20 21 21 22 22 24 23 23 24
REMARK SMILES IDX 17 25
REMARK H PARENT 10 16 17 26
ROOT
ATOM      1  C   UNL     1      44.970 131.421  20.632  1.00  0.00     0.124 A 
ATOM      2  C   UNL     1      43.797 132.053  20.191  1.00  0.00     0.047 A 
ATOM      3  C   UNL     1      43.447 132.025  18.841  1.00  0.00     0.018 A 
ATOM      4  C   UNL     1      44.256 131.367  17.897  1.00  0.00     0.039 A 
ATOM      5  C   UNL     1      45.430 130.704  18.343  1.00  0.00    -0.035 A 
ATOM      6  C   UNL     1      46.324 129.937  17.403  1.00  0.00     0.045 C 
ATOM      7  C   UNL     1      45.777 130.758  19.704  1.00  0.00     0.050 A 
ENDROOT
BRANCH   1   8
ATOM      8  O   UNL     1      45.371 131.427  21.977  1.00  0.00    -0.451 OA
BRANCH   8   9
ATOM      9  C   UNL     1      44.652 130.818  23.048  1.00  0.00     0.388 C 
ATOM     10  C   UNL     1      42.249 129.321  23.499  1.00  0.00     0.150 C 
ATOM     11  C   UNL     1      42.208 130.654  23.500  1.00  0.00     0.238 C 
ATOM     12  C   UNL     1      43.488 128.635  23.091  1.00  0.00     0.053 C 
ATOM     13  O   UNL     1      43.340 131.392  23.135  1.00  0.00    -0.455 OA
ATOM     14  C   UNL     1      44.595 129.330  22.822  1.00  0.00     0.066 C 
BRANCH  10  15
ATOM     15  O   UNL     1      41.119 128.591  23.855  1.00  0.00    -0.505 OA
ATOM     16  H   UNL     1      41.148 127.581  23.930  1.00  0.00     0.293 HD
ENDBRANCH  10  15
ENDBRANCH   8   9
ENDBRANCH   1   8
BRANCH   4  17
ATOM     17  C   UNL     1      43.851 131.398  16.467  1.00  0.00     0.214 C 
BRANCH  17  18
ATOM     18  N   UNL     1      44.636 130.866  15.574  1.00  0.00    -0.247 NA
BRANCH  18  19
ATOM     19  C   UNL     1      45.329 131.617  14.534  1.00  0.00     0.116 C 
ATOM     20  C   UNL     1      46.636 132.254  15.027  1.00  0.00     0.037 C 
ATOM     21  C   UNL     1      46.657 131.017  14.142  1.00  0.00    -0.005 C 
ATOM     22  C   UNL     1      47.375 129.796  14.639  1.00  0.00     0.009 C 
ATOM     23  C   UNL     1      47.389 131.091  12.836  1.00  0.00     0.009 C 
ATOM     24  C   UNL     1      48.151 129.832  13.305  1.00  0.00     0.001 C 
ENDBRANCH  18  19
ENDBRANCH  17  18
BRANCH  17  25
ATOM     25  O   UNL     1      42.627 131.967  16.107  1.00  0.00    -0.493 OA
ATOM     26  H   UNL     1      41.741 131.490  16.220  1.00  0.00     0.295 HD
ENDBRANCH  17  25
ENDBRANCH   4  17
TORSDOF 7
ENDMDL


