REMARK SMILES CC1=CCC=C[C@H]1C(=O)Oc1ccc(N(C(=O)CC#N)c2ccc3cc[nH]c3c2)c(F)c1
REMARK SMILES IDX 11 1 12 2 13 3 14 4 30 5 31 6 32 7 10 8 8 9 9 10 7 11 2 12
REMARK SMILES IDX 3 13 4 14 6 15 5 16 1 17 15 18 16 19 17 20 18 21 19 22 20 23
REMARK SMILES IDX 21 24 22 25 29 26 23 27 28 28 24 29 27 30 25 31 26 32
REMARK H PARENT 27 33
ROOT
ATOM      1  C   UNL     1      -1.677   0.141  -0.328  1.00  0.00     0.133 A 
ATOM      2  C   UNL     1      -0.462  -0.551  -0.462  1.00  0.00     0.049 A 
ATOM      3  C   UNL     1       0.721   0.146  -0.720  1.00  0.00     0.034 A 
ATOM      4  C   UNL     1       0.709   1.542  -0.865  1.00  0.00     0.085 A 
ATOM      5  C   UNL     1      -0.513   2.231  -0.753  1.00  0.00     0.151 A 
ATOM      6  F   UNL     1      -0.555   3.583  -0.846  1.00  0.00    -0.205 F 
ATOM      7  C   UNL     1      -1.696   1.529  -0.497  1.00  0.00     0.088 A 
ENDROOT
BRANCH   1   8
ATOM      8  O   UNL     1      -2.883  -0.521  -0.053  1.00  0.00    -0.426 OA
BRANCH   8   9
ATOM      9  C   UNL     1      -2.997  -1.675   0.738  1.00  0.00     0.322 C 
ATOM     10  O   UNL     1      -2.051  -2.041   1.491  1.00  0.00    -0.251 OA
BRANCH   9  11
ATOM     11  C   UNL     1      -4.288  -2.437   0.756  1.00  0.00     0.147 C 
ATOM     12  C   UNL     1      -5.373  -1.599   1.409  1.00  0.00    -0.059 C 
ATOM     13  C   UNL     1      -6.393  -1.086   0.698  1.00  0.00    -0.023 C 
ATOM     14  C   UNL     1      -6.564  -1.319  -0.784  1.00  0.00     0.054 C 
ATOM     15  C   UNL     1      -4.625  -2.882  -0.646  1.00  0.00    -0.012 C 
ATOM     16  C   UNL     1      -5.653  -2.377  -1.339  1.00  0.00    -0.026 C 
ATOM     17  C   UNL     1      -5.289  -1.305   2.885  1.00  0.00     0.040 C 
ENDBRANCH   9  11
ENDBRANCH   8   9
ENDBRANCH   1   8
BRANCH   4  18
ATOM     18  N   UNL     1       1.941   2.256  -1.093  1.00  0.00    -0.277 N 
BRANCH  18  19
ATOM     19  C   UNL     1       2.020   3.249  -2.140  1.00  0.00     0.245 C 
ATOM     20  O   UNL     1       1.286   3.142  -3.161  1.00  0.00    -0.273 OA
BRANCH  19  21
ATOM     21  C   UNL     1       2.944   4.431  -2.034  1.00  0.00     0.220 C 
BRANCH  21  22
ATOM     22  C   UNL     1       4.081   4.275  -2.947  1.00  0.00     0.072 C 
ATOM     23  N   UNL     1       4.979   4.152  -3.666  1.00  0.00    -0.198 NA
ENDBRANCH  21  22
ENDBRANCH  19  21
ENDBRANCH  18  19
BRANCH  18  24
ATOM     24  C   UNL     1       3.097   1.934  -0.293  1.00  0.00     0.051 A 
ATOM     25  C   UNL     1       2.995   1.902   1.123  1.00  0.00     0.027 A 
ATOM     26  C   UNL     1       4.326   1.615  -0.914  1.00  0.00     0.053 A 
ATOM     27  C   UNL     1       4.108   1.568   1.915  1.00  0.00     0.012 A 
ATOM     28  C   UNL     1       5.410   1.294  -0.098  1.00  0.00     0.047 A 
ATOM     29  C   UNL     1       5.303   1.270   1.266  1.00  0.00    -0.000 A 
ATOM     30  N   UNL     1       6.655   0.969  -0.486  1.00  0.00    -0.361 N 
ATOM     31  C   UNL     1       6.535   0.912   1.769  1.00  0.00     0.028 A 
ATOM     32  C   UNL     1       7.346   0.734   0.653  1.00  0.00     0.083 A 
ATOM     33  H   UNL     1       7.020   0.915  -1.463  1.00  0.00     0.166 HD
ENDBRANCH  18  24
ENDBRANCH   4  18
TORSDOF 8


