REMARK SMILES Cc1ccc(-c2ccc3[nH]ccc3c2)c(F)[nH+]1
REMARK SMILES IDX 6 1 7 2 8 3 9 4 10 5 11 6 12 7 13 8 14 9 5 11 2 12 3 13
REMARK SMILES IDX 17 14 4 15 15 16 1 17 16 19
REMARK H PARENT 10 10 17 18
ROOT
ATOM      1  C   UNL     1      -0.093  -0.874   0.264  1.00  0.00    -0.008 A 
ATOM      2  C   UNL     1      -1.452  -0.834  -0.149  1.00  0.00     0.011 A 
ATOM      3  C   UNL     1      -2.104  -1.998  -0.595  1.00  0.00     0.027 A 
ATOM      4  C   UNL     1      -1.376  -3.185  -0.615  1.00  0.00     0.045 A 
ATOM      5  N   UNL     1      -1.804  -4.399  -1.000  1.00  0.00    -0.361 N 
ATOM      6  C   UNL     1      -0.748  -5.229  -0.841  1.00  0.00     0.083 A 
ATOM      7  C   UNL     1       0.355  -4.538  -0.351  1.00  0.00     0.028 A 
ATOM      8  C   UNL     1      -0.069  -3.234  -0.214  1.00  0.00    -0.000 A 
ATOM      9  C   UNL     1       0.608  -2.103   0.234  1.00  0.00     0.019 A 
ATOM     10  H   UNL     1      -2.754  -4.653  -1.351  1.00  0.00     0.166 HD
ENDROOT
BRANCH   1  11
ATOM     11  C   UNL     1       0.585   0.356   0.740  1.00  0.00     0.086 A 
ATOM     12  C   UNL     1       1.863   2.672   1.632  1.00  0.00     0.179 A 
ATOM     13  C   UNL     1       1.984   1.487   2.367  1.00  0.00     0.075 A 
ATOM     14  N   UNL     1       1.107   2.688   0.496  1.00  0.00    -0.183 N 
ATOM     15  C   UNL     1       1.351   0.330   1.915  1.00  0.00     0.025 A 
ATOM     16  C   UNL     1       0.480   1.570   0.036  1.00  0.00     0.366 A 
ATOM     17  C   UNL     1       2.508   3.932   2.127  1.00  0.00     0.123 C 
ATOM     18  H   UNL     1       1.006   3.575  -0.046  1.00  0.00     0.456 HD
ATOM     19  F   UNL     1      -0.219   1.636  -1.126  1.00  0.00    -0.136 F 
ENDBRANCH   1  11
TORSDOF 1


