MODEL 1
REMARK VINA RESULT:      -6.5      0.000      0.000
REMARK SMILES Cc1ccc(NC(=O)[N-]c2c(F)cc(F)cc2F)c(-c2ccc3c(c2)[N-]C(=O)C3)c1
REMARK SMILES IDX 6 1 7 2 8 3 5 5 2 6 3 7 30 8 4 9 19 10 1 11 20 12 21 13
REMARK SMILES IDX 25 14 22 15 24 16 23 17 26 18 29 19 27 20 28 21 9 22 10 23
REMARK SMILES IDX 11 24 17 25 13 26 16 27 14 28 12 29 18 30 15 31
REMARK H PARENT 6 4
ROOT
ATOM      1  N   UNL     1      42.326 128.606  23.498  1.00  0.00    -0.423 N 
ATOM      2  C   UNL     1      41.902 129.960  23.696  1.00  0.00     0.160 C 
ATOM      3  O   UNL     1      40.775 130.204  24.207  1.00  0.00    -0.298 OA
ATOM      4  H   UNL     1      43.347 128.428  23.356  1.00  0.00     0.029 HD
ENDROOT
BRANCH   1   5
ATOM      5  C   UNL     1      41.457 127.481  23.697  1.00  0.00    -0.033 A 
ATOM      6  C   UNL     1      39.657 125.343  24.043  1.00  0.00    -0.051 A 
ATOM      7  C   UNL     1      39.269 126.653  24.350  1.00  0.00     0.004 A 
ATOM      8  C   UNL     1      40.951 125.103  23.560  1.00  0.00     0.012 A 
ATOM      9  C   UNL     1      40.165 127.710  24.189  1.00  0.00     0.004 A 
ATOM     10  C   UNL     1      41.869 126.157  23.404  1.00  0.00    -0.015 A 
ATOM     11  C   UNL     1      38.679 124.214  24.176  1.00  0.00     0.044 C 
BRANCH  10  12
ATOM     12  C   UNL     1      43.258 125.843  22.989  1.00  0.00    -0.019 A 
ATOM     13  C   UNL     1      44.231 126.869  22.909  1.00  0.00     0.009 A 
ATOM     14  C   UNL     1      43.623 124.514  22.686  1.00  0.00    -0.007 A 
ATOM     15  C   UNL     1      45.546 126.578  22.512  1.00  0.00     0.003 A 
ATOM     16  C   UNL     1      44.934 124.252  22.296  1.00  0.00    -0.130 A 
ATOM     17  C   UNL     1      45.872 125.258  22.209  1.00  0.00    -0.057 A 
ATOM     18  N   UNL     1      45.453 122.984  21.933  1.00  0.00    -0.626 NA
ATOM     19  C   UNL     1      47.180 124.715  21.750  1.00  0.00     0.089 C 
ATOM     20  C   UNL     1      46.811 123.270  21.604  1.00  0.00     0.059 C 
ATOM     21  O   UNL     1      47.616 122.380  21.225  1.00  0.00    -0.320 OA
ENDBRANCH  10  12
ENDBRANCH   1   5
BRANCH   2  22
ATOM     22  N   UNL     1      42.799 131.029  23.375  1.00  0.00    -0.396 NA
BRANCH  22  23
ATOM     23  C   UNL     1      43.439 131.240  22.108  1.00  0.00     0.034 A 
ATOM     24  C   UNL     1      42.891 132.093  21.126  1.00  0.00     0.132 A 
ATOM     25  C   UNL     1      44.609 130.523  21.817  1.00  0.00     0.132 A 
ATOM     26  C   UNL     1      43.539 132.251  19.897  1.00  0.00     0.079 A 
ATOM     27  C   UNL     1      45.251 130.688  20.586  1.00  0.00     0.079 A 
ATOM     28  C   UNL     1      44.720 131.556  19.628  1.00  0.00     0.129 A 
ATOM     29  F   UNL     1      41.709 132.724  21.326  1.00  0.00    -0.207 F 
ATOM     30  F   UNL     1      45.134 129.674  22.736  1.00  0.00    -0.207 F 
ATOM     31  F   UNL     1      45.342 131.711  18.434  1.00  0.00    -0.207 F 
ENDBRANCH  22  23
ENDBRANCH   2  22
TORSDOF 4
ENDMDL
MODEL 2
REMARK VINA RESULT:      -6.5      5.485      7.749
REMARK SMILES Cc1ccc(NC(=O)[N-]c2c(F)cc(F)cc2F)c(-c2ccc3c(c2)[N-]C(=O)C3)c1
REMARK SMILES IDX 6 1 7 2 8 3 5 5 2 6 3 7 30 8 4 9 19 10 1 11 20 12 21 13
REMARK SMILES IDX 25 14 22 15 24 16 23 17 26 18 29 19 27 20 28 21 9 22 10 23
REMARK SMILES IDX 11 24 17 25 13 26 16 27 14 28 12 29 18 30 15 31
REMARK H PARENT 6 4
ROOT
ATOM      1  N   UNL     1      46.448 132.728  21.376  1.00  0.00    -0.423 N 
ATOM      2  C   UNL     1      47.149 133.812  21.998  1.00  0.00     0.160 C 
ATOM      3  O   UNL     1      46.889 134.136  23.189  1.00  0.00    -0.298 OA
ATOM      4  H   UNL     1      46.871 132.296  20.522  1.00  0.00     0.029 HD
ENDROOT
BRANCH   1   5
ATOM      5  C   UNL     1      45.322 132.078  21.984  1.00  0.00    -0.033 A 
ATOM      6  C   UNL     1      43.109 130.895  23.262  1.00  0.00    -0.051 A 
ATOM      7  C   UNL     1      44.133 131.481  24.017  1.00  0.00     0.004 A 
ATOM      8  C   UNL     1      43.192 130.903  21.863  1.00  0.00     0.012 A 
ATOM      9  C   UNL     1      45.235 132.056  23.383  1.00  0.00     0.004 A 
ATOM     10  C   UNL     1      44.303 131.469  21.211  1.00  0.00    -0.015 A 
ATOM     11  C   UNL     1      41.905 130.315  23.945  1.00  0.00     0.044 C 
BRANCH  10  12
ATOM     12  C   UNL     1      44.398 131.362  19.735  1.00  0.00    -0.019 A 
ATOM     13  C   UNL     1      43.409 131.949  18.909  1.00  0.00     0.009 A 
ATOM     14  C   UNL     1      45.487 130.686  19.143  1.00  0.00    -0.007 A 
ATOM     15  C   UNL     1      43.493 131.846  17.511  1.00  0.00     0.003 A 
ATOM     16  C   UNL     1      45.546 130.599  17.754  1.00  0.00    -0.130 A 
ATOM     17  C   UNL     1      44.574 131.163  16.957  1.00  0.00    -0.057 A 
ATOM     18  N   UNL     1      46.552 129.936  17.007  1.00  0.00    -0.626 NA
ATOM     19  C   UNL     1      44.862 130.908  15.520  1.00  0.00     0.089 C 
ATOM     20  C   UNL     1      46.133 130.125  15.658  1.00  0.00     0.059 C 
ATOM     21  O   UNL     1      46.781 129.671  14.679  1.00  0.00    -0.320 OA
ENDBRANCH  10  12
ENDBRANCH   1   5
BRANCH   2  22
ATOM     22  N   UNL     1      48.195 134.474  21.279  1.00  0.00    -0.396 NA
BRANCH  22  23
ATOM     23  C   UNL     1      49.243 135.266  21.856  1.00  0.00     0.034 A 
ATOM     24  C   UNL     1      49.969 134.837  22.987  1.00  0.00     0.132 A 
ATOM     25  C   UNL     1      49.504 136.535  21.317  1.00  0.00     0.132 A 
ATOM     26  C   UNL     1      50.968 135.652  23.530  1.00  0.00     0.079 A 
ATOM     27  C   UNL     1      50.504 137.344  21.864  1.00  0.00     0.079 A 
ATOM     28  C   UNL     1      51.240 136.901  22.966  1.00  0.00     0.129 A 
ATOM     29  F   UNL     1      49.680 133.665  23.603  1.00  0.00    -0.207 F 
ATOM     30  F   UNL     1      48.795 136.980  20.249  1.00  0.00    -0.207 F 
ATOM     31  F   UNL     1      52.207 137.689  23.497  1.00  0.00    -0.207 F 
ENDBRANCH  22  23
ENDBRANCH   2  22
TORSDOF 4
ENDMDL
MODEL 3
REMARK VINA RESULT:      -6.5      5.523      7.645
REMARK SMILES Cc1ccc(NC(=O)[N-]c2c(F)cc(F)cc2F)c(-c2ccc3c(c2)[N-]C(=O)C3)c1
REMARK SMILES IDX 6 1 7 2 8 3 5 5 2 6 3 7 30 8 4 9 19 10 1 11 20 12 21 13
REMARK SMILES IDX 25 14 22 15 24 16 23 17 26 18 29 19 27 20 28 21 9 22 10 23
REMARK SMILES IDX 11 24 17 25 13 26 16 27 14 28 12 29 18 30 15 31
REMARK H PARENT 6 4
ROOT
ATOM      1  N   UNL     1      46.516 132.695  21.476  1.00  0.00    -0.423 N 
ATOM      2  C   UNL     1      47.227 133.792  22.062  1.00  0.00     0.160 C 
ATOM      3  O   UNL     1      46.954 134.171  23.234  1.00  0.00    -0.298 OA
ATOM      4  H   UNL     1      46.944 132.218  20.649  1.00  0.00     0.029 HD
ENDROOT
BRANCH   1   5
ATOM      5  C   UNL     1      45.368 132.092  22.091  1.00  0.00    -0.033 A 
ATOM      6  C   UNL     1      43.115 131.004  23.385  1.00  0.00    -0.051 A 
ATOM      7  C   UNL     1      44.164 131.554  24.132  1.00  0.00     0.004 A 
ATOM      8  C   UNL     1      43.194 131.000  21.985  1.00  0.00     0.012 A 
ATOM      9  C   UNL     1      45.285 132.082  23.491  1.00  0.00     0.004 A 
ATOM     10  C   UNL     1      44.323 131.519  21.325  1.00  0.00    -0.015 A 
ATOM     11  C   UNL     1      41.892 130.475  24.075  1.00  0.00     0.044 C 
BRANCH  10  12
ATOM     12  C   UNL     1      44.409 131.400  19.850  1.00  0.00    -0.019 A 
ATOM     13  C   UNL     1      43.421 131.991  19.025  1.00  0.00     0.009 A 
ATOM     14  C   UNL     1      45.486 130.707  19.257  1.00  0.00    -0.007 A 
ATOM     15  C   UNL     1      43.495 131.877  17.627  1.00  0.00     0.003 A 
ATOM     16  C   UNL     1      45.536 130.609  17.868  1.00  0.00    -0.130 A 
ATOM     17  C   UNL     1      44.565 131.178  17.073  1.00  0.00    -0.057 A 
ATOM     18  N   UNL     1      46.530 129.929  17.121  1.00  0.00    -0.626 NA
ATOM     19  C   UNL     1      44.842 130.908  15.636  1.00  0.00     0.089 C 
ATOM     20  C   UNL     1      46.106 130.113  15.772  1.00  0.00     0.059 C 
ATOM     21  O   UNL     1      46.743 129.644  14.794  1.00  0.00    -0.320 OA
ENDBRANCH  10  12
ENDBRANCH   1   5
BRANCH   2  22
ATOM     22  N   UNL     1      48.298 134.401  21.334  1.00  0.00    -0.396 NA
BRANCH  22  23
ATOM     23  C   UNL     1      49.258 135.328  21.864  1.00  0.00     0.034 A 
ATOM     24  C   UNL     1      49.514 136.572  21.252  1.00  0.00     0.132 A 
ATOM     25  C   UNL     1      50.008 134.950  22.988  1.00  0.00     0.132 A 
ATOM     26  C   UNL     1      50.473 137.435  21.792  1.00  0.00     0.079 A 
ATOM     27  C   UNL     1      50.965 135.818  23.523  1.00  0.00     0.079 A 
ATOM     28  C   UNL     1      51.194 137.062  22.930  1.00  0.00     0.129 A 
ATOM     29  F   UNL     1      48.887 136.933  20.106  1.00  0.00    -0.207 F 
ATOM     30  F   UNL     1      49.799 133.744  23.573  1.00  0.00    -0.207 F 
ATOM     31  F   UNL     1      52.125 137.900  23.448  1.00  0.00    -0.207 F 
ENDBRANCH  22  23
ENDBRANCH   2  22
TORSDOF 4
ENDMDL
MODEL 4
REMARK VINA RESULT:      -6.2      5.853      8.047
REMARK SMILES Cc1ccc(NC(=O)[N-]c2c(F)cc(F)cc2F)c(-c2ccc3c(c2)[N-]C(=O)C3)c1
REMARK SMILES IDX 6 1 7 2 8 3 5 5 2 6 3 7 30 8 4 9 19 10 1 11 20 12 21 13
REMARK SMILES IDX 25 14 22 15 24 16 23 17 26 18 29 19 27 20 28 21 9 22 10 23
REMARK SMILES IDX 11 24 17 25 13 26 16 27 14 28 12 29 18 30 15 31
REMARK H PARENT 6 4
ROOT
ATOM      1  N   UNL     1      46.729 133.027  21.544  1.00  0.00    -0.423 N 
ATOM      2  C   UNL     1      47.552 133.991  22.212  1.00  0.00     0.160 C 
ATOM      3  O   UNL     1      47.396 134.214  23.444  1.00  0.00    -0.298 OA
ATOM      4  H   UNL     1      47.060 132.652  20.626  1.00  0.00     0.029 HD
ENDROOT
BRANCH   1   5
ATOM      5  C   UNL     1      45.597 132.403  22.169  1.00  0.00    -0.033 A 
ATOM      6  C   UNL     1      43.360 131.283  23.462  1.00  0.00    -0.051 A 
ATOM      7  C   UNL     1      44.278 132.060  24.180  1.00  0.00     0.004 A 
ATOM      8  C   UNL     1      43.562 131.067  22.092  1.00  0.00     0.012 A 
ATOM      9  C   UNL     1      45.392 132.605  23.541  1.00  0.00     0.004 A 
ATOM     10  C   UNL     1      44.688 131.600  21.437  1.00  0.00    -0.015 A 
ATOM     11  C   UNL     1      42.141 130.734  24.142  1.00  0.00     0.044 C 
BRANCH  10  12
ATOM     12  C   UNL     1      44.915 131.259  20.012  1.00  0.00    -0.019 A 
ATOM     13  C   UNL     1      45.972 130.391  19.643  1.00  0.00     0.009 A 
ATOM     14  C   UNL     1      44.068 131.787  19.014  1.00  0.00    -0.007 A 
ATOM     15  C   UNL     1      46.195 130.070  18.294  1.00  0.00     0.003 A 
ATOM     16  C   UNL     1      44.311 131.451  17.684  1.00  0.00    -0.130 A 
ATOM     17  C   UNL     1      45.348 130.616  17.332  1.00  0.00    -0.057 A 
ATOM     18  N   UNL     1      43.575 131.916  16.564  1.00  0.00    -0.626 NA
ATOM     19  C   UNL     1      45.400 130.439  15.855  1.00  0.00     0.089 C 
ATOM     20  C   UNL     1      44.238 131.301  15.462  1.00  0.00     0.059 C 
ATOM     21  O   UNL     1      43.871 131.475  14.271  1.00  0.00    -0.320 OA
ENDBRANCH  10  12
ENDBRANCH   1   5
BRANCH   2  22
ATOM     22  N   UNL     1      48.598 134.643  21.484  1.00  0.00    -0.396 NA
BRANCH  22  23
ATOM     23  C   UNL     1      49.598 135.510  22.040  1.00  0.00     0.034 A 
ATOM     24  C   UNL     1      49.845 136.798  21.520  1.00  0.00     0.132 A 
ATOM     25  C   UNL     1      50.396 135.030  23.090  1.00  0.00     0.132 A 
ATOM     26  C   UNL     1      50.845 137.599  22.081  1.00  0.00     0.079 A 
ATOM     27  C   UNL     1      51.393 135.837  23.646  1.00  0.00     0.079 A 
ATOM     28  C   UNL     1      51.614 137.123  23.146  1.00  0.00     0.129 A 
ATOM     29  F   UNL     1      49.169 137.260  20.441  1.00  0.00    -0.207 F 
ATOM     30  F   UNL     1      50.196 133.782  23.582  1.00  0.00    -0.207 F 
ATOM     31  F   UNL     1      52.583 137.904  23.685  1.00  0.00    -0.207 F 
ENDBRANCH  22  23
ENDBRANCH   2  22
TORSDOF 4
ENDMDL
MODEL 5
REMARK VINA RESULT:      -5.4      3.711      5.622
REMARK SMILES Cc1ccc(NC(=O)[N-]c2c(F)cc(F)cc2F)c(-c2ccc3c(c2)[N-]C(=O)C3)c1
REMARK SMILES IDX 6 1 7 2 8 3 5 5 2 6 3 7 30 8 4 9 19 10 1 11 20 12 21 13
REMARK SMILES IDX 25 14 22 15 24 16 23 17 26 18 29 19 27 20 28 21 9 22 10 23
REMARK SMILES IDX 11 24 17 25 13 26 16 27 14 28 12 29 18 30 15 31
REMARK H PARENT 6 4
ROOT
ATOM      1  N   UNL     1      45.550 129.695  19.880  1.00  0.00    -0.423 N 
ATOM      2  C   UNL     1      45.271 130.235  18.583  1.00  0.00     0.160 C 
ATOM      3  O   UNL     1      44.720 131.364  18.471  1.00  0.00    -0.298 OA
ATOM      4  H   UNL     1      46.252 128.922  19.950  1.00  0.00     0.029 HD
ENDROOT
BRANCH   1   5
ATOM      5  C   UNL     1      45.079 130.300  21.094  1.00  0.00    -0.033 A 
ATOM      6  C   UNL     1      44.083 131.564  23.405  1.00  0.00    -0.051 A 
ATOM      7  C   UNL     1      44.405 132.317  22.269  1.00  0.00     0.004 A 
ATOM      8  C   UNL     1      44.259 130.174  23.384  1.00  0.00     0.012 A 
ATOM      9  C   UNL     1      44.909 131.691  21.128  1.00  0.00     0.004 A 
ATOM     10  C   UNL     1      44.778 129.530  22.245  1.00  0.00    -0.015 A 
ATOM     11  C   UNL     1      43.502 132.234  24.615  1.00  0.00     0.044 C 
BRANCH  10  12
ATOM     12  C   UNL     1      45.044 128.073  22.305  1.00  0.00    -0.019 A 
ATOM     13  C   UNL     1      46.276 127.551  21.839  1.00  0.00     0.009 A 
ATOM     14  C   UNL     1      44.076 127.197  22.841  1.00  0.00    -0.007 A 
ATOM     15  C   UNL     1      46.531 126.171  21.889  1.00  0.00     0.003 A 
ATOM     16  C   UNL     1      44.355 125.833  22.878  1.00  0.00    -0.130 A 
ATOM     17  C   UNL     1      45.551 125.331  22.413  1.00  0.00    -0.057 A 
ATOM     18  N   UNL     1      43.484 124.822  23.358  1.00  0.00    -0.626 NA
ATOM     19  C   UNL     1      45.584 123.849  22.547  1.00  0.00     0.089 C 
ATOM     20  C   UNL     1      44.232 123.626  23.155  1.00  0.00     0.059 C 
ATOM     21  O   UNL     1      43.785 122.490  23.462  1.00  0.00    -0.320 OA
ENDBRANCH  10  12
ENDBRANCH   1   5
BRANCH   2  22
ATOM     22  N   UNL     1      45.689 129.514  17.420  1.00  0.00    -0.396 NA
BRANCH  22  23
ATOM     23  C   UNL     1      45.914 130.074  16.117  1.00  0.00     0.034 A 
ATOM     24  C   UNL     1      44.920 130.810  15.438  1.00  0.00     0.132 A 
ATOM     25  C   UNL     1      47.137 129.822  15.477  1.00  0.00     0.132 A 
ATOM     26  C   UNL     1      45.176 131.319  14.161  1.00  0.00     0.079 A 
ATOM     27  C   UNL     1      47.386 130.335  14.201  1.00  0.00     0.079 A 
ATOM     28  C   UNL     1      46.409 131.088  13.545  1.00  0.00     0.129 A 
ATOM     29  F   UNL     1      43.689 130.989  15.975  1.00  0.00    -0.207 F 
ATOM     30  F   UNL     1      48.093 129.088  16.100  1.00  0.00    -0.207 F 
ATOM     31  F   UNL     1      46.651 131.582  12.305  1.00  0.00    -0.207 F 
ENDBRANCH  22  23
ENDBRANCH   2  22
TORSDOF 4
ENDMDL
MODEL 6
REMARK VINA RESULT:      -5.2      5.897      8.103
REMARK SMILES Cc1ccc(NC(=O)[N-]c2c(F)cc(F)cc2F)c(-c2ccc3c(c2)[N-]C(=O)C3)c1
REMARK SMILES IDX 6 1 7 2 8 3 5 5 2 6 3 7 30 8 4 9 19 10 1 11 20 12 21 13
REMARK SMILES IDX 25 14 22 15 24 16 23 17 26 18 29 19 27 20 28 21 9 22 10 23
REMARK SMILES IDX 11 24 17 25 13 26 16 27 14 28 12 29 18 30 15 31
REMARK H PARENT 6 4
ROOT
ATOM      1  N   UNL     1      46.644 133.173  21.894  1.00  0.00    -0.423 N 
ATOM      2  C   UNL     1      47.534 134.052  22.593  1.00  0.00     0.160 C 
ATOM      3  O   UNL     1      47.413 134.219  23.838  1.00  0.00    -0.298 OA
ATOM      4  H   UNL     1      46.936 132.827  20.951  1.00  0.00     0.029 HD
ENDROOT
BRANCH   1   5
ATOM      5  C   UNL     1      45.487 132.586  22.508  1.00  0.00    -0.033 A 
ATOM      6  C   UNL     1      43.201 131.540  23.778  1.00  0.00    -0.051 A 
ATOM      7  C   UNL     1      44.111 132.328  24.494  1.00  0.00     0.004 A 
ATOM      8  C   UNL     1      43.436 131.277  22.421  1.00  0.00     0.012 A 
ATOM      9  C   UNL     1      45.250 132.835  23.867  1.00  0.00     0.004 A 
ATOM     10  C   UNL     1      44.585 131.772  21.779  1.00  0.00    -0.015 A 
ATOM     11  C   UNL     1      41.957 131.031  24.443  1.00  0.00     0.044 C 
BRANCH  10  12
ATOM     12  C   UNL     1      44.845 131.382  20.372  1.00  0.00    -0.019 A 
ATOM     13  C   UNL     1      45.950 130.556  20.050  1.00  0.00     0.009 A 
ATOM     14  C   UNL     1      43.981 131.819  19.345  1.00  0.00    -0.007 A 
ATOM     15  C   UNL     1      46.203 130.188  18.719  1.00  0.00     0.003 A 
ATOM     16  C   UNL     1      44.254 131.439  18.034  1.00  0.00    -0.130 A 
ATOM     17  C   UNL     1      45.338 130.645  17.727  1.00  0.00    -0.057 A 
ATOM     18  N   UNL     1      43.505 131.813  16.889  1.00  0.00    -0.626 NA
ATOM     19  C   UNL     1      45.414 130.407  16.259  1.00  0.00     0.089 C 
ATOM     20  C   UNL     1      44.211 131.187  15.820  1.00  0.00     0.059 C 
ATOM     21  O   UNL     1      43.847 131.288  14.620  1.00  0.00    -0.320 OA
ENDBRANCH  10  12
ENDBRANCH   1   5
BRANCH   2  22
ATOM     22  N   UNL     1      48.605 134.677  21.878  1.00  0.00    -0.396 NA
BRANCH  22  23
ATOM     23  C   UNL     1      49.817 135.189  22.455  1.00  0.00     0.034 A 
ATOM     24  C   UNL     1      50.362 134.657  23.642  1.00  0.00     0.132 A 
ATOM     25  C   UNL     1      50.435 136.293  21.851  1.00  0.00     0.132 A 
ATOM     26  C   UNL     1      51.533 135.202  24.180  1.00  0.00     0.079 A 
ATOM     27  C   UNL     1      51.606 136.832  22.393  1.00  0.00     0.079 A 
ATOM     28  C   UNL     1      52.159 136.283  23.553  1.00  0.00     0.129 A 
ATOM     29  F   UNL     1      49.741 133.659  24.315  1.00  0.00    -0.207 F 
ATOM     30  F   UNL     1      49.908 136.839  20.726  1.00  0.00    -0.207 F 
ATOM     31  F   UNL     1      53.292 136.808  24.080  1.00  0.00    -0.207 F 
ENDBRANCH  22  23
ENDBRANCH   2  22
TORSDOF 4
ENDMDL
MODEL 7
REMARK VINA RESULT:      -4.7      3.964      5.940
REMARK SMILES Cc1ccc(NC(=O)[N-]c2c(F)cc(F)cc2F)c(-c2ccc3c(c2)[N-]C(=O)C3)c1
REMARK SMILES IDX 6 1 7 2 8 3 5 5 2 6 3 7 30 8 4 9 19 10 1 11 20 12 21 13
REMARK SMILES IDX 25 14 22 15 24 16 23 17 26 18 29 19 27 20 28 21 9 22 10 23
REMARK SMILES IDX 11 24 17 25 13 26 16 27 14 28 12 29 18 30 15 31
REMARK H PARENT 6 4
ROOT
ATOM      1  N   UNL     1      44.404 131.136  19.763  1.00  0.00    -0.423 N 
ATOM      2  C   UNL     1      44.383 131.018  18.335  1.00  0.00     0.160 C 
ATOM      3  O   UNL     1      43.490 131.604  17.663  1.00  0.00    -0.298 OA
ATOM      4  H   UNL     1      45.292 130.900  20.262  1.00  0.00     0.029 HD
ENDROOT
BRANCH   1   5
ATOM      5  C   UNL     1      43.347 131.759  20.509  1.00  0.00    -0.033 A 
ATOM      6  C   UNL     1      41.209 132.992  21.864  1.00  0.00    -0.051 A 
ATOM      7  C   UNL     1      41.607 133.453  20.603  1.00  0.00     0.004 A 
ATOM      8  C   UNL     1      41.882 131.910  22.448  1.00  0.00     0.012 A 
ATOM      9  C   UNL     1      42.675 132.848  19.937  1.00  0.00     0.004 A 
ATOM     10  C   UNL     1      42.967 131.299  21.794  1.00  0.00    -0.015 A 
ATOM     11  C   UNL     1      40.034 133.616  22.559  1.00  0.00     0.044 C 
BRANCH  10  12
ATOM     12  C   UNL     1      43.714 130.226  22.494  1.00  0.00    -0.019 A 
ATOM     13  C   UNL     1      43.874 130.266  23.900  1.00  0.00     0.009 A 
ATOM     14  C   UNL     1      44.259 129.149  21.762  1.00  0.00    -0.007 A 
ATOM     15  C   UNL     1      44.585 129.255  24.568  1.00  0.00     0.003 A 
ATOM     16  C   UNL     1      44.959 128.160  22.449  1.00  0.00    -0.130 A 
ATOM     17  C   UNL     1      45.120 128.211  23.816  1.00  0.00    -0.057 A 
ATOM     18  N   UNL     1      45.587 127.032  21.863  1.00  0.00    -0.626 NA
ATOM     19  C   UNL     1      45.922 127.051  24.292  1.00  0.00     0.089 C 
ATOM     20  C   UNL     1      46.167 126.366  22.982  1.00  0.00     0.059 C 
ATOM     21  O   UNL     1      46.825 125.299  22.866  1.00  0.00    -0.320 OA
ENDBRANCH  10  12
ENDBRANCH   1   5
BRANCH   2  22
ATOM     22  N   UNL     1      45.426 130.291  17.677  1.00  0.00    -0.396 NA
BRANCH  22  23
ATOM     23  C   UNL     1      45.909 130.530  16.347  1.00  0.00     0.034 A 
ATOM     24  C   UNL     1      46.149 131.833  15.861  1.00  0.00     0.132 A 
ATOM     25  C   UNL     1      46.082 129.436  15.486  1.00  0.00     0.132 A 
ATOM     26  C   UNL     1      46.600 132.020  14.550  1.00  0.00     0.079 A 
ATOM     27  C   UNL     1      46.533 129.630  14.177  1.00  0.00     0.079 A 
ATOM     28  C   UNL     1      46.798 130.920  13.711  1.00  0.00     0.129 A 
ATOM     29  F   UNL     1      45.896 132.924  16.624  1.00  0.00    -0.207 F 
ATOM     30  F   UNL     1      45.826 128.178  15.925  1.00  0.00    -0.207 F 
ATOM     31  F   UNL     1      47.232 131.106  12.440  1.00  0.00    -0.207 F 
ENDBRANCH  22  23
ENDBRANCH   2  22
TORSDOF 4
ENDMDL


