REMARK SMILES Cc1cc([NH2+]N)c([O-])c(O)c1F
REMARK SMILES IDX 1 1 2 2 3 3 4 4 7 5 8 6 9 7 11 8 12 9 5 10 6 13 10 16
REMARK H PARENT 5 11 5 12 6 14 6 15 10 17
ROOT
ATOM      1  C   UNL     1      -1.556  -0.239  -2.599  1.00  0.00     0.048 C 
ATOM      2  C   UNL     1      -1.005   0.010  -1.224  1.00  0.00    -0.006 A 
ATOM      3  C   UNL     1      -1.182  -0.940  -0.207  1.00  0.00     0.075 A 
ATOM      4  C   UNL     1      -0.695  -0.702   1.090  1.00  0.00     0.144 A 
ATOM      5  C   UNL     1      -0.006   0.498   1.357  1.00  0.00     0.003 A 
ATOM      6  O   UNL     1       0.510   0.734   2.627  1.00  0.00    -0.866 OA
ATOM      7  C   UNL     1       0.162   1.457   0.344  1.00  0.00     0.149 A 
ATOM      8  C   UNL     1      -0.343   1.214  -0.938  1.00  0.00     0.167 A 
ATOM      9  F   UNL     1      -0.182   2.152  -1.907  1.00  0.00    -0.203 F 
ENDROOT
BRANCH   4  10
ATOM     10  N   UNL     1      -0.855  -1.702   2.115  1.00  0.00    -0.240 N 
ATOM     11  H   UNL     1      -1.651  -2.348   1.896  1.00  0.00     0.376 HD
ATOM     12  H   UNL     1      -1.046  -1.242   3.037  1.00  0.00     0.376 HD
BRANCH  10  13
ATOM     13  N   UNL     1       0.340  -2.443   2.211  1.00  0.00    -0.178 NA
ATOM     14  H   UNL     1       0.261  -3.074   3.043  1.00  0.00     0.183 HD
ATOM     15  H   UNL     1       0.410  -3.068   1.373  1.00  0.00     0.183 HD
ENDBRANCH  10  13
ENDBRANCH   4  10
BRANCH   7  16
ATOM     16  O   UNL     1       0.828   2.657   0.595  1.00  0.00    -0.505 OA
ATOM     17  H   UNL     1       1.211   2.881   1.505  1.00  0.00     0.293 HD
ENDBRANCH   7  16
TORSDOF 3


