REMARK SMILES Cc1ccc([C@@H]2CC[C@@H](N)[C@@]3(C=O)C=CN[C@@H]23)cc1F
REMARK SMILES IDX 6 1 7 2 8 3 9 4 11 5 14 6 15 7 16 8 17 9 5 11 2 12 3 13
REMARK SMILES IDX 19 14 4 15 18 16 1 17 20 18 12 19 13 20 10 21
REMARK H PARENT 16 10 10 22 10 23
ROOT
ATOM      1  C   UNL     1       0.822  -0.501  -0.383  1.00  0.00     0.043 C 
ATOM      2  C   UNL     1       0.544  -0.496   1.123  1.00  0.00     0.012 C 
ATOM      3  C   UNL     1       1.747   0.078   1.862  1.00  0.00     0.021 C 
ATOM      4  C   UNL     1       1.915   1.560   1.512  1.00  0.00     0.070 C 
ATOM      5  C   UNL     1       2.053   1.808  -0.027  1.00  0.00     0.081 C 
ATOM      6  C   UNL     1       3.426   1.500  -0.568  1.00  0.00     0.008 C 
ATOM      7  C   UNL     1       3.333   0.969  -1.772  1.00  0.00     0.075 C 
ATOM      8  N   UNL     1       1.985   0.724  -2.131  1.00  0.00    -0.386 N 
ATOM      9  C   UNL     1       1.152   0.912  -0.950  1.00  0.00     0.104 C 
ATOM     10  H   UNL     1       1.689   0.228  -3.001  1.00  0.00     0.160 HD
ENDROOT
BRANCH   1  11
ATOM     11  C   UNL     1      -0.324  -1.143  -1.147  1.00  0.00    -0.040 A 
ATOM     12  C   UNL     1      -2.433  -2.344  -2.586  1.00  0.00    -0.015 A 
ATOM     13  C   UNL     1      -1.135  -2.870  -2.659  1.00  0.00     0.007 A 
ATOM     14  C   UNL     1      -2.669  -1.200  -1.808  1.00  0.00     0.126 A 
ATOM     15  C   UNL     1      -0.090  -2.278  -1.943  1.00  0.00     0.004 A 
ATOM     16  C   UNL     1      -1.624  -0.607  -1.092  1.00  0.00     0.043 A 
ATOM     17  C   UNL     1      -3.548  -2.964  -3.377  1.00  0.00     0.047 C 
ATOM     18  F   UNL     1      -3.910  -0.654  -1.744  1.00  0.00    -0.207 F 
ENDBRANCH   1  11
BRANCH   5  19
ATOM     19  C   UNL     1       1.766   3.273  -0.314  1.00  0.00     0.239 C 
ATOM     20  O   UNL     1       0.656   3.741  -0.111  1.00  0.00    -0.302 OA
ENDBRANCH   5  19
BRANCH   4  21
ATOM     21  N   UNL     1       3.062   2.112   2.240  1.00  0.00    -0.326 NA
ATOM     22  H   UNL     1       2.893   1.997   3.267  1.00  0.00     0.119 HD
ATOM     23  H   UNL     1       3.099   3.144   2.074  1.00  0.00     0.119 HD
ENDBRANCH   4  21
TORSDOF 3


