REMARK SMILES C=C1CC[C@@H](Nc2cccc(N=C=O)c2[O-])C[C@H]1F
REMARK SMILES IDX 7 1 8 2 9 3 10 4 11 5 15 6 16 7 6 8 5 10 2 11 3 12 18 13
REMARK SMILES IDX 4 14 17 15 1 16 19 17 12 18 13 19 14 20
REMARK H PARENT 6 9
ROOT
ATOM      1  C   UNL     1      -0.976   2.035   0.198  1.00  0.00     0.028 A 
ATOM      2  C   UNL     1      -1.786   2.474   1.265  1.00  0.00     0.025 A 
ATOM      3  C   UNL     1      -2.108   3.824   1.402  1.00  0.00     0.004 A 
ATOM      4  C   UNL     1      -1.635   4.758   0.481  1.00  0.00     0.029 A 
ATOM      5  C   UNL     1      -0.828   4.346  -0.596  1.00  0.00     0.070 A 
ATOM      6  C   UNL     1      -0.503   2.986  -0.731  1.00  0.00    -0.057 A 
ATOM      7  O   UNL     1       0.298   2.583  -1.796  1.00  0.00    -0.870 OA
ENDROOT
BRANCH   1   8
ATOM      8  N   UNL     1      -0.635   0.640   0.030  1.00  0.00    -0.383 N 
ATOM      9  H   UNL     1      -0.171   0.355  -0.863  1.00  0.00     0.160 HD
BRANCH   8  10
ATOM     10  C   UNL     1      -0.886  -0.406   1.031  1.00  0.00     0.082 C 
ATOM     11  C   UNL     1      -0.174  -2.690   2.696  1.00  0.00    -0.043 C 
ATOM     12  C   UNL     1      -0.179  -1.303   3.297  1.00  0.00     0.035 C 
ATOM     13  C   UNL     1      -0.959  -2.920   1.419  1.00  0.00     0.194 C 
ATOM     14  C   UNL     1       0.072  -0.237   2.225  1.00  0.00     0.029 C 
ATOM     15  C   UNL     1      -0.688  -1.801   0.405  1.00  0.00     0.067 C 
ATOM     16  C   UNL     1       0.338  -3.719   3.391  1.00  0.00     0.011 C 
ATOM     17  F   UNL     1      -0.632  -4.135   0.835  1.00  0.00    -0.243 F 
ENDBRANCH   8  10
ENDBRANCH   1   8
BRANCH   5  18
ATOM     18  N   UNL     1      -0.321   5.278  -1.565  1.00  0.00    -0.169 NA
BRANCH  18  19
ATOM     19  C   UNL     1      -0.552   6.530  -1.538  1.00  0.00     0.240 C 
ATOM     20  O   UNL     1      -0.777   7.747  -1.512  1.00  0.00    -0.211 OA
ENDBRANCH  18  19
ENDBRANCH   5  18
TORSDOF 4


