REMARK SMILES C=C[C@H]1C[C@](Nc2ccc3cc[nH]c3c2)(c2ccc(C(C)=O)cc2)[C@H](F)C[C@H]1O
REMARK SMILES IDX 3 1 4 2 5 3 25 4 26 5 27 6 28 7 2 8 1 9 29 10 6 12 7 14 8 15
REMARK SMILES IDX 15 16 9 17 14 18 10 19 13 20 11 21 12 22 16 24 17 25 24 26
REMARK SMILES IDX 18 27 23 28 19 29 20 30 21 31 22 32
REMARK H PARENT 29 11 6 13 13 23
ROOT
ATOM      1  C   UNL     1      -0.006   2.849   2.063  1.00  0.00     0.043 C 
ATOM      2  C   UNL     1       0.857   1.945   1.151  1.00  0.00     0.046 C 
ATOM      3  C   UNL     1       0.136   1.490  -0.164  1.00  0.00     0.095 C 
ATOM      4  C   UNL     1      -0.355   2.774  -0.903  1.00  0.00     0.199 C 
ATOM      5  F   UNL     1       0.730   3.505  -1.366  1.00  0.00    -0.244 F 
ATOM      6  C   UNL     1      -1.228   3.682  -0.017  1.00  0.00     0.073 C 
ATOM      7  C   UNL     1      -0.503   4.083   1.279  1.00  0.00     0.124 C 
ENDROOT
BRANCH   1   8
ATOM      8  C   UNL     1      -1.132   2.088   2.735  1.00  0.00    -0.029 C 
ATOM      9  C   UNL     1      -0.892   1.183   3.689  1.00  0.00     0.004 C 
ENDBRANCH   1   8
BRANCH   7  10
ATOM     10  O   UNL     1      -1.352   4.855   2.089  1.00  0.00    -0.392 OA
ATOM     11  H   UNL     1      -1.422   5.749   1.663  1.00  0.00     0.210 HD
ENDBRANCH   7  10
BRANCH   3  12
ATOM     12  N   UNL     1      -1.028   0.634   0.166  1.00  0.00    -0.373 N 
ATOM     13  H   UNL     1      -1.969   0.945  -0.168  1.00  0.00     0.161 HD
BRANCH  12  14
ATOM     14  C   UNL     1      -1.007  -0.620   0.885  1.00  0.00     0.037 A 
ATOM     15  C   UNL     1      -2.239  -1.149   1.357  1.00  0.00     0.026 A 
ATOM     16  C   UNL     1       0.189  -1.342   1.130  1.00  0.00     0.052 A 
ATOM     17  C   UNL     1      -2.285  -2.358   2.072  1.00  0.00     0.012 A 
ATOM     18  C   UNL     1       0.106  -2.536   1.841  1.00  0.00     0.047 A 
ATOM     19  C   UNL     1      -1.087  -3.025   2.296  1.00  0.00    -0.001 A 
ATOM     20  N   UNL     1       1.116  -3.356   2.177  1.00  0.00    -0.361 N 
ATOM     21  C   UNL     1      -0.827  -4.208   2.952  1.00  0.00     0.028 A 
ATOM     22  C   UNL     1       0.550  -4.380   2.857  1.00  0.00     0.083 A 
ATOM     23  H   UNL     1       2.130  -3.233   1.960  1.00  0.00     0.166 HD
ENDBRANCH  12  14
ENDBRANCH   3  12
BRANCH   3  24
ATOM     24  C   UNL     1       1.045   0.721  -1.142  1.00  0.00    -0.020 A 
ATOM     25  C   UNL     1       0.457   0.068  -2.244  1.00  0.00     0.007 A 
ATOM     26  C   UNL     1       2.450   0.660  -1.012  1.00  0.00     0.007 A 
ATOM     27  C   UNL     1       1.234  -0.635  -3.168  1.00  0.00     0.012 A 
ATOM     28  C   UNL     1       3.225  -0.044  -1.937  1.00  0.00     0.012 A 
ATOM     29  C   UNL     1       2.630  -0.702  -3.026  1.00  0.00     0.017 A 
BRANCH  29  30
ATOM     30  C   UNL     1       3.473  -1.449  -3.998  1.00  0.00     0.159 C 
ATOM     31  C   UNL     1       2.880  -2.172  -5.171  1.00  0.00     0.093 C 
ATOM     32  O   UNL     1       4.724  -1.484  -3.845  1.00  0.00    -0.295 OA
ENDBRANCH  29  30
ENDBRANCH   3  24
TORSDOF 6


