REMARK SMILES N[NH2+]c1cccc2cc3ccccc3cc12
REMARK SMILES IDX 1 1 2 4 3 7 4 8 16 9 5 10 15 11 7 12 6 13 14 14 8 15 13 16
REMARK SMILES IDX 9 17 12 18 10 19 11 20
REMARK H PARENT 1 2 1 3 2 5 2 6
ROOT
ATOM      1  N   UNL     1      -2.710  -1.575  -0.057  1.00  0.00    -0.178 NA
ATOM      2  H   UNL     1      -2.408  -1.069  -0.922  1.00  0.00     0.183 HD
ATOM      3  H   UNL     1      -2.357  -2.559  -0.118  1.00  0.00     0.183 HD
ENDROOT
BRANCH   1   4
ATOM      4  N   UNL     1      -2.145  -0.951   1.077  1.00  0.00    -0.239 N 
ATOM      5  H   UNL     1      -2.459  -1.480   1.924  1.00  0.00     0.376 HD
ATOM      6  H   UNL     1      -2.533   0.013   1.174  1.00  0.00     0.376 HD
BRANCH   4   7
ATOM      7  C   UNL     1      -0.698  -0.948   0.986  1.00  0.00     0.156 A 
ATOM      8  C   UNL     1       0.016  -1.988   1.610  1.00  0.00     0.070 A 
ATOM      9  C   UNL     1       0.021   0.046   0.259  1.00  0.00     0.045 A 
ATOM     10  C   UNL     1       1.407  -2.039   1.554  1.00  0.00     0.007 A 
ATOM     11  C   UNL     1      -0.627   1.097  -0.427  1.00  0.00     0.023 A 
ATOM     12  C   UNL     1       1.442  -0.020   0.215  1.00  0.00    -0.012 A 
ATOM     13  C   UNL     1       2.118  -1.060   0.867  1.00  0.00     0.009 A 
ATOM     14  C   UNL     1       0.111   2.064  -1.126  1.00  0.00    -0.018 A 
ATOM     15  C   UNL     1       2.176   0.951  -0.483  1.00  0.00     0.017 A 
ATOM     16  C   UNL     1      -0.542   3.107  -1.804  1.00  0.00     0.009 A 
ATOM     17  C   UNL     1       1.522   1.991  -1.152  1.00  0.00    -0.018 A 
ATOM     18  C   UNL     1       0.200   4.067  -2.498  1.00  0.00     0.001 A 
ATOM     19  C   UNL     1       2.256   2.962  -1.852  1.00  0.00     0.009 A 
ATOM     20  C   UNL     1       1.595   3.995  -2.522  1.00  0.00     0.001 A 
ENDBRANCH   4   7
ENDBRANCH   1   4
TORSDOF 2


