REMARK SMILES CCn1ncnc1COc1ccc(Nc2ccc3cc[nH]c3c2)c(F)c1
REMARK SMILES IDX 9 1 8 2 7 3 3 4 4 5 5 6 6 7 2 8 1 9 10 10 11 11 26 12 12 13
REMARK SMILES IDX 24 14 13 15 25 16 14 17 15 19 16 20 23 21 17 22 22 23 18 24
REMARK SMILES IDX 21 25 19 26 20 27
REMARK H PARENT 14 18 21 28
ROOT
ATOM      1  O   UNL     1       3.027  -0.073  -0.669  1.00  0.00    -0.486 OA
ENDROOT
BRANCH   1   2
ATOM      2  C   UNL     1       3.848   0.500  -1.682  1.00  0.00     0.306 C 
BRANCH   2   3
ATOM      3  C   UNL     1       5.258   0.587  -1.187  1.00  0.00     0.164 A 
ATOM      4  N   UNL     1       5.678   1.356  -0.162  1.00  0.00    -0.247 N 
ATOM      5  N   UNL     1       6.973   1.149  -0.005  1.00  0.00    -0.159 NA
ATOM      6  C   UNL     1       7.322   0.259  -0.954  1.00  0.00     0.246 A 
ATOM      7  N   UNL     1       6.274  -0.123  -1.717  1.00  0.00    -0.216 NA
BRANCH   4   8
ATOM      8  C   UNL     1       4.882   2.219   0.709  1.00  0.00     0.143 C 
ATOM      9  C   UNL     1       4.522   1.486   1.996  1.00  0.00     0.029 C 
ENDBRANCH   4   8
ENDBRANCH   2   3
ENDBRANCH   1   2
BRANCH   1  10
ATOM     10  C   UNL     1       1.641  -0.252  -0.777  1.00  0.00     0.123 A 
ATOM     11  C   UNL     1       0.923   0.088  -1.939  1.00  0.00     0.049 A 
ATOM     12  C   UNL     1       0.955  -0.794   0.316  1.00  0.00     0.087 A 
ATOM     13  C   UNL     1      -0.460  -0.106  -1.993  1.00  0.00     0.033 A 
ATOM     14  C   UNL     1      -0.429  -0.987   0.264  1.00  0.00     0.150 A 
ATOM     15  C   UNL     1      -1.150  -0.622  -0.888  1.00  0.00     0.075 A 
ATOM     16  F   UNL     1      -1.054  -1.564   1.320  1.00  0.00    -0.205 F 
BRANCH  15  17
ATOM     17  N   UNL     1      -2.569  -0.826  -0.978  1.00  0.00    -0.353 N 
ATOM     18  H   UNL     1      -2.955  -1.168  -1.888  1.00  0.00     0.167 HD
BRANCH  17  19
ATOM     19  C   UNL     1      -3.498  -0.520   0.076  1.00  0.00     0.041 A 
ATOM     20  C   UNL     1      -3.208   0.478   1.047  1.00  0.00     0.027 A 
ATOM     21  C   UNL     1      -4.743  -1.185   0.111  1.00  0.00     0.052 A 
ATOM     22  C   UNL     1      -4.135   0.786   2.059  1.00  0.00     0.012 A 
ATOM     23  C   UNL     1      -5.638  -0.855   1.127  1.00  0.00     0.047 A 
ATOM     24  C   UNL     1      -5.342   0.094   2.068  1.00  0.00    -0.001 A 
ATOM     25  N   UNL     1      -6.858  -1.373   1.340  1.00  0.00    -0.361 N 
ATOM     26  C   UNL     1      -6.423   0.184   2.917  1.00  0.00     0.028 A 
ATOM     27  C   UNL     1      -7.343  -0.741   2.434  1.00  0.00     0.083 A 
ATOM     28  H   UNL     1      -7.339  -2.111   0.779  1.00  0.00     0.166 HD
ENDBRANCH  17  19
ENDBRANCH  15  17
ENDBRANCH   1  10
TORSDOF 6


