REMARK SMILES [H]/N=c1/c(Nc2ccc3c(c2)nnn3C)cccn1/C(S)=N\c1ccccc1
REMARK SMILES IDX 3 1 4 2 16 3 17 4 18 5 19 6 2 7 1 8 5 9 6 11 7 12 11 13 8 14
REMARK SMILES IDX 10 15 9 16 12 17 14 18 13 19 15 20 20 21 22 22 23 23 24 24
REMARK SMILES IDX 28 25 25 26 27 27 26 28 21 29
REMARK H PARENT 5 10 21 30
ROOT
ATOM      1  C   UNL     1       1.279  -1.579   1.717  1.00  0.00     0.155 A 
ATOM      2  C   UNL     1       1.896  -2.160   0.587  1.00  0.00     0.082 A 
ATOM      3  C   UNL     1       3.280  -2.048   0.437  1.00  0.00     0.031 A 
ATOM      4  C   UNL     1       4.027  -1.333   1.365  1.00  0.00     0.021 A 
ATOM      5  C   UNL     1       3.385  -0.725   2.441  1.00  0.00     0.095 A 
ATOM      6  N   UNL     1       2.031  -0.828   2.598  1.00  0.00    -0.279 N 
ENDROOT
BRANCH   1   7
ATOM      7  N   UNL     1       0.015  -1.806   1.928  1.00  0.00    -0.282 NA
ATOM      8  H   UNL     1      -0.522  -1.450   2.748  1.00  0.00     0.189 HD
ENDBRANCH   1   7
BRANCH   2   9
ATOM      9  N   UNL     1       1.146  -2.915  -0.381  1.00  0.00    -0.352 N 
ATOM     10  H   UNL     1       1.550  -3.820  -0.713  1.00  0.00     0.167 HD
BRANCH   9  11
ATOM     11  C   UNL     1      -0.070  -2.450  -0.993  1.00  0.00     0.041 A 
ATOM     12  C   UNL     1      -0.372  -1.059  -1.067  1.00  0.00     0.028 A 
ATOM     13  C   UNL     1      -0.960  -3.389  -1.562  1.00  0.00     0.058 A 
ATOM     14  C   UNL     1      -1.561  -0.610  -1.673  1.00  0.00     0.032 A 
ATOM     15  C   UNL     1      -2.123  -2.905  -2.150  1.00  0.00     0.115 A 
ATOM     16  C   UNL     1      -2.411  -1.578  -2.198  1.00  0.00     0.089 A 
ATOM     17  N   UNL     1      -3.117  -3.590  -2.747  1.00  0.00    -0.130 NA
ATOM     18  N   UNL     1      -3.588  -1.450  -2.826  1.00  0.00    -0.248 N 
ATOM     19  N   UNL     1      -3.995  -2.673  -3.151  1.00  0.00    -0.066 NA
ATOM     20  C   UNL     1      -4.306  -0.220  -3.138  1.00  0.00     0.176 C 
ENDBRANCH   9  11
ENDBRANCH   2   9
BRANCH   6  21
ATOM     21  C   UNL     1       1.436  -0.144   3.718  1.00  0.00     0.171 C 
BRANCH  21  22
ATOM     22  N   UNL     1       0.575   0.821   3.559  1.00  0.00    -0.225 NA
BRANCH  22  23
ATOM     23  C   UNL     1       0.200   1.422   2.310  1.00  0.00     0.066 A 
ATOM     24  C   UNL     1       1.164   1.809   1.361  1.00  0.00     0.028 A 
ATOM     25  C   UNL     1      -1.152   1.692   2.064  1.00  0.00     0.028 A 
ATOM     26  C   UNL     1       0.769   2.420   0.167  1.00  0.00     0.002 A 
ATOM     27  C   UNL     1      -1.545   2.297   0.866  1.00  0.00     0.002 A 
ATOM     28  C   UNL     1      -0.585   2.659  -0.083  1.00  0.00     0.000 A 
ENDBRANCH  22  23
ENDBRANCH  21  22
BRANCH  21  29
ATOM     29  S   UNL     1       1.818  -0.688   5.380  1.00  0.00    -0.105 SA
ATOM     30  H   UNL     1       2.884   0.224   5.493  1.00  0.00     0.111 HD
ENDBRANCH  21  29
ENDBRANCH   6  21
TORSDOF 7


