REMARK SMILES Cc1cc(N)c(O)c(-n2nc3ccccc3[nH+]2)c1F
REMARK SMILES IDX 1 1 2 2 3 3 4 4 6 5 8 6 18 7 19 8 5 9 9 12 10 13 17 14 11 15
REMARK SMILES IDX 16 16 12 17 15 18 13 19 14 20 7 22
REMARK H PARENT 5 10 5 11 17 21 7 23
ROOT
ATOM      1  C   UNL     1       1.820   2.841  -2.346  1.00  0.00     0.048 C 
ATOM      2  C   UNL     1       0.685   2.147  -1.648  1.00  0.00    -0.010 A 
ATOM      3  C   UNL     1      -0.628   2.598  -1.819  1.00  0.00     0.036 A 
ATOM      4  C   UNL     1      -1.702   1.943  -1.200  1.00  0.00     0.077 A 
ATOM      5  C   UNL     1      -1.450   0.816  -0.381  1.00  0.00     0.173 A 
ATOM      6  C   UNL     1      -0.134   0.327  -0.248  1.00  0.00     0.207 A 
ATOM      7  C   UNL     1       0.927   1.001  -0.878  1.00  0.00     0.161 A 
ATOM      8  F   UNL     1       2.195   0.525  -0.761  1.00  0.00    -0.204 F 
ENDROOT
BRANCH   4   9
ATOM      9  N   UNL     1      -3.030   2.432  -1.431  1.00  0.00    -0.396 N 
ATOM     10  H   UNL     1      -3.883   1.884  -1.190  1.00  0.00     0.156 HD
ATOM     11  H   UNL     1      -3.179   3.325  -1.954  1.00  0.00     0.156 HD
ENDBRANCH   4   9
BRANCH   6  12
ATOM     12  N   UNL     1       0.137  -0.840   0.547  1.00  0.00    -0.006 N 
ATOM     13  N   UNL     1       1.187  -0.947   1.362  1.00  0.00     0.054 NA
ATOM     14  N   UNL     1      -0.604  -1.947   0.535  1.00  0.00    -0.161 N 
ATOM     15  C   UNL     1       1.091  -2.179   1.892  1.00  0.00     0.249 A 
ATOM     16  C   UNL     1      -0.011  -2.796   1.383  1.00  0.00     0.198 A 
ATOM     17  C   UNL     1       1.936  -2.808   2.802  1.00  0.00     0.064 A 
ATOM     18  C   UNL     1      -0.367  -4.096   1.730  1.00  0.00     0.058 A 
ATOM     19  C   UNL     1       1.609  -4.125   3.185  1.00  0.00     0.005 A 
ATOM     20  C   UNL     1       0.463  -4.766   2.651  1.00  0.00     0.005 A 
ATOM     21  H   UNL     1      -1.451  -2.121  -0.051  1.00  0.00     0.340 HD
ENDBRANCH   6  12
BRANCH   5  22
ATOM     22  O   UNL     1      -2.471   0.188   0.339  1.00  0.00    -0.504 OA
ATOM     23  H   UNL     1      -3.418   0.533   0.395  1.00  0.00     0.293 HD
ENDBRANCH   5  22
TORSDOF 3


