REMARK SMILES CC(F)(F)C[N-]/C(O)=C\CSc1ccc([C@H]2O[C@@H]2C(=O)c2ccc(F)cc2)cc1F
REMARK SMILES IDX 10 1 9 2 7 3 8 4 6 6 5 7 2 8 3 9 4 10 1 11 11 12 12 13 13 14
REMARK SMILES IDX 29 15 14 16 28 17 15 18 30 19 16 20 17 21 18 22 19 23 20 24
REMARK SMILES IDX 21 25 22 26 27 27 23 28 26 29 24 30 25 31
REMARK H PARENT 8 5
ROOT
ATOM      1  C   UNL     1       4.084  -1.393  -3.042  1.00  0.00     0.104 C 
ENDROOT
BRANCH   1   2
ATOM      2  C   UNL     1       2.755  -1.630  -3.705  1.00  0.00     0.005 C 
BRANCH   2   3
ATOM      3  C   UNL     1       1.649  -1.982  -3.040  1.00  0.00     0.007 C 
BRANCH   3   4
ATOM      4  O   UNL     1       0.454  -2.102  -3.748  1.00  0.00    -0.531 OA
ATOM      5  H   UNL     1      -0.420  -2.346  -3.301  1.00  0.00     0.290 HD
ENDBRANCH   3   4
BRANCH   3   6
ATOM      6  N   UNL     1       1.695  -2.225  -1.628  1.00  0.00    -0.650 NA
BRANCH   6   7
ATOM      7  C   UNL     1       0.531  -2.518  -0.805  1.00  0.00    -0.040 C 
BRANCH   7   8
ATOM      8  C   UNL     1       0.974  -2.856   0.620  1.00  0.00     0.229 C 
ATOM      9  F   UNL     1       1.732  -4.014   0.601  1.00  0.00    -0.209 F 
ATOM     10  F   UNL     1       1.750  -1.825   1.125  1.00  0.00    -0.209 F 
ATOM     11  C   UNL     1      -0.235  -3.065   1.531  1.00  0.00     0.085 C 
ENDBRANCH   7   8
ENDBRANCH   6   7
ENDBRANCH   3   6
ENDBRANCH   2   3
ENDBRANCH   1   2
BRANCH   1  12
ATOM     12  S   UNL     1       4.503   0.383  -3.059  1.00  0.00    -0.119 SA
BRANCH  12  13
ATOM     13  C   UNL     1       3.230   0.870  -1.887  1.00  0.00     0.043 A 
ATOM     14  C   UNL     1       3.482   0.794  -0.512  1.00  0.00     0.018 A 
ATOM     15  C   UNL     1       1.993   1.351  -2.344  1.00  0.00     0.137 A 
ATOM     16  C   UNL     1       2.502   1.187   0.404  1.00  0.00     0.008 A 
ATOM     17  C   UNL     1       1.009   1.735  -1.428  1.00  0.00     0.047 A 
ATOM     18  C   UNL     1       1.255   1.647  -0.049  1.00  0.00    -0.013 A 
ATOM     19  F   UNL     1       1.744   1.455  -3.675  1.00  0.00    -0.206 F 
BRANCH  18  20
ATOM     20  C   UNL     1       0.225   2.120   0.933  1.00  0.00     0.186 C 
ATOM     21  O   UNL     1      -1.005   1.458   0.742  1.00  0.00    -0.356 OA
ATOM     22  C   UNL     1      -0.276   1.103   1.894  1.00  0.00     0.224 C 
BRANCH  22  23
ATOM     23  C   UNL     1      -0.924   1.628   3.142  1.00  0.00     0.194 C 
ATOM     24  O   UNL     1      -0.391   2.605   3.737  1.00  0.00    -0.291 OA
BRANCH  23  25
ATOM     25  C   UNL     1      -2.139   0.989   3.712  1.00  0.00     0.021 A 
ATOM     26  C   UNL     1      -2.856   0.009   2.997  1.00  0.00     0.015 A 
ATOM     27  C   UNL     1      -2.590   1.357   4.995  1.00  0.00     0.015 A 
ATOM     28  C   UNL     1      -3.993  -0.583   3.552  1.00  0.00     0.040 A 
ATOM     29  C   UNL     1      -3.727   0.759   5.545  1.00  0.00     0.040 A 
ATOM     30  C   UNL     1      -4.428  -0.210   4.825  1.00  0.00     0.123 A 
ATOM     31  F   UNL     1      -5.533  -0.787   5.362  1.00  0.00    -0.207 F 
ENDBRANCH  23  25
ENDBRANCH  22  23
ENDBRANCH  18  20
ENDBRANCH  12  13
ENDBRANCH   1  12
TORSDOF 11


