REMARK SMILES CC(=O)c1cc(N)c(Nc2ccc(C)nc2F)cc1F
REMARK SMILES IDX 4 1 5 2 6 3 8 4 18 5 19 6 20 7 2 8 1 9 3 10 7 11 9 14 10 16
REMARK SMILES IDX 11 17 16 18 12 19 15 20 13 21 17 22 14 23
REMARK H PARENT 7 12 7 13 9 15
ROOT
ATOM      1  C   UNL     1      -1.225   1.837   2.693  1.00  0.00     0.055 A 
ATOM      2  C   UNL     1      -2.120   1.602   1.633  1.00  0.00     0.042 A 
ATOM      3  C   UNL     1      -1.915   0.550   0.728  1.00  0.00     0.056 A 
ATOM      4  C   UNL     1      -0.777  -0.273   0.866  1.00  0.00     0.065 A 
ATOM      5  C   UNL     1       0.093  -0.068   1.942  1.00  0.00     0.068 A 
ATOM      6  C   UNL     1      -0.118   0.975   2.847  1.00  0.00     0.136 A 
ATOM      7  F   UNL     1       0.749   1.110   3.880  1.00  0.00    -0.206 F 
ENDROOT
BRANCH   1   8
ATOM      8  C   UNL     1      -1.485   2.970   3.624  1.00  0.00     0.162 C 
ATOM      9  C   UNL     1      -0.411   3.569   4.482  1.00  0.00     0.093 C 
ATOM     10  O   UNL     1      -2.648   3.449   3.708  1.00  0.00    -0.294 OA
ENDBRANCH   1   8
BRANCH   3  11
ATOM     11  N   UNL     1      -2.890   0.311  -0.296  1.00  0.00    -0.397 N 
ATOM     12  H   UNL     1      -3.693   0.965  -0.428  1.00  0.00     0.156 HD
ATOM     13  H   UNL     1      -2.871  -0.551  -0.883  1.00  0.00     0.156 HD
ENDBRANCH   3  11
BRANCH   4  14
ATOM     14  N   UNL     1      -0.498  -1.338  -0.054  1.00  0.00    -0.350 N 
ATOM     15  H   UNL     1      -0.314  -2.285   0.348  1.00  0.00     0.167 HD
BRANCH  14  16
ATOM     16  C   UNL     1      -0.351  -1.165  -1.476  1.00  0.00     0.095 A 
ATOM     17  C   UNL     1      -0.519  -2.270  -2.321  1.00  0.00     0.033 A 
ATOM     18  C   UNL     1      -0.014   0.076  -2.055  1.00  0.00     0.236 A 
ATOM     19  C   UNL     1      -0.384  -2.130  -3.702  1.00  0.00     0.026 A 
ATOM     20  N   UNL     1       0.114   0.184  -3.405  1.00  0.00    -0.223 NA
ATOM     21  C   UNL     1      -0.074  -0.875  -4.237  1.00  0.00     0.041 A 
ATOM     22  F   UNL     1       0.226   1.168  -1.289  1.00  0.00    -0.183 F 
ATOM     23  C   UNL     1       0.095  -0.702  -5.713  1.00  0.00     0.067 C 
ENDBRANCH  14  16
ENDBRANCH   4  14
TORSDOF 4


