MODEL 1
REMARK VINA RESULT:      -6.8      0.000      0.000
REMARK SMILES [H]/N=c1\[nH]cccc1Nc1ccc2c(n[nH+]n2C)c1C=C
REMARK SMILES IDX 9 1 8 3 3 4 4 5 7 6 5 7 6 8 2 10 1 11 10 12 11 13 19 14
REMARK SMILES IDX 12 15 14 16 13 17 15 18 17 19 16 20 18 21 20 23 21 24
REMARK H PARENT 9 2 4 9 16 22
ROOT
ATOM      1  N   UNL     1      44.653 131.485  21.223  1.00  0.00    -0.352 N 
ATOM      2  H   UNL     1      44.828 132.456  21.566  1.00  0.00     0.167 HD
ENDROOT
BRANCH   1   3
ATOM      3  C   UNL     1      44.069 130.529  22.132  1.00  0.00     0.081 A 
ATOM      4  C   UNL     1      42.862 130.820  22.801  1.00  0.00     0.146 A 
ATOM      5  N   UNL     1      42.314 129.899  23.649  1.00  0.00    -0.345 N 
ATOM      6  C   UNL     1      44.671 129.277  22.348  1.00  0.00     0.031 A 
ATOM      7  C   UNL     1      42.901 128.694  23.870  1.00  0.00     0.084 A 
ATOM      8  C   UNL     1      44.089 128.361  23.222  1.00  0.00     0.020 A 
ATOM      9  H   UNL     1      41.423 130.115  24.151  1.00  0.00     0.167 HD
BRANCH   4  10
ATOM     10  N   UNL     1      42.281 131.965  22.620  1.00  0.00    -0.283 NA
ATOM     11  H   UNL     1      42.812 132.865  22.615  1.00  0.00     0.189 HD
ENDBRANCH   4  10
ENDBRANCH   1   3
BRANCH   1  12
ATOM     12  C   UNL     1      44.853 131.235  19.822  1.00  0.00     0.048 A 
ATOM     13  C   UNL     1      45.953 130.426  19.432  1.00  0.00     0.029 A 
ATOM     14  C   UNL     1      43.969 131.765  18.837  1.00  0.00     0.032 A 
ATOM     15  C   UNL     1      46.210 130.158  18.078  1.00  0.00     0.037 A 
ATOM     16  C   UNL     1      44.267 131.469  17.498  1.00  0.00     0.171 A 
ATOM     17  C   UNL     1      45.343 130.709  17.142  1.00  0.00     0.133 A 
ATOM     18  N   UNL     1      43.566 131.768  16.384  1.00  0.00     0.026 NA
ATOM     19  N   UNL     1      45.317 130.566  15.808  1.00  0.00    -0.132 N 
ATOM     20  N   UNL     1      44.234 131.206  15.381  1.00  0.00    -0.016 N 
ATOM     21  C   UNL     1      46.205 129.764  14.974  1.00  0.00     0.226 C 
ATOM     22  H   UNL     1      43.927 131.249  14.383  1.00  0.00     0.526 HD
BRANCH  14  23
ATOM     23  C   UNL     1      42.743 132.504  19.225  1.00  0.00     0.005 C 
ATOM     24  C   UNL     1      41.519 131.994  19.105  1.00  0.00     0.009 C 
ENDBRANCH  14  23
ENDBRANCH   1  12
TORSDOF 4
ENDMDL
MODEL 2
REMARK VINA RESULT:      -6.7      0.966      1.031
REMARK SMILES [H]/N=c1\[nH]cccc1Nc1ccc2c(n[nH+]n2C)c1C=C
REMARK SMILES IDX 9 1 8 3 3 4 4 5 7 6 5 7 6 8 2 10 1 11 10 12 11 13 19 14
REMARK SMILES IDX 12 15 14 16 13 17 15 18 17 19 16 20 18 21 20 23 21 24
REMARK H PARENT 9 2 4 9 16 22
ROOT
ATOM      1  N   UNL     1      44.675 131.215  22.120  1.00  0.00    -0.352 N 
ATOM      2  H   UNL     1      45.029 132.075  22.596  1.00  0.00     0.167 HD
ENDROOT
BRANCH   1   3
ATOM      3  C   UNL     1      44.002 130.218  22.916  1.00  0.00     0.081 A 
ATOM      4  C   UNL     1      42.954 130.580  23.786  1.00  0.00     0.146 A 
ATOM      5  N   UNL     1      42.317 129.623  24.524  1.00  0.00    -0.345 N 
ATOM      6  C   UNL     1      44.353 128.860  22.820  1.00  0.00     0.031 A 
ATOM      7  C   UNL     1      42.663 128.311  24.443  1.00  0.00     0.084 A 
ATOM      8  C   UNL     1      43.687 127.907  23.588  1.00  0.00     0.020 A 
ATOM      9  H   UNL     1      41.543 129.891  25.174  1.00  0.00     0.167 HD
BRANCH   4  10
ATOM     10  N   UNL     1      42.604 131.825  23.895  1.00  0.00    -0.283 NA
ATOM     11  H   UNL     1      42.830 132.533  23.161  1.00  0.00     0.189 HD
ENDBRANCH   4  10
ENDBRANCH   1   3
BRANCH   1  12
ATOM     12  C   UNL     1      44.740 131.181  20.686  1.00  0.00     0.048 A 
ATOM     13  C   UNL     1      45.894 130.623  20.076  1.00  0.00     0.029 A 
ATOM     14  C   UNL     1      43.674 131.676  19.879  1.00  0.00     0.032 A 
ATOM     15  C   UNL     1      46.023 130.574  18.678  1.00  0.00     0.037 A 
ATOM     16  C   UNL     1      43.848 131.606  18.489  1.00  0.00     0.171 A 
ATOM     17  C   UNL     1      44.977 131.087  17.922  1.00  0.00     0.133 A 
ATOM     18  N   UNL     1      42.981 131.922  17.504  1.00  0.00     0.026 NA
ATOM     19  N   UNL     1      44.811 131.111  16.591  1.00  0.00    -0.132 N 
ATOM     20  N   UNL     1      43.601 131.611  16.369  1.00  0.00    -0.016 N 
ATOM     21  C   UNL     1      45.703 130.580  15.566  1.00  0.00     0.226 C 
ATOM     22  H   UNL     1      43.173 131.728  15.424  1.00  0.00     0.526 HD
BRANCH  14  23
ATOM     23  C   UNL     1      42.406 132.146  20.489  1.00  0.00     0.005 C 
ATOM     24  C   UNL     1      41.668 133.125  19.969  1.00  0.00     0.009 C 
ENDBRANCH  14  23
ENDBRANCH   1  12
TORSDOF 4
ENDMDL
MODEL 3
REMARK VINA RESULT:      -6.6      1.079      5.935
REMARK SMILES [H]/N=c1\[nH]cccc1Nc1ccc2c(n[nH+]n2C)c1C=C
REMARK SMILES IDX 9 1 8 3 3 4 4 5 7 6 5 7 6 8 2 10 1 11 10 12 11 13 19 14
REMARK SMILES IDX 12 15 14 16 13 17 15 18 17 19 16 20 18 21 20 23 21 24
REMARK H PARENT 9 2 4 9 16 22
ROOT
ATOM      1  N   UNL     1      45.059 131.867  18.554  1.00  0.00    -0.352 N 
ATOM      2  H   UNL     1      45.350 132.871  18.548  1.00  0.00     0.167 HD
ENDROOT
BRANCH   1   3
ATOM      3  C   UNL     1      45.181 131.108  17.333  1.00  0.00     0.081 A 
ATOM      4  C   UNL     1      44.270 131.301  16.275  1.00  0.00     0.146 A 
ATOM      5  N   UNL     1      44.405 130.584  15.119  1.00  0.00    -0.345 N 
ATOM      6  C   UNL     1      46.226 130.184  17.159  1.00  0.00     0.031 A 
ATOM      7  C   UNL     1      45.406 129.680  14.953  1.00  0.00     0.084 A 
ATOM      8  C   UNL     1      46.335 129.465  15.970  1.00  0.00     0.020 A 
ATOM      9  H   UNL     1      43.727 130.721  14.336  1.00  0.00     0.167 HD
BRANCH   4  10
ATOM     10  N   UNL     1      43.296 132.149  16.404  1.00  0.00    -0.283 NA
ATOM     11  H   UNL     1      43.131 132.916  15.714  1.00  0.00     0.189 HD
ENDBRANCH   4  10
ENDBRANCH   1   3
BRANCH   1  12
ATOM     12  C   UNL     1      44.722 131.286  19.824  1.00  0.00     0.048 A 
ATOM     13  C   UNL     1      45.618 130.344  20.394  1.00  0.00     0.029 A 
ATOM     14  C   UNL     1      43.529 131.649  20.516  1.00  0.00     0.032 A 
ATOM     15  C   UNL     1      45.336 129.731  21.626  1.00  0.00     0.037 A 
ATOM     16  C   UNL     1      43.292 131.011  21.743  1.00  0.00     0.171 A 
ATOM     17  C   UNL     1      44.154 130.089  22.263  1.00  0.00     0.133 A 
ATOM     18  N   UNL     1      42.299 131.219  22.633  1.00  0.00     0.026 NA
ATOM     19  N   UNL     1      43.675 129.713  23.458  1.00  0.00    -0.132 N 
ATOM     20  N   UNL     1      42.564 130.413  23.657  1.00  0.00    -0.016 N 
ATOM     21  C   UNL     1      44.292 128.818  24.431  1.00  0.00     0.226 C 
ATOM     22  H   UNL     1      41.977 130.359  24.520  1.00  0.00     0.526 HD
BRANCH  14  23
ATOM     23  C   UNL     1      42.643 132.723  20.005  1.00  0.00     0.005 C 
ATOM     24  C   UNL     1      41.576 132.485  19.245  1.00  0.00     0.009 C 
ENDBRANCH  14  23
ENDBRANCH   1  12
TORSDOF 4
ENDMDL
MODEL 4
REMARK VINA RESULT:      -6.6      1.339      6.078
REMARK SMILES [H]/N=c1\[nH]cccc1Nc1ccc2c(n[nH+]n2C)c1C=C
REMARK SMILES IDX 9 1 8 3 3 4 4 5 7 6 5 7 6 8 2 10 1 11 10 12 11 13 19 14
REMARK SMILES IDX 12 15 14 16 13 17 15 18 17 19 16 20 18 21 20 23 21 24
REMARK H PARENT 9 2 4 9 16 22
ROOT
ATOM      1  N   UNL     1      45.095 131.935  17.952  1.00  0.00    -0.352 N 
ATOM      2  H   UNL     1      45.186 132.973  17.868  1.00  0.00     0.167 HD
ENDROOT
BRANCH   1   3
ATOM      3  C   UNL     1      45.413 131.122  16.804  1.00  0.00     0.081 A 
ATOM      4  C   UNL     1      45.896 131.711  15.618  1.00  0.00     0.146 A 
ATOM      5  N   UNL     1      46.204 130.927  14.543  1.00  0.00    -0.345 N 
ATOM      6  C   UNL     1      45.278 129.723  16.851  1.00  0.00     0.031 A 
ATOM      7  C   UNL     1      46.063 129.576  14.580  1.00  0.00     0.084 A 
ATOM      8  C   UNL     1      45.598 128.950  15.736  1.00  0.00     0.020 A 
ATOM      9  H   UNL     1      46.557 131.363  13.661  1.00  0.00     0.167 HD
BRANCH   4  10
ATOM     10  N   UNL     1      46.034 132.999  15.545  1.00  0.00    -0.283 NA
ATOM     11  H   UNL     1      46.135 133.497  14.632  1.00  0.00     0.189 HD
ENDBRANCH   4  10
ENDBRANCH   1   3
BRANCH   1  12
ATOM     12  C   UNL     1      44.824 131.401  19.258  1.00  0.00     0.048 A 
ATOM     13  C   UNL     1      45.791 130.550  19.853  1.00  0.00     0.029 A 
ATOM     14  C   UNL     1      43.624 131.722  19.960  1.00  0.00     0.032 A 
ATOM     15  C   UNL     1      45.577 129.985  21.121  1.00  0.00     0.037 A 
ATOM     16  C   UNL     1      43.456 131.135  21.223  1.00  0.00     0.171 A 
ATOM     17  C   UNL     1      44.388 130.299  21.768  1.00  0.00     0.133 A 
ATOM     18  N   UNL     1      42.471 131.324  22.125  1.00  0.00     0.026 NA
ATOM     19  N   UNL     1      43.960 129.956  22.992  1.00  0.00    -0.132 N 
ATOM     20  N   UNL     1      42.810 130.592  23.182  1.00  0.00    -0.016 N 
ATOM     21  C   UNL     1      44.655 129.155  23.993  1.00  0.00     0.226 C 
ATOM     22  H   UNL     1      42.246 130.545  24.061  1.00  0.00     0.526 HD
BRANCH  14  23
ATOM     23  C   UNL     1      42.659 132.708  19.417  1.00  0.00     0.005 C 
ATOM     24  C   UNL     1      41.646 132.371  18.620  1.00  0.00     0.009 C 
ENDBRANCH  14  23
ENDBRANCH   1  12
TORSDOF 4
ENDMDL
MODEL 5
REMARK VINA RESULT:      -6.1      1.340      6.069
REMARK SMILES [H]/N=c1\[nH]cccc1Nc1ccc2c(n[nH+]n2C)c1C=C
REMARK SMILES IDX 9 1 8 3 3 4 4 5 7 6 5 7 6 8 2 10 1 11 10 12 11 13 19 14
REMARK SMILES IDX 12 15 14 16 13 17 15 18 17 19 16 20 18 21 20 23 21 24
REMARK H PARENT 9 2 4 9 16 22
ROOT
ATOM      1  N   UNL     1      45.469 131.810  18.380  1.00  0.00    -0.352 N 
ATOM      2  H   UNL     1      46.189 132.565  18.448  1.00  0.00     0.167 HD
ENDROOT
BRANCH   1   3
ATOM      3  C   UNL     1      45.097 131.329  17.072  1.00  0.00     0.081 A 
ATOM      4  C   UNL     1      45.851 130.321  16.437  1.00  0.00     0.146 A 
ATOM      5  N   UNL     1      45.479 129.867  15.203  1.00  0.00    -0.345 N 
ATOM      6  C   UNL     1      43.960 131.831  16.414  1.00  0.00     0.031 A 
ATOM      7  C   UNL     1      44.388 130.359  14.559  1.00  0.00     0.084 A 
ATOM      8  C   UNL     1      43.609 131.350  15.155  1.00  0.00     0.020 A 
ATOM      9  H   UNL     1      46.040 129.124  14.728  1.00  0.00     0.167 HD
BRANCH   4  10
ATOM     10  N   UNL     1      46.904 129.836  17.019  1.00  0.00    -0.283 NA
ATOM     11  H   UNL     1      47.228 130.172  17.954  1.00  0.00     0.189 HD
ENDBRANCH   4  10
ENDBRANCH   1   3
BRANCH   1  12
ATOM     12  C   UNL     1      45.037 131.201  19.607  1.00  0.00     0.048 A 
ATOM     13  C   UNL     1      45.859 130.202  20.190  1.00  0.00     0.029 A 
ATOM     14  C   UNL     1      43.822 131.590  20.244  1.00  0.00     0.032 A 
ATOM     15  C   UNL     1      45.483 129.559  21.381  1.00  0.00     0.037 A 
ATOM     16  C   UNL     1      43.489 130.920  21.431  1.00  0.00     0.171 A 
ATOM     17  C   UNL     1      44.282 129.945  21.964  1.00  0.00     0.133 A 
ATOM     18  N   UNL     1      42.457 131.139  22.272  1.00  0.00     0.026 NA
ATOM     19  N   UNL     1      43.720 129.548  23.116  1.00  0.00    -0.132 N 
ATOM     20  N   UNL     1      42.629 130.287  23.279  1.00  0.00    -0.016 N 
ATOM     21  C   UNL     1      44.243 128.594  24.087  1.00  0.00     0.226 C 
ATOM     22  H   UNL     1      41.992 130.229  24.105  1.00  0.00     0.526 HD
BRANCH  14  23
ATOM     23  C   UNL     1      43.011 132.718  19.725  1.00  0.00     0.005 C 
ATOM     24  C   UNL     1      41.845 132.550  19.105  1.00  0.00     0.009 C 
ENDBRANCH  14  23
ENDBRANCH   1  12
TORSDOF 4
ENDMDL
MODEL 6
REMARK VINA RESULT:      -5.9      1.308      1.796
REMARK SMILES [H]/N=c1\[nH]cccc1Nc1ccc2c(n[nH+]n2C)c1C=C
REMARK SMILES IDX 9 1 8 3 3 4 4 5 7 6 5 7 6 8 2 10 1 11 10 12 11 13 19 14
REMARK SMILES IDX 12 15 14 16 13 17 15 18 17 19 16 20 18 21 20 23 21 24
REMARK H PARENT 9 2 4 9 16 22
ROOT
ATOM      1  N   UNL     1      44.703 131.235  22.245  1.00  0.00    -0.352 N 
ATOM      2  H   UNL     1      45.220 132.006  22.725  1.00  0.00     0.167 HD
ENDROOT
BRANCH   1   3
ATOM      3  C   UNL     1      43.813 130.413  23.029  1.00  0.00     0.081 A 
ATOM      4  C   UNL     1      44.054 129.032  23.175  1.00  0.00     0.146 A 
ATOM      5  N   UNL     1      43.210 128.267  23.930  1.00  0.00    -0.345 N 
ATOM      6  C   UNL     1      42.704 130.973  23.688  1.00  0.00     0.031 A 
ATOM      7  C   UNL     1      42.130 128.804  24.558  1.00  0.00     0.084 A 
ATOM      8  C   UNL     1      41.860 130.167  24.448  1.00  0.00     0.020 A 
ATOM      9  H   UNL     1      43.384 127.242  24.035  1.00  0.00     0.167 HD
BRANCH   4  10
ATOM     10  N   UNL     1      45.070 128.485  22.582  1.00  0.00    -0.283 NA
ATOM     11  H   UNL     1      45.223 127.451  22.579  1.00  0.00     0.189 HD
ENDBRANCH   4  10
ENDBRANCH   1   3
BRANCH   1  12
ATOM     12  C   UNL     1      44.796 131.170  20.813  1.00  0.00     0.048 A 
ATOM     13  C   UNL     1      45.936 130.550  20.239  1.00  0.00     0.029 A 
ATOM     14  C   UNL     1      43.768 131.695  19.975  1.00  0.00     0.032 A 
ATOM     15  C   UNL     1      46.092 130.469  18.845  1.00  0.00     0.037 A 
ATOM     16  C   UNL     1      43.968 131.590  18.591  1.00  0.00     0.171 A 
ATOM     17  C   UNL     1      45.084 131.012  18.057  1.00  0.00     0.133 A 
ATOM     18  N   UNL     1      43.136 131.924  17.582  1.00  0.00     0.026 NA
ATOM     19  N   UNL     1      44.947 131.017  16.723  1.00  0.00    -0.132 N 
ATOM     20  N   UNL     1      43.764 131.564  16.467  1.00  0.00    -0.016 N 
ATOM     21  C   UNL     1      45.836 130.429  15.727  1.00  0.00     0.226 C 
ATOM     22  H   UNL     1      43.361 131.681  15.510  1.00  0.00     0.526 HD
BRANCH  14  23
ATOM     23  C   UNL     1      42.510 132.231  20.549  1.00  0.00     0.005 C 
ATOM     24  C   UNL     1      41.663 132.993  19.860  1.00  0.00     0.009 C 
ENDBRANCH  14  23
ENDBRANCH   1  12
TORSDOF 4
ENDMDL
MODEL 7
REMARK VINA RESULT:      -5.7      1.238      2.362
REMARK SMILES [H]/N=c1\[nH]cccc1Nc1ccc2c(n[nH+]n2C)c1C=C
REMARK SMILES IDX 9 1 8 3 3 4 4 5 7 6 5 7 6 8 2 10 1 11 10 12 11 13 19 14
REMARK SMILES IDX 12 15 14 16 13 17 15 18 17 19 16 20 18 21 20 23 21 24
REMARK H PARENT 9 2 4 9 16 22
ROOT
ATOM      1  N   UNL     1      43.527 131.846  21.638  1.00  0.00    -0.352 N 
ATOM      2  H   UNL     1      43.346 132.802  22.018  1.00  0.00     0.167 HD
ENDROOT
BRANCH   1   3
ATOM      3  C   UNL     1      43.425 130.719  22.533  1.00  0.00     0.081 A 
ATOM      4  C   UNL     1      42.447 130.696  23.548  1.00  0.00     0.146 A 
ATOM      5  N   UNL     1      42.354 129.617  24.382  1.00  0.00    -0.345 N 
ATOM      6  C   UNL     1      44.276 129.608  22.396  1.00  0.00     0.031 A 
ATOM      7  C   UNL     1      43.183 128.547  24.260  1.00  0.00     0.084 A 
ATOM      8  C   UNL     1      44.158 128.524  23.263  1.00  0.00     0.020 A 
ATOM      9  H   UNL     1      41.634 129.600  25.139  1.00  0.00     0.167 HD
BRANCH   4  10
ATOM     10  N   UNL     1      41.646 131.705  23.699  1.00  0.00    -0.283 NA
ATOM     11  H   UNL     1      40.826 131.673  24.347  1.00  0.00     0.189 HD
ENDBRANCH   4  10
ENDBRANCH   1   3
BRANCH   1  12
ATOM     12  C   UNL     1      43.697 131.722  20.217  1.00  0.00     0.048 A 
ATOM     13  C   UNL     1      42.578 131.969  19.380  1.00  0.00     0.029 A 
ATOM     14  C   UNL     1      44.957 131.377  19.645  1.00  0.00     0.032 A 
ATOM     15  C   UNL     1      42.678 131.850  17.984  1.00  0.00     0.037 A 
ATOM     16  C   UNL     1      45.007 131.271  18.247  1.00  0.00     0.171 A 
ATOM     17  C   UNL     1      43.913 131.489  17.460  1.00  0.00     0.133 A 
ATOM     18  N   UNL     1      46.070 131.042  17.447  1.00  0.00     0.026 NA
ATOM     19  N   UNL     1      44.300 131.367  16.181  1.00  0.00    -0.132 N 
ATOM     20  N   UNL     1      45.602 131.105  16.204  1.00  0.00    -0.016 N 
ATOM     21  C   UNL     1      43.509 131.598  14.978  1.00  0.00     0.226 C 
ATOM     22  H   UNL     1      46.197 130.984  15.353  1.00  0.00     0.526 HD
BRANCH  14  23
ATOM     23  C   UNL     1      46.170 131.240  20.487  1.00  0.00     0.005 C 
ATOM     24  C   UNL     1      46.749 132.270  21.100  1.00  0.00     0.009 C 
ENDBRANCH  14  23
ENDBRANCH   1  12
TORSDOF 4
ENDMDL
MODEL 8
REMARK VINA RESULT:      -5.7      1.861      6.601
REMARK SMILES [H]/N=c1\[nH]cccc1Nc1ccc2c(n[nH+]n2C)c1C=C
REMARK SMILES IDX 9 1 8 3 3 4 4 5 7 6 5 7 6 8 2 10 1 11 10 12 11 13 19 14
REMARK SMILES IDX 12 15 14 16 13 17 15 18 17 19 16 20 18 21 20 23 21 24
REMARK H PARENT 9 2 4 9 16 22
ROOT
ATOM      1  N   UNL     1      45.829 130.240  17.747  1.00  0.00    -0.352 N 
ATOM      2  H   UNL     1      46.350 129.428  18.148  1.00  0.00     0.167 HD
ENDROOT
BRANCH   1   3
ATOM      3  C   UNL     1      46.010 130.552  16.350  1.00  0.00     0.081 A 
ATOM      4  C   UNL     1      45.817 129.563  15.364  1.00  0.00     0.146 A 
ATOM      5  N   UNL     1      45.980 129.876  14.043  1.00  0.00    -0.345 N 
ATOM      6  C   UNL     1      46.353 131.852  15.939  1.00  0.00     0.031 A 
ATOM      7  C   UNL     1      46.324 131.128  13.644  1.00  0.00     0.084 A 
ATOM      8  C   UNL     1      46.516 132.138  14.585  1.00  0.00     0.020 A 
ATOM      9  H   UNL     1      45.843 129.143  13.311  1.00  0.00     0.167 HD
BRANCH   4  10
ATOM     10  N   UNL     1      45.497 128.355  15.711  1.00  0.00    -0.283 NA
ATOM     11  H   UNL     1      45.507 128.041  16.708  1.00  0.00     0.189 HD
ENDBRANCH   4  10
ENDBRANCH   1   3
BRANCH   1  12
ATOM     12  C   UNL     1      44.848 130.872  18.584  1.00  0.00     0.048 A 
ATOM     13  C   UNL     1      43.789 131.584  17.963  1.00  0.00     0.029 A 
ATOM     14  C   UNL     1      44.913 130.782  20.006  1.00  0.00     0.032 A 
ATOM     15  C   UNL     1      42.807 132.236  18.729  1.00  0.00     0.037 A 
ATOM     16  C   UNL     1      43.910 131.449  20.727  1.00  0.00     0.171 A 
ATOM     17  C   UNL     1      42.913 132.149  20.111  1.00  0.00     0.133 A 
ATOM     18  N   UNL     1      43.685 131.463  22.058  1.00  0.00     0.026 NA
ATOM     19  N   UNL     1      42.093 132.614  21.066  1.00  0.00    -0.132 N 
ATOM     20  N   UNL     1      42.578 132.181  22.224  1.00  0.00    -0.016 N 
ATOM     21  C   UNL     1      40.840 133.340  20.896  1.00  0.00     0.226 C 
ATOM     22  H   UNL     1      42.136 132.359  23.154  1.00  0.00     0.526 HD
BRANCH  14  23
ATOM     23  C   UNL     1      45.933 129.940  20.675  1.00  0.00     0.005 C 
ATOM     24  C   UNL     1      45.639 128.804  21.305  1.00  0.00     0.009 C 
ENDBRANCH  14  23
ENDBRANCH   1  12
TORSDOF 4
ENDMDL
MODEL 9
REMARK VINA RESULT:      -5.6      2.198      3.679
REMARK SMILES [H]/N=c1\[nH]cccc1Nc1ccc2c(n[nH+]n2C)c1C=C
REMARK SMILES IDX 9 1 8 3 3 4 4 5 7 6 5 7 6 8 2 10 1 11 10 12 11 13 19 14
REMARK SMILES IDX 12 15 14 16 13 17 15 18 17 19 16 20 18 21 20 23 21 24
REMARK H PARENT 9 2 4 9 16 22
ROOT
ATOM      1  N   UNL     1      43.708 131.454  17.390  1.00  0.00    -0.352 N 
ATOM      2  H   UNL     1      42.754 131.539  16.972  1.00  0.00     0.167 HD
ENDROOT
BRANCH   1   3
ATOM      3  C   UNL     1      43.842 131.545  18.823  1.00  0.00     0.081 A 
ATOM      4  C   UNL     1      42.825 132.131  19.603  1.00  0.00     0.146 A 
ATOM      5  N   UNL     1      42.960 132.200  20.961  1.00  0.00    -0.345 N 
ATOM      6  C   UNL     1      44.973 131.025  19.477  1.00  0.00     0.031 A 
ATOM      7  C   UNL     1      44.058 131.710  21.595  1.00  0.00     0.084 A 
ATOM      8  C   UNL     1      45.083 131.113  20.863  1.00  0.00     0.020 A 
ATOM      9  H   UNL     1      42.210 132.640  21.541  1.00  0.00     0.167 HD
BRANCH   4  10
ATOM     10  N   UNL     1      41.768 132.618  19.029  1.00  0.00    -0.283 NA
ATOM     11  H   UNL     1      40.844 132.130  19.060  1.00  0.00     0.189 HD
ENDBRANCH   4  10
ENDBRANCH   1   3
BRANCH   1  12
ATOM     12  C   UNL     1      44.782 131.083  16.510  1.00  0.00     0.048 A 
ATOM     13  C   UNL     1      45.855 130.320  17.040  1.00  0.00     0.029 A 
ATOM     14  C   UNL     1      44.776 131.450  15.132  1.00  0.00     0.032 A 
ATOM     15  C   UNL     1      46.941 129.940  16.233  1.00  0.00     0.037 A 
ATOM     16  C   UNL     1      45.881 131.047  14.367  1.00  0.00     0.171 A 
ATOM     17  C   UNL     1      46.916 130.334  14.901  1.00  0.00     0.133 A 
ATOM     18  N   UNL     1      46.096 131.186  13.042  1.00  0.00     0.026 NA
ATOM     19  N   UNL     1      47.776 130.060  13.909  1.00  0.00    -0.132 N 
ATOM     20  N   UNL     1      47.254 130.578  12.802  1.00  0.00    -0.016 N 
ATOM     21  C   UNL     1      48.985 129.246  13.968  1.00  0.00     0.226 C 
ATOM     22  H   UNL     1      47.684 130.501  11.853  1.00  0.00     0.526 HD
BRANCH  14  23
ATOM     23  C   UNL     1      43.609 132.135  14.526  1.00  0.00     0.005 C 
ATOM     24  C   UNL     1      42.830 131.568  13.606  1.00  0.00     0.009 C 
ENDBRANCH  14  23
ENDBRANCH   1  12
TORSDOF 4
ENDMDL


