REMARK SMILES C=C[C@@H]1C[C@@]([NH2+]c2ccc3cc[nH]c3c2)(c2ccc(C(C)=O)cc2)[C@H](F)C[C@@H]1O
REMARK SMILES IDX 3 1 4 2 5 3 25 4 26 5 27 6 28 7 2 8 1 9 29 10 6 12 7 15 8 16
REMARK SMILES IDX 15 17 9 18 14 19 10 20 13 21 11 22 12 23 16 25 17 26 24 27
REMARK SMILES IDX 18 28 23 29 19 30 20 31 21 32 22 33
REMARK H PARENT 29 11 6 13 6 14 13 24
ROOT
ATOM      1  C   UNL     1      -0.924   0.828  -3.266  1.00  0.00     0.047 C 
ATOM      2  C   UNL     1      -1.731   0.724  -1.953  1.00  0.00     0.087 C 
ATOM      3  C   UNL     1      -0.860   1.049  -0.691  1.00  0.00     0.158 C 
ATOM      4  C   UNL     1      -0.319   2.511  -0.912  1.00  0.00     0.235 C 
ATOM      5  F   UNL     1      -1.372   3.414  -0.920  1.00  0.00    -0.240 F 
ATOM      6  C   UNL     1       0.468   2.667  -2.232  1.00  0.00     0.077 C 
ATOM      7  C   UNL     1      -0.362   2.252  -3.461  1.00  0.00     0.124 C 
ENDROOT
BRANCH   1   8
ATOM      8  C   UNL     1      -1.720   0.356  -4.466  1.00  0.00    -0.028 C 
ATOM      9  C   UNL     1      -2.919   0.850  -4.802  1.00  0.00     0.004 C 
ENDBRANCH   1   8
BRANCH   7  10
ATOM     10  O   UNL     1      -1.402   3.174  -3.673  1.00  0.00    -0.392 OA
ATOM     11  H   UNL     1      -0.991   3.985  -4.072  1.00  0.00     0.210 HD
ENDBRANCH   7  10
BRANCH   3  12
ATOM     12  N   UNL     1      -1.752   1.004   0.505  1.00  0.00    -0.303 N 
ATOM     13  H   UNL     1      -2.545   1.679   0.392  1.00  0.00     0.353 HD
ATOM     14  H   UNL     1      -2.198   0.059   0.574  1.00  0.00     0.353 HD
BRANCH  12  15
ATOM     15  C   UNL     1      -1.076   1.283   1.756  1.00  0.00     0.132 A 
ATOM     16  C   UNL     1      -1.026   2.609   2.268  1.00  0.00     0.068 A 
ATOM     17  C   UNL     1      -0.472   0.234   2.492  1.00  0.00     0.094 A 
ATOM     18  C   UNL     1      -0.355   2.893   3.471  1.00  0.00     0.016 A 
ATOM     19  C   UNL     1       0.189   0.553   3.676  1.00  0.00     0.051 A 
ATOM     20  C   UNL     1       0.246   1.836   4.146  1.00  0.00    -0.000 A 
ATOM     21  N   UNL     1       0.837  -0.287   4.500  1.00  0.00    -0.361 N 
ATOM     22  C   UNL     1       0.963   1.813   5.322  1.00  0.00     0.028 A 
ATOM     23  C   UNL     1       1.313   0.479   5.508  1.00  0.00     0.083 A 
ATOM     24  H   UNL     1       0.953  -1.319   4.387  1.00  0.00     0.166 HD
ENDBRANCH  12  15
ENDBRANCH   3  12
BRANCH   3  25
ATOM     25  C   UNL     1       0.268  -0.012  -0.526  1.00  0.00     0.016 A 
ATOM     26  C   UNL     1      -0.037  -1.389  -0.615  1.00  0.00     0.011 A 
ATOM     27  C   UNL     1       1.585   0.332  -0.139  1.00  0.00     0.011 A 
ATOM     28  C   UNL     1       0.938  -2.366  -0.406  1.00  0.00     0.012 A 
ATOM     29  C   UNL     1       2.559  -0.647   0.071  1.00  0.00     0.012 A 
ATOM     30  C   UNL     1       2.252  -2.009  -0.068  1.00  0.00     0.017 A 
BRANCH  30  31
ATOM     31  C   UNL     1       3.278  -3.063   0.158  1.00  0.00     0.159 C 
ATOM     32  C   UNL     1       4.687  -2.728   0.544  1.00  0.00     0.093 C 
ATOM     33  O   UNL     1       2.967  -4.278   0.024  1.00  0.00    -0.295 OA
ENDBRANCH  30  31
ENDBRANCH   3  25
TORSDOF 6


