REMARK SMILES NNc1ccc2cc[nH]c2c1
REMARK SMILES IDX 2 1 1 3 3 6 4 7 11 8 5 9 10 10 6 11 9 12 7 13 8 14
REMARK H PARENT 2 2 1 4 1 5 9 15
ROOT
ATOM      1  N   UNL     1      -0.419  -0.802   2.502  1.00  0.00    -0.324 N 
ATOM      2  H   UNL     1      -0.578  -1.825   2.369  1.00  0.00     0.181 HD
ENDROOT
BRANCH   1   3
ATOM      3  N   UNL     1      -0.759  -0.240   3.744  1.00  0.00    -0.250 NA
ATOM      4  H   UNL     1      -1.466   0.511   3.576  1.00  0.00     0.143 HD
ATOM      5  H   UNL     1       0.102   0.192   4.150  1.00  0.00     0.143 HD
ENDBRANCH   1   3
BRANCH   1   6
ATOM      6  C   UNL     1       0.135  -0.031   1.419  1.00  0.00     0.051 A 
ATOM      7  C   UNL     1       0.372   1.366   1.547  1.00  0.00     0.028 A 
ATOM      8  C   UNL     1       0.448  -0.680   0.204  1.00  0.00     0.053 A 
ATOM      9  C   UNL     1       0.913   2.104   0.478  1.00  0.00     0.012 A 
ATOM     10  C   UNL     1       0.982   0.082  -0.833  1.00  0.00     0.047 A 
ATOM     11  C   UNL     1       1.206   1.425  -0.699  1.00  0.00    -0.000 A 
ATOM     12  N   UNL     1       1.344  -0.342  -2.055  1.00  0.00    -0.361 N 
ATOM     13  C   UNL     1       1.734   1.876  -1.889  1.00  0.00     0.028 A 
ATOM     14  C   UNL     1       1.804   0.751  -2.705  1.00  0.00     0.083 A 
ATOM     15  H   UNL     1       1.283  -1.315  -2.431  1.00  0.00     0.166 HD
ENDBRANCH   1   6
TORSDOF 2


