REMARK SMILES Cc1ccc2ccc(-c3ccc[nH+]c3F)nc2c1F
REMARK SMILES IDX 1 1 2 2 3 3 4 4 5 5 6 6 7 7 8 8 16 9 17 10 18 11 19 12 9 13
REMARK SMILES IDX 10 14 14 15 11 16 13 17 12 18 15 19
REMARK H PARENT 13 20
ROOT
ATOM      1  C   UNL     1      -5.216  -0.226  -0.981  1.00  0.00     0.047 C 
ATOM      2  C   UNL     1      -3.931  -0.918  -0.629  1.00  0.00    -0.013 A 
ATOM      3  C   UNL     1      -3.876  -2.320  -0.563  1.00  0.00     0.007 A 
ATOM      4  C   UNL     1      -2.688  -2.968  -0.213  1.00  0.00     0.011 A 
ATOM      5  C   UNL     1      -1.542  -2.219   0.084  1.00  0.00     0.003 A 
ATOM      6  C   UNL     1      -0.340  -2.840   0.441  1.00  0.00     0.013 A 
ATOM      7  C   UNL     1       0.784  -2.065   0.736  1.00  0.00     0.030 A 
ATOM      8  C   UNL     1       0.702  -0.663   0.670  1.00  0.00     0.080 A 
ATOM      9  N   UNL     1      -0.481  -0.082   0.324  1.00  0.00    -0.244 NA
ATOM     10  C   UNL     1      -1.592  -0.810   0.031  1.00  0.00     0.107 A 
ATOM     11  C   UNL     1      -2.785  -0.164  -0.319  1.00  0.00     0.152 A 
ATOM     12  F   UNL     1      -2.829   1.193  -0.358  1.00  0.00    -0.204 F 
ENDROOT
BRANCH   8  13
ATOM     13  C   UNL     1       1.876   0.195   0.974  1.00  0.00     0.104 A 
ATOM     14  C   UNL     1       3.179  -0.221   0.648  1.00  0.00     0.026 A 
ATOM     15  C   UNL     1       1.712   1.460   1.574  1.00  0.00     0.367 A 
ATOM     16  C   UNL     1       4.270   0.601   0.927  1.00  0.00     0.072 A 
ATOM     17  N   UNL     1       2.796   2.241   1.837  1.00  0.00    -0.186 N 
ATOM     18  C   UNL     1       4.058   1.840   1.529  1.00  0.00     0.309 A 
ATOM     19  F   UNL     1       0.478   1.905   1.924  1.00  0.00    -0.135 F 
ATOM     20  H   UNL     1       2.656   3.173   2.288  1.00  0.00     0.456 HD
ENDBRANCH   8  13
TORSDOF 1


