MODEL 1
REMARK VINA RESULT:     -10.0      0.000      0.000
REMARK SMILES Cc1[nH+]nc(-c2cc3c(N)cc(F)c(F)c3[nH]2)o1
REMARK SMILES IDX 6 1 7 2 8 3 9 4 11 5 12 6 13 7 14 8 15 9 16 10 17 11 5 13
REMARK SMILES IDX 2 14 3 15 18 16 4 17 1 18 10 20
REMARK H PARENT 17 12 3 19 10 21 10 22
ROOT
ATOM      1  C   UNL     1      45.329 131.053  16.851  1.00  0.00     0.109 A 
ATOM      2  C   UNL     1      44.072 131.624  17.026  1.00  0.00     0.044 A 
ATOM      3  C   UNL     1      43.874 131.647  18.392  1.00  0.00     0.026 A 
ATOM      4  C   UNL     1      42.797 132.104  19.162  1.00  0.00     0.044 A 
ATOM      5  C   UNL     1      42.898 131.987  20.564  1.00  0.00     0.068 A 
ATOM      6  C   UNL     1      44.050 131.427  21.157  1.00  0.00     0.163 A 
ATOM      7  F   UNL     1      44.130 131.323  22.506  1.00  0.00    -0.204 F 
ATOM      8  C   UNL     1      45.116 130.977  20.356  1.00  0.00     0.182 A 
ATOM      9  F   UNL     1      46.227 130.437  20.914  1.00  0.00    -0.201 F 
ATOM     10  C   UNL     1      44.993 131.102  18.973  1.00  0.00     0.087 A 
ATOM     11  N   UNL     1      45.889 130.735  18.041  1.00  0.00    -0.348 N 
ATOM     12  H   UNL     1      46.824 130.296  18.203  1.00  0.00     0.167 HD
ENDROOT
BRANCH   1  13
ATOM     13  C   UNL     1      45.974 130.821  15.555  1.00  0.00     0.312 A 
ATOM     14  C   UNL     1      47.301 130.144  14.098  1.00  0.00     0.369 A 
ATOM     15  N   UNL     1      46.377 130.891  13.470  1.00  0.00    -0.066 N 
ATOM     16  O   UNL     1      47.057 130.094  15.385  1.00  0.00    -0.380 OA
ATOM     17  N   UNL     1      45.530 131.328  14.386  1.00  0.00     0.042 NA
ATOM     18  C   UNL     1      48.429 129.445  13.419  1.00  0.00     0.176 C 
ATOM     19  H   UNL     1      46.316 131.100  12.449  1.00  0.00     0.494 HD
ENDBRANCH   1  13
BRANCH   4  20
ATOM     20  N   UNL     1      41.629 132.672  18.560  1.00  0.00    -0.398 N 
ATOM     21  H   UNL     1      40.872 132.069  18.171  1.00  0.00     0.156 HD
ATOM     22  H   UNL     1      41.514 133.708  18.500  1.00  0.00     0.156 HD
ENDBRANCH   4  20
TORSDOF 2
ENDMDL
MODEL 2
REMARK VINA RESULT:     -10.0      1.012      1.022
REMARK SMILES Cc1[nH+]nc(-c2cc3c(N)cc(F)c(F)c3[nH]2)o1
REMARK SMILES IDX 6 1 7 2 8 3 9 4 11 5 12 6 13 7 14 8 15 9 16 10 17 11 5 13
REMARK SMILES IDX 2 14 3 15 18 16 4 17 1 18 10 20
REMARK H PARENT 17 12 3 19 10 21 10 22
ROOT
ATOM      1  C   UNL     1      45.364 130.898  17.072  1.00  0.00     0.109 A 
ATOM      2  C   UNL     1      44.130 131.541  17.063  1.00  0.00     0.044 A 
ATOM      3  C   UNL     1      43.792 131.688  18.394  1.00  0.00     0.026 A 
ATOM      4  C   UNL     1      42.667 132.259  19.003  1.00  0.00     0.044 A 
ATOM      5  C   UNL     1      42.614 132.257  20.412  1.00  0.00     0.068 A 
ATOM      6  C   UNL     1      43.665 131.694  21.170  1.00  0.00     0.163 A 
ATOM      7  F   UNL     1      43.596 131.701  22.524  1.00  0.00    -0.204 F 
ATOM      8  C   UNL     1      44.781 131.128  20.527  1.00  0.00     0.182 A 
ATOM      9  F   UNL     1      45.795 130.585  21.244  1.00  0.00    -0.201 F 
ATOM     10  C   UNL     1      44.811 131.142  19.133  1.00  0.00     0.087 A 
ATOM     11  N   UNL     1      45.778 130.655  18.337  1.00  0.00    -0.348 N 
ATOM     12  H   UNL     1      46.664 130.188  18.634  1.00  0.00     0.167 HD
ENDROOT
BRANCH   1  13
ATOM     13  C   UNL     1      46.128 130.527  15.876  1.00  0.00     0.312 A 
ATOM     14  C   UNL     1      47.151 130.648  14.065  1.00  0.00     0.369 A 
ATOM     15  N   UNL     1      47.178 129.359  14.445  1.00  0.00    -0.066 N 
ATOM     16  O   UNL     1      46.508 131.376  14.945  1.00  0.00    -0.380 OA
ATOM     17  N   UNL     1      46.528 129.270  15.593  1.00  0.00     0.042 NA
ATOM     18  C   UNL     1      47.794 131.180  12.829  1.00  0.00     0.176 C 
ATOM     19  H   UNL     1      47.624 128.559  13.945  1.00  0.00     0.494 HD
ENDBRANCH   1  13
BRANCH   4  20
ATOM     20  N   UNL     1      41.603 132.830  18.234  1.00  0.00    -0.398 N 
ATOM     21  H   UNL     1      41.783 133.283  17.311  1.00  0.00     0.156 HD
ATOM     22  H   UNL     1      40.621 132.802  18.586  1.00  0.00     0.156 HD
ENDBRANCH   4  20
TORSDOF 2
ENDMDL
MODEL 3
REMARK VINA RESULT:      -9.8      2.131      2.707
REMARK SMILES Cc1[nH+]nc(-c2cc3c(N)cc(F)c(F)c3[nH]2)o1
REMARK SMILES IDX 6 1 7 2 8 3 9 4 11 5 12 6 13 7 14 8 15 9 16 10 17 11 5 13
REMARK SMILES IDX 2 14 3 15 18 16 4 17 1 18 10 20
REMARK H PARENT 17 12 3 19 10 21 10 22
ROOT
ATOM      1  C   UNL     1      45.092 131.006  17.194  1.00  0.00     0.109 A 
ATOM      2  C   UNL     1      45.529 130.828  18.503  1.00  0.00     0.044 A 
ATOM      3  C   UNL     1      44.528 131.359  19.292  1.00  0.00     0.026 A 
ATOM      4  C   UNL     1      44.407 131.465  20.683  1.00  0.00     0.044 A 
ATOM      5  C   UNL     1      43.240 132.071  21.195  1.00  0.00     0.068 A 
ATOM      6  C   UNL     1      42.237 132.547  20.323  1.00  0.00     0.163 A 
ATOM      7  F   UNL     1      41.122 133.126  20.833  1.00  0.00    -0.204 F 
ATOM      8  C   UNL     1      42.388 132.425  18.930  1.00  0.00     0.182 A 
ATOM      9  F   UNL     1      41.432 132.879  18.083  1.00  0.00    -0.201 F 
ATOM     10  C   UNL     1      43.550 131.824  18.448  1.00  0.00     0.087 A 
ATOM     11  N   UNL     1      43.883 131.615  17.163  1.00  0.00    -0.348 N 
ATOM     12  H   UNL     1      43.324 131.869  16.317  1.00  0.00     0.167 HD
ENDROOT
BRANCH   1  13
ATOM     13  C   UNL     1      45.831 130.594  15.997  1.00  0.00     0.312 A 
ATOM     14  C   UNL     1      46.931 130.663  14.228  1.00  0.00     0.369 A 
ATOM     15  N   UNL     1      46.733 129.366  14.516  1.00  0.00    -0.066 N 
ATOM     16  O   UNL     1      46.380 131.427  15.140  1.00  0.00    -0.380 OA
ATOM     17  N   UNL     1      46.032 129.309  15.636  1.00  0.00     0.042 NA
ATOM     18  C   UNL     1      47.699 131.162  13.052  1.00  0.00     0.176 C 
ATOM     19  H   UNL     1      47.062 128.537  13.973  1.00  0.00     0.494 HD
ENDBRANCH   1  13
BRANCH   4  20
ATOM     20  N   UNL     1      45.425 130.981  21.566  1.00  0.00    -0.398 N 
ATOM     21  H   UNL     1      46.237 130.434  21.208  1.00  0.00     0.156 HD
ATOM     22  H   UNL     1      45.371 131.170  22.592  1.00  0.00     0.156 HD
ENDBRANCH   4  20
TORSDOF 2
ENDMDL
MODEL 4
REMARK VINA RESULT:      -9.1      1.802      2.552
REMARK SMILES Cc1[nH+]nc(-c2cc3c(N)cc(F)c(F)c3[nH]2)o1
REMARK SMILES IDX 6 1 7 2 8 3 9 4 11 5 12 6 13 7 14 8 15 9 16 10 17 11 5 13
REMARK SMILES IDX 2 14 3 15 18 16 4 17 1 18 10 20
REMARK H PARENT 17 12 3 19 10 21 10 22
ROOT
ATOM      1  C   UNL     1      44.808 131.375  16.994  1.00  0.00     0.109 A 
ATOM      2  C   UNL     1      45.526 131.016  18.131  1.00  0.00     0.044 A 
ATOM      3  C   UNL     1      44.699 131.331  19.192  1.00  0.00     0.026 A 
ATOM      4  C   UNL     1      44.880 131.195  20.574  1.00  0.00     0.044 A 
ATOM      5  C   UNL     1      43.829 131.617  21.416  1.00  0.00     0.068 A 
ATOM      6  C   UNL     1      42.643 132.155  20.870  1.00  0.00     0.163 A 
ATOM      7  F   UNL     1      41.644 132.555  21.695  1.00  0.00    -0.204 F 
ATOM      8  C   UNL     1      42.493 132.278  19.477  1.00  0.00     0.182 A 
ATOM      9  F   UNL     1      41.360 132.793  18.941  1.00  0.00    -0.201 F 
ATOM     10  C   UNL     1      43.545 131.855  18.665  1.00  0.00     0.087 A 
ATOM     11  N   UNL     1      43.600 131.888  17.323  1.00  0.00    -0.348 N 
ATOM     12  H   UNL     1      42.861 132.236  16.670  1.00  0.00     0.167 HD
ENDROOT
BRANCH   1  13
ATOM     13  C   UNL     1      45.285 131.225  15.616  1.00  0.00     0.312 A 
ATOM     14  C   UNL     1      46.546 131.075  13.963  1.00  0.00     0.369 A 
ATOM     15  N   UNL     1      45.286 130.965  13.507  1.00  0.00    -0.066 N 
ATOM     16  O   UNL     1      46.553 131.232  15.265  1.00  0.00    -0.380 OA
ATOM     17  N   UNL     1      44.477 131.062  14.548  1.00  0.00     0.042 NA
ATOM     18  C   UNL     1      47.766 130.997  13.110  1.00  0.00     0.176 C 
ATOM     19  H   UNL     1      44.978 130.827  12.520  1.00  0.00     0.494 HD
ENDBRANCH   1  13
BRANCH   4  20
ATOM     20  N   UNL     1      46.082 130.649  21.127  1.00  0.00    -0.398 N 
ATOM     21  H   UNL     1      46.474 131.002  22.027  1.00  0.00     0.156 HD
ATOM     22  H   UNL     1      46.591 129.882  20.635  1.00  0.00     0.156 HD
ENDBRANCH   4  20
TORSDOF 2
ENDMDL
MODEL 5
REMARK VINA RESULT:      -8.5      2.905      6.106
REMARK SMILES Cc1[nH+]nc(-c2cc3c(N)cc(F)c(F)c3[nH]2)o1
REMARK SMILES IDX 6 1 7 2 8 3 9 4 11 5 12 6 13 7 14 8 15 9 16 10 17 11 5 13
REMARK SMILES IDX 2 14 3 15 18 16 4 17 1 18 10 20
REMARK H PARENT 17 12 3 19 10 21 10 22
ROOT
ATOM      1  C   UNL     1      44.139 131.375  18.174  1.00  0.00     0.109 A 
ATOM      2  C   UNL     1      43.448 131.710  17.014  1.00  0.00     0.044 A 
ATOM      3  C   UNL     1      44.271 131.314  15.978  1.00  0.00     0.026 A 
ATOM      4  C   UNL     1      44.110 131.394  14.589  1.00  0.00     0.044 A 
ATOM      5  C   UNL     1      45.152 130.892  13.780  1.00  0.00     0.068 A 
ATOM      6  C   UNL     1      46.309 130.333  14.364  1.00  0.00     0.163 A 
ATOM      7  F   UNL     1      47.299 129.856  13.570  1.00  0.00    -0.204 F 
ATOM      8  C   UNL     1      46.440 130.268  15.763  1.00  0.00     0.182 A 
ATOM      9  F   UNL     1      47.546 129.733  16.335  1.00  0.00    -0.201 F 
ATOM     10  C   UNL     1      45.398 130.770  16.542  1.00  0.00     0.087 A 
ATOM     11  N   UNL     1      45.329 130.802  17.884  1.00  0.00    -0.348 N 
ATOM     12  H   UNL     1      46.047 130.455  18.560  1.00  0.00     0.167 HD
ENDROOT
BRANCH   1  13
ATOM     13  C   UNL     1      43.654 131.607  19.539  1.00  0.00     0.312 A 
ATOM     14  C   UNL     1      43.533 131.630  21.618  1.00  0.00     0.369 A 
ATOM     15  N   UNL     1      42.423 132.229  21.155  1.00  0.00    -0.066 N 
ATOM     16  O   UNL     1      44.299 131.247  20.627  1.00  0.00    -0.380 OA
ATOM     17  N   UNL     1      42.487 132.218  19.834  1.00  0.00     0.042 NA
ATOM     18  C   UNL     1      43.861 131.456  23.063  1.00  0.00     0.176 C 
ATOM     19  H   UNL     1      41.641 132.637  21.713  1.00  0.00     0.494 HD
ENDBRANCH   1  13
BRANCH   4  20
ATOM     20  N   UNL     1      42.936 131.961  13.998  1.00  0.00    -0.398 N 
ATOM     21  H   UNL     1      42.698 132.968  14.126  1.00  0.00     0.156 HD
ATOM     22  H   UNL     1      42.294 131.371  13.424  1.00  0.00     0.156 HD
ENDBRANCH   4  20
TORSDOF 2
ENDMDL
MODEL 6
REMARK VINA RESULT:      -8.4      3.227      6.163
REMARK SMILES Cc1[nH+]nc(-c2cc3c(N)cc(F)c(F)c3[nH]2)o1
REMARK SMILES IDX 6 1 7 2 8 3 9 4 11 5 12 6 13 7 14 8 15 9 16 10 17 11 5 13
REMARK SMILES IDX 2 14 3 15 18 16 4 17 1 18 10 20
REMARK H PARENT 17 12 3 19 10 21 10 22
ROOT
ATOM      1  C   UNL     1      44.954 131.132  18.380  1.00  0.00     0.109 A 
ATOM      2  C   UNL     1      44.091 131.611  17.400  1.00  0.00     0.044 A 
ATOM      3  C   UNL     1      44.693 131.285  16.200  1.00  0.00     0.026 A 
ATOM      4  C   UNL     1      44.296 131.511  14.877  1.00  0.00     0.044 A 
ATOM      5  C   UNL     1      45.146 131.049  13.850  1.00  0.00     0.068 A 
ATOM      6  C   UNL     1      46.352 130.384  14.161  1.00  0.00     0.163 A 
ATOM      7  F   UNL     1      47.156 129.947  13.161  1.00  0.00    -0.204 F 
ATOM      8  C   UNL     1      46.723 130.173  15.501  1.00  0.00     0.182 A 
ATOM      9  F   UNL     1      47.879 129.537  15.812  1.00  0.00    -0.201 F 
ATOM     10  C   UNL     1      45.867 130.639  16.499  1.00  0.00     0.087 A 
ATOM     11  N   UNL     1      46.038 130.539  17.828  1.00  0.00    -0.348 N 
ATOM     12  H   UNL     1      46.841 130.096  18.329  1.00  0.00     0.167 HD
ENDROOT
BRANCH   1  13
ATOM     13  C   UNL     1      44.732 131.246  19.825  1.00  0.00     0.312 A 
ATOM     14  C   UNL     1      43.798 131.506  21.669  1.00  0.00     0.369 A 
ATOM     15  N   UNL     1      45.101 131.295  21.917  1.00  0.00    -0.066 N 
ATOM     16  O   UNL     1      43.562 131.473  20.380  1.00  0.00    -0.380 OA
ATOM     17  N   UNL     1      45.706 131.131  20.752  1.00  0.00     0.042 NA
ATOM     18  C   UNL     1      42.759 131.715  22.719  1.00  0.00     0.176 C 
ATOM     19  H   UNL     1      45.574 131.260  22.847  1.00  0.00     0.494 HD
ENDBRANCH   1  13
BRANCH   4  20
ATOM     20  N   UNL     1      43.072 132.184  14.562  1.00  0.00    -0.398 N 
ATOM     21  H   UNL     1      42.924 133.185  14.816  1.00  0.00     0.156 HD
ATOM     22  H   UNL     1      42.301 131.681  14.069  1.00  0.00     0.156 HD
ENDBRANCH   4  20
TORSDOF 2
ENDMDL
MODEL 7
REMARK VINA RESULT:      -8.2      3.487      6.604
REMARK SMILES Cc1[nH+]nc(-c2cc3c(N)cc(F)c(F)c3[nH]2)o1
REMARK SMILES IDX 6 1 7 2 8 3 9 4 11 5 12 6 13 7 14 8 15 9 16 10 17 11 5 13
REMARK SMILES IDX 2 14 3 15 18 16 4 17 1 18 10 20
REMARK H PARENT 17 12 3 19 10 21 10 22
ROOT
ATOM      1  C   UNL     1      43.981 131.496  18.398  1.00  0.00     0.109 A 
ATOM      2  C   UNL     1      45.166 130.786  18.236  1.00  0.00     0.044 A 
ATOM      3  C   UNL     1      45.375 130.741  16.872  1.00  0.00     0.026 A 
ATOM      4  C   UNL     1      46.400 130.163  16.113  1.00  0.00     0.044 A 
ATOM      5  C   UNL     1      46.328 130.289  14.710  1.00  0.00     0.068 A 
ATOM      6  C   UNL     1      45.253 130.977  14.105  1.00  0.00     0.163 A 
ATOM      7  F   UNL     1      45.200 131.088  12.755  1.00  0.00    -0.204 F 
ATOM      8  C   UNL     1      44.238 131.546  14.896  1.00  0.00     0.182 A 
ATOM      9  F   UNL     1      43.201 132.209  14.327  1.00  0.00    -0.201 F 
ATOM     10  C   UNL     1      44.331 131.408  16.280  1.00  0.00     0.087 A 
ATOM     11  N   UNL     1      43.472 131.874  17.202  1.00  0.00    -0.348 N 
ATOM     12  H   UNL     1      42.595 132.416  17.031  1.00  0.00     0.167 HD
ENDROOT
BRANCH   1  13
ATOM     13  C   UNL     1      43.352 131.802  19.687  1.00  0.00     0.312 A 
ATOM     14  C   UNL     1      42.955 131.853  21.732  1.00  0.00     0.369 A 
ATOM     15  N   UNL     1      42.014 132.600  21.131  1.00  0.00    -0.066 N 
ATOM     16  O   UNL     1      43.787 131.359  20.847  1.00  0.00    -0.380 OA
ATOM     17  N   UNL     1      42.255 132.572  19.831  1.00  0.00     0.042 NA
ATOM     18  C   UNL     1      43.056 131.642  23.205  1.00  0.00     0.176 C 
ATOM     19  H   UNL     1      41.228 133.118  21.584  1.00  0.00     0.494 HD
ENDBRANCH   1  13
BRANCH   4  20
ATOM     20  N   UNL     1      47.490 129.466  16.727  1.00  0.00    -0.398 N 
ATOM     21  H   UNL     1      48.149 129.953  17.373  1.00  0.00     0.156 HD
ATOM     22  H   UNL     1      47.644 128.451  16.538  1.00  0.00     0.156 HD
ENDBRANCH   4  20
TORSDOF 2
ENDMDL
MODEL 8
REMARK VINA RESULT:      -7.7      3.521      6.572
REMARK SMILES Cc1[nH+]nc(-c2cc3c(N)cc(F)c(F)c3[nH]2)o1
REMARK SMILES IDX 6 1 7 2 8 3 9 4 11 5 12 6 13 7 14 8 15 9 16 10 17 11 5 13
REMARK SMILES IDX 2 14 3 15 18 16 4 17 1 18 10 20
REMARK H PARENT 17 12 3 19 10 21 10 22
ROOT
ATOM      1  C   UNL     1      44.663 131.242  18.996  1.00  0.00     0.109 A 
ATOM      2  C   UNL     1      45.747 130.610  18.395  1.00  0.00     0.044 A 
ATOM      3  C   UNL     1      45.497 130.681  17.039  1.00  0.00     0.026 A 
ATOM      4  C   UNL     1      46.232 130.218  15.940  1.00  0.00     0.044 A 
ATOM      5  C   UNL     1      45.700 130.448  14.653  1.00  0.00     0.068 A 
ATOM      6  C   UNL     1      44.470 131.122  14.494  1.00  0.00     0.163 A 
ATOM      7  F   UNL     1      43.975 131.334  13.250  1.00  0.00    -0.204 F 
ATOM      8  C   UNL     1      43.757 131.575  15.619  1.00  0.00     0.182 A 
ATOM      9  F   UNL     1      42.575 132.224  15.479  1.00  0.00    -0.201 F 
ATOM     10  C   UNL     1      44.302 131.336  16.880  1.00  0.00     0.087 A 
ATOM     11  N   UNL     1      43.781 131.684  18.069  1.00  0.00    -0.348 N 
ATOM     12  H   UNL     1      42.883 132.190  18.241  1.00  0.00     0.167 HD
ENDROOT
BRANCH   1  13
ATOM     13  C   UNL     1      44.485 131.414  20.442  1.00  0.00     0.312 A 
ATOM     14  C   UNL     1      43.598 131.602  22.317  1.00  0.00     0.369 A 
ATOM     15  N   UNL     1      44.925 131.699  22.500  1.00  0.00    -0.066 N 
ATOM     16  O   UNL     1      43.318 131.422  21.049  1.00  0.00    -0.380 OA
ATOM     17  N   UNL     1      45.499 131.584  21.314  1.00  0.00     0.042 NA
ATOM     18  C   UNL     1      42.586 131.658  23.411  1.00  0.00     0.176 C 
ATOM     19  H   UNL     1      45.434 131.838  23.401  1.00  0.00     0.494 HD
ENDBRANCH   1  13
BRANCH   4  20
ATOM     20  N   UNL     1      47.479 129.534  16.101  1.00  0.00    -0.398 N 
ATOM     21  H   UNL     1      47.837 129.277  17.047  1.00  0.00     0.156 HD
ATOM     22  H   UNL     1      48.055 129.278  15.269  1.00  0.00     0.156 HD
ENDBRANCH   4  20
TORSDOF 2
ENDMDL
MODEL 9
REMARK VINA RESULT:      -7.5      1.940      2.711
REMARK SMILES Cc1[nH+]nc(-c2cc3c(N)cc(F)c(F)c3[nH]2)o1
REMARK SMILES IDX 6 1 7 2 8 3 9 4 11 5 12 6 13 7 14 8 15 9 16 10 17 11 5 13
REMARK SMILES IDX 2 14 3 15 18 16 4 17 1 18 10 20
REMARK H PARENT 17 12 3 19 10 21 10 22
ROOT
ATOM      1  C   UNL     1      44.993 131.425  17.946  1.00  0.00     0.109 A 
ATOM      2  C   UNL     1      45.329 130.683  19.075  1.00  0.00     0.044 A 
ATOM      3  C   UNL     1      44.444 131.094  20.052  1.00  0.00     0.026 A 
ATOM      4  C   UNL     1      44.297 130.702  21.388  1.00  0.00     0.044 A 
ATOM      5  C   UNL     1      43.278 131.320  22.143  1.00  0.00     0.068 A 
ATOM      6  C   UNL     1      42.443 132.297  21.559  1.00  0.00     0.163 A 
ATOM      7  F   UNL     1      41.469 132.880  22.300  1.00  0.00    -0.204 F 
ATOM      8  C   UNL     1      42.616 132.668  20.213  1.00  0.00     0.182 A 
ATOM      9  F   UNL     1      41.820 133.605  19.641  1.00  0.00    -0.201 F 
ATOM     10  C   UNL     1      43.629 132.044  19.487  1.00  0.00     0.087 A 
ATOM     11  N   UNL     1      43.956 132.256  18.201  1.00  0.00    -0.348 N 
ATOM     12  H   UNL     1      43.502 132.923  17.536  1.00  0.00     0.167 HD
ENDROOT
BRANCH   1  13
ATOM     13  C   UNL     1      45.666 131.330  16.647  1.00  0.00     0.312 A 
ATOM     14  C   UNL     1      46.554 130.552  14.930  1.00  0.00     0.369 A 
ATOM     15  N   UNL     1      46.610 131.891  14.828  1.00  0.00    -0.066 N 
ATOM     16  O   UNL     1      45.969 130.199  16.049  1.00  0.00    -0.380 OA
ATOM     17  N   UNL     1      46.051 132.396  15.914  1.00  0.00     0.042 NA
ATOM     18  C   UNL     1      47.059 129.601  13.898  1.00  0.00     0.176 C 
ATOM     19  H   UNL     1      47.013 132.451  14.045  1.00  0.00     0.494 HD
ENDBRANCH   1  13
BRANCH   4  20
ATOM     20  N   UNL     1      45.144 129.711  21.980  1.00  0.00    -0.398 N 
ATOM     21  H   UNL     1      45.599 128.972  21.401  1.00  0.00     0.156 HD
ATOM     22  H   UNL     1      45.323 129.712  23.008  1.00  0.00     0.156 HD
ENDBRANCH   4  20
TORSDOF 2
ENDMDL


