MODEL 1
REMARK VINA RESULT:      -6.1      0.000      0.000
REMARK SMILES CC(C)C[C@H](C)OC(=O)n1nc(-c2ccc3[nH]ccc3c2)cc(NN)c1=O
REMARK SMILES IDX 7 1 5 2 6 3 4 4 2 5 1 6 3 7 8 8 9 9 10 10 11 11 26 12 12 13
REMARK SMILES IDX 23 14 22 15 27 16 13 17 14 18 21 19 15 20 20 21 16 22 19 23
REMARK SMILES IDX 17 24 18 25 24 27 25 29
REMARK H PARENT 17 26 24 28 25 30 25 31
ROOT
ATOM      1  O   UNL     1      45.505 127.929  21.857  1.00  0.00    -0.445 OA
ENDROOT
BRANCH   1   2
ATOM      2  C   UNL     1      45.641 126.690  22.552  1.00  0.00     0.175 C 
ATOM      3  C   UNL     1      44.349 125.877  22.403  1.00  0.00     0.053 C 
BRANCH   2   4
ATOM      4  C   UNL     1      46.833 125.895  21.976  1.00  0.00     0.048 C 
BRANCH   4   5
ATOM      5  C   UNL     1      47.417 124.797  22.901  1.00  0.00    -0.014 C 
ATOM      6  C   UNL     1      47.040 123.378  22.453  1.00  0.00     0.007 C 
ATOM      7  C   UNL     1      47.077 125.013  24.382  1.00  0.00     0.007 C 
ENDBRANCH   4   5
ENDBRANCH   2   4
ENDBRANCH   1   2
BRANCH   1   8
ATOM      8  C   UNL     1      44.949 129.084  22.423  1.00  0.00     0.438 C 
ATOM      9  O   UNL     1      44.967 129.243  23.676  1.00  0.00    -0.222 OA
BRANCH   8  10
ATOM     10  N   UNL     1      44.384 130.088  21.556  1.00  0.00    -0.124 N 
ATOM     11  N   UNL     1      44.890 130.179  20.323  1.00  0.00    -0.159 NA
ATOM     12  C   UNL     1      43.370 130.927  21.950  1.00  0.00     0.301 A 
ATOM     13  C   UNL     1      44.448 131.081  19.408  1.00  0.00     0.094 A 
ATOM     14  C   UNL     1      42.871 131.891  21.057  1.00  0.00     0.119 A 
ATOM     15  C   UNL     1      43.426 131.963  19.773  1.00  0.00     0.064 A 
ATOM     16  O   UNL     1      42.875 130.839  23.107  1.00  0.00    -0.265 OA
BRANCH  13  17
ATOM     17  C   UNL     1      45.073 131.118  18.064  1.00  0.00     0.003 A 
ATOM     18  C   UNL     1      45.034 132.318  17.303  1.00  0.00     0.012 A 
ATOM     19  C   UNL     1      45.733 129.983  17.531  1.00  0.00     0.020 A 
ATOM     20  C   UNL     1      45.629 132.389  16.031  1.00  0.00     0.027 A 
ATOM     21  C   UNL     1      46.311 130.089  16.268  1.00  0.00     0.000 A 
ATOM     22  C   UNL     1      46.260 131.248  15.544  1.00  0.00     0.045 A 
ATOM     23  C   UNL     1      47.007 129.166  15.520  1.00  0.00     0.028 A 
ATOM     24  N   UNL     1      46.892 131.104  14.367  1.00  0.00    -0.361 N 
ATOM     25  C   UNL     1      47.350 129.832  14.348  1.00  0.00     0.083 A 
ATOM     26  H   UNL     1      47.008 131.824  13.619  1.00  0.00     0.166 HD
ENDBRANCH  13  17
BRANCH  14  27
ATOM     27  N   UNL     1      41.813 132.784  21.466  1.00  0.00    -0.319 N 
ATOM     28  H   UNL     1      41.674 132.993  22.479  1.00  0.00     0.181 HD
BRANCH  27  29
ATOM     29  N   UNL     1      40.933 133.395  20.556  1.00  0.00    -0.250 NA
ATOM     30  H   UNL     1      39.983 133.420  20.992  1.00  0.00     0.143 HD
ATOM     31  H   UNL     1      40.897 132.805  19.695  1.00  0.00     0.143 HD
ENDBRANCH  27  29
ENDBRANCH  14  27
ENDBRANCH   8  10
ENDBRANCH   1   8
TORSDOF 8
ENDMDL
MODEL 2
REMARK VINA RESULT:      -5.7      1.507      2.416
REMARK SMILES CC(C)C[C@H](C)OC(=O)n1nc(-c2ccc3[nH]ccc3c2)cc(NN)c1=O
REMARK SMILES IDX 7 1 5 2 6 3 4 4 2 5 1 6 3 7 8 8 9 9 10 10 11 11 26 12 12 13
REMARK SMILES IDX 23 14 22 15 27 16 13 17 14 18 21 19 15 20 20 21 16 22 19 23
REMARK SMILES IDX 17 24 18 25 24 27 25 29
REMARK H PARENT 17 26 24 28 25 30 25 31
ROOT
ATOM      1  O   UNL     1      45.476 129.562  21.860  1.00  0.00    -0.445 OA
ENDROOT
BRANCH   1   2
ATOM      2  C   UNL     1      44.889 128.638  22.774  1.00  0.00     0.175 C 
ATOM      3  C   UNL     1      43.427 129.026  23.024  1.00  0.00     0.053 C 
BRANCH   2   4
ATOM      4  C   UNL     1      44.963 127.209  22.194  1.00  0.00     0.048 C 
BRANCH   4   5
ATOM      5  C   UNL     1      44.804 126.058  23.220  1.00  0.00    -0.014 C 
ATOM      6  C   UNL     1      45.699 124.852  22.906  1.00  0.00     0.007 C 
ATOM      7  C   UNL     1      43.344 125.622  23.413  1.00  0.00     0.007 C 
ENDBRANCH   4   5
ENDBRANCH   2   4
ENDBRANCH   1   2
BRANCH   1   8
ATOM      8  C   UNL     1      44.987 130.857  21.637  1.00  0.00     0.438 C 
ATOM      9  O   UNL     1      45.076 131.728  22.546  1.00  0.00    -0.222 OA
BRANCH   8  10
ATOM     10  N   UNL     1      44.411 131.178  20.355  1.00  0.00    -0.124 N 
ATOM     11  N   UNL     1      45.115 130.842  19.271  1.00  0.00    -0.159 NA
ATOM     12  C   UNL     1      43.193 131.800  20.221  1.00  0.00     0.301 A 
ATOM     13  C   UNL     1      44.687 131.086  18.006  1.00  0.00     0.094 A 
ATOM     14  C   UNL     1      42.693 132.093  18.940  1.00  0.00     0.119 A 
ATOM     15  C   UNL     1      43.459 131.731  17.825  1.00  0.00     0.064 A 
ATOM     16  O   UNL     1      42.512 132.108  21.238  1.00  0.00    -0.265 OA
BRANCH  13  17
ATOM     17  C   UNL     1      45.539 130.686  16.860  1.00  0.00     0.003 A 
ATOM     18  C   UNL     1      45.967 129.336  16.740  1.00  0.00     0.012 A 
ATOM     19  C   UNL     1      45.915 131.622  15.864  1.00  0.00     0.020 A 
ATOM     20  C   UNL     1      46.766 128.923  15.659  1.00  0.00     0.027 A 
ATOM     21  C   UNL     1      46.706 131.177  14.808  1.00  0.00     0.000 A 
ATOM     22  C   UNL     1      47.118 129.876  14.708  1.00  0.00     0.045 A 
ATOM     23  C   UNL     1      47.208 131.852  13.717  1.00  0.00     0.028 A 
ATOM     24  N   UNL     1      47.860 129.693  13.604  1.00  0.00    -0.361 N 
ATOM     25  C   UNL     1      47.918 130.899  12.995  1.00  0.00     0.083 A 
ATOM     26  H   UNL     1      48.302 128.804  13.279  1.00  0.00     0.166 HD
ENDBRANCH  13  17
BRANCH  14  27
ATOM     27  N   UNL     1      41.419 132.756  18.790  1.00  0.00    -0.319 N 
ATOM     28  H   UNL     1      40.787 132.855  19.614  1.00  0.00     0.181 HD
BRANCH  27  29
ATOM     29  N   UNL     1      40.969 133.280  17.566  1.00  0.00    -0.250 NA
ATOM     30  H   UNL     1      41.405 132.723  16.796  1.00  0.00     0.143 HD
ATOM     31  H   UNL     1      41.298 134.269  17.498  1.00  0.00     0.143 HD
ENDBRANCH  27  29
ENDBRANCH  14  27
ENDBRANCH   8  10
ENDBRANCH   1   8
TORSDOF 8
ENDMDL
MODEL 3
REMARK VINA RESULT:      -5.1      2.375      7.185
REMARK SMILES CC(C)C[C@H](C)OC(=O)n1nc(-c2ccc3[nH]ccc3c2)cc(NN)c1=O
REMARK SMILES IDX 7 1 5 2 6 3 4 4 2 5 1 6 3 7 8 8 9 9 10 10 11 11 26 12 12 13
REMARK SMILES IDX 23 14 22 15 27 16 13 17 14 18 21 19 15 20 20 21 16 22 19 23
REMARK SMILES IDX 17 24 18 25 24 27 25 29
REMARK H PARENT 17 26 24 28 25 30 25 31
ROOT
ATOM      1  O   UNL     1      45.884 130.128  19.342  1.00  0.00    -0.445 OA
ENDROOT
BRANCH   1   2
ATOM      2  C   UNL     1      46.085 130.801  18.100  1.00  0.00     0.175 C 
ATOM      3  C   UNL     1      45.983 129.792  16.950  1.00  0.00     0.053 C 
BRANCH   2   4
ATOM      4  C   UNL     1      45.023 131.908  17.926  1.00  0.00     0.048 C 
BRANCH   4   5
ATOM      5  C   UNL     1      43.628 131.431  17.448  1.00  0.00    -0.014 C 
ATOM      6  C   UNL     1      43.364 131.751  15.970  1.00  0.00     0.007 C 
ATOM      7  C   UNL     1      42.482 131.940  18.333  1.00  0.00     0.007 C 
ENDBRANCH   4   5
ENDBRANCH   2   4
ENDBRANCH   1   2
BRANCH   1   8
ATOM      8  C   UNL     1      45.619 130.784  20.551  1.00  0.00     0.438 C 
ATOM      9  O   UNL     1      45.898 132.010  20.676  1.00  0.00    -0.222 OA
BRANCH   8  10
ATOM     10  N   UNL     1      45.007 130.049  21.630  1.00  0.00    -0.124 N 
ATOM     11  N   UNL     1      45.287 128.746  21.712  1.00  0.00    -0.159 NA
ATOM     12  C   UNL     1      44.170 130.635  22.549  1.00  0.00     0.301 A 
ATOM     13  C   UNL     1      44.777 127.939  22.679  1.00  0.00     0.094 A 
ATOM     14  C   UNL     1      43.599 129.858  23.572  1.00  0.00     0.119 A 
ATOM     15  C   UNL     1      43.910 128.493  23.627  1.00  0.00     0.064 A 
ATOM     16  O   UNL     1      43.912 131.868  22.490  1.00  0.00    -0.265 OA
BRANCH  13  17
ATOM     17  C   UNL     1      45.135 126.500  22.689  1.00  0.00     0.003 A 
ATOM     18  C   UNL     1      44.112 125.521  22.564  1.00  0.00     0.012 A 
ATOM     19  C   UNL     1      46.484 126.081  22.794  1.00  0.00     0.020 A 
ATOM     20  C   UNL     1      44.420 124.149  22.557  1.00  0.00     0.027 A 
ATOM     21  C   UNL     1      46.752 124.714  22.784  1.00  0.00     0.000 A 
ATOM     22  C   UNL     1      45.758 123.782  22.671  1.00  0.00     0.045 A 
ATOM     23  C   UNL     1      47.947 124.034  22.865  1.00  0.00     0.028 A 
ATOM     24  N   UNL     1      46.266 122.538  22.678  1.00  0.00    -0.361 N 
ATOM     25  C   UNL     1      47.604 122.688  22.797  1.00  0.00     0.083 A 
ATOM     26  H   UNL     1      45.738 121.640  22.605  1.00  0.00     0.166 HD
ENDBRANCH  13  17
BRANCH  14  27
ATOM     27  N   UNL     1      42.711 130.462  24.536  1.00  0.00    -0.319 N 
ATOM     28  H   UNL     1      42.854 130.283  25.555  1.00  0.00     0.181 HD
BRANCH  27  29
ATOM     29  N   UNL     1      41.635 131.290  24.173  1.00  0.00    -0.250 NA
ATOM     30  H   UNL     1      41.526 131.240  23.134  1.00  0.00     0.143 HD
ATOM     31  H   UNL     1      41.877 132.270  24.443  1.00  0.00     0.143 HD
ENDBRANCH  27  29
ENDBRANCH  14  27
ENDBRANCH   8  10
ENDBRANCH   1   8
TORSDOF 8
ENDMDL
MODEL 4
REMARK VINA RESULT:      -4.7      4.431      7.125
REMARK SMILES CC(C)C[C@H](C)OC(=O)n1nc(-c2ccc3[nH]ccc3c2)cc(NN)c1=O
REMARK SMILES IDX 7 1 5 2 6 3 4 4 2 5 1 6 3 7 8 8 9 9 10 10 11 11 26 12 12 13
REMARK SMILES IDX 23 14 22 15 27 16 13 17 14 18 21 19 15 20 20 21 16 22 19 23
REMARK SMILES IDX 17 24 18 25 24 27 25 29
REMARK H PARENT 17 26 24 28 25 30 25 31
ROOT
ATOM      1  O   UNL     1      45.203 131.952  17.627  1.00  0.00    -0.445 OA
ENDROOT
BRANCH   1   2
ATOM      2  C   UNL     1      45.140 131.190  16.422  1.00  0.00     0.175 C 
ATOM      3  C   UNL     1      43.879 131.575  15.640  1.00  0.00     0.053 C 
BRANCH   2   4
ATOM      4  C   UNL     1      46.395 131.462  15.564  1.00  0.00     0.048 C 
BRANCH   4   5
ATOM      5  C   UNL     1      46.534 130.600  14.284  1.00  0.00    -0.014 C 
ATOM      6  C   UNL     1      46.956 129.155  14.581  1.00  0.00     0.007 C 
ATOM      7  C   UNL     1      47.451 131.234  13.228  1.00  0.00     0.007 C 
ENDBRANCH   4   5
ENDBRANCH   2   4
ENDBRANCH   1   2
BRANCH   1   8
ATOM      8  C   UNL     1      44.199 131.952  18.604  1.00  0.00     0.438 C 
ATOM      9  O   UNL     1      42.988 131.843  18.262  1.00  0.00    -0.222 OA
BRANCH   8  10
ATOM     10  N   UNL     1      44.571 132.052  19.993  1.00  0.00    -0.124 N 
ATOM     11  N   UNL     1      45.623 132.820  20.286  1.00  0.00    -0.159 NA
ATOM     12  C   UNL     1      43.892 131.400  20.994  1.00  0.00     0.301 A 
ATOM     13  C   UNL     1      46.077 133.001  21.554  1.00  0.00     0.094 A 
ATOM     14  C   UNL     1      44.313 131.534  22.329  1.00  0.00     0.119 A 
ATOM     15  C   UNL     1      45.423 132.344  22.601  1.00  0.00     0.064 A 
ATOM     16  O   UNL     1      42.887 130.685  20.730  1.00  0.00    -0.265 OA
BRANCH  13  17
ATOM     17  C   UNL     1      47.259 133.865  21.786  1.00  0.00     0.003 A 
ATOM     18  C   UNL     1      48.224 133.489  22.761  1.00  0.00     0.012 A 
ATOM     19  C   UNL     1      47.460 135.050  21.035  1.00  0.00     0.020 A 
ATOM     20  C   UNL     1      49.362 134.281  22.995  1.00  0.00     0.027 A 
ATOM     21  C   UNL     1      48.598 135.809  21.295  1.00  0.00     0.000 A 
ATOM     22  C   UNL     1      49.515 135.440  22.240  1.00  0.00     0.045 A 
ATOM     23  C   UNL     1      49.043 136.982  20.725  1.00  0.00     0.028 A 
ATOM     24  N   UNL     1      50.523 136.326  22.300  1.00  0.00    -0.361 N 
ATOM     25  C   UNL     1      50.238 137.271  21.375  1.00  0.00     0.083 A 
ATOM     26  H   UNL     1      51.357 136.294  22.928  1.00  0.00     0.166 HD
ENDBRANCH  13  17
BRANCH  14  27
ATOM     27  N   UNL     1      43.612 130.845  23.386  1.00  0.00    -0.319 N 
ATOM     28  H   UNL     1      44.053 130.759  24.329  1.00  0.00     0.181 HD
BRANCH  27  29
ATOM     29  N   UNL     1      42.344 130.264  23.213  1.00  0.00    -0.250 NA
ATOM     30  H   UNL     1      42.458 129.410  22.621  1.00  0.00     0.143 HD
ATOM     31  H   UNL     1      41.741 130.950  22.706  1.00  0.00     0.143 HD
ENDBRANCH  27  29
ENDBRANCH  14  27
ENDBRANCH   8  10
ENDBRANCH   1   8
TORSDOF 8
ENDMDL
MODEL 5
REMARK VINA RESULT:      -4.5      4.518      7.168
REMARK SMILES CC(C)C[C@H](C)OC(=O)n1nc(-c2ccc3[nH]ccc3c2)cc(NN)c1=O
REMARK SMILES IDX 7 1 5 2 6 3 4 4 2 5 1 6 3 7 8 8 9 9 10 10 11 11 26 12 12 13
REMARK SMILES IDX 23 14 22 15 27 16 13 17 14 18 21 19 15 20 20 21 16 22 19 23
REMARK SMILES IDX 17 24 18 25 24 27 25 29
REMARK H PARENT 17 26 24 28 25 30 25 31
ROOT
ATOM      1  O   UNL     1      48.730 123.936  22.821  1.00  0.00    -0.445 OA
ENDROOT
BRANCH   1   2
ATOM      2  C   UNL     1      49.795 124.286  21.938  1.00  0.00     0.175 C 
ATOM      3  C   UNL     1      51.129 124.201  22.688  1.00  0.00     0.053 C 
BRANCH   2   4
ATOM      4  C   UNL     1      49.809 123.325  20.729  1.00  0.00     0.048 C 
BRANCH   4   5
ATOM      5  C   UNL     1      50.966 123.533  19.719  1.00  0.00    -0.014 C 
ATOM      6  C   UNL     1      50.469 123.836  18.299  1.00  0.00     0.007 C 
ATOM      7  C   UNL     1      51.975 122.376  19.713  1.00  0.00     0.007 C 
ENDBRANCH   4   5
ENDBRANCH   2   4
ENDBRANCH   1   2
BRANCH   1   8
ATOM      8  C   UNL     1      47.972 124.871  23.539  1.00  0.00     0.438 C 
ATOM      9  O   UNL     1      48.510 125.538  24.466  1.00  0.00    -0.222 OA
BRANCH   8  10
ATOM     10  N   UNL     1      46.590 125.073  23.185  1.00  0.00    -0.124 N 
ATOM     11  N   UNL     1      46.150 126.334  23.152  1.00  0.00    -0.159 NA
ATOM     12  C   UNL     1      45.737 124.037  22.888  1.00  0.00     0.301 A 
ATOM     13  C   UNL     1      44.871 126.663  22.833  1.00  0.00     0.094 A 
ATOM     14  C   UNL     1      44.397 124.305  22.559  1.00  0.00     0.119 A 
ATOM     15  C   UNL     1      43.967 125.638  22.538  1.00  0.00     0.064 A 
ATOM     16  O   UNL     1      46.146 122.844  22.900  1.00  0.00    -0.265 OA
BRANCH  13  17
ATOM     17  C   UNL     1      44.467 128.090  22.831  1.00  0.00     0.003 A 
ATOM     18  C   UNL     1      45.118 129.003  21.957  1.00  0.00     0.012 A 
ATOM     19  C   UNL     1      43.423 128.558  23.667  1.00  0.00     0.020 A 
ATOM     20  C   UNL     1      44.749 130.360  21.922  1.00  0.00     0.027 A 
ATOM     21  C   UNL     1      43.085 129.908  23.606  1.00  0.00     0.000 A 
ATOM     22  C   UNL     1      43.724 130.777  22.766  1.00  0.00     0.045 A 
ATOM     23  C   UNL     1      42.126 130.623  24.289  1.00  0.00     0.028 A 
ATOM     24  N   UNL     1      43.217 132.016  22.884  1.00  0.00    -0.361 N 
ATOM     25  C   UNL     1      42.239 131.926  23.814  1.00  0.00     0.083 A 
ATOM     26  H   UNL     1      43.512 132.872  22.364  1.00  0.00     0.166 HD
ENDBRANCH  13  17
BRANCH  14  27
ATOM     27  N   UNL     1      43.492 123.222  22.255  1.00  0.00    -0.319 N 
ATOM     28  H   UNL     1      43.557 122.327  22.789  1.00  0.00     0.181 HD
BRANCH  27  29
ATOM     29  N   UNL     1      42.509 123.304  21.254  1.00  0.00    -0.250 NA
ATOM     30  H   UNL     1      41.666 123.766  21.665  1.00  0.00     0.143 HD
ATOM     31  H   UNL     1      42.258 122.332  20.968  1.00  0.00     0.143 HD
ENDBRANCH  27  29
ENDBRANCH  14  27
ENDBRANCH   8  10
ENDBRANCH   1   8
TORSDOF 8
ENDMDL
MODEL 6
REMARK VINA RESULT:      -4.0      2.327      7.206
REMARK SMILES CC(C)C[C@H](C)OC(=O)n1nc(-c2ccc3[nH]ccc3c2)cc(NN)c1=O
REMARK SMILES IDX 7 1 5 2 6 3 4 4 2 5 1 6 3 7 8 8 9 9 10 10 11 11 26 12 12 13
REMARK SMILES IDX 23 14 22 15 27 16 13 17 14 18 21 19 15 20 20 21 16 22 19 23
REMARK SMILES IDX 17 24 18 25 24 27 25 29
REMARK H PARENT 17 26 24 28 25 30 25 31
ROOT
ATOM      1  O   UNL     1      44.947 131.248  17.647  1.00  0.00    -0.445 OA
ENDROOT
BRANCH   1   2
ATOM      2  C   UNL     1      44.247 130.657  16.553  1.00  0.00     0.175 C 
ATOM      3  C   UNL     1      43.692 131.761  15.646  1.00  0.00     0.053 C 
BRANCH   2   4
ATOM      4  C   UNL     1      45.202 129.747  15.751  1.00  0.00     0.048 C 
BRANCH   4   5
ATOM      5  C   UNL     1      46.320 130.475  14.962  1.00  0.00    -0.014 C 
ATOM      6  C   UNL     1      45.808 131.127  13.670  1.00  0.00     0.007 C 
ATOM      7  C   UNL     1      47.537 129.583  14.681  1.00  0.00     0.007 C 
ENDBRANCH   4   5
ENDBRANCH   2   4
ENDBRANCH   1   2
BRANCH   1   8
ATOM      8  C   UNL     1      45.688 130.517  18.586  1.00  0.00     0.438 C 
ATOM      9  O   UNL     1      46.796 130.009  18.255  1.00  0.00    -0.222 OA
BRANCH   8  10
ATOM     10  N   UNL     1      45.180 130.379  19.927  1.00  0.00    -0.124 N 
ATOM     11  N   UNL     1      45.391 129.211  20.539  1.00  0.00    -0.159 NA
ATOM     12  C   UNL     1      44.507 131.386  20.576  1.00  0.00     0.301 A 
ATOM     13  C   UNL     1      44.966 128.950  21.803  1.00  0.00     0.094 A 
ATOM     14  C   UNL     1      44.030 131.182  21.883  1.00  0.00     0.119 A 
ATOM     15  C   UNL     1      44.264 129.943  22.494  1.00  0.00     0.064 A 
ATOM     16  O   UNL     1      44.316 132.499  20.014  1.00  0.00    -0.265 OA
BRANCH  13  17
ATOM     17  C   UNL     1      45.237 127.620  22.401  1.00  0.00     0.003 A 
ATOM     18  C   UNL     1      44.406 127.139  23.449  1.00  0.00     0.012 A 
ATOM     19  C   UNL     1      46.296 126.807  21.929  1.00  0.00     0.020 A 
ATOM     20  C   UNL     1      44.630 125.877  24.028  1.00  0.00     0.027 A 
ATOM     21  C   UNL     1      46.488 125.563  22.526  1.00  0.00     0.000 A 
ATOM     22  C   UNL     1      45.686 125.114  23.539  1.00  0.00     0.045 A 
ATOM     23  C   UNL     1      47.418 124.579  22.271  1.00  0.00     0.028 A 
ATOM     24  N   UNL     1      46.064 123.890  23.942  1.00  0.00    -0.361 N 
ATOM     25  C   UNL     1      47.124 123.559  23.169  1.00  0.00     0.083 A 
ATOM     26  H   UNL     1      45.631 123.310  24.695  1.00  0.00     0.166 HD
ENDBRANCH  13  17
BRANCH  14  27
ATOM     27  N   UNL     1      43.312 132.230  22.569  1.00  0.00    -0.319 N 
ATOM     28  H   UNL     1      43.841 132.999  23.036  1.00  0.00     0.181 HD
BRANCH  27  29
ATOM     29  N   UNL     1      41.910 132.271  22.651  1.00  0.00    -0.250 NA
ATOM     30  H   UNL     1      41.585 131.379  23.090  1.00  0.00     0.143 HD
ATOM     31  H   UNL     1      41.531 132.329  21.679  1.00  0.00     0.143 HD
ENDBRANCH  27  29
ENDBRANCH  14  27
ENDBRANCH   8  10
ENDBRANCH   1   8
TORSDOF 8
ENDMDL
MODEL 7
REMARK VINA RESULT:      -3.9      2.379      7.332
REMARK SMILES CC(C)C[C@H](C)OC(=O)n1nc(-c2ccc3[nH]ccc3c2)cc(NN)c1=O
REMARK SMILES IDX 7 1 5 2 6 3 4 4 2 5 1 6 3 7 8 8 9 9 10 10 11 11 26 12 12 13
REMARK SMILES IDX 23 14 22 15 27 16 13 17 14 18 21 19 15 20 20 21 16 22 19 23
REMARK SMILES IDX 17 24 18 25 24 27 25 29
REMARK H PARENT 17 26 24 28 25 30 25 31
ROOT
ATOM      1  O   UNL     1      44.864 130.336  17.726  1.00  0.00    -0.445 OA
ENDROOT
BRANCH   1   2
ATOM      2  C   UNL     1      45.839 129.955  16.756  1.00  0.00     0.175 C 
ATOM      3  C   UNL     1      45.188 129.044  15.709  1.00  0.00     0.053 C 
BRANCH   2   4
ATOM      4  C   UNL     1      46.417 131.213  16.073  1.00  0.00     0.048 C 
BRANCH   4   5
ATOM      5  C   UNL     1      45.786 131.587  14.708  1.00  0.00    -0.014 C 
ATOM      6  C   UNL     1      44.267 131.372  14.676  1.00  0.00     0.007 C 
ATOM      7  C   UNL     1      46.465 130.892  13.520  1.00  0.00     0.007 C 
ENDBRANCH   4   5
ENDBRANCH   2   4
ENDBRANCH   1   2
BRANCH   1   8
ATOM      8  C   UNL     1      45.143 131.145  18.836  1.00  0.00     0.438 C 
ATOM      9  O   UNL     1      45.822 132.200  18.692  1.00  0.00    -0.222 OA
BRANCH   8  10
ATOM     10  N   UNL     1      44.626 130.767  20.128  1.00  0.00    -0.124 N 
ATOM     11  N   UNL     1      45.037 129.599  20.628  1.00  0.00    -0.159 NA
ATOM     12  C   UNL     1      43.750 131.552  20.838  1.00  0.00     0.301 A 
ATOM     13  C   UNL     1      44.628 129.126  21.834  1.00  0.00     0.094 A 
ATOM     14  C   UNL     1      43.277 131.120  22.089  1.00  0.00     0.119 A 
ATOM     15  C   UNL     1      43.725 129.888  22.583  1.00  0.00     0.064 A 
ATOM     16  O   UNL     1      43.368 132.665  20.382  1.00  0.00    -0.265 OA
BRANCH  13  17
ATOM     17  C   UNL     1      45.129 127.813  22.308  1.00  0.00     0.003 A 
ATOM     18  C   UNL     1      46.348 127.298  21.791  1.00  0.00     0.012 A 
ATOM     19  C   UNL     1      44.425 127.071  23.290  1.00  0.00     0.020 A 
ATOM     20  C   UNL     1      46.856 126.062  22.229  1.00  0.00     0.027 A 
ATOM     21  C   UNL     1      44.958 125.851  23.700  1.00  0.00     0.000 A 
ATOM     22  C   UNL     1      46.129 125.363  23.188  1.00  0.00     0.045 A 
ATOM     23  C   UNL     1      44.500 124.938  24.624  1.00  0.00     0.028 A 
ATOM     24  N   UNL     1      46.436 124.180  23.744  1.00  0.00    -0.361 N 
ATOM     25  C   UNL     1      45.442 123.916  24.622  1.00  0.00     0.083 A 
ATOM     26  H   UNL     1      47.271 123.584  23.543  1.00  0.00     0.166 HD
ENDBRANCH  13  17
BRANCH  14  27
ATOM     27  N   UNL     1      42.349 131.933  22.838  1.00  0.00    -0.319 N 
ATOM     28  H   UNL     1      42.219 132.938  22.584  1.00  0.00     0.181 HD
BRANCH  27  29
ATOM     29  N   UNL     1      41.598 131.439  23.918  1.00  0.00    -0.250 NA
ATOM     30  H   UNL     1      41.920 130.465  24.118  1.00  0.00     0.143 HD
ATOM     31  H   UNL     1      40.594 131.413  23.629  1.00  0.00     0.143 HD
ENDBRANCH  27  29
ENDBRANCH  14  27
ENDBRANCH   8  10
ENDBRANCH   1   8
TORSDOF 8
ENDMDL
MODEL 8
REMARK VINA RESULT:      -3.9      2.394      7.030
REMARK SMILES CC(C)C[C@H](C)OC(=O)n1nc(-c2ccc3[nH]ccc3c2)cc(NN)c1=O
REMARK SMILES IDX 7 1 5 2 6 3 4 4 2 5 1 6 3 7 8 8 9 9 10 10 11 11 26 12 12 13
REMARK SMILES IDX 23 14 22 15 27 16 13 17 14 18 21 19 15 20 20 21 16 22 19 23
REMARK SMILES IDX 17 24 18 25 24 27 25 29
REMARK H PARENT 17 26 24 28 25 30 25 31
ROOT
ATOM      1  O   UNL     1      45.592 131.589  18.630  1.00  0.00    -0.445 OA
ENDROOT
BRANCH   1   2
ATOM      2  C   UNL     1      46.118 130.971  17.456  1.00  0.00     0.175 C 
ATOM      3  C   UNL     1      45.520 129.567  17.307  1.00  0.00     0.053 C 
BRANCH   2   4
ATOM      4  C   UNL     1      45.773 131.825  16.216  1.00  0.00     0.048 C 
BRANCH   4   5
ATOM      5  C   UNL     1      45.414 131.032  14.933  1.00  0.00    -0.014 C 
ATOM      6  C   UNL     1      46.550 131.025  13.901  1.00  0.00     0.007 C 
ATOM      7  C   UNL     1      44.094 131.486  14.295  1.00  0.00     0.007 C 
ENDBRANCH   4   5
ENDBRANCH   2   4
ENDBRANCH   1   2
BRANCH   1   8
ATOM      8  C   UNL     1      44.379 131.223  19.228  1.00  0.00     0.438 C 
ATOM      9  O   UNL     1      43.308 131.271  18.561  1.00  0.00    -0.222 OA
BRANCH   8  10
ATOM     10  N   UNL     1      44.380 130.771  20.597  1.00  0.00    -0.124 N 
ATOM     11  N   UNL     1      44.753 129.508  20.819  1.00  0.00    -0.159 NA
ATOM     12  C   UNL     1      44.020 131.580  21.648  1.00  0.00     0.301 A 
ATOM     13  C   UNL     1      44.800 128.958  22.061  1.00  0.00     0.094 A 
ATOM     14  C   UNL     1      44.034 131.073  22.959  1.00  0.00     0.119 A 
ATOM     15  C   UNL     1      44.427 129.743  23.158  1.00  0.00     0.064 A 
ATOM     16  O   UNL     1      43.680 132.779  21.451  1.00  0.00    -0.265 OA
BRANCH  13  17
ATOM     17  C   UNL     1      45.218 127.544  22.214  1.00  0.00     0.003 A 
ATOM     18  C   UNL     1      44.253 126.558  22.557  1.00  0.00     0.012 A 
ATOM     19  C   UNL     1      46.563 127.151  21.999  1.00  0.00     0.020 A 
ATOM     20  C   UNL     1      44.617 125.207  22.697  1.00  0.00     0.027 A 
ATOM     21  C   UNL     1      46.886 125.804  22.147  1.00  0.00     0.000 A 
ATOM     22  C   UNL     1      45.949 124.866  22.485  1.00  0.00     0.045 A 
ATOM     23  C   UNL     1      48.089 125.149  21.998  1.00  0.00     0.028 A 
ATOM     24  N   UNL     1      46.501 123.644  22.559  1.00  0.00    -0.361 N 
ATOM     25  C   UNL     1      47.810 123.812  22.262  1.00  0.00     0.083 A 
ATOM     26  H   UNL     1      46.022 122.747  22.795  1.00  0.00     0.166 HD
ENDBRANCH  13  17
BRANCH  14  27
ATOM     27  N   UNL     1      43.648 131.911  24.069  1.00  0.00    -0.319 N 
ATOM     28  H   UNL     1      44.360 132.519  24.531  1.00  0.00     0.181 HD
BRANCH  27  29
ATOM     29  N   UNL     1      42.338 131.951  24.579  1.00  0.00    -0.250 NA
ATOM     30  H   UNL     1      42.383 132.317  25.557  1.00  0.00     0.143 HD
ATOM     31  H   UNL     1      41.970 130.974  24.598  1.00  0.00     0.143 HD
ENDBRANCH  27  29
ENDBRANCH  14  27
ENDBRANCH   8  10
ENDBRANCH   1   8
TORSDOF 8
ENDMDL
MODEL 9
REMARK VINA RESULT:      -3.8      3.632      4.733
REMARK SMILES CC(C)C[C@H](C)OC(=O)n1nc(-c2ccc3[nH]ccc3c2)cc(NN)c1=O
REMARK SMILES IDX 7 1 5 2 6 3 4 4 2 5 1 6 3 7 8 8 9 9 10 10 11 11 26 12 12 13
REMARK SMILES IDX 23 14 22 15 27 16 13 17 14 18 21 19 15 20 20 21 16 22 19 23
REMARK SMILES IDX 17 24 18 25 24 27 25 29
REMARK H PARENT 17 26 24 28 25 30 25 31
ROOT
ATOM      1  O   UNL     1      47.119 132.319  21.321  1.00  0.00    -0.445 OA
ENDROOT
BRANCH   1   2
ATOM      2  C   UNL     1      47.576 133.641  21.600  1.00  0.00     0.175 C 
ATOM      3  C   UNL     1      46.555 134.656  21.074  1.00  0.00     0.053 C 
BRANCH   2   4
ATOM      4  C   UNL     1      47.761 133.821  23.123  1.00  0.00     0.048 C 
BRANCH   4   5
ATOM      5  C   UNL     1      49.187 134.215  23.585  1.00  0.00    -0.014 C 
ATOM      6  C   UNL     1      49.873 135.197  22.627  1.00  0.00     0.007 C 
ATOM      7  C   UNL     1      50.085 133.002  23.865  1.00  0.00     0.007 C 
ENDBRANCH   4   5
ENDBRANCH   2   4
ENDBRANCH   1   2
BRANCH   1   8
ATOM      8  C   UNL     1      45.787 131.907  21.464  1.00  0.00     0.438 C 
ATOM      9  O   UNL     1      45.335 131.626  22.609  1.00  0.00    -0.222 OA
BRANCH   8  10
ATOM     10  N   UNL     1      44.945 131.835  20.296  1.00  0.00    -0.124 N 
ATOM     11  N   UNL     1      45.553 131.649  19.121  1.00  0.00    -0.159 NA
ATOM     12  C   UNL     1      43.577 131.947  20.356  1.00  0.00     0.301 A 
ATOM     13  C   UNL     1      44.877 131.561  17.945  1.00  0.00     0.094 A 
ATOM     14  C   UNL     1      42.816 131.876  19.177  1.00  0.00     0.119 A 
ATOM     15  C   UNL     1      43.484 131.684  17.960  1.00  0.00     0.064 A 
ATOM     16  O   UNL     1      42.993 132.107  21.462  1.00  0.00    -0.265 OA
BRANCH  13  17
ATOM     17  C   UNL     1      45.634 131.362  16.685  1.00  0.00     0.003 A 
ATOM     18  C   UNL     1      45.788 132.447  15.780  1.00  0.00     0.012 A 
ATOM     19  C   UNL     1      46.231 130.114  16.378  1.00  0.00     0.020 A 
ATOM     20  C   UNL     1      46.510 132.294  14.583  1.00  0.00     0.027 A 
ATOM     21  C   UNL     1      46.938 130.000  15.184  1.00  0.00     0.000 A 
ATOM     22  C   UNL     1      47.073 131.049  14.318  1.00  0.00     0.045 A 
ATOM     23  C   UNL     1      47.613 128.928  14.642  1.00  0.00     0.028 A 
ATOM     24  N   UNL     1      47.801 130.694  13.246  1.00  0.00    -0.361 N 
ATOM     25  C   UNL     1      48.133 129.397  13.440  1.00  0.00     0.083 A 
ATOM     26  H   UNL     1      48.061 131.293  12.431  1.00  0.00     0.166 HD
ENDBRANCH  13  17
BRANCH  14  27
ATOM     27  N   UNL     1      41.379 132.003  19.228  1.00  0.00    -0.319 N 
ATOM     28  H   UNL     1      40.782 131.367  18.654  1.00  0.00     0.181 HD
BRANCH  27  29
ATOM     29  N   UNL     1      40.723 132.961  20.020  1.00  0.00    -0.250 NA
ATOM     30  H   UNL     1      41.059 133.907  19.728  1.00  0.00     0.143 HD
ATOM     31  H   UNL     1      40.993 132.797  21.016  1.00  0.00     0.143 HD
ENDBRANCH  27  29
ENDBRANCH  14  27
ENDBRANCH   8  10
ENDBRANCH   1   8
TORSDOF 8
ENDMDL


