REMARK SMILES C#Cc1c[nH+]cc(Nc2cc(C=C)cc(-c3ccc4ccnc(O)c4c3)c2O)c1
REMARK SMILES IDX 9 1 10 2 11 3 14 4 15 5 27 6 8 7 7 9 3 10 4 11 29 12 5 13
REMARK SMILES IDX 6 14 2 16 1 17 28 18 12 20 13 21 16 22 17 23 26 24 18 25
REMARK SMILES IDX 25 26 19 27 23 28 20 29 22 30 21 31 24 32
REMARK H PARENT 8 8 5 15 28 19 24 33
ROOT
ATOM      1  C   UNL     1       1.383  -1.100   0.423  1.00  0.00     0.082 A 
ATOM      2  C   UNL     1       2.282  -1.289   1.480  1.00  0.00     0.038 A 
ATOM      3  C   UNL     1       2.520  -0.266   2.414  1.00  0.00    -0.023 A 
ATOM      4  C   UNL     1       1.872   0.966   2.251  1.00  0.00     0.020 A 
ATOM      5  C   UNL     1       0.994   1.187   1.177  1.00  0.00     0.026 A 
ATOM      6  C   UNL     1       0.750   0.150   0.254  1.00  0.00     0.146 A 
ENDROOT
BRANCH   1   7
ATOM      7  N   UNL     1       1.142  -2.187  -0.481  1.00  0.00    -0.348 N 
ATOM      8  H   UNL     1       1.974  -2.628  -0.934  1.00  0.00     0.167 HD
BRANCH   7   9
ATOM      9  C   UNL     1      -0.141  -2.819  -0.644  1.00  0.00     0.105 A 
ATOM     10  C   UNL     1      -1.566  -4.377  -1.840  1.00  0.00     0.090 A 
ATOM     11  C   UNL     1      -2.611  -4.066  -0.966  1.00  0.00     0.323 A 
ATOM     12  C   UNL     1      -0.327  -3.752  -1.673  1.00  0.00     0.056 A 
ATOM     13  N   UNL     1      -2.418  -3.166   0.036  1.00  0.00    -0.215 N 
ATOM     14  C   UNL     1      -1.220  -2.546   0.217  1.00  0.00     0.332 A 
ATOM     15  H   UNL     1      -3.207  -2.949   0.685  1.00  0.00     0.453 HD
BRANCH  10  16
ATOM     16  C   UNL     1      -1.764  -5.331  -2.900  1.00  0.00    -0.064 C 
ATOM     17  C   UNL     1      -1.929  -6.129  -3.788  1.00  0.00     0.010 C 
ENDBRANCH  10  16
ENDBRANCH   7   9
ENDBRANCH   1   7
BRANCH   6  18
ATOM     18  O   UNL     1      -0.116   0.379  -0.819  1.00  0.00    -0.505 OA
ATOM     19  H   UNL     1      -0.268  -0.297  -1.556  1.00  0.00     0.293 HD
ENDBRANCH   6  18
BRANCH   3  20
ATOM     20  C   UNL     1       3.457  -0.428   3.555  1.00  0.00     0.000 C 
ATOM     21  C   UNL     1       3.866  -1.605   4.028  1.00  0.00     0.009 C 
ENDBRANCH   3  20
BRANCH   5  22
ATOM     22  C   UNL     1       0.345   2.512   1.030  1.00  0.00    -0.014 A 
ATOM     23  C   UNL     1      -0.340   3.084   2.114  1.00  0.00     0.009 A 
ATOM     24  C   UNL     1       0.428   3.217  -0.183  1.00  0.00     0.023 A 
ATOM     25  C   UNL     1      -0.949   4.335   1.989  1.00  0.00     0.009 A 
ATOM     26  C   UNL     1      -0.182   4.476  -0.319  1.00  0.00     0.044 A 
ATOM     27  C   UNL     1      -0.877   5.037   0.778  1.00  0.00    -0.011 A 
ATOM     28  C   UNL     1      -0.119   5.200  -1.524  1.00  0.00     0.218 A 
ATOM     29  C   UNL     1      -1.484   6.291   0.643  1.00  0.00     0.029 A 
ATOM     30  N   UNL     1      -0.722   6.417  -1.616  1.00  0.00    -0.222 NA
ATOM     31  C   UNL     1      -1.394   6.970  -0.573  1.00  0.00     0.116 A 
BRANCH  28  32
ATOM     32  O   UNL     1       0.555   4.685  -2.629  1.00  0.00    -0.493 OA
ATOM     33  H   UNL     1       0.603   5.204  -3.498  1.00  0.00     0.295 HD
ENDBRANCH  28  32
ENDBRANCH   5  22
TORSDOF 7


