MODEL 1
REMARK VINA RESULT:      -9.9      0.000      0.000
REMARK SMILES Nc1cc(O)c(F)cc1Nc1ccc2cc[nH]c2c1
REMARK SMILES IDX 2 1 3 2 4 3 6 4 7 5 8 6 9 7 1 8 10 11 11 13 12 14 19 15
REMARK SMILES IDX 13 16 18 17 14 18 17 19 15 20 16 21 5 23
REMARK H PARENT 1 9 1 10 10 12 17 22 5 24
ROOT
ATOM      1  C   UNL     1      42.738 132.129  19.219  1.00  0.00     0.059 A 
ATOM      2  C   UNL     1      42.794 132.046  20.619  1.00  0.00     0.077 A 
ATOM      3  C   UNL     1      43.934 131.545  21.258  1.00  0.00     0.153 A 
ATOM      4  C   UNL     1      45.026 131.118  20.497  1.00  0.00     0.167 A 
ATOM      5  F   UNL     1      46.132 130.623  21.107  1.00  0.00    -0.203 F 
ATOM      6  C   UNL     1      44.984 131.203  19.104  1.00  0.00     0.071 A 
ATOM      7  C   UNL     1      43.857 131.727  18.455  1.00  0.00     0.065 A 
ENDROOT
BRANCH   1   8
ATOM      8  N   UNL     1      41.531 132.581  18.592  1.00  0.00    -0.397 N 
ATOM      9  H   UNL     1      41.065 133.459  18.911  1.00  0.00     0.156 HD
ATOM     10  H   UNL     1      41.055 132.025  17.850  1.00  0.00     0.156 HD
ENDBRANCH   1   8
BRANCH   7  11
ATOM     11  N   UNL     1      43.864 131.820  17.023  1.00  0.00    -0.354 N 
ATOM     12  H   UNL     1      43.054 132.298  16.568  1.00  0.00     0.167 HD
BRANCH  11  13
ATOM     13  C   UNL     1      44.817 131.143  16.182  1.00  0.00     0.041 A 
ATOM     14  C   UNL     1      44.923 129.724  16.173  1.00  0.00     0.027 A 
ATOM     15  C   UNL     1      45.645 131.906  15.331  1.00  0.00     0.052 A 
ATOM     16  C   UNL     1      45.855 129.078  15.342  1.00  0.00     0.012 A 
ATOM     17  C   UNL     1      46.557 131.234  14.520  1.00  0.00     0.047 A 
ATOM     18  C   UNL     1      46.658 129.870  14.527  1.00  0.00    -0.001 A 
ATOM     19  N   UNL     1      47.430 131.773  13.653  1.00  0.00    -0.361 N 
ATOM     20  C   UNL     1      47.639 129.524  13.624  1.00  0.00     0.028 A 
ATOM     21  C   UNL     1      48.095 130.730  13.103  1.00  0.00     0.083 A 
ATOM     22  H   UNL     1      47.571 132.786  13.443  1.00  0.00     0.166 HD
ENDBRANCH  11  13
ENDBRANCH   7  11
BRANCH   3  23
ATOM     23  O   UNL     1      43.989 131.461  22.648  1.00  0.00    -0.505 OA
ATOM     24  H   UNL     1      44.446 132.175  23.204  1.00  0.00     0.293 HD
ENDBRANCH   3  23
TORSDOF 4
ENDMDL
MODEL 2
REMARK VINA RESULT:      -9.6      2.243      2.790
REMARK SMILES Nc1cc(O)c(F)cc1Nc1ccc2cc[nH]c2c1
REMARK SMILES IDX 2 1 3 2 4 3 6 4 7 5 8 6 9 7 1 8 10 11 11 13 12 14 19 15
REMARK SMILES IDX 13 16 18 17 14 18 17 19 15 20 16 21 5 23
REMARK H PARENT 1 9 1 10 10 12 17 22 5 24
ROOT
ATOM      1  C   UNL     1      44.499 131.312  20.401  1.00  0.00     0.059 A 
ATOM      2  C   UNL     1      43.425 131.993  20.995  1.00  0.00     0.077 A 
ATOM      3  C   UNL     1      42.360 132.461  20.215  1.00  0.00     0.153 A 
ATOM      4  C   UNL     1      42.366 132.253  18.833  1.00  0.00     0.167 A 
ATOM      5  F   UNL     1      41.343 132.710  18.070  1.00  0.00    -0.203 F 
ATOM      6  C   UNL     1      43.426 131.569  18.233  1.00  0.00     0.071 A 
ATOM      7  C   UNL     1      44.485 131.074  19.008  1.00  0.00     0.065 A 
ENDROOT
BRANCH   1   8
ATOM      8  N   UNL     1      45.607 130.907  21.215  1.00  0.00    -0.397 N 
ATOM      9  H   UNL     1      46.567 131.269  21.022  1.00  0.00     0.156 HD
ATOM     10  H   UNL     1      45.502 130.201  21.976  1.00  0.00     0.156 HD
ENDBRANCH   1   8
BRANCH   7  11
ATOM     11  N   UNL     1      45.542 130.356  18.355  1.00  0.00    -0.354 N 
ATOM     12  H   UNL     1      46.112 129.703  18.939  1.00  0.00     0.167 HD
BRANCH  11  13
ATOM     13  C   UNL     1      45.974 130.617  17.007  1.00  0.00     0.041 A 
ATOM     14  C   UNL     1      45.715 131.865  16.372  1.00  0.00     0.027 A 
ATOM     15  C   UNL     1      46.689 129.619  16.309  1.00  0.00     0.052 A 
ATOM     16  C   UNL     1      46.148 132.105  15.056  1.00  0.00     0.012 A 
ATOM     17  C   UNL     1      47.103 129.891  15.007  1.00  0.00     0.047 A 
ATOM     18  C   UNL     1      46.840 131.091  14.404  1.00  0.00    -0.001 A 
ATOM     19  N   UNL     1      47.784 129.080  14.181  1.00  0.00    -0.361 N 
ATOM     20  C   UNL     1      47.378 131.042  13.136  1.00  0.00     0.028 A 
ATOM     21  C   UNL     1      47.954 129.779  13.035  1.00  0.00     0.083 A 
ATOM     22  H   UNL     1      48.115 128.109  14.378  1.00  0.00     0.166 HD
ENDBRANCH  11  13
ENDBRANCH   7  11
BRANCH   3  23
ATOM     23  O   UNL     1      41.294 133.139  20.805  1.00  0.00    -0.505 OA
ATOM     24  H   UNL     1      41.443 133.834  21.527  1.00  0.00     0.293 HD
ENDBRANCH   3  23
TORSDOF 4
ENDMDL
MODEL 3
REMARK VINA RESULT:      -9.3      3.553      6.528
REMARK SMILES Nc1cc(O)c(F)cc1Nc1ccc2cc[nH]c2c1
REMARK SMILES IDX 2 1 3 2 4 3 6 4 7 5 8 6 9 7 1 8 10 11 11 13 12 14 19 15
REMARK SMILES IDX 13 16 18 17 14 18 17 19 15 20 16 21 5 23
REMARK H PARENT 1 9 1 10 10 12 17 22 5 24
ROOT
ATOM      1  C   UNL     1      45.819 129.537  15.178  1.00  0.00     0.059 A 
ATOM      2  C   UNL     1      46.964 128.958  14.609  1.00  0.00     0.077 A 
ATOM      3  C   UNL     1      47.809 129.712  13.785  1.00  0.00     0.153 A 
ATOM      4  C   UNL     1      47.510 131.052  13.523  1.00  0.00     0.167 A 
ATOM      5  F   UNL     1      48.318 131.787  12.720  1.00  0.00    -0.203 F 
ATOM      6  C   UNL     1      46.377 131.640  14.090  1.00  0.00     0.071 A 
ATOM      7  C   UNL     1      45.538 130.901  14.936  1.00  0.00     0.065 A 
ENDROOT
BRANCH   1   8
ATOM      8  N   UNL     1      44.936 128.722  15.959  1.00  0.00    -0.397 N 
ATOM      9  H   UNL     1      44.100 129.140  16.424  1.00  0.00     0.156 HD
ATOM     10  H   UNL     1      45.132 127.713  16.136  1.00  0.00     0.156 HD
ENDBRANCH   1   8
BRANCH   7  11
ATOM     11  N   UNL     1      44.398 131.550  15.519  1.00  0.00    -0.354 N 
ATOM     12  H   UNL     1      43.801 132.131  14.888  1.00  0.00     0.167 HD
BRANCH  11  13
ATOM     13  C   UNL     1      44.139 131.595  16.934  1.00  0.00     0.041 A 
ATOM     14  C   UNL     1      42.831 131.832  17.443  1.00  0.00     0.027 A 
ATOM     15  C   UNL     1      45.205 131.376  17.835  1.00  0.00     0.052 A 
ATOM     16  C   UNL     1      42.595 131.868  18.828  1.00  0.00     0.012 A 
ATOM     17  C   UNL     1      44.935 131.418  19.200  1.00  0.00     0.047 A 
ATOM     18  C   UNL     1      43.675 131.657  19.679  1.00  0.00    -0.001 A 
ATOM     19  N   UNL     1      45.803 131.243  20.210  1.00  0.00    -0.361 N 
ATOM     20  C   UNL     1      43.744 131.632  21.054  1.00  0.00     0.028 A 
ATOM     21  C   UNL     1      45.080 131.373  21.346  1.00  0.00     0.083 A 
ATOM     22  H   UNL     1      46.826 131.046  20.138  1.00  0.00     0.166 HD
ENDBRANCH  11  13
ENDBRANCH   7  11
BRANCH   3  23
ATOM     23  O   UNL     1      48.945 129.137  13.219  1.00  0.00    -0.505 OA
ATOM     24  H   UNL     1      48.932 128.751  12.282  1.00  0.00     0.293 HD
ENDBRANCH   3  23
TORSDOF 4
ENDMDL
MODEL 4
REMARK VINA RESULT:      -9.1      3.476      6.755
REMARK SMILES Nc1cc(O)c(F)cc1Nc1ccc2cc[nH]c2c1
REMARK SMILES IDX 2 1 3 2 4 3 6 4 7 5 8 6 9 7 1 8 10 11 11 13 12 14 19 15
REMARK SMILES IDX 13 16 18 17 14 18 17 19 15 20 16 21 5 23
REMARK H PARENT 1 9 1 10 10 12 17 22 5 24
ROOT
ATOM      1  C   UNL     1      45.972 129.358  14.998  1.00  0.00     0.059 A 
ATOM      2  C   UNL     1      47.135 128.858  14.391  1.00  0.00     0.077 A 
ATOM      3  C   UNL     1      47.964 129.699  13.639  1.00  0.00     0.153 A 
ATOM      4  C   UNL     1      47.631 131.048  13.485  1.00  0.00     0.167 A 
ATOM      5  F   UNL     1      48.424 131.867  12.751  1.00  0.00    -0.203 F 
ATOM      6  C   UNL     1      46.480 131.557  14.091  1.00  0.00     0.071 A 
ATOM      7  C   UNL     1      45.657 130.730  14.867  1.00  0.00     0.065 A 
ENDROOT
BRANCH   1   8
ATOM      8  N   UNL     1      45.108 128.459  15.703  1.00  0.00    -0.397 N 
ATOM      9  H   UNL     1      44.228 128.111  15.260  1.00  0.00     0.156 HD
ATOM     10  H   UNL     1      45.296 128.175  16.689  1.00  0.00     0.156 HD
ENDBRANCH   1   8
BRANCH   7  11
ATOM     11  N   UNL     1      44.497 131.299  15.493  1.00  0.00    -0.354 N 
ATOM     12  H   UNL     1      43.795 131.763  14.873  1.00  0.00     0.167 HD
BRANCH  11  13
ATOM     13  C   UNL     1      44.338 131.427  16.918  1.00  0.00     0.041 A 
ATOM     14  C   UNL     1      45.406 131.137  17.814  1.00  0.00     0.027 A 
ATOM     15  C   UNL     1      43.101 131.872  17.434  1.00  0.00     0.052 A 
ATOM     16  C   UNL     1      45.235 131.271  19.203  1.00  0.00     0.012 A 
ATOM     17  C   UNL     1      42.967 131.995  18.815  1.00  0.00     0.047 A 
ATOM     18  C   UNL     1      43.997 131.703  19.667  1.00  0.00    -0.001 A 
ATOM     19  N   UNL     1      41.881 132.392  19.497  1.00  0.00    -0.361 N 
ATOM     20  C   UNL     1      43.547 131.926  20.950  1.00  0.00     0.028 A 
ATOM     21  C   UNL     1      42.230 132.351  20.804  1.00  0.00     0.083 A 
ATOM     22  H   UNL     1      40.955 132.676  19.105  1.00  0.00     0.166 HD
ENDBRANCH  11  13
ENDBRANCH   7  11
BRANCH   3  23
ATOM     23  O   UNL     1      49.118 129.202  13.036  1.00  0.00    -0.505 OA
ATOM     24  H   UNL     1      49.218 128.218  12.814  1.00  0.00     0.293 HD
ENDBRANCH   3  23
TORSDOF 4
ENDMDL
MODEL 5
REMARK VINA RESULT:      -8.9      3.381      6.727
REMARK SMILES Nc1cc(O)c(F)cc1Nc1ccc2cc[nH]c2c1
REMARK SMILES IDX 2 1 3 2 4 3 6 4 7 5 8 6 9 7 1 8 10 11 11 13 12 14 19 15
REMARK SMILES IDX 13 16 18 17 14 18 17 19 15 20 16 21 5 23
REMARK H PARENT 1 9 1 10 10 12 17 22 5 24
ROOT
ATOM      1  C   UNL     1      45.652 129.614  15.535  1.00  0.00     0.059 A 
ATOM      2  C   UNL     1      46.632 129.060  14.696  1.00  0.00     0.077 A 
ATOM      3  C   UNL     1      47.455 129.886  13.921  1.00  0.00     0.153 A 
ATOM      4  C   UNL     1      47.299 131.273  13.978  1.00  0.00     0.167 A 
ATOM      5  F   UNL     1      48.087 132.080  13.224  1.00  0.00    -0.203 F 
ATOM      6  C   UNL     1      46.333 131.835  14.815  1.00  0.00     0.071 A 
ATOM      7  C   UNL     1      45.520 131.019  15.614  1.00  0.00     0.065 A 
ENDROOT
BRANCH   1   8
ATOM      8  N   UNL     1      44.779 128.741  16.263  1.00  0.00    -0.397 N 
ATOM      9  H   UNL     1      43.763 128.965  16.358  1.00  0.00     0.156 HD
ATOM     10  H   UNL     1      45.135 127.899  16.764  1.00  0.00     0.156 HD
ENDBRANCH   1   8
BRANCH   7  11
ATOM     11  N   UNL     1      44.556 131.637  16.479  1.00  0.00    -0.354 N 
ATOM     12  H   UNL     1      43.898 132.327  16.050  1.00  0.00     0.167 HD
BRANCH  11  13
ATOM     13  C   UNL     1      44.563 131.501  17.912  1.00  0.00     0.041 A 
ATOM     14  C   UNL     1      45.714 131.035  18.608  1.00  0.00     0.027 A 
ATOM     15  C   UNL     1      43.409 131.860  18.642  1.00  0.00     0.052 A 
ATOM     16  C   UNL     1      45.705 130.913  20.009  1.00  0.00     0.012 A 
ATOM     17  C   UNL     1      43.435 131.727  20.028  1.00  0.00     0.047 A 
ATOM     18  C   UNL     1      44.544 131.269  20.687  1.00  0.00    -0.001 A 
ATOM     19  N   UNL     1      42.448 132.007  20.894  1.00  0.00    -0.361 N 
ATOM     20  C   UNL     1      44.249 131.257  22.032  1.00  0.00     0.028 A 
ATOM     21  C   UNL     1      42.941 131.720  22.121  1.00  0.00     0.083 A 
ATOM     22  H   UNL     1      41.494 132.371  20.671  1.00  0.00     0.166 HD
ENDBRANCH  11  13
ENDBRANCH   7  11
BRANCH   3  23
ATOM     23  O   UNL     1      48.427 129.336  13.087  1.00  0.00    -0.505 OA
ATOM     24  H   UNL     1      48.245 128.502  12.539  1.00  0.00     0.293 HD
ENDBRANCH   3  23
TORSDOF 4
ENDMDL
MODEL 6
REMARK VINA RESULT:      -8.9      1.017      1.354
REMARK SMILES Nc1cc(O)c(F)cc1Nc1ccc2cc[nH]c2c1
REMARK SMILES IDX 2 1 3 2 4 3 6 4 7 5 8 6 9 7 1 8 10 11 11 13 12 14 19 15
REMARK SMILES IDX 13 16 18 17 14 18 17 19 15 20 16 21 5 23
REMARK H PARENT 1 9 1 10 10 12 17 22 5 24
ROOT
ATOM      1  C   UNL     1      42.795 131.975  19.411  1.00  0.00     0.059 A 
ATOM      2  C   UNL     1      43.135 131.940  20.772  1.00  0.00     0.077 A 
ATOM      3  C   UNL     1      44.420 131.556  21.176  1.00  0.00     0.153 A 
ATOM      4  C   UNL     1      45.372 131.200  20.218  1.00  0.00     0.167 A 
ATOM      5  F   UNL     1      46.616 130.818  20.601  1.00  0.00    -0.203 F 
ATOM      6  C   UNL     1      45.047 131.238  18.860  1.00  0.00     0.071 A 
ATOM      7  C   UNL     1      43.772 131.646  18.443  1.00  0.00     0.065 A 
ENDROOT
BRANCH   1   8
ATOM      8  N   UNL     1      41.453 132.305  19.032  1.00  0.00    -0.397 N 
ATOM      9  H   UNL     1      40.702 131.580  19.055  1.00  0.00     0.156 HD
ATOM     10  H   UNL     1      41.200 133.250  18.670  1.00  0.00     0.156 HD
ENDBRANCH   1   8
BRANCH   7  11
ATOM     11  N   UNL     1      43.486 131.695  17.038  1.00  0.00    -0.354 N 
ATOM     12  H   UNL     1      42.497 131.877  16.754  1.00  0.00     0.167 HD
BRANCH  11  13
ATOM     13  C   UNL     1      44.433 131.332  16.016  1.00  0.00     0.041 A 
ATOM     14  C   UNL     1      44.243 131.715  14.657  1.00  0.00     0.027 A 
ATOM     15  C   UNL     1      45.586 130.601  16.375  1.00  0.00     0.052 A 
ATOM     16  C   UNL     1      45.180 131.356  13.672  1.00  0.00     0.012 A 
ATOM     17  C   UNL     1      46.494 130.264  15.374  1.00  0.00     0.047 A 
ATOM     18  C   UNL     1      46.296 130.628  14.070  1.00  0.00    -0.001 A 
ATOM     19  N   UNL     1      47.638 129.572  15.508  1.00  0.00    -0.361 N 
ATOM     20  C   UNL     1      47.361 130.147  13.341  1.00  0.00     0.028 A 
ATOM     21  C   UNL     1      48.172 129.499  14.267  1.00  0.00     0.083 A 
ATOM     22  H   UNL     1      48.036 129.173  16.387  1.00  0.00     0.166 HD
ENDBRANCH  11  13
ENDBRANCH   7  11
BRANCH   3  23
ATOM     23  O   UNL     1      44.756 131.520  22.528  1.00  0.00    -0.505 OA
ATOM     24  H   UNL     1      44.875 132.370  23.067  1.00  0.00     0.293 HD
ENDBRANCH   3  23
TORSDOF 4
ENDMDL
MODEL 7
REMARK VINA RESULT:      -8.4      1.778      2.367
REMARK SMILES Nc1cc(O)c(F)cc1Nc1ccc2cc[nH]c2c1
REMARK SMILES IDX 2 1 3 2 4 3 6 4 7 5 8 6 9 7 1 8 10 11 11 13 12 14 19 15
REMARK SMILES IDX 13 16 18 17 14 18 17 19 15 20 16 21 5 23
REMARK H PARENT 1 9 1 10 10 12 17 22 5 24
ROOT
ATOM      1  C   UNL     1      43.101 131.840  18.156  1.00  0.00     0.059 A 
ATOM      2  C   UNL     1      42.019 132.531  18.724  1.00  0.00     0.077 A 
ATOM      3  C   UNL     1      41.940 132.716  20.110  1.00  0.00     0.153 A 
ATOM      4  C   UNL     1      42.945 132.205  20.937  1.00  0.00     0.167 A 
ATOM      5  F   UNL     1      42.872 132.372  22.281  1.00  0.00    -0.203 F 
ATOM      6  C   UNL     1      44.029 131.523  20.382  1.00  0.00     0.071 A 
ATOM      7  C   UNL     1      44.131 131.355  18.994  1.00  0.00     0.065 A 
ENDROOT
BRANCH   1   8
ATOM      8  N   UNL     1      43.118 131.607  16.742  1.00  0.00    -0.397 N 
ATOM      9  H   UNL     1      43.514 132.322  16.091  1.00  0.00     0.156 HD
ATOM     10  H   UNL     1      42.687 130.757  16.319  1.00  0.00     0.156 HD
ENDBRANCH   1   8
BRANCH   7  11
ATOM     11  N   UNL     1      45.274 130.670  18.462  1.00  0.00    -0.354 N 
ATOM     12  H   UNL     1      45.839 130.091  19.124  1.00  0.00     0.167 HD
BRANCH  11  13
ATOM     13  C   UNL     1      45.784 130.877  17.131  1.00  0.00     0.041 A 
ATOM     14  C   UNL     1      45.666 132.137  16.479  1.00  0.00     0.027 A 
ATOM     15  C   UNL     1      46.435 129.812  16.471  1.00  0.00     0.052 A 
ATOM     16  C   UNL     1      46.174 132.323  15.181  1.00  0.00     0.012 A 
ATOM     17  C   UNL     1      46.927 130.032  15.187  1.00  0.00     0.047 A 
ATOM     18  C   UNL     1      46.799 131.245  14.565  1.00  0.00    -0.001 A 
ATOM     19  N   UNL     1      47.566 129.155  14.396  1.00  0.00    -0.361 N 
ATOM     20  C   UNL     1      47.383 131.135  13.322  1.00  0.00     0.028 A 
ATOM     21  C   UNL     1      47.847 129.825  13.254  1.00  0.00     0.083 A 
ATOM     22  H   UNL     1      47.800 128.161  14.613  1.00  0.00     0.166 HD
ENDBRANCH  11  13
ENDBRANCH   7  11
BRANCH   3  23
ATOM     23  O   UNL     1      40.865 133.400  20.674  1.00  0.00    -0.505 OA
ATOM     24  H   UNL     1      39.908 133.187  20.417  1.00  0.00     0.293 HD
ENDBRANCH   3  23
TORSDOF 4
ENDMDL
MODEL 8
REMARK VINA RESULT:      -8.2      1.331      1.966
REMARK SMILES Nc1cc(O)c(F)cc1Nc1ccc2cc[nH]c2c1
REMARK SMILES IDX 2 1 3 2 4 3 6 4 7 5 8 6 9 7 1 8 10 11 11 13 12 14 19 15
REMARK SMILES IDX 13 16 18 17 14 18 17 19 15 20 16 21 5 23
REMARK H PARENT 1 9 1 10 10 12 17 22 5 24
ROOT
ATOM      1  C   UNL     1      45.166 131.045  19.489  1.00  0.00     0.059 A 
ATOM      2  C   UNL     1      45.259 130.901  20.882  1.00  0.00     0.077 A 
ATOM      3  C   UNL     1      44.233 131.360  21.716  1.00  0.00     0.153 A 
ATOM      4  C   UNL     1      43.106 131.971  21.159  1.00  0.00     0.167 A 
ATOM      5  F   UNL     1      42.111 132.426  21.960  1.00  0.00    -0.203 F 
ATOM      6  C   UNL     1      42.999 132.113  19.774  1.00  0.00     0.071 A 
ATOM      7  C   UNL     1      44.009 131.634  18.928  1.00  0.00     0.065 A 
ENDROOT
BRANCH   1   8
ATOM      8  N   UNL     1      46.263 130.628  18.667  1.00  0.00    -0.397 N 
ATOM      9  H   UNL     1      47.185 131.115  18.726  1.00  0.00     0.156 HD
ATOM     10  H   UNL     1      46.160 129.877  17.950  1.00  0.00     0.156 HD
ENDBRANCH   1   8
BRANCH   7  11
ATOM     11  N   UNL     1      43.849 131.777  17.509  1.00  0.00    -0.354 N 
ATOM     12  H   UNL     1      42.981 132.247  17.168  1.00  0.00     0.167 HD
BRANCH  11  13
ATOM     13  C   UNL     1      44.714 131.156  16.540  1.00  0.00     0.041 A 
ATOM     14  C   UNL     1      44.711 129.747  16.336  1.00  0.00     0.027 A 
ATOM     15  C   UNL     1      45.566 131.968  15.760  1.00  0.00     0.052 A 
ATOM     16  C   UNL     1      45.559 129.158  15.381  1.00  0.00     0.012 A 
ATOM     17  C   UNL     1      46.392 131.351  14.823  1.00  0.00     0.047 A 
ATOM     18  C   UNL     1      46.388 129.995  14.642  1.00  0.00    -0.001 A 
ATOM     19  N   UNL     1      47.271 131.941  13.996  1.00  0.00    -0.361 N 
ATOM     20  C   UNL     1      47.305 129.708  13.655  1.00  0.00     0.028 A 
ATOM     21  C   UNL     1      47.832 130.939  13.279  1.00  0.00     0.083 A 
ATOM     22  H   UNL     1      47.480 132.961  13.918  1.00  0.00     0.166 HD
ENDBRANCH  11  13
ENDBRANCH   7  11
BRANCH   3  23
ATOM     23  O   UNL     1      44.326 131.218  23.099  1.00  0.00    -0.505 OA
ATOM     24  H   UNL     1      45.120 131.579  23.616  1.00  0.00     0.293 HD
ENDBRANCH   3  23
TORSDOF 4
ENDMDL
MODEL 9
REMARK VINA RESULT:      -8.0      2.967      6.600
REMARK SMILES Nc1cc(O)c(F)cc1Nc1ccc2cc[nH]c2c1
REMARK SMILES IDX 2 1 3 2 4 3 6 4 7 5 8 6 9 7 1 8 10 11 11 13 12 14 19 15
REMARK SMILES IDX 13 16 18 17 14 18 17 19 15 20 16 21 5 23
REMARK H PARENT 1 9 1 10 10 12 17 22 5 24
ROOT
ATOM      1  C   UNL     1      44.213 131.512  15.004  1.00  0.00     0.059 A 
ATOM      2  C   UNL     1      45.109 130.995  14.055  1.00  0.00     0.077 A 
ATOM      3  C   UNL     1      46.281 130.346  14.462  1.00  0.00     0.153 A 
ATOM      4  C   UNL     1      46.565 130.214  15.824  1.00  0.00     0.167 A 
ATOM      5  F   UNL     1      47.702 129.594  16.227  1.00  0.00    -0.203 F 
ATOM      6  C   UNL     1      45.677 130.718  16.777  1.00  0.00     0.071 A 
ATOM      7  C   UNL     1      44.488 131.347  16.381  1.00  0.00     0.065 A 
ENDROOT
BRANCH   1   8
ATOM      8  N   UNL     1      43.057 132.232  14.556  1.00  0.00    -0.397 N 
ATOM      9  H   UNL     1      43.117 132.873  13.734  1.00  0.00     0.156 HD
ATOM     10  H   UNL     1      42.149 132.186  15.066  1.00  0.00     0.156 HD
ENDBRANCH   1   8
BRANCH   7  11
ATOM     11  N   UNL     1      43.591 131.829  17.391  1.00  0.00    -0.354 N 
ATOM     12  H   UNL     1      42.799 132.437  17.081  1.00  0.00     0.167 HD
BRANCH  11  13
ATOM     13  C   UNL     1      43.820 131.677  18.804  1.00  0.00     0.041 A 
ATOM     14  C   UNL     1      45.088 131.274  19.312  1.00  0.00     0.027 A 
ATOM     15  C   UNL     1      42.770 131.957  19.705  1.00  0.00     0.052 A 
ATOM     16  C   UNL     1      45.296 131.135  20.695  1.00  0.00     0.012 A 
ATOM     17  C   UNL     1      43.011 131.810  21.069  1.00  0.00     0.047 A 
ATOM     18  C   UNL     1      44.231 131.412  21.545  1.00  0.00    -0.001 A 
ATOM     19  N   UNL     1      42.150 132.020  22.078  1.00  0.00    -0.361 N 
ATOM     20  C   UNL     1      44.143 131.366  22.919  1.00  0.00     0.028 A 
ATOM     21  C   UNL     1      42.837 131.749  23.212  1.00  0.00     0.083 A 
ATOM     22  H   UNL     1      41.155 132.328  22.007  1.00  0.00     0.166 HD
ENDBRANCH  11  13
ENDBRANCH   7  11
BRANCH   3  23
ATOM     23  O   UNL     1      47.171 129.833  13.520  1.00  0.00    -0.505 OA
ATOM     24  H   UNL     1      47.484 130.387  12.731  1.00  0.00     0.293 HD
ENDBRANCH   3  23
TORSDOF 4
ENDMDL


