REMARK SMILES N#CC1=CCCC[C@H]1OC(=O)c1cc(F)ccc1Nc1cc2ccccc2[nH]1
REMARK SMILES IDX 10 1 11 2 9 3 8 4 3 5 4 6 5 7 7 8 6 9 2 10 1 11 12 12 13 13
REMARK SMILES IDX 18 14 14 15 17 16 16 17 15 18 19 19 20 21 21 22 28 23 22 24
REMARK SMILES IDX 27 25 23 26 26 27 24 28 25 29
REMARK H PARENT 19 20 28 30
ROOT
ATOM      1  C   UNL     1       1.798  -0.288  -1.486  1.00  0.00     0.340 C 
ATOM      2  O   UNL     1       2.622  -1.198  -1.781  1.00  0.00    -0.246 OA
ENDROOT
BRANCH   1   3
ATOM      3  O   UNL     1       1.574   0.042  -0.145  1.00  0.00    -0.453 OA
BRANCH   3   4
ATOM      4  C   UNL     1       2.128  -0.666   0.963  1.00  0.00     0.217 C 
ATOM      5  C   UNL     1       1.989   0.204   2.192  1.00  0.00     0.066 C 
ATOM      6  C   UNL     1       0.984   0.049   3.070  1.00  0.00    -0.008 C 
ATOM      7  C   UNL     1       0.032  -1.118   3.031  1.00  0.00     0.029 C 
ATOM      8  C   UNL     1       1.416  -2.020   1.140  1.00  0.00     0.051 C 
ATOM      9  C   UNL     1      -0.005  -1.809   1.665  1.00  0.00     0.008 C 
BRANCH   5  10
ATOM     10  C   UNL     1       2.873   1.333   2.333  1.00  0.00     0.098 C 
ATOM     11  N   UNL     1       3.581   2.241   2.445  1.00  0.00    -0.193 NA
ENDBRANCH   5  10
ENDBRANCH   3   4
ENDBRANCH   1   3
BRANCH   1  12
ATOM     12  C   UNL     1       1.046   0.409  -2.560  1.00  0.00     0.086 A 
ATOM     13  C   UNL     1       0.987  -0.165  -3.845  1.00  0.00     0.057 A 
ATOM     14  C   UNL     1       0.351   1.622  -2.323  1.00  0.00     0.054 A 
ATOM     15  C   UNL     1       0.243   0.439  -4.862  1.00  0.00     0.124 A 
ATOM     16  C   UNL     1      -0.394   2.214  -3.351  1.00  0.00     0.030 A 
ATOM     17  C   UNL     1      -0.450   1.624  -4.614  1.00  0.00     0.041 A 
ATOM     18  F   UNL     1       0.190  -0.131  -6.091  1.00  0.00    -0.207 F 
BRANCH  14  19
ATOM     19  N   UNL     1       0.431   2.293  -1.062  1.00  0.00    -0.341 N 
ATOM     20  H   UNL     1       1.293   2.840  -0.842  1.00  0.00     0.168 HD
BRANCH  19  21
ATOM     21  C   UNL     1      -0.561   2.113  -0.045  1.00  0.00     0.108 A 
ATOM     22  C   UNL     1      -0.481   2.666   1.229  1.00  0.00     0.055 A 
ATOM     23  N   UNL     1      -1.632   1.293  -0.168  1.00  0.00    -0.341 N 
ATOM     24  C   UNL     1      -1.563   2.142   1.902  1.00  0.00     0.002 A 
ATOM     25  C   UNL     1      -2.235   1.319   1.032  1.00  0.00     0.047 A 
ATOM     26  C   UNL     1      -1.969   2.302   3.224  1.00  0.00     0.010 A 
ATOM     27  C   UNL     1      -3.360   0.599   1.429  1.00  0.00     0.027 A 
ATOM     28  C   UNL     1      -3.106   1.592   3.652  1.00  0.00     0.001 A 
ATOM     29  C   UNL     1      -3.799   0.744   2.758  1.00  0.00     0.002 A 
ATOM     30  H   UNL     1      -1.909   0.725  -0.999  1.00  0.00     0.168 HD
ENDBRANCH  19  21
ENDBRANCH  14  19
ENDBRANCH   1  12
TORSDOF 6


