MODEL 1
REMARK VINA RESULT:     -10.0      0.000      0.000
REMARK SMILES [O-]C(N[C@H]1Cc2ccccc2[C@H]1O)=C1CCCC1
REMARK SMILES IDX 4 1 5 2 6 3 7 4 8 5 9 6 10 7 11 8 12 9 3 10 2 12 1 13 14 14
REMARK SMILES IDX 15 15 18 16 16 17 17 18 13 19
REMARK H PARENT 3 11 13 20
ROOT
ATOM      1  C   UNL     1      44.681 130.893  16.183  1.00  0.00     0.115 C 
ATOM      2  C   UNL     1      44.960 131.677  14.877  1.00  0.00     0.063 C 
ATOM      3  C   UNL     1      46.152 131.010  14.301  1.00  0.00    -0.040 A 
ATOM      4  C   UNL     1      46.797 131.344  13.107  1.00  0.00     0.004 A 
ATOM      5  C   UNL     1      47.909 130.589  12.704  1.00  0.00     0.000 A 
ATOM      6  C   UNL     1      48.353 129.512  13.491  1.00  0.00     0.000 A 
ATOM      7  C   UNL     1      47.690 129.192  14.685  1.00  0.00     0.007 A 
ATOM      8  C   UNL     1      46.589 129.962  15.073  1.00  0.00    -0.014 A 
ATOM      9  C   UNL     1      45.762 129.779  16.294  1.00  0.00     0.167 C 
ENDROOT
BRANCH   1  10
ATOM     10  N   UNL     1      44.699 131.787  17.348  1.00  0.00    -0.391 N 
ATOM     11  H   UNL     1      45.597 132.270  17.581  1.00  0.00     0.159 HD
BRANCH  10  12
ATOM     12  C   UNL     1      43.606 131.827  18.282  1.00  0.00    -0.046 C 
ATOM     13  O   UNL     1      42.315 132.056  17.813  1.00  0.00    -0.860 OA
BRANCH  12  14
ATOM     14  C   UNL     1      43.803 131.644  19.599  1.00  0.00    -0.062 C 
ATOM     15  C   UNL     1      42.728 131.828  20.616  1.00  0.00     0.032 C 
ATOM     16  C   UNL     1      45.100 131.256  20.220  1.00  0.00     0.032 C 
ATOM     17  C   UNL     1      43.342 131.329  21.918  1.00  0.00     0.005 C 
ATOM     18  C   UNL     1      44.857 131.365  21.722  1.00  0.00     0.005 C 
ENDBRANCH  12  14
ENDBRANCH  10  12
ENDBRANCH   1  10
BRANCH   9  19
ATOM     19  O   UNL     1      46.557 129.937  17.443  1.00  0.00    -0.386 OA
ATOM     20  H   UNL     1      46.445 129.110  17.981  1.00  0.00     0.211 HD
ENDBRANCH   9  19
TORSDOF 4
ENDMDL
MODEL 2
REMARK VINA RESULT:      -9.8      1.310      6.422
REMARK SMILES [O-]C(N[C@H]1Cc2ccccc2[C@H]1O)=C1CCCC1
REMARK SMILES IDX 4 1 5 2 6 3 7 4 8 5 9 6 10 7 11 8 12 9 3 10 2 12 1 13 14 14
REMARK SMILES IDX 15 15 18 16 16 17 17 18 13 19
REMARK H PARENT 3 11 13 20
ROOT
ATOM      1  C   UNL     1      44.465 131.676  17.177  1.00  0.00     0.115 C 
ATOM      2  C   UNL     1      43.118 131.882  17.913  1.00  0.00     0.063 C 
ATOM      3  C   UNL     1      43.455 131.691  19.344  1.00  0.00    -0.040 A 
ATOM      4  C   UNL     1      42.575 131.782  20.426  1.00  0.00     0.004 A 
ATOM      5  C   UNL     1      43.073 131.586  21.723  1.00  0.00     0.000 A 
ATOM      6  C   UNL     1      44.438 131.312  21.921  1.00  0.00     0.000 A 
ATOM      7  C   UNL     1      45.305 131.228  20.821  1.00  0.00     0.007 A 
ATOM      8  C   UNL     1      44.787 131.417  19.536  1.00  0.00    -0.014 A 
ATOM      9  C   UNL     1      45.542 131.368  18.256  1.00  0.00     0.167 C 
ENDROOT
BRANCH   1  10
ATOM     10  N   UNL     1      44.364 130.597  16.186  1.00  0.00    -0.391 N 
ATOM     11  H   UNL     1      44.199 129.625  16.535  1.00  0.00     0.159 HD
BRANCH  10  12
ATOM     12  C   UNL     1      44.709 130.807  14.806  1.00  0.00    -0.046 C 
ATOM     13  O   UNL     1      43.763 131.353  13.941  1.00  0.00    -0.860 OA
BRANCH  12  14
ATOM     14  C   UNL     1      45.928 130.494  14.332  1.00  0.00    -0.062 C 
ATOM     15  C   UNL     1      46.569 131.212  13.194  1.00  0.00     0.032 C 
ATOM     16  C   UNL     1      46.786 129.394  14.855  1.00  0.00     0.032 C 
ATOM     17  C   UNL     1      47.987 130.659  13.142  1.00  0.00     0.005 C 
ATOM     18  C   UNL     1      47.956 129.322  13.879  1.00  0.00     0.005 C 
ENDBRANCH  12  14
ENDBRANCH  10  12
ENDBRANCH   1  10
BRANCH   9  19
ATOM     19  O   UNL     1      46.108 130.093  18.080  1.00  0.00    -0.386 OA
ATOM     20  H   UNL     1      46.679 130.146  17.269  1.00  0.00     0.211 HD
ENDBRANCH   9  19
TORSDOF 4
ENDMDL
MODEL 3
REMARK VINA RESULT:      -9.7      1.595      6.501
REMARK SMILES [O-]C(N[C@H]1Cc2ccccc2[C@H]1O)=C1CCCC1
REMARK SMILES IDX 4 1 5 2 6 3 7 4 8 5 9 6 10 7 11 8 12 9 3 10 2 12 1 13 14 14
REMARK SMILES IDX 15 15 18 16 16 17 17 18 13 19
REMARK H PARENT 3 11 13 20
ROOT
ATOM      1  C   UNL     1      45.685 131.157  17.573  1.00  0.00     0.115 C 
ATOM      2  C   UNL     1      44.256 131.553  17.126  1.00  0.00     0.063 C 
ATOM      3  C   UNL     1      43.538 131.810  18.397  1.00  0.00    -0.040 A 
ATOM      4  C   UNL     1      42.205 132.209  18.534  1.00  0.00     0.004 A 
ATOM      5  C   UNL     1      41.691 132.424  19.822  1.00  0.00     0.000 A 
ATOM      6  C   UNL     1      42.513 132.246  20.948  1.00  0.00     0.000 A 
ATOM      7  C   UNL     1      43.850 131.847  20.789  1.00  0.00     0.007 A 
ATOM      8  C   UNL     1      44.339 131.630  19.497  1.00  0.00    -0.014 A 
ATOM      9  C   UNL     1      45.716 131.209  19.127  1.00  0.00     0.167 C 
ENDROOT
BRANCH   1  10
ATOM     10  N   UNL     1      46.046 129.827  17.066  1.00  0.00    -0.391 N 
ATOM     11  H   UNL     1      46.644 129.217  17.670  1.00  0.00     0.159 HD
BRANCH  10  12
ATOM     12  C   UNL     1      45.798 129.450  15.700  1.00  0.00    -0.046 C 
ATOM     13  O   UNL     1      44.710 128.632  15.405  1.00  0.00    -0.860 OA
BRANCH  12  14
ATOM     14  C   UNL     1      46.590 129.873  14.700  1.00  0.00    -0.062 C 
ATOM     15  C   UNL     1      47.884 129.219  14.354  1.00  0.00     0.032 C 
ATOM     16  C   UNL     1      46.303 131.044  13.825  1.00  0.00     0.032 C 
ATOM     17  C   UNL     1      48.324 129.897  13.063  1.00  0.00     0.005 C 
ATOM     18  C   UNL     1      47.570 131.224  12.995  1.00  0.00     0.005 C 
ENDBRANCH  12  14
ENDBRANCH  10  12
ENDBRANCH   1  10
BRANCH   9  19
ATOM     19  O   UNL     1      46.001 129.951  19.686  1.00  0.00    -0.386 OA
ATOM     20  H   UNL     1      46.905 129.695  19.362  1.00  0.00     0.211 HD
ENDBRANCH   9  19
TORSDOF 4
ENDMDL
MODEL 4
REMARK VINA RESULT:      -9.1      1.128      1.796
REMARK SMILES [O-]C(N[C@H]1Cc2ccccc2[C@H]1O)=C1CCCC1
REMARK SMILES IDX 4 1 5 2 6 3 7 4 8 5 9 6 10 7 11 8 12 9 3 10 2 12 1 13 14 14
REMARK SMILES IDX 15 15 18 16 16 17 17 18 13 19
REMARK H PARENT 3 11 13 20
ROOT
ATOM      1  C   UNL     1      45.441 131.268  16.826  1.00  0.00     0.115 C 
ATOM      2  C   UNL     1      46.182 129.919  16.656  1.00  0.00     0.063 C 
ATOM      3  C   UNL     1      46.851 130.038  15.338  1.00  0.00    -0.040 A 
ATOM      4  C   UNL     1      47.660 129.076  14.726  1.00  0.00     0.004 A 
ATOM      5  C   UNL     1      48.229 129.366  13.477  1.00  0.00     0.000 A 
ATOM      6  C   UNL     1      47.991 130.608  12.864  1.00  0.00     0.000 A 
ATOM      7  C   UNL     1      47.178 131.561  13.497  1.00  0.00     0.007 A 
ATOM      8  C   UNL     1      46.613 131.249  14.738  1.00  0.00    -0.014 A 
ATOM      9  C   UNL     1      45.732 132.121  15.558  1.00  0.00     0.167 C 
ENDROOT
BRANCH   1  10
ATOM     10  N   UNL     1      44.000 131.057  17.021  1.00  0.00    -0.391 N 
ATOM     11  H   UNL     1      43.467 130.584  16.256  1.00  0.00     0.159 HD
BRANCH  10  12
ATOM     12  C   UNL     1      43.289 131.677  18.106  1.00  0.00    -0.046 C 
ATOM     13  O   UNL     1      42.110 132.369  17.844  1.00  0.00    -0.860 OA
BRANCH  12  14
ATOM     14  C   UNL     1      43.736 131.598  19.372  1.00  0.00    -0.062 C 
ATOM     15  C   UNL     1      42.845 131.732  20.560  1.00  0.00     0.032 C 
ATOM     16  C   UNL     1      45.158 131.388  19.761  1.00  0.00     0.032 C 
ATOM     17  C   UNL     1      43.732 131.383  21.747  1.00  0.00     0.005 C 
ATOM     18  C   UNL     1      45.174 131.565  21.276  1.00  0.00     0.005 C 
ENDBRANCH  12  14
ENDBRANCH  10  12
ENDBRANCH   1  10
BRANCH   9  19
ATOM     19  O   UNL     1      44.555 132.420  14.849  1.00  0.00    -0.386 OA
ATOM     20  H   UNL     1      44.377 133.387  14.990  1.00  0.00     0.211 HD
ENDBRANCH   9  19
TORSDOF 4
ENDMDL
MODEL 5
REMARK VINA RESULT:      -8.6      1.265      6.635
REMARK SMILES [O-]C(N[C@H]1Cc2ccccc2[C@H]1O)=C1CCCC1
REMARK SMILES IDX 4 1 5 2 6 3 7 4 8 5 9 6 10 7 11 8 12 9 3 10 2 12 1 13 14 14
REMARK SMILES IDX 15 15 18 16 16 17 17 18 13 19
REMARK H PARENT 3 11 13 20
ROOT
ATOM      1  C   UNL     1      44.640 130.938  17.534  1.00  0.00     0.115 C 
ATOM      2  C   UNL     1      45.649 130.980  18.708  1.00  0.00     0.063 C 
ATOM      3  C   UNL     1      44.818 131.318  19.888  1.00  0.00    -0.040 A 
ATOM      4  C   UNL     1      45.264 131.467  21.205  1.00  0.00     0.004 A 
ATOM      5  C   UNL     1      44.330 131.774  22.206  1.00  0.00     0.000 A 
ATOM      6  C   UNL     1      42.970 131.919  21.881  1.00  0.00     0.000 A 
ATOM      7  C   UNL     1      42.543 131.763  20.553  1.00  0.00     0.007 A 
ATOM      8  C   UNL     1      43.492 131.465  19.569  1.00  0.00    -0.014 A 
ATOM      9  C   UNL     1      43.235 131.264  18.119  1.00  0.00     0.167 C 
ENDROOT
BRANCH   1  10
ATOM     10  N   UNL     1      45.022 131.884  16.477  1.00  0.00    -0.391 N 
ATOM     11  H   UNL     1      45.125 132.892  16.736  1.00  0.00     0.159 HD
BRANCH  10  12
ATOM     12  C   UNL     1      45.027 131.500  15.091  1.00  0.00    -0.046 C 
ATOM     13  O   UNL     1      43.900 131.745  14.311  1.00  0.00    -0.860 OA
BRANCH  12  14
ATOM     14  C   UNL     1      46.099 130.914  14.530  1.00  0.00    -0.062 C 
ATOM     15  C   UNL     1      46.892 129.849  15.207  1.00  0.00     0.032 C 
ATOM     16  C   UNL     1      46.646 131.250  13.186  1.00  0.00     0.032 C 
ATOM     17  C   UNL     1      47.862 129.356  14.141  1.00  0.00     0.005 C 
ATOM     18  C   UNL     1      47.949 130.464  13.093  1.00  0.00     0.005 C 
ENDBRANCH  12  14
ENDBRANCH  10  12
ENDBRANCH   1  10
BRANCH   9  19
ATOM     19  O   UNL     1      42.695 132.434  17.558  1.00  0.00    -0.386 OA
ATOM     20  H   UNL     1      41.759 132.498  17.882  1.00  0.00     0.211 HD
ENDBRANCH   9  19
TORSDOF 4
ENDMDL
MODEL 6
REMARK VINA RESULT:      -8.6      1.235      1.681
REMARK SMILES [O-]C(N[C@H]1Cc2ccccc2[C@H]1O)=C1CCCC1
REMARK SMILES IDX 4 1 5 2 6 3 7 4 8 5 9 6 10 7 11 8 12 9 3 10 2 12 1 13 14 14
REMARK SMILES IDX 15 15 18 16 16 17 17 18 13 19
REMARK H PARENT 3 11 13 20
ROOT
ATOM      1  C   UNL     1      45.153 131.019  16.330  1.00  0.00     0.115 C 
ATOM      2  C   UNL     1      45.449 131.889  15.083  1.00  0.00     0.063 C 
ATOM      3  C   UNL     1      46.488 131.127  14.349  1.00  0.00    -0.040 A 
ATOM      4  C   UNL     1      47.088 131.491  13.140  1.00  0.00     0.004 A 
ATOM      5  C   UNL     1      48.047 130.636  12.576  1.00  0.00     0.000 A 
ATOM      6  C   UNL     1      48.385 129.432  13.219  1.00  0.00     0.000 A 
ATOM      7  C   UNL     1      47.767 129.084  14.431  1.00  0.00     0.007 A 
ATOM      8  C   UNL     1      46.821 129.954  14.980  1.00  0.00    -0.014 A 
ATOM      9  C   UNL     1      46.064 129.762  16.245  1.00  0.00     0.167 C 
ENDROOT
BRANCH   1  10
ATOM     10  N   UNL     1      45.383 131.776  17.567  1.00  0.00    -0.391 N 
ATOM     11  H   UNL     1      46.068 132.566  17.537  1.00  0.00     0.159 HD
BRANCH  10  12
ATOM     12  C   UNL     1      44.878 131.320  18.833  1.00  0.00    -0.046 C 
ATOM     13  O   UNL     1      45.618 130.401  19.573  1.00  0.00    -0.860 OA
BRANCH  12  14
ATOM     14  C   UNL     1      43.707 131.764  19.323  1.00  0.00    -0.062 C 
ATOM     15  C   UNL     1      42.551 132.134  18.457  1.00  0.00     0.032 C 
ATOM     16  C   UNL     1      43.410 131.963  20.769  1.00  0.00     0.032 C 
ATOM     17  C   UNL     1      41.406 132.382  19.432  1.00  0.00     0.005 C 
ATOM     18  C   UNL     1      42.049 132.651  20.791  1.00  0.00     0.005 C 
ENDBRANCH  12  14
ENDBRANCH  10  12
ENDBRANCH   1  10
BRANCH   9  19
ATOM     19  O   UNL     1      46.954 129.688  17.332  1.00  0.00    -0.386 OA
ATOM     20  H   UNL     1      46.450 129.277  18.083  1.00  0.00     0.211 HD
ENDBRANCH   9  19
TORSDOF 4
ENDMDL
MODEL 7
REMARK VINA RESULT:      -8.5      1.175      6.718
REMARK SMILES [O-]C(N[C@H]1Cc2ccccc2[C@H]1O)=C1CCCC1
REMARK SMILES IDX 4 1 5 2 6 3 7 4 8 5 9 6 10 7 11 8 12 9 3 10 2 12 1 13 14 14
REMARK SMILES IDX 15 15 18 16 16 17 17 18 13 19
REMARK H PARENT 3 11 13 20
ROOT
ATOM      1  C   UNL     1      44.950 131.709  18.451  1.00  0.00     0.115 C 
ATOM      2  C   UNL     1      43.501 132.069  18.863  1.00  0.00     0.063 C 
ATOM      3  C   UNL     1      43.473 131.837  20.327  1.00  0.00    -0.040 A 
ATOM      4  C   UNL     1      42.381 132.028  21.179  1.00  0.00     0.004 A 
ATOM      5  C   UNL     1      42.539 131.773  22.550  1.00  0.00     0.000 A 
ATOM      6  C   UNL     1      43.781 131.341  23.048  1.00  0.00     0.000 A 
ATOM      7  C   UNL     1      44.865 131.158  22.176  1.00  0.00     0.007 A 
ATOM      8  C   UNL     1      44.684 131.410  20.812  1.00  0.00    -0.014 A 
ATOM      9  C   UNL     1      45.705 131.275  19.740  1.00  0.00     0.167 C 
ENDROOT
BRANCH   1  10
ATOM     10  N   UNL     1      44.960 130.651  17.432  1.00  0.00    -0.391 N 
ATOM     11  H   UNL     1      45.204 129.680  17.737  1.00  0.00     0.159 HD
BRANCH  10  12
ATOM     12  C   UNL     1      44.874 130.956  16.030  1.00  0.00    -0.046 C 
ATOM     13  O   UNL     1      43.737 131.591  15.537  1.00  0.00    -0.860 OA
BRANCH  12  14
ATOM     14  C   UNL     1      45.871 130.646  15.182  1.00  0.00    -0.062 C 
ATOM     15  C   UNL     1      46.998 129.741  15.547  1.00  0.00     0.032 C 
ATOM     16  C   UNL     1      45.998 131.166  13.792  1.00  0.00     0.032 C 
ATOM     17  C   UNL     1      47.756 129.527  14.243  1.00  0.00     0.005 C 
ATOM     18  C   UNL     1      47.368 130.685  13.325  1.00  0.00     0.005 C 
ENDBRANCH  12  14
ENDBRANCH  10  12
ENDBRANCH   1  10
BRANCH   9  19
ATOM     19  O   UNL     1      46.148 129.943  19.662  1.00  0.00    -0.386 OA
ATOM     20  H   UNL     1      45.355 129.370  19.835  1.00  0.00     0.211 HD
ENDBRANCH   9  19
TORSDOF 4
ENDMDL
MODEL 8
REMARK VINA RESULT:      -8.5      1.226      1.296
REMARK SMILES [O-]C(N[C@H]1Cc2ccccc2[C@H]1O)=C1CCCC1
REMARK SMILES IDX 4 1 5 2 6 3 7 4 8 5 9 6 10 7 11 8 12 9 3 10 2 12 1 13 14 14
REMARK SMILES IDX 15 15 18 16 16 17 17 18 13 19
REMARK H PARENT 3 11 13 20
ROOT
ATOM      1  C   UNL     1      44.130 130.291  15.240  1.00  0.00     0.115 C 
ATOM      2  C   UNL     1      44.704 131.327  14.242  1.00  0.00     0.063 C 
ATOM      3  C   UNL     1      46.058 130.814  13.927  1.00  0.00    -0.040 A 
ATOM      4  C   UNL     1      46.986 131.394  13.057  1.00  0.00     0.004 A 
ATOM      5  C   UNL     1      48.223 130.759  12.864  1.00  0.00     0.000 A 
ATOM      6  C   UNL     1      48.510 129.556  13.533  1.00  0.00     0.000 A 
ATOM      7  C   UNL     1      47.563 128.989  14.399  1.00  0.00     0.007 A 
ATOM      8  C   UNL     1      46.340 129.643  14.584  1.00  0.00    -0.014 A 
ATOM      9  C   UNL     1      45.219 129.201  15.454  1.00  0.00     0.167 C 
ENDROOT
BRANCH   1  10
ATOM     10  N   UNL     1      43.748 130.934  16.504  1.00  0.00    -0.391 N 
ATOM     11  H   UNL     1      42.728 131.056  16.703  1.00  0.00     0.159 HD
BRANCH  10  12
ATOM     12  C   UNL     1      44.719 131.589  17.339  1.00  0.00    -0.046 C 
ATOM     13  O   UNL     1      45.752 132.311  16.747  1.00  0.00    -0.860 OA
BRANCH  12  14
ATOM     14  C   UNL     1      44.649 131.522  18.680  1.00  0.00    -0.062 C 
ATOM     15  C   UNL     1      43.467 131.991  19.457  1.00  0.00     0.032 C 
ATOM     16  C   UNL     1      45.728 130.998  19.563  1.00  0.00     0.032 C 
ATOM     17  C   UNL     1      43.746 131.545  20.887  1.00  0.00     0.005 C 
ATOM     18  C   UNL     1      45.252 131.311  20.978  1.00  0.00     0.005 C 
ENDBRANCH  12  14
ENDBRANCH  10  12
ENDBRANCH   1  10
BRANCH   9  19
ATOM     19  O   UNL     1      45.643 129.143  16.793  1.00  0.00    -0.386 OA
ATOM     20  H   UNL     1      44.826 129.006  17.343  1.00  0.00     0.211 HD
ENDBRANCH   9  19
TORSDOF 4
ENDMDL
MODEL 9
REMARK VINA RESULT:      -8.3      1.397      6.292
REMARK SMILES [O-]C(N[C@H]1Cc2ccccc2[C@H]1O)=C1CCCC1
REMARK SMILES IDX 4 1 5 2 6 3 7 4 8 5 9 6 10 7 11 8 12 9 3 10 2 12 1 13 14 14
REMARK SMILES IDX 15 15 18 16 16 17 17 18 13 19
REMARK H PARENT 3 11 13 20
ROOT
ATOM      1  C   UNL     1      44.716 131.493  16.792  1.00  0.00     0.115 C 
ATOM      2  C   UNL     1      43.494 131.988  17.604  1.00  0.00     0.063 C 
ATOM      3  C   UNL     1      43.842 131.674  19.010  1.00  0.00    -0.040 A 
ATOM      4  C   UNL     1      43.061 131.935  20.139  1.00  0.00     0.004 A 
ATOM      5  C   UNL     1      43.558 131.583  21.403  1.00  0.00     0.000 A 
ATOM      6  C   UNL     1      44.825 130.986  21.521  1.00  0.00     0.000 A 
ATOM      7  C   UNL     1      45.595 130.735  20.375  1.00  0.00     0.007 A 
ATOM      8  C   UNL     1      45.077 131.086  19.124  1.00  0.00    -0.014 A 
ATOM      9  C   UNL     1      45.737 130.902  17.805  1.00  0.00     0.167 C 
ENDROOT
BRANCH   1  10
ATOM     10  N   UNL     1      44.313 130.503  15.785  1.00  0.00    -0.391 N 
ATOM     11  H   UNL     1      43.292 130.394  15.586  1.00  0.00     0.159 HD
BRANCH  10  12
ATOM     12  C   UNL     1      45.247 129.548  15.253  1.00  0.00    -0.046 C 
ATOM     13  O   UNL     1      45.074 128.194  15.534  1.00  0.00    -0.860 OA
BRANCH  12  14
ATOM     14  C   UNL     1      46.283 129.932  14.487  1.00  0.00    -0.062 C 
ATOM     15  C   UNL     1      46.234 131.118  13.586  1.00  0.00     0.032 C 
ATOM     16  C   UNL     1      47.596 129.230  14.417  1.00  0.00     0.032 C 
ATOM     17  C   UNL     1      47.663 131.279  13.083  1.00  0.00     0.005 C 
ATOM     18  C   UNL     1      48.345 129.927  13.286  1.00  0.00     0.005 C 
ENDBRANCH  12  14
ENDBRANCH  10  12
ENDBRANCH   1  10
BRANCH   9  19
ATOM     19  O   UNL     1      45.973 129.535  17.571  1.00  0.00    -0.386 OA
ATOM     20  H   UNL     1      45.799 129.067  18.430  1.00  0.00     0.211 HD
ENDBRANCH   9  19
TORSDOF 4
ENDMDL


