REMARK SMILES C=Cc1cc(-c2ccc(C)c3n[n-]cc23)ccc1O
REMARK SMILES IDX 3 1 4 2 5 3 16 4 17 5 18 6 2 7 1 8 19 9 6 11 7 12 15 13 8 14
REMARK SMILES IDX 14 15 11 16 9 17 13 18 12 19 10 20
REMARK H PARENT 19 10
ROOT
ATOM      1  C   UNL     1      -1.764  -2.751  -0.507  1.00  0.00     0.016 A 
ATOM      2  C   UNL     1      -0.723  -1.802  -0.463  1.00  0.00     0.020 A 
ATOM      3  C   UNL     1      -0.482  -1.049   0.698  1.00  0.00    -0.017 A 
ATOM      4  C   UNL     1      -1.272  -1.272   1.835  1.00  0.00     0.012 A 
ATOM      5  C   UNL     1      -2.293  -2.222   1.809  1.00  0.00     0.047 A 
ATOM      6  C   UNL     1      -2.544  -2.963   0.647  1.00  0.00     0.122 A 
ENDROOT
BRANCH   1   7
ATOM      7  C   UNL     1      -2.029  -3.557  -1.726  1.00  0.00     0.004 C 
ATOM      8  C   UNL     1      -1.704  -3.164  -2.959  1.00  0.00     0.009 C 
ENDBRANCH   1   7
BRANCH   6   9
ATOM      9  O   UNL     1      -3.573  -3.906   0.637  1.00  0.00    -0.507 OA
ATOM     10  H   UNL     1      -4.148  -4.074   1.455  1.00  0.00     0.293 HD
ENDBRANCH   6   9
BRANCH   3  11
ATOM     11  C   UNL     1       0.614  -0.052   0.736  1.00  0.00    -0.011 A 
ATOM     12  C   UNL     1       1.528  -0.020   1.813  1.00  0.00     0.010 A 
ATOM     13  C   UNL     1       0.796   0.900  -0.277  1.00  0.00    -0.014 A 
ATOM     14  C   UNL     1       2.577   0.925   1.845  1.00  0.00     0.006 A 
ATOM     15  C   UNL     1       0.084   1.200  -1.419  1.00  0.00    -0.113 A 
ATOM     16  C   UNL     1       1.810   1.816  -0.245  1.00  0.00     0.050 A 
ATOM     17  C   UNL     1       2.740   1.856   0.797  1.00  0.00    -0.027 A 
ATOM     18  N   UNL     1       0.680   2.251  -2.027  1.00  0.00    -0.581 NA
ATOM     19  N   UNL     1       1.734   2.631  -1.313  1.00  0.00    -0.367 NA
ATOM     20  C   UNL     1       3.821   2.894   0.841  1.00  0.00     0.046 C 
ENDBRANCH   3  11
TORSDOF 3


