REMARK SMILES O/C(=C\CF)[N-]c1cc(F)c(F)cc1Nc1ccc(F)cc1
REMARK SMILES IDX 6 1 2 2 1 3 3 5 4 6 5 7 7 8 8 9 14 10 9 11 13 12 11 13 10 14
REMARK SMILES IDX 12 15 15 16 16 18 17 19 22 20 18 21 21 22 19 23 20 24
REMARK H PARENT 1 4 15 17
ROOT
ATOM      1  N   UNL     1       0.599   0.663  -1.167  1.00  0.00    -0.626 NA
ENDROOT
BRANCH   1   2
ATOM      2  C   UNL     1      -0.472   0.770  -2.113  1.00  0.00     0.012 C 
BRANCH   2   3
ATOM      3  O   UNL     1      -1.235  -0.346  -2.461  1.00  0.00    -0.531 OA
ATOM      4  H   UNL     1      -1.117  -1.239  -2.000  1.00  0.00     0.290 HD
ENDBRANCH   2   3
BRANCH   2   5
ATOM      5  C   UNL     1      -0.762   1.966  -2.629  1.00  0.00     0.028 C 
BRANCH   5   6
ATOM      6  C   UNL     1      -1.879   2.164  -3.606  1.00  0.00     0.244 C 
ATOM      7  F   UNL     1      -3.090   1.869  -3.005  1.00  0.00    -0.247 F 
ENDBRANCH   5   6
ENDBRANCH   2   5
ENDBRANCH   1   2
BRANCH   1   8
ATOM      8  C   UNL     1       1.307  -0.540  -0.839  1.00  0.00    -0.107 A 
ATOM      9  C   UNL     1       1.590  -1.496  -1.830  1.00  0.00     0.028 A 
ATOM     10  C   UNL     1       1.821  -0.719   0.464  1.00  0.00     0.027 A 
ATOM     11  C   UNL     1       2.361  -2.621  -1.528  1.00  0.00     0.157 A 
ATOM     12  C   UNL     1       2.617  -1.838   0.747  1.00  0.00     0.067 A 
ATOM     13  C   UNL     1       2.877  -2.791  -0.241  1.00  0.00     0.160 A 
ATOM     14  F   UNL     1       2.627  -3.537  -2.493  1.00  0.00    -0.204 F 
ATOM     15  F   UNL     1       3.637  -3.876   0.049  1.00  0.00    -0.204 F 
BRANCH  10  16
ATOM     16  N   UNL     1       1.575   0.242   1.505  1.00  0.00    -0.356 N 
ATOM     17  H   UNL     1       2.376   0.502   2.125  1.00  0.00     0.166 HD
BRANCH  16  18
ATOM     18  C   UNL     1       0.280   0.793   1.805  1.00  0.00     0.039 A 
ATOM     19  C   UNL     1      -0.904   0.109   1.468  1.00  0.00     0.029 A 
ATOM     20  C   UNL     1       0.192   2.018   2.483  1.00  0.00     0.029 A 
ATOM     21  C   UNL     1      -2.150   0.664   1.773  1.00  0.00     0.041 A 
ATOM     22  C   UNL     1      -1.056   2.570   2.788  1.00  0.00     0.041 A 
ATOM     23  C   UNL     1      -2.227   1.895   2.430  1.00  0.00     0.123 A 
ATOM     24  F   UNL     1      -3.436   2.432   2.727  1.00  0.00    -0.207 F 
ENDBRANCH  16  18
ENDBRANCH  10  16
ENDBRANCH   1   8
TORSDOF 7


