MODEL 1
REMARK VINA RESULT:      -7.6      0.000      0.000
REMARK SMILES O=C(CCc1c(F)cccc1F)c1ccc(Nc2ccc3cc[nH]c3c2O)cc1
REMARK SMILES IDX 13 1 14 2 15 3 16 4 28 5 29 6 2 7 1 8 3 9 4 10 5 11 6 12
REMARK SMILES IDX 11 13 8 14 10 15 9 16 7 17 12 18 17 19 18 21 19 22 26 23
REMARK SMILES IDX 20 24 25 25 21 26 24 27 22 28 23 29 27 31
REMARK H PARENT 17 20 24 30 27 32
ROOT
ATOM      1  C   UNL     1      44.843 131.565  18.153  1.00  0.00     0.018 A 
ATOM      2  C   UNL     1      45.964 131.133  18.890  1.00  0.00     0.014 A 
ATOM      3  C   UNL     1      45.864 130.885  20.262  1.00  0.00     0.027 A 
ATOM      4  C   UNL     1      44.640 131.055  20.930  1.00  0.00     0.039 A 
ATOM      5  C   UNL     1      43.526 131.499  20.205  1.00  0.00     0.027 A 
ATOM      6  C   UNL     1      43.624 131.748  18.833  1.00  0.00     0.014 A 
ENDROOT
BRANCH   1   7
ATOM      7  C   UNL     1      44.922 131.839  16.690  1.00  0.00     0.163 C 
ATOM      8  O   UNL     1      45.831 132.593  16.249  1.00  0.00    -0.294 OA
BRANCH   7   9
ATOM      9  C   UNL     1      43.973 131.224  15.695  1.00  0.00     0.086 C 
BRANCH   9  10
ATOM     10  C   UNL     1      44.559 131.275  14.281  1.00  0.00     0.050 C 
BRANCH  10  11
ATOM     11  C   UNL     1      45.816 130.446  14.196  1.00  0.00     0.024 A 
ATOM     12  C   UNL     1      46.859 130.821  13.327  1.00  0.00     0.129 A 
ATOM     13  C   UNL     1      45.985 129.323  15.027  1.00  0.00     0.129 A 
ATOM     14  C   UNL     1      48.036 130.068  13.275  1.00  0.00     0.040 A 
ATOM     15  C   UNL     1      47.167 128.575  14.968  1.00  0.00     0.040 A 
ATOM     16  C   UNL     1      48.188 128.945  14.091  1.00  0.00     0.006 A 
ATOM     17  F   UNL     1      46.739 131.917  12.534  1.00  0.00    -0.207 F 
ATOM     18  F   UNL     1      45.012 128.953  15.898  1.00  0.00    -0.207 F 
ENDBRANCH  10  11
ENDBRANCH   9  10
ENDBRANCH   7   9
ENDBRANCH   1   7
BRANCH   4  19
ATOM     19  N   UNL     1      44.510 130.813  22.344  1.00  0.00    -0.352 N 
ATOM     20  H   UNL     1      45.155 131.317  22.993  1.00  0.00     0.167 HD
BRANCH  19  21
ATOM     21  C   UNL     1      43.676 129.789  22.904  1.00  0.00     0.083 A 
ATOM     22  C   UNL     1      42.460 130.162  23.527  1.00  0.00     0.031 A 
ATOM     23  C   UNL     1      44.035 128.416  22.824  1.00  0.00     0.163 A 
ATOM     24  C   UNL     1      41.622 129.196  24.109  1.00  0.00     0.013 A 
ATOM     25  C   UNL     1      43.183 127.486  23.423  1.00  0.00     0.090 A 
ATOM     26  C   UNL     1      42.023 127.865  24.042  1.00  0.00     0.003 A 
ATOM     27  N   UNL     1      43.335 126.153  23.475  1.00  0.00    -0.358 N 
ATOM     28  C   UNL     1      41.411 126.722  24.511  1.00  0.00     0.028 A 
ATOM     29  C   UNL     1      42.255 125.681  24.140  1.00  0.00     0.083 A 
ATOM     30  H   UNL     1      44.120 125.588  23.081  1.00  0.00     0.166 HD
BRANCH  23  31
ATOM     31  O   UNL     1      45.178 127.977  22.155  1.00  0.00    -0.504 OA
ATOM     32  H   UNL     1      45.409 128.279  21.217  1.00  0.00     0.293 HD
ENDBRANCH  23  31
ENDBRANCH  19  21
ENDBRANCH   4  19
TORSDOF 7
ENDMDL
MODEL 2
REMARK VINA RESULT:      -5.9      3.279      8.566
REMARK SMILES O=C(CCc1c(F)cccc1F)c1ccc(Nc2ccc3cc[nH]c3c2O)cc1
REMARK SMILES IDX 13 1 14 2 15 3 16 4 28 5 29 6 2 7 1 8 3 9 4 10 5 11 6 12
REMARK SMILES IDX 11 13 8 14 10 15 9 16 7 17 12 18 17 19 18 21 19 22 26 23
REMARK SMILES IDX 20 24 25 25 21 26 24 27 22 28 23 29 27 31
REMARK H PARENT 17 20 24 30 27 32
ROOT
ATOM      1  C   UNL     1      43.419 131.444  21.857  1.00  0.00     0.018 A 
ATOM      2  C   UNL     1      42.692 130.690  20.915  1.00  0.00     0.014 A 
ATOM      3  C   UNL     1      42.874 130.893  19.544  1.00  0.00     0.027 A 
ATOM      4  C   UNL     1      43.795 131.848  19.081  1.00  0.00     0.039 A 
ATOM      5  C   UNL     1      44.510 132.610  20.014  1.00  0.00     0.027 A 
ATOM      6  C   UNL     1      44.328 132.410  21.385  1.00  0.00     0.014 A 
ENDROOT
BRANCH   1   7
ATOM      7  C   UNL     1      43.242 131.251  23.325  1.00  0.00     0.163 C 
ATOM      8  O   UNL     1      42.638 132.130  23.997  1.00  0.00    -0.294 OA
BRANCH   7   9
ATOM      9  C   UNL     1      43.729 130.023  24.048  1.00  0.00     0.086 C 
BRANCH   9  10
ATOM     10  C   UNL     1      42.684 128.905  23.987  1.00  0.00     0.050 C 
BRANCH  10  11
ATOM     11  C   UNL     1      43.306 127.623  23.491  1.00  0.00     0.024 A 
ATOM     12  C   UNL     1      44.502 127.653  22.748  1.00  0.00     0.129 A 
ATOM     13  C   UNL     1      42.730 126.380  23.816  1.00  0.00     0.129 A 
ATOM     14  C   UNL     1      45.093 126.461  22.318  1.00  0.00     0.040 A 
ATOM     15  C   UNL     1      43.328 125.192  23.381  1.00  0.00     0.040 A 
ATOM     16  C   UNL     1      44.505 125.233  22.631  1.00  0.00     0.006 A 
ATOM     17  F   UNL     1      45.099 128.834  22.445  1.00  0.00    -0.207 F 
ATOM     18  F   UNL     1      41.594 126.316  24.556  1.00  0.00    -0.207 F 
ENDBRANCH  10  11
ENDBRANCH   9  10
ENDBRANCH   7   9
ENDBRANCH   1   7
BRANCH   4  19
ATOM     19  N   UNL     1      43.999 132.082  17.675  1.00  0.00    -0.352 N 
ATOM     20  H   UNL     1      43.341 132.725  17.179  1.00  0.00     0.167 HD
BRANCH  19  21
ATOM     21  C   UNL     1      44.934 131.347  16.871  1.00  0.00     0.083 A 
ATOM     22  C   UNL     1      45.451 130.126  17.370  1.00  0.00     0.031 A 
ATOM     23  C   UNL     1      45.329 131.807  15.587  1.00  0.00     0.163 A 
ATOM     24  C   UNL     1      46.385 129.383  16.630  1.00  0.00     0.013 A 
ATOM     25  C   UNL     1      46.267 131.048  14.885  1.00  0.00     0.090 A 
ATOM     26  C   UNL     1      46.775 129.882  15.391  1.00  0.00     0.003 A 
ATOM     27  N   UNL     1      46.783 131.303  13.671  1.00  0.00    -0.358 N 
ATOM     28  C   UNL     1      47.655 129.375  14.458  1.00  0.00     0.028 A 
ATOM     29  C   UNL     1      47.632 130.285  13.407  1.00  0.00     0.083 A 
ATOM     30  H   UNL     1      46.573 132.117  13.051  1.00  0.00     0.166 HD
BRANCH  23  31
ATOM     31  O   UNL     1      44.797 132.959  15.006  1.00  0.00    -0.504 OA
ATOM     32  H   UNL     1      44.683 133.824  15.518  1.00  0.00     0.293 HD
ENDBRANCH  23  31
ENDBRANCH  19  21
ENDBRANCH   4  19
TORSDOF 7
ENDMDL
MODEL 3
REMARK VINA RESULT:      -5.9      3.411      8.666
REMARK SMILES O=C(CCc1c(F)cccc1F)c1ccc(Nc2ccc3cc[nH]c3c2O)cc1
REMARK SMILES IDX 13 1 14 2 15 3 16 4 28 5 29 6 2 7 1 8 3 9 4 10 5 11 6 12
REMARK SMILES IDX 11 13 8 14 10 15 9 16 7 17 12 18 17 19 18 21 19 22 26 23
REMARK SMILES IDX 20 24 25 25 21 26 24 27 22 28 23 29 27 31
REMARK H PARENT 17 20 24 30 27 32
ROOT
ATOM      1  C   UNL     1      42.784 131.978  20.242  1.00  0.00     0.018 A 
ATOM      2  C   UNL     1      43.998 131.350  19.902  1.00  0.00     0.014 A 
ATOM      3  C   UNL     1      44.240 130.925  18.593  1.00  0.00     0.027 A 
ATOM      4  C   UNL     1      43.278 131.124  17.589  1.00  0.00     0.039 A 
ATOM      5  C   UNL     1      42.063 131.736  17.924  1.00  0.00     0.027 A 
ATOM      6  C   UNL     1      41.818 132.160  19.234  1.00  0.00     0.014 A 
ENDROOT
BRANCH   1   7
ATOM      7  C   UNL     1      42.498 132.439  21.631  1.00  0.00     0.163 C 
ATOM      8  O   UNL     1      41.528 133.218  21.837  1.00  0.00    -0.294 OA
BRANCH   7   9
ATOM      9  C   UNL     1      43.303 131.986  22.820  1.00  0.00     0.086 C 
BRANCH   9  10
ATOM     10  C   UNL     1      44.200 130.801  22.450  1.00  0.00     0.050 C 
BRANCH  10  11
ATOM     11  C   UNL     1      43.629 129.513  22.990  1.00  0.00     0.024 A 
ATOM     12  C   UNL     1      44.213 128.278  22.651  1.00  0.00     0.129 A 
ATOM     13  C   UNL     1      42.542 129.537  23.884  1.00  0.00     0.129 A 
ATOM     14  C   UNL     1      43.700 127.089  23.179  1.00  0.00     0.040 A 
ATOM     15  C   UNL     1      42.035 128.342  24.408  1.00  0.00     0.040 A 
ATOM     16  C   UNL     1      42.611 127.121  24.053  1.00  0.00     0.006 A 
ATOM     17  F   UNL     1      45.282 128.223  21.815  1.00  0.00    -0.207 F 
ATOM     18  F   UNL     1      41.975 130.714  24.255  1.00  0.00    -0.207 F 
ENDBRANCH  10  11
ENDBRANCH   9  10
ENDBRANCH   7   9
ENDBRANCH   1   7
BRANCH   4  19
ATOM     19  N   UNL     1      43.499 130.691  16.233  1.00  0.00    -0.352 N 
ATOM     20  H   UNL     1      42.742 130.151  15.757  1.00  0.00     0.167 HD
BRANCH  19  21
ATOM     21  C   UNL     1      44.761 130.795  15.558  1.00  0.00     0.083 A 
ATOM     22  C   UNL     1      45.277 132.082  15.268  1.00  0.00     0.031 A 
ATOM     23  C   UNL     1      45.506 129.639  15.200  1.00  0.00     0.163 A 
ATOM     24  C   UNL     1      46.497 132.233  14.589  1.00  0.00     0.013 A 
ATOM     25  C   UNL     1      46.709 129.828  14.517  1.00  0.00     0.090 A 
ATOM     26  C   UNL     1      47.183 131.078  14.223  1.00  0.00     0.003 A 
ATOM     27  N   UNL     1      47.557 128.884  14.078  1.00  0.00    -0.358 N 
ATOM     28  C   UNL     1      48.384 130.922  13.566  1.00  0.00     0.028 A 
ATOM     29  C   UNL     1      48.582 129.547  13.495  1.00  0.00     0.083 A 
ATOM     30  H   UNL     1      47.455 127.848  14.169  1.00  0.00     0.166 HD
BRANCH  23  31
ATOM     31  O   UNL     1      45.091 128.348  15.528  1.00  0.00    -0.504 OA
ATOM     32  H   UNL     1      45.557 127.521  15.178  1.00  0.00     0.293 HD
ENDBRANCH  23  31
ENDBRANCH  19  21
ENDBRANCH   4  19
TORSDOF 7
ENDMDL
MODEL 4
REMARK VINA RESULT:      -5.5      3.756      9.140
REMARK SMILES O=C(CCc1c(F)cccc1F)c1ccc(Nc2ccc3cc[nH]c3c2O)cc1
REMARK SMILES IDX 13 1 14 2 15 3 16 4 28 5 29 6 2 7 1 8 3 9 4 10 5 11 6 12
REMARK SMILES IDX 11 13 8 14 10 15 9 16 7 17 12 18 17 19 18 21 19 22 26 23
REMARK SMILES IDX 20 24 25 25 21 26 24 27 22 28 23 29 27 31
REMARK H PARENT 17 20 24 30 27 32
ROOT
ATOM      1  C   UNL     1      43.909 129.732  22.920  1.00  0.00     0.018 A 
ATOM      2  C   UNL     1      44.404 128.819  21.970  1.00  0.00     0.014 A 
ATOM      3  C   UNL     1      45.177 129.259  20.892  1.00  0.00     0.027 A 
ATOM      4  C   UNL     1      45.481 130.623  20.742  1.00  0.00     0.039 A 
ATOM      5  C   UNL     1      44.978 131.537  21.678  1.00  0.00     0.027 A 
ATOM      6  C   UNL     1      44.204 131.098  22.755  1.00  0.00     0.014 A 
ENDROOT
BRANCH   1   7
ATOM      7  C   UNL     1      43.080 129.290  24.078  1.00  0.00     0.163 C 
ATOM      8  O   UNL     1      42.290 130.109  24.623  1.00  0.00    -0.294 OA
BRANCH   7   9
ATOM      9  C   UNL     1      43.117 127.884  24.615  1.00  0.00     0.086 C 
BRANCH   9  10
ATOM     10  C   UNL     1      43.160 126.866  23.471  1.00  0.00     0.050 C 
BRANCH  10  11
ATOM     11  C   UNL     1      42.480 125.581  23.878  1.00  0.00     0.024 A 
ATOM     12  C   UNL     1      41.078 125.465  23.807  1.00  0.00     0.129 A 
ATOM     13  C   UNL     1      43.243 124.467  24.276  1.00  0.00     0.129 A 
ATOM     14  C   UNL     1      40.454 124.263  24.154  1.00  0.00     0.040 A 
ATOM     15  C   UNL     1      42.609 123.268  24.621  1.00  0.00     0.040 A 
ATOM     16  C   UNL     1      41.218 123.168  24.563  1.00  0.00     0.006 A 
ATOM     17  F   UNL     1      40.316 126.512  23.398  1.00  0.00    -0.207 F 
ATOM     18  F   UNL     1      44.597 124.537  24.325  1.00  0.00    -0.207 F 
ENDBRANCH  10  11
ENDBRANCH   9  10
ENDBRANCH   7   9
ENDBRANCH   1   7
BRANCH   4  19
ATOM     19  N   UNL     1      46.270 131.106  19.638  1.00  0.00    -0.352 N 
ATOM     20  H   UNL     1      47.085 131.725  19.847  1.00  0.00     0.167 HD
BRANCH  19  21
ATOM     21  C   UNL     1      45.900 130.942  18.262  1.00  0.00     0.083 A 
ATOM     22  C   UNL     1      46.681 130.091  17.441  1.00  0.00     0.031 A 
ATOM     23  C   UNL     1      44.761 131.595  17.719  1.00  0.00     0.163 A 
ATOM     24  C   UNL     1      46.370 129.918  16.082  1.00  0.00     0.013 A 
ATOM     25  C   UNL     1      44.490 131.406  16.362  1.00  0.00     0.090 A 
ATOM     26  C   UNL     1      45.268 130.599  15.576  1.00  0.00     0.003 A 
ATOM     27  N   UNL     1      43.481 131.932  15.649  1.00  0.00    -0.358 N 
ATOM     28  C   UNL     1      44.731 130.615  14.306  1.00  0.00     0.028 A 
ATOM     29  C   UNL     1      43.624 131.453  14.392  1.00  0.00     0.083 A 
ATOM     30  H   UNL     1      42.732 132.577  15.989  1.00  0.00     0.166 HD
BRANCH  23  31
ATOM     31  O   UNL     1      43.907 132.381  18.492  1.00  0.00    -0.504 OA
ATOM     32  H   UNL     1      43.799 133.376  18.345  1.00  0.00     0.293 HD
ENDBRANCH  23  31
ENDBRANCH  19  21
ENDBRANCH   4  19
TORSDOF 7
ENDMDL
MODEL 5
REMARK VINA RESULT:      -5.4      1.250      1.668
REMARK SMILES O=C(CCc1c(F)cccc1F)c1ccc(Nc2ccc3cc[nH]c3c2O)cc1
REMARK SMILES IDX 13 1 14 2 15 3 16 4 28 5 29 6 2 7 1 8 3 9 4 10 5 11 6 12
REMARK SMILES IDX 11 13 8 14 10 15 9 16 7 17 12 18 17 19 18 21 19 22 26 23
REMARK SMILES IDX 20 24 25 25 21 26 24 27 22 28 23 29 27 31
REMARK H PARENT 17 20 24 30 27 32
ROOT
ATOM      1  C   UNL     1      44.847 131.265  18.654  1.00  0.00     0.018 A 
ATOM      2  C   UNL     1      45.444 130.069  19.097  1.00  0.00     0.014 A 
ATOM      3  C   UNL     1      45.354 129.680  20.436  1.00  0.00     0.027 A 
ATOM      4  C   UNL     1      44.656 130.472  21.364  1.00  0.00     0.039 A 
ATOM      5  C   UNL     1      44.072 131.670  20.931  1.00  0.00     0.027 A 
ATOM      6  C   UNL     1      44.163 132.062  19.592  1.00  0.00     0.014 A 
ENDROOT
BRANCH   1   7
ATOM      7  C   UNL     1      44.930 131.706  17.232  1.00  0.00     0.163 C 
ATOM      8  O   UNL     1      45.478 132.807  16.956  1.00  0.00    -0.294 OA
BRANCH   7   9
ATOM      9  C   UNL     1      44.413 130.871  16.090  1.00  0.00     0.086 C 
BRANCH   9  10
ATOM     10  C   UNL     1      44.968 131.373  14.753  1.00  0.00     0.050 C 
BRANCH  10  11
ATOM     11  C   UNL     1      46.248 130.653  14.406  1.00  0.00     0.024 A 
ATOM     12  C   UNL     1      46.858 130.851  13.153  1.00  0.00     0.129 A 
ATOM     13  C   UNL     1      46.875 129.820  15.352  1.00  0.00     0.129 A 
ATOM     14  C   UNL     1      48.061 130.206  12.847  1.00  0.00     0.040 A 
ATOM     15  C   UNL     1      48.078 129.179  15.037  1.00  0.00     0.040 A 
ATOM     16  C   UNL     1      48.668 129.370  13.786  1.00  0.00     0.006 A 
ATOM     17  F   UNL     1      46.295 131.672  12.230  1.00  0.00    -0.207 F 
ATOM     18  F   UNL     1      46.328 129.632  16.580  1.00  0.00    -0.207 F 
ENDBRANCH  10  11
ENDBRANCH   9  10
ENDBRANCH   7   9
ENDBRANCH   1   7
BRANCH   4  19
ATOM     19  N   UNL     1      44.552 130.099  22.751  1.00  0.00    -0.352 N 
ATOM     20  H   UNL     1      44.863 130.786  23.473  1.00  0.00     0.167 HD
BRANCH  19  21
ATOM     21  C   UNL     1      44.221 128.776  23.198  1.00  0.00     0.083 A 
ATOM     22  C   UNL     1      45.269 127.851  23.430  1.00  0.00     0.031 A 
ATOM     23  C   UNL     1      42.874 128.388  23.431  1.00  0.00     0.163 A 
ATOM     24  C   UNL     1      44.993 126.538  23.846  1.00  0.00     0.013 A 
ATOM     25  C   UNL     1      42.638 127.072  23.834  1.00  0.00     0.090 A 
ATOM     26  C   UNL     1      43.660 126.184  24.031  1.00  0.00     0.003 A 
ATOM     27  N   UNL     1      41.452 126.498  24.097  1.00  0.00    -0.358 N 
ATOM     28  C   UNL     1      43.099 124.990  24.434  1.00  0.00     0.028 A 
ATOM     29  C   UNL     1      41.729 125.225  24.462  1.00  0.00     0.083 A 
ATOM     30  H   UNL     1      40.507 126.938  24.036  1.00  0.00     0.166 HD
BRANCH  23  31
ATOM     31  O   UNL     1      41.805 129.274  23.298  1.00  0.00    -0.504 OA
ATOM     32  H   UNL     1      40.968 129.207  23.864  1.00  0.00     0.293 HD
ENDBRANCH  23  31
ENDBRANCH  19  21
ENDBRANCH   4  19
TORSDOF 7
ENDMDL
MODEL 6
REMARK VINA RESULT:      -5.1      4.920      8.801
REMARK SMILES O=C(CCc1c(F)cccc1F)c1ccc(Nc2ccc3cc[nH]c3c2O)cc1
REMARK SMILES IDX 13 1 14 2 15 3 16 4 28 5 29 6 2 7 1 8 3 9 4 10 5 11 6 12
REMARK SMILES IDX 11 13 8 14 10 15 9 16 7 17 12 18 17 19 18 21 19 22 26 23
REMARK SMILES IDX 20 24 25 25 21 26 24 27 22 28 23 29 27 31
REMARK H PARENT 17 20 24 30 27 32
ROOT
ATOM      1  C   UNL     1      45.502 132.414  21.347  1.00  0.00     0.018 A 
ATOM      2  C   UNL     1      44.326 132.863  20.714  1.00  0.00     0.014 A 
ATOM      3  C   UNL     1      43.931 132.332  19.484  1.00  0.00     0.027 A 
ATOM      4  C   UNL     1      44.696 131.333  18.858  1.00  0.00     0.039 A 
ATOM      5  C   UNL     1      45.874 130.894  19.477  1.00  0.00     0.027 A 
ATOM      6  C   UNL     1      46.272 131.425  20.707  1.00  0.00     0.014 A 
ENDROOT
BRANCH   1   7
ATOM      7  C   UNL     1      45.949 132.965  22.659  1.00  0.00     0.163 C 
ATOM      8  O   UNL     1      45.532 132.438  23.726  1.00  0.00    -0.294 OA
BRANCH   7   9
ATOM      9  C   UNL     1      46.914 134.115  22.771  1.00  0.00     0.086 C 
BRANCH   9  10
ATOM     10  C   UNL     1      48.230 133.795  22.055  1.00  0.00     0.050 C 
BRANCH  10  11
ATOM     11  C   UNL     1      49.242 134.888  22.290  1.00  0.00     0.024 A 
ATOM     12  C   UNL     1      49.289 136.009  21.439  1.00  0.00     0.129 A 
ATOM     13  C   UNL     1      50.111 134.828  23.396  1.00  0.00     0.129 A 
ATOM     14  C   UNL     1      50.207 137.036  21.679  1.00  0.00     0.040 A 
ATOM     15  C   UNL     1      51.027 135.860  23.628  1.00  0.00     0.040 A 
ATOM     16  C   UNL     1      51.077 136.960  22.769  1.00  0.00     0.006 A 
ATOM     17  F   UNL     1      48.444 136.112  20.381  1.00  0.00    -0.207 F 
ATOM     18  F   UNL     1      50.070 133.776  24.252  1.00  0.00    -0.207 F 
ENDBRANCH  10  11
ENDBRANCH   9  10
ENDBRANCH   7   9
ENDBRANCH   1   7
BRANCH   4  19
ATOM     19  N   UNL     1      44.316 130.773  17.588  1.00  0.00    -0.352 N 
ATOM     20  H   UNL     1      43.466 130.167  17.549  1.00  0.00     0.167 HD
BRANCH  19  21
ATOM     21  C   UNL     1      45.132 130.842  16.409  1.00  0.00     0.083 A 
ATOM     22  C   UNL     1      44.923 131.903  15.495  1.00  0.00     0.031 A 
ATOM     23  C   UNL     1      46.152 129.885  16.158  1.00  0.00     0.163 A 
ATOM     24  C   UNL     1      45.682 131.999  14.317  1.00  0.00     0.013 A 
ATOM     25  C   UNL     1      46.879 130.007  14.972  1.00  0.00     0.090 A 
ATOM     26  C   UNL     1      46.649 131.025  14.087  1.00  0.00     0.003 A 
ATOM     27  N   UNL     1      47.871 129.213  14.536  1.00  0.00    -0.358 N 
ATOM     28  C   UNL     1      47.532 130.870  13.039  1.00  0.00     0.028 A 
ATOM     29  C   UNL     1      48.272 129.736  13.354  1.00  0.00     0.083 A 
ATOM     30  H   UNL     1      48.260 128.367  15.008  1.00  0.00     0.166 HD
BRANCH  23  31
ATOM     31  O   UNL     1      46.461 128.864  17.057  1.00  0.00    -0.504 OA
ATOM     32  H   UNL     1      46.961 129.031  17.921  1.00  0.00     0.293 HD
ENDBRANCH  23  31
ENDBRANCH  19  21
ENDBRANCH   4  19
TORSDOF 7
ENDMDL
MODEL 7
REMARK VINA RESULT:      -4.8      1.344      2.174
REMARK SMILES O=C(CCc1c(F)cccc1F)c1ccc(Nc2ccc3cc[nH]c3c2O)cc1
REMARK SMILES IDX 13 1 14 2 15 3 16 4 28 5 29 6 2 7 1 8 3 9 4 10 5 11 6 12
REMARK SMILES IDX 11 13 8 14 10 15 9 16 7 17 12 18 17 19 18 21 19 22 26 23
REMARK SMILES IDX 20 24 25 25 21 26 24 27 22 28 23 29 27 31
REMARK H PARENT 17 20 24 30 27 32
ROOT
ATOM      1  C   UNL     1      43.761 131.699  17.052  1.00  0.00     0.018 A 
ATOM      2  C   UNL     1      45.084 131.590  17.525  1.00  0.00     0.014 A 
ATOM      3  C   UNL     1      45.353 131.581  18.896  1.00  0.00     0.027 A 
ATOM      4  C   UNL     1      44.306 131.672  19.829  1.00  0.00     0.039 A 
ATOM      5  C   UNL     1      42.990 131.795  19.364  1.00  0.00     0.027 A 
ATOM      6  C   UNL     1      42.719 131.806  17.992  1.00  0.00     0.014 A 
ENDROOT
BRANCH   1   7
ATOM      7  C   UNL     1      43.446 131.714  15.595  1.00  0.00     0.163 C 
ATOM      8  O   UNL     1      42.263 131.939  15.219  1.00  0.00    -0.294 OA
BRANCH   7   9
ATOM      9  C   UNL     1      44.493 131.503  14.534  1.00  0.00     0.086 C 
BRANCH   9  10
ATOM     10  C   UNL     1      45.891 131.809  15.080  1.00  0.00     0.050 C 
BRANCH  10  11
ATOM     11  C   UNL     1      46.901 130.831  14.532  1.00  0.00     0.024 A 
ATOM     12  C   UNL     1      46.884 129.484  14.942  1.00  0.00     0.129 A 
ATOM     13  C   UNL     1      47.833 131.241  13.560  1.00  0.00     0.129 A 
ATOM     14  C   UNL     1      47.801 128.574  14.407  1.00  0.00     0.040 A 
ATOM     15  C   UNL     1      48.747 130.323  13.030  1.00  0.00     0.040 A 
ATOM     16  C   UNL     1      48.733 128.994  13.456  1.00  0.00     0.006 A 
ATOM     17  F   UNL     1      45.977 129.050  15.855  1.00  0.00    -0.207 F 
ATOM     18  F   UNL     1      47.856 132.525  13.120  1.00  0.00    -0.207 F 
ENDBRANCH  10  11
ENDBRANCH   9  10
ENDBRANCH   7   9
ENDBRANCH   1   7
BRANCH   4  19
ATOM     19  N   UNL     1      44.554 131.671  21.248  1.00  0.00    -0.352 N 
ATOM     20  H   UNL     1      45.177 132.411  21.642  1.00  0.00     0.167 HD
BRANCH  19  21
ATOM     21  C   UNL     1      44.151 130.611  22.127  1.00  0.00     0.083 A 
ATOM     22  C   UNL     1      43.095 130.846  23.041  1.00  0.00     0.031 A 
ATOM     23  C   UNL     1      44.772 129.333  22.080  1.00  0.00     0.163 A 
ATOM     24  C   UNL     1      42.681 129.846  23.937  1.00  0.00     0.013 A 
ATOM     25  C   UNL     1      44.340 128.368  22.992  1.00  0.00     0.090 A 
ATOM     26  C   UNL     1      43.335 128.619  23.886  1.00  0.00     0.003 A 
ATOM     27  N   UNL     1      44.794 127.111  23.128  1.00  0.00    -0.358 N 
ATOM     28  C   UNL     1      43.141 127.471  24.625  1.00  0.00     0.028 A 
ATOM     29  C   UNL     1      44.065 126.559  24.125  1.00  0.00     0.083 A 
ATOM     30  H   UNL     1      45.550 126.647  22.578  1.00  0.00     0.166 HD
BRANCH  23  31
ATOM     31  O   UNL     1      45.761 129.014  21.150  1.00  0.00    -0.504 OA
ATOM     32  H   UNL     1      46.128 128.077  21.045  1.00  0.00     0.293 HD
ENDBRANCH  23  31
ENDBRANCH  19  21
ENDBRANCH   4  19
TORSDOF 7
ENDMDL


