MODEL 1
REMARK VINA RESULT:      -6.3      0.000      0.000
REMARK SMILES C[C@H](Cn1cccc1C/N=C(\O)c1ccc2cc[nH]c2c1N)OCCC#N
REMARK SMILES IDX 8 1 7 2 6 3 5 4 4 5 9 6 10 7 11 8 12 9 13 11 14 12 21 13
REMARK SMILES IDX 15 14 20 15 16 16 19 17 17 18 18 19 22 21 3 24 2 25 1 26
REMARK SMILES IDX 23 27 24 28 25 29 26 30 27 31
REMARK H PARENT 12 10 19 20 22 22 22 23
ROOT
ATOM      1  C   UNL     1      43.531 131.569  20.126  1.00  0.00     0.039 A 
ATOM      2  C   UNL     1      42.202 131.879  20.345  1.00  0.00     0.025 A 
ATOM      3  C   UNL     1      41.682 132.253  19.122  1.00  0.00     0.020 A 
ATOM      4  C   UNL     1      42.712 132.164  18.208  1.00  0.00     0.086 A 
ATOM      5  N   UNL     1      43.840 131.759  18.823  1.00  0.00    -0.347 N 
ENDROOT
BRANCH   1   6
ATOM      6  C   UNL     1      44.497 131.151  21.193  1.00  0.00     0.200 C 
BRANCH   6   7
ATOM      7  N   UNL     1      43.928 131.450  22.501  1.00  0.00    -0.245 NA
BRANCH   7   8
ATOM      8  C   UNL     1      44.053 130.706  23.562  1.00  0.00     0.216 C 
BRANCH   8   9
ATOM      9  O   UNL     1      44.953 131.034  24.582  1.00  0.00    -0.493 OA
ATOM     10  H   UNL     1      45.354 131.957  24.693  1.00  0.00     0.295 HD
ENDBRANCH   8   9
BRANCH   8  11
ATOM     11  C   UNL     1      43.250 129.469  23.674  1.00  0.00     0.061 A 
ATOM     12  C   UNL     1      41.896 129.573  24.088  1.00  0.00     0.016 A 
ATOM     13  C   UNL     1      43.787 128.190  23.339  1.00  0.00     0.069 A 
ATOM     14  C   UNL     1      41.067 128.442  24.146  1.00  0.00     0.011 A 
ATOM     15  C   UNL     1      42.921 127.087  23.400  1.00  0.00     0.070 A 
ATOM     16  C   UNL     1      41.613 127.217  23.788  1.00  0.00     0.002 A 
ATOM     17  N   UNL     1      43.201 125.795  23.139  1.00  0.00    -0.359 N 
ATOM     18  C   UNL     1      41.041 125.965  23.766  1.00  0.00     0.028 A 
ATOM     19  C   UNL     1      42.056 125.110  23.359  1.00  0.00     0.083 A 
ATOM     20  H   UNL     1      44.110 125.383  22.835  1.00  0.00     0.166 HD
BRANCH  13  21
ATOM     21  N   UNL     1      45.174 128.011  23.015  1.00  0.00    -0.396 N 
ATOM     22  H   UNL     1      45.863 128.785  23.131  1.00  0.00     0.156 HD
ATOM     23  H   UNL     1      45.521 127.136  22.568  1.00  0.00     0.156 HD
ENDBRANCH  13  21
ENDBRANCH   8  11
ENDBRANCH   7   8
ENDBRANCH   6   7
ENDBRANCH   1   6
BRANCH   5  24
ATOM     24  C   UNL     1      45.122 131.512  18.158  1.00  0.00     0.153 C 
BRANCH  24  25
ATOM     25  C   UNL     1      44.900 130.894  16.768  1.00  0.00     0.135 C 
ATOM     26  C   UNL     1      43.802 131.653  16.024  1.00  0.00     0.040 C 
BRANCH  25  27
ATOM     27  O   UNL     1      46.098 130.986  16.015  1.00  0.00    -0.376 OA
BRANCH  27  28
ATOM     28  C   UNL     1      46.751 129.737  15.942  1.00  0.00     0.176 C 
BRANCH  28  29
ATOM     29  C   UNL     1      46.854 129.315  14.479  1.00  0.00     0.148 C 
BRANCH  29  30
ATOM     30  C   UNL     1      47.303 130.438  13.650  1.00  0.00     0.065 C 
ATOM     31  N   UNL     1      47.659 131.324  12.995  1.00  0.00    -0.198 NA
ENDBRANCH  29  30
ENDBRANCH  28  29
ENDBRANCH  27  28
ENDBRANCH  25  27
ENDBRANCH  24  25
ENDBRANCH   5  24
TORSDOF 12
ENDMDL
MODEL 2
REMARK VINA RESULT:      -5.7      1.954      8.408
REMARK SMILES C[C@H](Cn1cccc1C/N=C(\O)c1ccc2cc[nH]c2c1N)OCCC#N
REMARK SMILES IDX 8 1 7 2 6 3 5 4 4 5 9 6 10 7 11 8 12 9 13 11 14 12 21 13
REMARK SMILES IDX 15 14 20 15 16 16 19 17 17 18 18 19 22 21 3 24 2 25 1 26
REMARK SMILES IDX 23 27 24 28 25 29 26 30 27 31
REMARK H PARENT 12 10 19 20 22 22 22 23
ROOT
ATOM      1  C   UNL     1      44.389 130.805  21.631  1.00  0.00     0.039 A 
ATOM      2  C   UNL     1      43.580 131.926  21.669  1.00  0.00     0.025 A 
ATOM      3  C   UNL     1      42.831 131.828  22.824  1.00  0.00     0.020 A 
ATOM      4  C   UNL     1      43.204 130.651  23.442  1.00  0.00     0.086 A 
ATOM      5  N   UNL     1      44.145 130.024  22.707  1.00  0.00    -0.347 N 
ENDROOT
BRANCH   1   6
ATOM      6  C   UNL     1      45.344 130.479  20.523  1.00  0.00     0.200 C 
BRANCH   6   7
ATOM      7  N   UNL     1      45.313 131.547  19.532  1.00  0.00    -0.245 NA
BRANCH   7   8
ATOM      8  C   UNL     1      44.741 131.471  18.365  1.00  0.00     0.216 C 
BRANCH   8   9
ATOM      9  O   UNL     1      43.399 131.824  18.186  1.00  0.00    -0.493 OA
ATOM     10  H   UNL     1      42.715 131.804  18.932  1.00  0.00     0.295 HD
ENDBRANCH   8   9
BRANCH   8  11
ATOM     11  C   UNL     1      45.518 130.968  17.211  1.00  0.00     0.061 A 
ATOM     12  C   UNL     1      45.900 129.601  17.192  1.00  0.00     0.016 A 
ATOM     13  C   UNL     1      45.853 131.808  16.107  1.00  0.00     0.069 A 
ATOM     14  C   UNL     1      46.577 129.053  16.092  1.00  0.00     0.011 A 
ATOM     15  C   UNL     1      46.520 131.218  15.022  1.00  0.00     0.070 A 
ATOM     16  C   UNL     1      46.865 129.891  15.023  1.00  0.00     0.002 A 
ATOM     17  N   UNL     1      46.941 131.806  13.885  1.00  0.00    -0.359 N 
ATOM     18  C   UNL     1      47.520 129.626  13.841  1.00  0.00     0.028 A 
ATOM     19  C   UNL     1      47.548 130.837  13.163  1.00  0.00     0.083 A 
ATOM     20  H   UNL     1      46.836 132.804  13.601  1.00  0.00     0.166 HD
BRANCH  13  21
ATOM     21  N   UNL     1      45.584 133.218  16.117  1.00  0.00    -0.396 N 
ATOM     22  H   UNL     1      46.280 133.906  15.756  1.00  0.00     0.156 HD
ATOM     23  H   UNL     1      44.729 133.607  16.569  1.00  0.00     0.156 HD
ENDBRANCH  13  21
ENDBRANCH   8  11
ENDBRANCH   7   8
ENDBRANCH   6   7
ENDBRANCH   1   6
BRANCH   5  24
ATOM     24  C   UNL     1      44.805 128.770  23.077  1.00  0.00     0.153 C 
BRANCH  24  25
ATOM     25  C   UNL     1      43.767 127.701  23.452  1.00  0.00     0.135 C 
ATOM     26  C   UNL     1      42.366 128.167  23.055  1.00  0.00     0.040 C 
BRANCH  25  27
ATOM     27  O   UNL     1      44.053 126.499  22.754  1.00  0.00    -0.376 OA
BRANCH  27  28
ATOM     28  C   UNL     1      44.925 125.675  23.498  1.00  0.00     0.176 C 
BRANCH  28  29
ATOM     29  C   UNL     1      44.561 124.215  23.248  1.00  0.00     0.148 C 
BRANCH  29  30
ATOM     30  C   UNL     1      43.128 124.081  22.972  1.00  0.00     0.065 C 
ATOM     31  N   UNL     1      41.995 123.976  22.754  1.00  0.00    -0.198 NA
ENDBRANCH  29  30
ENDBRANCH  28  29
ENDBRANCH  27  28
ENDBRANCH  25  27
ENDBRANCH  24  25
ENDBRANCH   5  24
TORSDOF 12
ENDMDL
MODEL 3
REMARK VINA RESULT:      -4.8      2.317      8.149
REMARK SMILES C[C@H](Cn1cccc1C/N=C(\O)c1ccc2cc[nH]c2c1N)OCCC#N
REMARK SMILES IDX 8 1 7 2 6 3 5 4 4 5 9 6 10 7 11 8 12 9 13 11 14 12 21 13
REMARK SMILES IDX 15 14 20 15 16 16 19 17 17 18 18 19 22 21 3 24 2 25 1 26
REMARK SMILES IDX 23 27 24 28 25 29 26 30 27 31
REMARK H PARENT 12 10 19 20 22 22 22 23
ROOT
ATOM      1  C   UNL     1      44.393 130.607  22.132  1.00  0.00     0.039 A 
ATOM      2  C   UNL     1      44.239 131.906  22.579  1.00  0.00     0.025 A 
ATOM      3  C   UNL     1      43.516 131.832  23.752  1.00  0.00     0.020 A 
ATOM      4  C   UNL     1      43.250 130.496  23.972  1.00  0.00     0.086 A 
ATOM      5  N   UNL     1      43.775 129.752  22.978  1.00  0.00    -0.347 N 
ENDROOT
BRANCH   1   6
ATOM      6  C   UNL     1      45.086 130.218  20.860  1.00  0.00     0.200 C 
BRANCH   6   7
ATOM      7  N   UNL     1      44.181 130.427  19.737  1.00  0.00    -0.245 NA
BRANCH   7   8
ATOM      8  C   UNL     1      44.178 131.474  18.962  1.00  0.00     0.216 C 
BRANCH   8   9
ATOM      9  O   UNL     1      43.739 132.720  19.422  1.00  0.00    -0.493 OA
ATOM     10  H   UNL     1      43.104 132.833  20.202  1.00  0.00     0.295 HD
ENDBRANCH   8   9
BRANCH   8  11
ATOM     11  C   UNL     1      44.617 131.333  17.557  1.00  0.00     0.061 A 
ATOM     12  C   UNL     1      43.733 131.743  16.524  1.00  0.00     0.016 A 
ATOM     13  C   UNL     1      45.912 130.839  17.219  1.00  0.00     0.069 A 
ATOM     14  C   UNL     1      44.122 131.698  15.177  1.00  0.00     0.011 A 
ATOM     15  C   UNL     1      46.265 130.821  15.861  1.00  0.00     0.070 A 
ATOM     16  C   UNL     1      45.398 131.237  14.884  1.00  0.00     0.002 A 
ATOM     17  N   UNL     1      47.418 130.396  15.307  1.00  0.00    -0.359 N 
ATOM     18  C   UNL     1      46.025 131.077  13.669  1.00  0.00     0.028 A 
ATOM     19  C   UNL     1      47.274 130.553  13.972  1.00  0.00     0.083 A 
ATOM     20  H   UNL     1      48.260 130.013  15.789  1.00  0.00     0.166 HD
BRANCH  13  21
ATOM     21  N   UNL     1      46.807 130.315  18.212  1.00  0.00    -0.396 N 
ATOM     22  H   UNL     1      46.802 129.303  18.467  1.00  0.00     0.156 HD
ATOM     23  H   UNL     1      47.422 130.939  18.776  1.00  0.00     0.156 HD
ENDBRANCH  13  21
ENDBRANCH   8  11
ENDBRANCH   7   8
ENDBRANCH   6   7
ENDBRANCH   1   6
BRANCH   5  24
ATOM     24  C   UNL     1      43.726 128.290  22.902  1.00  0.00     0.153 C 
BRANCH  24  25
ATOM     25  C   UNL     1      43.686 127.676  24.311  1.00  0.00     0.135 C 
ATOM     26  C   UNL     1      42.277 127.173  24.624  1.00  0.00     0.040 C 
BRANCH  25  27
ATOM     27  O   UNL     1      44.578 126.576  24.372  1.00  0.00    -0.376 OA
BRANCH  27  28
ATOM     28  C   UNL     1      45.878 126.952  23.970  1.00  0.00     0.176 C 
BRANCH  28  29
ATOM     29  C   UNL     1      46.363 125.988  22.892  1.00  0.00     0.148 C 
BRANCH  29  30
ATOM     30  C   UNL     1      46.812 124.727  23.493  1.00  0.00     0.065 C 
ATOM     31  N   UNL     1      47.165 123.732  23.966  1.00  0.00    -0.198 NA
ENDBRANCH  29  30
ENDBRANCH  28  29
ENDBRANCH  27  28
ENDBRANCH  25  27
ENDBRANCH  24  25
ENDBRANCH   5  24
TORSDOF 12
ENDMDL
MODEL 4
REMARK VINA RESULT:      -4.7      2.249      8.452
REMARK SMILES C[C@H](Cn1cccc1C/N=C(\O)c1ccc2cc[nH]c2c1N)OCCC#N
REMARK SMILES IDX 8 1 7 2 6 3 5 4 4 5 9 6 10 7 11 8 12 9 13 11 14 12 21 13
REMARK SMILES IDX 15 14 20 15 16 16 19 17 17 18 18 19 22 21 3 24 2 25 1 26
REMARK SMILES IDX 23 27 24 28 25 29 26 30 27 31
REMARK H PARENT 12 10 19 20 22 22 22 23
ROOT
ATOM      1  C   UNL     1      43.911 131.719  19.776  1.00  0.00     0.039 A 
ATOM      2  C   UNL     1      42.740 132.453  19.742  1.00  0.00     0.025 A 
ATOM      3  C   UNL     1      42.266 132.491  21.038  1.00  0.00     0.020 A 
ATOM      4  C   UNL     1      43.159 131.775  21.809  1.00  0.00     0.086 A 
ATOM      5  N   UNL     1      44.154 131.296  21.037  1.00  0.00    -0.347 N 
ENDROOT
BRANCH   1   6
ATOM      6  C   UNL     1      44.747 131.390  18.575  1.00  0.00     0.200 C 
BRANCH   6   7
ATOM      7  N   UNL     1      43.873 131.033  17.465  1.00  0.00    -0.245 NA
BRANCH   7   8
ATOM      8  C   UNL     1      43.939 131.540  16.267  1.00  0.00     0.216 C 
BRANCH   8   9
ATOM      9  O   UNL     1      42.915 132.348  15.760  1.00  0.00    -0.493 OA
ATOM     10  H   UNL     1      43.085 133.203  15.246  1.00  0.00     0.295 HD
ENDBRANCH   8   9
BRANCH   8  11
ATOM     11  C   UNL     1      45.105 131.226  15.414  1.00  0.00     0.061 A 
ATOM     12  C   UNL     1      45.755 132.290  14.733  1.00  0.00     0.016 A 
ATOM     13  C   UNL     1      45.614 129.899  15.293  1.00  0.00     0.069 A 
ATOM     14  C   UNL     1      46.907 132.062  13.966  1.00  0.00     0.011 A 
ATOM     15  C   UNL     1      46.775 129.716  14.525  1.00  0.00     0.070 A 
ATOM     16  C   UNL     1      47.391 130.763  13.890  1.00  0.00     0.002 A 
ATOM     17  N   UNL     1      47.427 128.567  14.265  1.00  0.00    -0.359 N 
ATOM     18  C   UNL     1      48.477 130.261  13.209  1.00  0.00     0.028 A 
ATOM     19  C   UNL     1      48.466 128.897  13.465  1.00  0.00     0.083 A 
ATOM     20  H   UNL     1      47.193 127.605  14.596  1.00  0.00     0.166 HD
BRANCH  13  21
ATOM     21  N   UNL     1      44.940 128.772  15.873  1.00  0.00    -0.396 N 
ATOM     22  H   UNL     1      44.047 128.886  16.401  1.00  0.00     0.156 HD
ATOM     23  H   UNL     1      45.364 127.820  15.867  1.00  0.00     0.156 HD
ENDBRANCH  13  21
ENDBRANCH   8  11
ENDBRANCH   7   8
ENDBRANCH   6   7
ENDBRANCH   1   6
BRANCH   5  24
ATOM     24  C   UNL     1      45.303 130.528  21.522  1.00  0.00     0.153 C 
BRANCH  24  25
ATOM     25  C   UNL     1      44.842 129.392  22.449  1.00  0.00     0.135 C 
ATOM     26  C   UNL     1      43.419 129.658  22.939  1.00  0.00     0.040 C 
BRANCH  25  27
ATOM     27  O   UNL     1      44.848 128.167  21.733  1.00  0.00    -0.376 OA
BRANCH  27  28
ATOM     28  C   UNL     1      44.550 127.080  22.583  1.00  0.00     0.176 C 
BRANCH  28  29
ATOM     29  C   UNL     1      45.199 127.321  23.942  1.00  0.00     0.148 C 
BRANCH  29  30
ATOM     30  C   UNL     1      46.203 126.290  24.224  1.00  0.00     0.065 C 
ATOM     31  N   UNL     1      46.995 125.476  24.447  1.00  0.00    -0.198 NA
ENDBRANCH  29  30
ENDBRANCH  28  29
ENDBRANCH  27  28
ENDBRANCH  25  27
ENDBRANCH  24  25
ENDBRANCH   5  24
TORSDOF 12
ENDMDL
MODEL 5
REMARK VINA RESULT:      -4.7      1.317      1.651
REMARK SMILES C[C@H](Cn1cccc1C/N=C(\O)c1ccc2cc[nH]c2c1N)OCCC#N
REMARK SMILES IDX 8 1 7 2 6 3 5 4 4 5 9 6 10 7 11 8 12 9 13 11 14 12 21 13
REMARK SMILES IDX 15 14 20 15 16 16 19 17 17 18 18 19 22 21 3 24 2 25 1 26
REMARK SMILES IDX 23 27 24 28 25 29 26 30 27 31
REMARK H PARENT 12 10 19 20 22 22 22 23
ROOT
ATOM      1  C   UNL     1      43.749 130.930  20.886  1.00  0.00     0.039 A 
ATOM      2  C   UNL     1      42.752 131.378  21.733  1.00  0.00     0.025 A 
ATOM      3  C   UNL     1      42.167 132.461  21.108  1.00  0.00     0.020 A 
ATOM      4  C   UNL     1      42.832 132.637  19.912  1.00  0.00     0.086 A 
ATOM      5  N   UNL     1      43.803 131.710  19.783  1.00  0.00    -0.347 N 
ENDROOT
BRANCH   1   6
ATOM      6  C   UNL     1      44.674 129.788  21.185  1.00  0.00     0.200 C 
BRANCH   6   7
ATOM      7  N   UNL     1      44.955 129.759  22.614  1.00  0.00    -0.245 NA
BRANCH   7   8
ATOM      8  C   UNL     1      44.107 129.410  23.538  1.00  0.00     0.216 C 
BRANCH   8   9
ATOM      9  O   UNL     1      43.720 130.300  24.547  1.00  0.00    -0.493 OA
ATOM     10  H   UNL     1      43.054 130.063  25.271  1.00  0.00     0.295 HD
ENDBRANCH   8   9
BRANCH   8  11
ATOM     11  C   UNL     1      43.567 128.033  23.540  1.00  0.00     0.061 A 
ATOM     12  C   UNL     1      42.168 127.852  23.379  1.00  0.00     0.016 A 
ATOM     13  C   UNL     1      44.415 126.892  23.657  1.00  0.00     0.069 A 
ATOM     14  C   UNL     1      41.608 126.568  23.303  1.00  0.00     0.011 A 
ATOM     15  C   UNL     1      43.816 125.626  23.564  1.00  0.00     0.070 A 
ATOM     16  C   UNL     1      42.464 125.479  23.394  1.00  0.00     0.002 A 
ATOM     17  N   UNL     1      44.407 124.419  23.652  1.00  0.00    -0.359 N 
ATOM     18  C   UNL     1      42.188 124.130  23.364  1.00  0.00     0.028 A 
ATOM     19  C   UNL     1      43.417 123.505  23.528  1.00  0.00     0.083 A 
ATOM     20  H   UNL     1      45.419 124.206  23.793  1.00  0.00     0.166 HD
BRANCH  13  21
ATOM     21  N   UNL     1      45.820 127.016  23.924  1.00  0.00    -0.396 N 
ATOM     22  H   UNL     1      46.449 127.549  23.286  1.00  0.00     0.156 HD
ATOM     23  H   UNL     1      46.273 126.501  24.709  1.00  0.00     0.156 HD
ENDBRANCH  13  21
ENDBRANCH   8  11
ENDBRANCH   7   8
ENDBRANCH   6   7
ENDBRANCH   1   6
BRANCH   5  24
ATOM     24  C   UNL     1      44.681 131.565  18.620  1.00  0.00     0.153 C 
BRANCH  24  25
ATOM     25  C   UNL     1      43.941 130.870  17.466  1.00  0.00     0.135 C 
ATOM     26  C   UNL     1      42.993 131.855  16.782  1.00  0.00     0.040 C 
BRANCH  25  27
ATOM     27  O   UNL     1      44.883 130.416  16.508  1.00  0.00    -0.376 OA
BRANCH  27  28
ATOM     28  C   UNL     1      46.026 131.244  16.486  1.00  0.00     0.176 C 
BRANCH  28  29
ATOM     29  C   UNL     1      46.207 131.801  15.077  1.00  0.00     0.148 C 
BRANCH  29  30
ATOM     30  C   UNL     1      46.877 130.821  14.217  1.00  0.00     0.065 C 
ATOM     31  N   UNL     1      47.406 130.047  13.537  1.00  0.00    -0.198 NA
ENDBRANCH  29  30
ENDBRANCH  28  29
ENDBRANCH  27  28
ENDBRANCH  25  27
ENDBRANCH  24  25
ENDBRANCH   5  24
TORSDOF 12
ENDMDL
MODEL 6
REMARK VINA RESULT:      -4.6      1.718      2.263
REMARK SMILES C[C@H](Cn1cccc1C/N=C(\O)c1ccc2cc[nH]c2c1N)OCCC#N
REMARK SMILES IDX 8 1 7 2 6 3 5 4 4 5 9 6 10 7 11 8 12 9 13 11 14 12 21 13
REMARK SMILES IDX 15 14 20 15 16 16 19 17 17 18 18 19 22 21 3 24 2 25 1 26
REMARK SMILES IDX 23 27 24 28 25 29 26 30 27 31
REMARK H PARENT 12 10 19 20 22 22 22 23
ROOT
ATOM      1  C   UNL     1      43.234 131.658  20.476  1.00  0.00     0.039 A 
ATOM      2  C   UNL     1      42.398 132.384  21.304  1.00  0.00     0.025 A 
ATOM      3  C   UNL     1      41.603 133.154  20.479  1.00  0.00     0.020 A 
ATOM      4  C   UNL     1      41.987 132.874  19.183  1.00  0.00     0.086 A 
ATOM      5  N   UNL     1      42.988 131.971  19.184  1.00  0.00    -0.347 N 
ENDROOT
BRANCH   1   6
ATOM      6  C   UNL     1      44.297 130.714  20.951  1.00  0.00     0.200 C 
BRANCH   6   7
ATOM      7  N   UNL     1      44.753 131.129  22.272  1.00  0.00    -0.245 NA
BRANCH   7   8
ATOM      8  C   UNL     1      44.396 130.577  23.396  1.00  0.00     0.216 C 
BRANCH   8   9
ATOM      9  O   UNL     1      44.430 131.288  24.601  1.00  0.00    -0.493 OA
ATOM     10  H   UNL     1      45.115 131.119  25.327  1.00  0.00     0.295 HD
ENDBRANCH   8   9
BRANCH   8  11
ATOM     11  C   UNL     1      43.976 129.159  23.403  1.00  0.00     0.061 A 
ATOM     12  C   UNL     1      44.964 128.157  23.215  1.00  0.00     0.016 A 
ATOM     13  C   UNL     1      42.621 128.777  23.633  1.00  0.00     0.069 A 
ATOM     14  C   UNL     1      44.636 126.794  23.282  1.00  0.00     0.011 A 
ATOM     15  C   UNL     1      42.338 127.403  23.704  1.00  0.00     0.070 A 
ATOM     16  C   UNL     1      43.314 126.456  23.534  1.00  0.00     0.002 A 
ATOM     17  N   UNL     1      41.145 126.810  23.903  1.00  0.00    -0.359 N 
ATOM     18  C   UNL     1      42.721 125.218  23.636  1.00  0.00     0.028 A 
ATOM     19  C   UNL     1      41.376 125.478  23.865  1.00  0.00     0.083 A 
ATOM     20  H   UNL     1      40.217 127.264  24.052  1.00  0.00     0.166 HD
BRANCH  13  21
ATOM     21  N   UNL     1      41.565 129.744  23.726  1.00  0.00    -0.396 N 
ATOM     22  H   UNL     1      40.957 129.964  22.908  1.00  0.00     0.156 HD
ATOM     23  H   UNL     1      41.430 130.324  24.582  1.00  0.00     0.156 HD
ENDBRANCH  13  21
ENDBRANCH   8  11
ENDBRANCH   7   8
ENDBRANCH   6   7
ENDBRANCH   1   6
BRANCH   5  24
ATOM     24  C   UNL     1      43.616 131.407  17.987  1.00  0.00     0.153 C 
BRANCH  24  25
ATOM     25  C   UNL     1      45.139 131.609  18.028  1.00  0.00     0.135 C 
ATOM     26  C   UNL     1      45.852 130.263  17.905  1.00  0.00     0.040 C 
BRANCH  25  27
ATOM     27  O   UNL     1      45.536 132.427  16.939  1.00  0.00    -0.376 OA
BRANCH  27  28
ATOM     28  C   UNL     1      45.639 131.675  15.749  1.00  0.00     0.176 C 
BRANCH  28  29
ATOM     29  C   UNL     1      44.366 130.855  15.569  1.00  0.00     0.148 C 
BRANCH  29  30
ATOM     30  C   UNL     1      43.643 131.281  14.367  1.00  0.00     0.065 C 
ATOM     31  N   UNL     1      43.072 131.618  13.417  1.00  0.00    -0.198 NA
ENDBRANCH  29  30
ENDBRANCH  28  29
ENDBRANCH  27  28
ENDBRANCH  25  27
ENDBRANCH  24  25
ENDBRANCH   5  24
TORSDOF 12
ENDMDL
MODEL 7
REMARK VINA RESULT:      -4.4      5.127      7.577
REMARK SMILES C[C@H](Cn1cccc1C/N=C(\O)c1ccc2cc[nH]c2c1N)OCCC#N
REMARK SMILES IDX 8 1 7 2 6 3 5 4 4 5 9 6 10 7 11 8 12 9 13 11 14 12 21 13
REMARK SMILES IDX 15 14 20 15 16 16 19 17 17 18 18 19 22 21 3 24 2 25 1 26
REMARK SMILES IDX 23 27 24 28 25 29 26 30 27 31
REMARK H PARENT 12 10 19 20 22 22 22 23
ROOT
ATOM      1  C   UNL     1      45.330 131.730  21.097  1.00  0.00     0.039 A 
ATOM      2  C   UNL     1      44.842 131.168  22.263  1.00  0.00     0.025 A 
ATOM      3  C   UNL     1      44.648 129.828  21.999  1.00  0.00     0.020 A 
ATOM      4  C   UNL     1      45.017 129.623  20.685  1.00  0.00     0.086 A 
ATOM      5  N   UNL     1      45.421 130.785  20.134  1.00  0.00    -0.347 N 
ENDROOT
BRANCH   1   6
ATOM      6  C   UNL     1      45.647 133.184  20.917  1.00  0.00     0.200 C 
BRANCH   6   7
ATOM      7  N   UNL     1      47.050 133.414  21.237  1.00  0.00    -0.245 NA
BRANCH   7   8
ATOM      8  C   UNL     1      47.490 133.931  22.347  1.00  0.00     0.216 C 
BRANCH   8   9
ATOM      9  O   UNL     1      46.794 133.777  23.551  1.00  0.00    -0.493 OA
ATOM     10  H   UNL     1      45.845 134.099  23.689  1.00  0.00     0.295 HD
ENDBRANCH   8   9
BRANCH   8  11
ATOM     11  C   UNL     1      48.737 134.727  22.328  1.00  0.00     0.061 A 
ATOM     12  C   UNL     1      48.878 135.747  21.349  1.00  0.00     0.016 A 
ATOM     13  C   UNL     1      49.774 134.524  23.287  1.00  0.00     0.069 A 
ATOM     14  C   UNL     1      50.007 136.578  21.327  1.00  0.00     0.011 A 
ATOM     15  C   UNL     1      50.881 135.386  23.237  1.00  0.00     0.070 A 
ATOM     16  C   UNL     1      50.986 136.372  22.290  1.00  0.00     0.002 A 
ATOM     17  N   UNL     1      51.974 135.382  24.025  1.00  0.00    -0.359 N 
ATOM     18  C   UNL     1      52.183 137.022  22.490  1.00  0.00     0.028 A 
ATOM     19  C   UNL     1      52.767 136.380  23.574  1.00  0.00     0.083 A 
ATOM     20  H   UNL     1      52.189 134.745  24.823  1.00  0.00     0.166 HD
BRANCH  13  21
ATOM     21  N   UNL     1      49.733 133.445  24.232  1.00  0.00    -0.396 N 
ATOM     22  H   UNL     1      48.869 132.877  24.370  1.00  0.00     0.156 HD
ATOM     23  H   UNL     1      50.530 133.252  24.875  1.00  0.00     0.156 HD
ENDBRANCH  13  21
ENDBRANCH   8  11
ENDBRANCH   7   8
ENDBRANCH   6   7
ENDBRANCH   1   6
BRANCH   5  24
ATOM     24  C   UNL     1      45.926 130.940  18.767  1.00  0.00     0.153 C 
BRANCH  24  25
ATOM     25  C   UNL     1      44.771 131.221  17.792  1.00  0.00     0.135 C 
ATOM     26  C   UNL     1      43.493 131.539  18.569  1.00  0.00     0.040 C 
BRANCH  25  27
ATOM     27  O   UNL     1      45.096 132.341  16.986  1.00  0.00    -0.376 OA
BRANCH  27  28
ATOM     28  C   UNL     1      45.799 131.947  15.827  1.00  0.00     0.176 C 
BRANCH  28  29
ATOM     29  C   UNL     1      45.452 130.496  15.507  1.00  0.00     0.148 C 
BRANCH  29  30
ATOM     30  C   UNL     1      46.564 129.843  14.807  1.00  0.00     0.065 C 
ATOM     31  N   UNL     1      47.441 129.328  14.256  1.00  0.00    -0.198 NA
ENDBRANCH  29  30
ENDBRANCH  28  29
ENDBRANCH  27  28
ENDBRANCH  25  27
ENDBRANCH  24  25
ENDBRANCH   5  24
TORSDOF 12
ENDMDL
MODEL 8
REMARK VINA RESULT:      -3.7      2.678      8.138
REMARK SMILES C[C@H](Cn1cccc1C/N=C(\O)c1ccc2cc[nH]c2c1N)OCCC#N
REMARK SMILES IDX 8 1 7 2 6 3 5 4 4 5 9 6 10 7 11 8 12 9 13 11 14 12 21 13
REMARK SMILES IDX 15 14 20 15 16 16 19 17 17 18 18 19 22 21 3 24 2 25 1 26
REMARK SMILES IDX 23 27 24 28 25 29 26 30 27 31
REMARK H PARENT 12 10 19 20 22 22 22 23
ROOT
ATOM      1  C   UNL     1      44.780 129.114  22.407  1.00  0.00     0.039 A 
ATOM      2  C   UNL     1      44.493 130.314  23.029  1.00  0.00     0.025 A 
ATOM      3  C   UNL     1      43.820 130.000  24.192  1.00  0.00     0.020 A 
ATOM      4  C   UNL     1      43.715 128.624  24.232  1.00  0.00     0.086 A 
ATOM      5  N   UNL     1      44.290 128.087  23.137  1.00  0.00    -0.347 N 
ENDROOT
BRANCH   1   6
ATOM      6  C   UNL     1      45.473 128.982  21.084  1.00  0.00     0.200 C 
BRANCH   6   7
ATOM      7  N   UNL     1      44.792 129.814  20.099  1.00  0.00    -0.245 NA
BRANCH   7   8
ATOM      8  C   UNL     1      45.342 130.786  19.430  1.00  0.00     0.216 C 
BRANCH   8   9
ATOM      9  O   UNL     1      46.238 131.673  20.036  1.00  0.00    -0.493 OA
ATOM     10  H   UNL     1      46.598 131.546  20.974  1.00  0.00     0.295 HD
ENDBRANCH   8   9
BRANCH   8  11
ATOM     11  C   UNL     1      44.985 130.975  18.008  1.00  0.00     0.061 A 
ATOM     12  C   UNL     1      43.749 131.599  17.693  1.00  0.00     0.016 A 
ATOM     13  C   UNL     1      45.866 130.586  16.954  1.00  0.00     0.069 A 
ATOM     14  C   UNL     1      43.390 131.867  16.364  1.00  0.00     0.011 A 
ATOM     15  C   UNL     1      45.473 130.884  15.639  1.00  0.00     0.070 A 
ATOM     16  C   UNL     1      44.280 131.500  15.364  1.00  0.00     0.002 A 
ATOM     17  N   UNL     1      46.129 130.610  14.494  1.00  0.00    -0.359 N 
ATOM     18  C   UNL     1      44.179 131.630  13.997  1.00  0.00     0.028 A 
ATOM     19  C   UNL     1      45.343 131.066  13.492  1.00  0.00     0.083 A 
ATOM     20  H   UNL     1      47.052 130.137  14.378  1.00  0.00     0.166 HD
BRANCH  13  21
ATOM     21  N   UNL     1      47.078 129.861  17.206  1.00  0.00    -0.396 N 
ATOM     22  H   UNL     1      47.977 130.130  16.751  1.00  0.00     0.156 HD
ATOM     23  H   UNL     1      47.083 128.988  17.776  1.00  0.00     0.156 HD
ENDBRANCH  13  21
ENDBRANCH   8  11
ENDBRANCH   7   8
ENDBRANCH   6   7
ENDBRANCH   1   6
BRANCH   5  24
ATOM     24  C   UNL     1      44.406 126.652  22.864  1.00  0.00     0.153 C 
BRANCH  24  25
ATOM     25  C   UNL     1      45.785 126.128  23.297  1.00  0.00     0.135 C 
ATOM     26  C   UNL     1      46.198 126.769  24.622  1.00  0.00     0.040 C 
BRANCH  25  27
ATOM     27  O   UNL     1      45.719 124.723  23.479  1.00  0.00    -0.376 OA
BRANCH  27  28
ATOM     28  C   UNL     1      46.253 124.040  22.365  1.00  0.00     0.176 C 
BRANCH  28  29
ATOM     29  C   UNL     1      45.430 122.780  22.116  1.00  0.00     0.148 C 
BRANCH  29  30
ATOM     30  C   UNL     1      44.100 123.126  21.606  1.00  0.00     0.065 C 
ATOM     31  N   UNL     1      43.049 123.399  21.204  1.00  0.00    -0.198 NA
ENDBRANCH  29  30
ENDBRANCH  28  29
ENDBRANCH  27  28
ENDBRANCH  25  27
ENDBRANCH  24  25
ENDBRANCH   5  24
TORSDOF 12
ENDMDL


