MODEL 1
REMARK VINA RESULT:      -5.0      0.000      0.000
REMARK SMILES N/N=c1\cc(-c2ccc3[nH]ccc3c2)n(C(=O)[C@H]2C3CCN2CC3)[n-]c1=O
REMARK SMILES IDX 5 1 4 2 3 3 26 4 27 5 25 6 15 7 6 8 7 9 8 10 14 11 9 12
REMARK SMILES IDX 13 13 10 14 12 15 11 16 16 18 17 19 18 20 22 21 19 22 21 23
REMARK SMILES IDX 23 24 20 25 24 26 2 27 1 28
REMARK H PARENT 10 17 1 29 1 30
ROOT
ATOM      1  C   UNL     1      43.233 125.767  23.485  1.00  0.00     0.040 A 
ATOM      2  C   UNL     1      42.213 124.822  23.300  1.00  0.00     0.058 A 
ATOM      3  C   UNL     1      40.869 125.226  23.311  1.00  0.00     0.111 A 
ATOM      4  C   UNL     1      40.597 126.583  23.516  1.00  0.00     0.118 A 
ATOM      5  O   UNL     1      39.410 127.004  23.547  1.00  0.00    -0.312 OA
ATOM      6  N   UNL     1      41.618 127.461  23.674  1.00  0.00    -0.551 NA
ATOM      7  N   UNL     1      42.902 127.092  23.663  1.00  0.00    -0.383 N 
ENDROOT
BRANCH   1   8
ATOM      8  C   UNL     1      44.632 125.282  23.514  1.00  0.00    -0.002 A 
ATOM      9  C   UNL     1      45.072 124.452  24.578  1.00  0.00     0.012 A 
ATOM     10  C   UNL     1      46.397 123.982  24.619  1.00  0.00     0.027 A 
ATOM     11  C   UNL     1      45.538 125.660  22.498  1.00  0.00     0.020 A 
ATOM     12  C   UNL     1      47.255 124.363  23.591  1.00  0.00     0.045 A 
ATOM     13  C   UNL     1      46.839 125.173  22.569  1.00  0.00     0.000 A 
ATOM     14  N   UNL     1      48.548 124.029  23.439  1.00  0.00    -0.361 N 
ATOM     15  C   UNL     1      47.915 125.364  21.730  1.00  0.00     0.028 A 
ATOM     16  C   UNL     1      48.956 124.638  22.302  1.00  0.00     0.083 A 
ATOM     17  H   UNL     1      49.122 123.425  24.067  1.00  0.00     0.166 HD
ENDBRANCH   1   8
BRANCH   7  18
ATOM     18  C   UNL     1      43.896 128.136  23.772  1.00  0.00     0.231 C 
ATOM     19  O   UNL     1      44.839 128.027  24.603  1.00  0.00    -0.274 OA
BRANCH  18  20
ATOM     20  C   UNL     1      43.933 129.293  22.782  1.00  0.00     0.149 C 
ATOM     21  N   UNL     1      44.780 130.406  23.220  1.00  0.00    -0.292 NA
ATOM     22  C   UNL     1      42.650 130.078  22.601  1.00  0.00     0.018 C 
ATOM     23  C   UNL     1      43.990 130.974  24.346  1.00  0.00     0.085 C 
ATOM     24  C   UNL     1      44.605 131.334  22.074  1.00  0.00     0.085 C 
ATOM     25  C   UNL     1      42.512 130.758  23.967  1.00  0.00     0.021 C 
ATOM     26  C   UNL     1      43.147 131.137  21.605  1.00  0.00     0.021 C 
ENDBRANCH  18  20
ENDBRANCH   7  18
BRANCH   3  27
ATOM     27  N   UNL     1      39.870 124.399  23.154  1.00  0.00    -0.181 NA
BRANCH  27  28
ATOM     28  N   UNL     1      39.673 123.539  22.060  1.00  0.00    -0.323 N 
ATOM     29  H   UNL     1      40.503 123.208  21.523  1.00  0.00     0.179 HD
ATOM     30  H   UNL     1      38.747 123.130  21.812  1.00  0.00     0.179 HD
ENDBRANCH  27  28
ENDBRANCH   3  27
TORSDOF 5
ENDMDL
MODEL 2
REMARK VINA RESULT:      -4.6      1.918      4.938
REMARK SMILES N/N=c1\cc(-c2ccc3[nH]ccc3c2)n(C(=O)[C@H]2C3CCN2CC3)[n-]c1=O
REMARK SMILES IDX 5 1 4 2 3 3 26 4 27 5 25 6 15 7 6 8 7 9 8 10 14 11 9 12
REMARK SMILES IDX 13 13 10 14 12 15 11 16 16 18 17 19 18 20 22 21 19 22 21 23
REMARK SMILES IDX 23 24 20 25 24 26 2 27 1 28
REMARK H PARENT 10 17 1 29 1 30
ROOT
ATOM      1  C   UNL     1      44.135 126.832  22.836  1.00  0.00     0.040 A 
ATOM      2  C   UNL     1      44.455 128.141  22.446  1.00  0.00     0.058 A 
ATOM      3  C   UNL     1      43.632 129.212  22.832  1.00  0.00     0.111 A 
ATOM      4  C   UNL     1      42.500 128.920  23.600  1.00  0.00     0.118 A 
ATOM      5  O   UNL     1      41.718 129.838  23.968  1.00  0.00    -0.312 OA
ATOM      6  N   UNL     1      42.242 127.641  23.966  1.00  0.00    -0.551 NA
ATOM      7  N   UNL     1      43.017 126.612  23.609  1.00  0.00    -0.383 N 
ENDROOT
BRANCH   1   8
ATOM      8  C   UNL     1      45.007 125.733  22.362  1.00  0.00    -0.002 A 
ATOM      9  C   UNL     1      44.431 124.517  21.910  1.00  0.00     0.012 A 
ATOM     10  C   UNL     1      45.246 123.465  21.455  1.00  0.00     0.027 A 
ATOM     11  C   UNL     1      46.412 125.883  22.376  1.00  0.00     0.020 A 
ATOM     12  C   UNL     1      46.625 123.656  21.469  1.00  0.00     0.045 A 
ATOM     13  C   UNL     1      47.186 124.823  21.914  1.00  0.00     0.000 A 
ATOM     14  N   UNL     1      47.575 122.788  21.080  1.00  0.00    -0.361 N 
ATOM     15  C   UNL     1      48.552 124.691  21.806  1.00  0.00     0.028 A 
ATOM     16  C   UNL     1      48.755 123.417  21.284  1.00  0.00     0.083 A 
ATOM     17  H   UNL     1      47.434 121.826  20.701  1.00  0.00     0.166 HD
ENDBRANCH   1   8
BRANCH   7  18
ATOM     18  C   UNL     1      42.669 125.307  24.124  1.00  0.00     0.231 C 
ATOM     19  O   UNL     1      43.565 124.554  24.595  1.00  0.00    -0.274 OA
BRANCH  18  20
ATOM     20  C   UNL     1      41.214 124.882  24.273  1.00  0.00     0.149 C 
ATOM     21  N   UNL     1      41.037 123.429  24.343  1.00  0.00    -0.292 NA
ATOM     22  C   UNL     1      40.304 125.137  23.090  1.00  0.00     0.018 C 
ATOM     23  C   UNL     1      41.351 123.010  22.951  1.00  0.00     0.085 C 
ATOM     24  C   UNL     1      39.561 123.353  24.482  1.00  0.00     0.085 C 
ATOM     25  C   UNL     1      40.873 124.165  22.051  1.00  0.00     0.021 C 
ATOM     26  C   UNL     1      39.007 124.521  23.637  1.00  0.00     0.021 C 
ENDBRANCH  18  20
ENDBRANCH   7  18
BRANCH   3  27
ATOM     27  N   UNL     1      43.867 130.452  22.497  1.00  0.00    -0.181 NA
BRANCH  27  28
ATOM     28  N   UNL     1      43.035 131.267  21.710  1.00  0.00    -0.323 N 
ATOM     29  H   UNL     1      42.335 131.879  22.183  1.00  0.00     0.179 HD
ATOM     30  H   UNL     1      43.145 131.373  20.680  1.00  0.00     0.179 HD
ENDBRANCH  27  28
ENDBRANCH   3  27
TORSDOF 5
ENDMDL
MODEL 3
REMARK VINA RESULT:      -4.5      2.132      5.754
REMARK SMILES N/N=c1\cc(-c2ccc3[nH]ccc3c2)n(C(=O)[C@H]2C3CCN2CC3)[n-]c1=O
REMARK SMILES IDX 5 1 4 2 3 3 26 4 27 5 25 6 15 7 6 8 7 9 8 10 14 11 9 12
REMARK SMILES IDX 13 13 10 14 12 15 11 16 16 18 17 19 18 20 22 21 19 22 21 23
REMARK SMILES IDX 23 24 20 25 24 26 2 27 1 28
REMARK H PARENT 10 17 1 29 1 30
ROOT
ATOM      1  C   UNL     1      44.268 126.344  23.041  1.00  0.00     0.040 A 
ATOM      2  C   UNL     1      42.973 125.817  22.935  1.00  0.00     0.058 A 
ATOM      3  C   UNL     1      42.750 124.448  23.152  1.00  0.00     0.111 A 
ATOM      4  C   UNL     1      43.854 123.648  23.465  1.00  0.00     0.118 A 
ATOM      5  O   UNL     1      43.719 122.411  23.660  1.00  0.00    -0.312 OA
ATOM      6  N   UNL     1      45.085 124.207  23.572  1.00  0.00    -0.551 NA
ATOM      7  N   UNL     1      45.312 125.508  23.372  1.00  0.00    -0.383 N 
ENDROOT
BRANCH   1   8
ATOM      8  C   UNL     1      44.459 127.784  22.754  1.00  0.00    -0.002 A 
ATOM      9  C   UNL     1      44.010 128.757  23.685  1.00  0.00     0.012 A 
ATOM     10  C   UNL     1      44.185 130.129  23.427  1.00  0.00     0.027 A 
ATOM     11  C   UNL     1      45.067 128.195  21.547  1.00  0.00     0.020 A 
ATOM     12  C   UNL     1      44.804 130.494  22.235  1.00  0.00     0.045 A 
ATOM     13  C   UNL     1      45.228 129.560  21.328  1.00  0.00     0.000 A 
ATOM     14  N   UNL     1      45.067 131.736  21.798  1.00  0.00    -0.361 N 
ATOM     15  C   UNL     1      45.785 130.238  20.267  1.00  0.00     0.028 A 
ATOM     16  C   UNL     1      45.668 131.586  20.595  1.00  0.00     0.083 A 
ATOM     17  H   UNL     1      44.853 132.636  22.282  1.00  0.00     0.166 HD
ENDBRANCH   1   8
BRANCH   7  18
ATOM     18  C   UNL     1      46.659 125.989  23.586  1.00  0.00     0.231 C 
ATOM     19  O   UNL     1      46.934 126.656  24.621  1.00  0.00    -0.274 OA
BRANCH  18  20
ATOM     20  C   UNL     1      47.802 125.562  22.674  1.00  0.00     0.149 C 
ATOM     21  N   UNL     1      47.758 124.142  22.313  1.00  0.00    -0.292 NA
ATOM     22  C   UNL     1      49.192 125.572  23.274  1.00  0.00     0.018 C 
ATOM     23  C   UNL     1      48.110 123.483  23.600  1.00  0.00     0.085 C 
ATOM     24  C   UNL     1      48.963 124.054  21.452  1.00  0.00     0.085 C 
ATOM     25  C   UNL     1      49.091 124.441  24.302  1.00  0.00     0.021 C 
ATOM     26  C   UNL     1      49.984 125.034  22.072  1.00  0.00     0.021 C 
ENDBRANCH  18  20
ENDBRANCH   7  18
BRANCH   3  27
ATOM     27  N   UNL     1      41.572 123.890  23.061  1.00  0.00    -0.181 NA
BRANCH  27  28
ATOM     28  N   UNL     1      41.203 122.644  23.595  1.00  0.00    -0.323 N 
ATOM     29  H   UNL     1      40.264 122.255  23.364  1.00  0.00     0.179 HD
ATOM     30  H   UNL     1      41.856 122.034  24.132  1.00  0.00     0.179 HD
ENDBRANCH  27  28
ENDBRANCH   3  27
TORSDOF 5
ENDMDL
MODEL 4
REMARK VINA RESULT:      -4.5      2.015      5.919
REMARK SMILES N/N=c1\cc(-c2ccc3[nH]ccc3c2)n(C(=O)[C@H]2C3CCN2CC3)[n-]c1=O
REMARK SMILES IDX 5 1 4 2 3 3 26 4 27 5 25 6 15 7 6 8 7 9 8 10 14 11 9 12
REMARK SMILES IDX 13 13 10 14 12 15 11 16 16 18 17 19 18 20 22 21 19 22 21 23
REMARK SMILES IDX 23 24 20 25 24 26 2 27 1 28
REMARK H PARENT 10 17 1 29 1 30
ROOT
ATOM      1  C   UNL     1      44.101 126.352  23.113  1.00  0.00     0.040 A 
ATOM      2  C   UNL     1      42.803 125.839  22.974  1.00  0.00     0.058 A 
ATOM      3  C   UNL     1      42.583 124.454  23.049  1.00  0.00     0.111 A 
ATOM      4  C   UNL     1      43.692 123.626  23.256  1.00  0.00     0.118 A 
ATOM      5  O   UNL     1      43.558 122.375  23.321  1.00  0.00    -0.312 OA
ATOM      6  N   UNL     1      44.925 124.172  23.399  1.00  0.00    -0.551 NA
ATOM      7  N   UNL     1      45.149 125.487  23.334  1.00  0.00    -0.383 N 
ENDROOT
BRANCH   1   8
ATOM      8  C   UNL     1      44.287 127.815  22.977  1.00  0.00    -0.002 A 
ATOM      9  C   UNL     1      44.940 128.343  21.833  1.00  0.00     0.012 A 
ATOM     10  C   UNL     1      45.122 129.730  21.689  1.00  0.00     0.027 A 
ATOM     11  C   UNL     1      43.836 128.687  23.993  1.00  0.00     0.020 A 
ATOM     12  C   UNL     1      44.649 130.558  22.703  1.00  0.00     0.045 A 
ATOM     13  C   UNL     1      44.030 130.053  23.815  1.00  0.00     0.000 A 
ATOM     14  N   UNL     1      44.720 131.898  22.763  1.00  0.00    -0.361 N 
ATOM     15  C   UNL     1      43.692 131.119  24.618  1.00  0.00     0.028 A 
ATOM     16  C   UNL     1      44.135 132.247  23.933  1.00  0.00     0.083 A 
ATOM     17  H   UNL     1      45.139 132.542  22.057  1.00  0.00     0.166 HD
ENDBRANCH   1   8
BRANCH   7  18
ATOM     18  C   UNL     1      46.500 125.944  23.575  1.00  0.00     0.231 C 
ATOM     19  O   UNL     1      46.768 126.606  24.615  1.00  0.00    -0.274 OA
BRANCH  18  20
ATOM     20  C   UNL     1      47.652 125.496  22.685  1.00  0.00     0.149 C 
ATOM     21  N   UNL     1      47.740 124.040  22.537  1.00  0.00    -0.292 NA
ATOM     22  C   UNL     1      49.052 125.726  23.215  1.00  0.00     0.018 C 
ATOM     23  C   UNL     1      48.195 123.617  23.889  1.00  0.00     0.085 C 
ATOM     24  C   UNL     1      48.922 123.940  21.645  1.00  0.00     0.085 C 
ATOM     25  C   UNL     1      49.095 124.757  24.400  1.00  0.00     0.021 C 
ATOM     26  C   UNL     1      49.857 125.093  22.070  1.00  0.00     0.021 C 
ENDBRANCH  18  20
ENDBRANCH   7  18
BRANCH   3  27
ATOM     27  N   UNL     1      41.403 123.908  22.920  1.00  0.00    -0.181 NA
BRANCH  27  28
ATOM     28  N   UNL     1      40.298 124.473  22.260  1.00  0.00    -0.323 N 
ATOM     29  H   UNL     1      39.733 125.198  22.754  1.00  0.00     0.179 HD
ATOM     30  H   UNL     1      40.067 124.281  21.263  1.00  0.00     0.179 HD
ENDBRANCH  27  28
ENDBRANCH   3  27
TORSDOF 5
ENDMDL
MODEL 5
REMARK VINA RESULT:      -3.7      1.952      5.352
REMARK SMILES N/N=c1\cc(-c2ccc3[nH]ccc3c2)n(C(=O)[C@H]2C3CCN2CC3)[n-]c1=O
REMARK SMILES IDX 5 1 4 2 3 3 26 4 27 5 25 6 15 7 6 8 7 9 8 10 14 11 9 12
REMARK SMILES IDX 13 13 10 14 12 15 11 16 16 18 17 19 18 20 22 21 19 22 21 23
REMARK SMILES IDX 23 24 20 25 24 26 2 27 1 28
REMARK H PARENT 10 17 1 29 1 30
ROOT
ATOM      1  C   UNL     1      44.718 124.517  23.236  1.00  0.00     0.040 A 
ATOM      2  C   UNL     1      45.788 123.646  22.983  1.00  0.00     0.058 A 
ATOM      3  C   UNL     1      47.074 124.160  22.749  1.00  0.00     0.111 A 
ATOM      4  C   UNL     1      47.236 125.549  22.771  1.00  0.00     0.118 A 
ATOM      5  O   UNL     1      48.363 126.069  22.557  1.00  0.00    -0.312 OA
ATOM      6  N   UNL     1      46.174 126.349  23.035  1.00  0.00    -0.551 NA
ATOM      7  N   UNL     1      44.945 125.875  23.264  1.00  0.00    -0.383 N 
ENDROOT
BRANCH   1   8
ATOM      8  C   UNL     1      43.373 123.928  23.428  1.00  0.00    -0.002 A 
ATOM      9  C   UNL     1      43.168 122.943  24.429  1.00  0.00     0.012 A 
ATOM     10  C   UNL     1      41.896 122.376  24.625  1.00  0.00     0.027 A 
ATOM     11  C   UNL     1      42.297 124.329  22.606  1.00  0.00     0.020 A 
ATOM     12  C   UNL     1      40.857 122.808  23.805  1.00  0.00     0.045 A 
ATOM     13  C   UNL     1      41.052 123.750  22.830  1.00  0.00     0.000 A 
ATOM     14  N   UNL     1      39.576 122.401  23.824  1.00  0.00    -0.361 N 
ATOM     15  C   UNL     1      39.843 123.949  22.202  1.00  0.00     0.028 A 
ATOM     16  C   UNL     1      38.952 123.096  22.846  1.00  0.00     0.083 A 
ATOM     17  H   UNL     1      39.148 121.693  24.461  1.00  0.00     0.166 HD
ENDBRANCH   1   8
BRANCH   7  18
ATOM     18  C   UNL     1      43.916 126.832  23.603  1.00  0.00     0.231 C 
ATOM     19  O   UNL     1      43.194 126.648  24.622  1.00  0.00    -0.274 OA
BRANCH  18  20
ATOM     20  C   UNL     1      43.792 128.153  22.857  1.00  0.00     0.149 C 
ATOM     21  N   UNL     1      44.815 129.133  23.235  1.00  0.00    -0.292 NA
ATOM     22  C   UNL     1      42.578 129.002  23.170  1.00  0.00     0.018 C 
ATOM     23  C   UNL     1      44.395 129.503  24.614  1.00  0.00     0.085 C 
ATOM     24  C   UNL     1      44.426 130.266  22.359  1.00  0.00     0.085 C 
ATOM     25  C   UNL     1      42.857 129.415  24.618  1.00  0.00     0.021 C 
ATOM     26  C   UNL     1      42.885 130.213  22.276  1.00  0.00     0.021 C 
ENDBRANCH  18  20
ENDBRANCH   7  18
BRANCH   3  27
ATOM     27  N   UNL     1      48.112 123.407  22.499  1.00  0.00    -0.181 NA
BRANCH  27  28
ATOM     28  N   UNL     1      49.371 123.503  23.116  1.00  0.00    -0.323 N 
ATOM     29  H   UNL     1      50.119 124.061  22.649  1.00  0.00     0.179 HD
ATOM     30  H   UNL     1      49.573 123.130  24.067  1.00  0.00     0.179 HD
ENDBRANCH  27  28
ENDBRANCH   3  27
TORSDOF 5
ENDMDL
MODEL 6
REMARK VINA RESULT:      -3.6      2.207      6.837
REMARK SMILES N/N=c1\cc(-c2ccc3[nH]ccc3c2)n(C(=O)[C@H]2C3CCN2CC3)[n-]c1=O
REMARK SMILES IDX 5 1 4 2 3 3 26 4 27 5 25 6 15 7 6 8 7 9 8 10 14 11 9 12
REMARK SMILES IDX 13 13 10 14 12 15 11 16 16 18 17 19 18 20 22 21 19 22 21 23
REMARK SMILES IDX 23 24 20 25 24 26 2 27 1 28
REMARK H PARENT 10 17 1 29 1 30
ROOT
ATOM      1  C   UNL     1      46.066 126.225  22.545  1.00  0.00     0.040 A 
ATOM      2  C   UNL     1      47.397 126.152  22.107  1.00  0.00     0.058 A 
ATOM      3  C   UNL     1      48.108 124.946  22.215  1.00  0.00     0.111 A 
ATOM      4  C   UNL     1      47.448 123.847  22.774  1.00  0.00     0.118 A 
ATOM      5  O   UNL     1      48.038 122.742  22.907  1.00  0.00    -0.312 OA
ATOM      6  N   UNL     1      46.156 123.963  23.169  1.00  0.00    -0.551 NA
ATOM      7  N   UNL     1      45.465 125.102  23.069  1.00  0.00    -0.383 N 
ENDROOT
BRANCH   1   8
ATOM      8  C   UNL     1      45.376 127.532  22.455  1.00  0.00    -0.002 A 
ATOM      9  C   UNL     1      45.759 128.468  21.460  1.00  0.00     0.012 A 
ATOM     10  C   UNL     1      45.111 129.713  21.360  1.00  0.00     0.027 A 
ATOM     11  C   UNL     1      44.350 127.859  23.369  1.00  0.00     0.020 A 
ATOM     12  C   UNL     1      44.093 129.992  22.269  1.00  0.00     0.045 A 
ATOM     13  C   UNL     1      43.728 129.097  23.238  1.00  0.00     0.000 A 
ATOM     14  N   UNL     1      43.352 131.110  22.348  1.00  0.00    -0.361 N 
ATOM     15  C   UNL     1      42.710 129.671  23.966  1.00  0.00     0.028 A 
ATOM     16  C   UNL     1      42.504 130.918  23.385  1.00  0.00     0.083 A 
ATOM     17  H   UNL     1      43.416 131.954  21.738  1.00  0.00     0.166 HD
ENDBRANCH   1   8
BRANCH   7  18
ATOM     18  C   UNL     1      44.074 125.073  23.461  1.00  0.00     0.231 C 
ATOM     19  O   UNL     1      43.732 125.474  24.607  1.00  0.00    -0.274 OA
BRANCH  18  20
ATOM     20  C   UNL     1      42.981 124.731  22.457  1.00  0.00     0.149 C 
ATOM     21  N   UNL     1      41.756 124.221  23.081  1.00  0.00    -0.292 NA
ATOM     22  C   UNL     1      43.241 123.554  21.540  1.00  0.00     0.018 C 
ATOM     23  C   UNL     1      42.186 122.879  23.557  1.00  0.00     0.085 C 
ATOM     24  C   UNL     1      40.924 123.993  21.874  1.00  0.00     0.085 C 
ATOM     25  C   UNL     1      43.220 122.384  22.528  1.00  0.00     0.021 C 
ATOM     26  C   UNL     1      41.908 123.537  20.775  1.00  0.00     0.021 C 
ENDBRANCH  18  20
ENDBRANCH   7  18
BRANCH   3  27
ATOM     27  N   UNL     1      49.351 124.811  21.835  1.00  0.00    -0.181 NA
BRANCH  27  28
ATOM     28  N   UNL     1      50.483 125.264  22.533  1.00  0.00    -0.323 N 
ATOM     29  H   UNL     1      50.588 125.013  23.540  1.00  0.00     0.179 HD
ATOM     30  H   UNL     1      51.279 125.756  22.076  1.00  0.00     0.179 HD
ENDBRANCH  27  28
ENDBRANCH   3  27
TORSDOF 5
ENDMDL
MODEL 7
REMARK VINA RESULT:      -3.5      1.030      1.294
REMARK SMILES N/N=c1\cc(-c2ccc3[nH]ccc3c2)n(C(=O)[C@H]2C3CCN2CC3)[n-]c1=O
REMARK SMILES IDX 5 1 4 2 3 3 26 4 27 5 25 6 15 7 6 8 7 9 8 10 14 11 9 12
REMARK SMILES IDX 13 13 10 14 12 15 11 16 16 18 17 19 18 20 22 21 19 22 21 23
REMARK SMILES IDX 23 24 20 25 24 26 2 27 1 28
REMARK H PARENT 10 17 1 29 1 30
ROOT
ATOM      1  C   UNL     1      43.110 126.254  23.432  1.00  0.00     0.040 A 
ATOM      2  C   UNL     1      42.194 125.194  23.361  1.00  0.00     0.058 A 
ATOM      3  C   UNL     1      40.824 125.434  23.555  1.00  0.00     0.111 A 
ATOM      4  C   UNL     1      40.423 126.747  23.824  1.00  0.00     0.118 A 
ATOM      5  O   UNL     1      39.209 127.022  24.018  1.00  0.00    -0.312 OA
ATOM      6  N   UNL     1      41.344 127.740  23.867  1.00  0.00    -0.551 NA
ATOM      7  N   UNL     1      42.650 127.528  23.681  1.00  0.00    -0.383 N 
ENDROOT
BRANCH   1   8
ATOM      8  C   UNL     1      44.548 125.941  23.268  1.00  0.00    -0.002 A 
ATOM      9  C   UNL     1      44.968 125.053  22.244  1.00  0.00     0.012 A 
ATOM     10  C   UNL     1      46.331 124.748  22.075  1.00  0.00     0.027 A 
ATOM     11  C   UNL     1      45.503 126.508  24.142  1.00  0.00     0.020 A 
ATOM     12  C   UNL     1      47.243 125.339  22.945  1.00  0.00     0.045 A 
ATOM     13  C   UNL     1      46.842 126.187  23.942  1.00  0.00     0.000 A 
ATOM     14  N   UNL     1      48.578 125.185  22.958  1.00  0.00    -0.361 N 
ATOM     15  C   UNL     1      47.971 126.589  24.620  1.00  0.00     0.028 A 
ATOM     16  C   UNL     1      49.028 125.948  23.981  1.00  0.00     0.083 A 
ATOM     17  H   UNL     1      49.152 124.598  22.315  1.00  0.00     0.166 HD
ENDBRANCH   1   8
BRANCH   7  18
ATOM     18  C   UNL     1      43.519 128.684  23.682  1.00  0.00     0.231 C 
ATOM     19  O   UNL     1      44.445 128.777  24.534  1.00  0.00    -0.274 OA
BRANCH  18  20
ATOM     20  C   UNL     1      43.455 129.718  22.565  1.00  0.00     0.149 C 
ATOM     21  N   UNL     1      44.636 130.583  22.506  1.00  0.00    -0.292 NA
ATOM     22  C   UNL     1      42.415 130.810  22.706  1.00  0.00     0.018 C 
ATOM     23  C   UNL     1      44.471 131.419  23.726  1.00  0.00     0.085 C 
ATOM     24  C   UNL     1      44.270 131.445  21.354  1.00  0.00     0.085 C 
ATOM     25  C   UNL     1      42.952 131.591  23.909  1.00  0.00     0.021 C 
ATOM     26  C   UNL     1      42.739 131.624  21.444  1.00  0.00     0.021 C 
ENDBRANCH  18  20
ENDBRANCH   7  18
BRANCH   3  27
ATOM     27  N   UNL     1      39.919 124.493  23.511  1.00  0.00    -0.181 NA
BRANCH  27  28
ATOM     28  N   UNL     1      40.085 123.210  22.962  1.00  0.00    -0.323 N 
ATOM     29  H   UNL     1      39.301 122.791  22.416  1.00  0.00     0.179 HD
ATOM     30  H   UNL     1      40.987 122.691  22.982  1.00  0.00     0.179 HD
ENDBRANCH  27  28
ENDBRANCH   3  27
TORSDOF 5
ENDMDL
MODEL 8
REMARK VINA RESULT:      -2.4      3.977      7.877
REMARK SMILES N/N=c1\cc(-c2ccc3[nH]ccc3c2)n(C(=O)[C@H]2C3CCN2CC3)[n-]c1=O
REMARK SMILES IDX 5 1 4 2 3 3 26 4 27 5 25 6 15 7 6 8 7 9 8 10 14 11 9 12
REMARK SMILES IDX 13 13 10 14 12 15 11 16 16 18 17 19 18 20 22 21 19 22 21 23
REMARK SMILES IDX 23 24 20 25 24 26 2 27 1 28
REMARK H PARENT 10 17 1 29 1 30
ROOT
ATOM      1  C   UNL     1      45.547 132.288  21.056  1.00  0.00     0.040 A 
ATOM      2  C   UNL     1      46.812 132.884  21.162  1.00  0.00     0.058 A 
ATOM      3  C   UNL     1      47.252 133.385  22.398  1.00  0.00     0.111 A 
ATOM      4  C   UNL     1      46.389 133.273  23.493  1.00  0.00     0.118 A 
ATOM      5  O   UNL     1      46.723 133.714  24.624  1.00  0.00    -0.312 OA
ATOM      6  N   UNL     1      45.181 132.675  23.343  1.00  0.00    -0.551 NA
ATOM      7  N   UNL     1      44.750 132.190  22.175  1.00  0.00    -0.383 N 
ENDROOT
BRANCH   1   8
ATOM      8  C   UNL     1      45.110 131.820  19.721  1.00  0.00    -0.002 A 
ATOM      9  C   UNL     1      43.841 132.206  19.216  1.00  0.00     0.012 A 
ATOM     10  C   UNL     1      43.413 131.771  17.948  1.00  0.00     0.027 A 
ATOM     11  C   UNL     1      45.942 130.973  18.956  1.00  0.00     0.020 A 
ATOM     12  C   UNL     1      44.268 130.950  17.218  1.00  0.00     0.045 A 
ATOM     13  C   UNL     1      45.488 130.565  17.705  1.00  0.00     0.000 A 
ATOM     14  N   UNL     1      44.056 130.429  15.998  1.00  0.00    -0.361 N 
ATOM     15  C   UNL     1      46.077 129.763  16.755  1.00  0.00     0.028 A 
ATOM     16  C   UNL     1      45.160 129.701  15.710  1.00  0.00     0.083 A 
ATOM     17  H   UNL     1      43.214 130.555  15.394  1.00  0.00     0.166 HD
ENDBRANCH   1   8
BRANCH   7  18
ATOM     18  C   UNL     1      43.473 131.513  22.166  1.00  0.00     0.231 C 
ATOM     19  O   UNL     1      42.430 132.136  21.824  1.00  0.00    -0.274 OA
BRANCH  18  20
ATOM     20  C   UNL     1      43.377 130.010  22.394  1.00  0.00     0.149 C 
ATOM     21  N   UNL     1      42.299 129.628  23.310  1.00  0.00    -0.292 NA
ATOM     22  C   UNL     1      44.519 129.360  23.147  1.00  0.00     0.018 C 
ATOM     23  C   UNL     1      42.814 130.118  24.618  1.00  0.00     0.085 C 
ATOM     24  C   UNL     1      42.472 128.154  23.316  1.00  0.00     0.085 C 
ATOM     25  C   UNL     1      44.345 129.962  24.545  1.00  0.00     0.021 C 
ATOM     26  C   UNL     1      43.993 127.918  23.196  1.00  0.00     0.021 C 
ENDBRANCH  18  20
ENDBRANCH   7  18
BRANCH   3  27
ATOM     27  N   UNL     1      48.414 133.959  22.566  1.00  0.00    -0.181 NA
BRANCH  27  28
ATOM     28  N   UNL     1      48.642 135.199  23.187  1.00  0.00    -0.323 N 
ATOM     29  H   UNL     1      48.038 135.479  23.989  1.00  0.00     0.179 HD
ATOM     30  H   UNL     1      49.450 135.815  22.956  1.00  0.00     0.179 HD
ENDBRANCH  27  28
ENDBRANCH   3  27
TORSDOF 5
ENDMDL
MODEL 9
REMARK VINA RESULT:      -2.1      3.798      7.809
REMARK SMILES N/N=c1\cc(-c2ccc3[nH]ccc3c2)n(C(=O)[C@H]2C3CCN2CC3)[n-]c1=O
REMARK SMILES IDX 5 1 4 2 3 3 26 4 27 5 25 6 15 7 6 8 7 9 8 10 14 11 9 12
REMARK SMILES IDX 13 13 10 14 12 15 11 16 16 18 17 19 18 20 22 21 19 22 21 23
REMARK SMILES IDX 23 24 20 25 24 26 2 27 1 28
REMARK H PARENT 10 17 1 29 1 30
ROOT
ATOM      1  C   UNL     1      45.754 132.014  20.949  1.00  0.00     0.040 A 
ATOM      2  C   UNL     1      46.903 132.790  21.157  1.00  0.00     0.058 A 
ATOM      3  C   UNL     1      47.115 133.414  22.398  1.00  0.00     0.111 A 
ATOM      4  C   UNL     1      46.147 133.236  23.392  1.00  0.00     0.118 A 
ATOM      5  O   UNL     1      46.277 133.780  24.521  1.00  0.00    -0.312 OA
ATOM      6  N   UNL     1      45.061 132.463  23.147  1.00  0.00    -0.551 NA
ATOM      7  N   UNL     1      44.847 131.860  21.974  1.00  0.00    -0.383 N 
ENDROOT
BRANCH   1   8
ATOM      8  C   UNL     1      45.552 131.417  19.608  1.00  0.00    -0.002 A 
ATOM      9  C   UNL     1      46.157 130.174  19.288  1.00  0.00     0.012 A 
ATOM     10  C   UNL     1      45.972 129.594  18.020  1.00  0.00     0.027 A 
ATOM     11  C   UNL     1      44.776 132.091  18.640  1.00  0.00     0.020 A 
ATOM     12  C   UNL     1      45.188 130.281  17.097  1.00  0.00     0.045 A 
ATOM     13  C   UNL     1      44.612 131.486  17.397  1.00  0.00     0.000 A 
ATOM     14  N   UNL     1      44.886 129.908  15.842  1.00  0.00    -0.361 N 
ATOM     15  C   UNL     1      43.914 131.898  16.284  1.00  0.00     0.028 A 
ATOM     16  C   UNL     1      44.107 130.894  15.340  1.00  0.00     0.083 A 
ATOM     17  H   UNL     1      45.190 129.038  15.351  1.00  0.00     0.166 HD
ENDBRANCH   1   8
BRANCH   7  18
ATOM     18  C   UNL     1      43.685 131.006  21.867  1.00  0.00     0.231 C 
ATOM     19  O   UNL     1      42.684 131.383  21.198  1.00  0.00    -0.274 OA
BRANCH  18  20
ATOM     20  C   UNL     1      43.705 129.580  22.400  1.00  0.00     0.149 C 
ATOM     21  N   UNL     1      42.539 129.251  23.226  1.00  0.00    -0.292 NA
ATOM     22  C   UNL     1      44.773 129.249  23.422  1.00  0.00     0.018 C 
ATOM     23  C   UNL     1      42.791 130.055  24.452  1.00  0.00     0.085 C 
ATOM     24  C   UNL     1      42.855 127.843  23.574  1.00  0.00     0.085 C 
ATOM     25  C   UNL     1      44.321 130.090  24.620  1.00  0.00     0.021 C 
ATOM     26  C   UNL     1      44.392 127.789  23.713  1.00  0.00     0.021 C 
ENDBRANCH  18  20
ENDBRANCH   7  18
BRANCH   3  27
ATOM     27  N   UNL     1      48.158 134.157  22.656  1.00  0.00    -0.181 NA
BRANCH  27  28
ATOM     28  N   UNL     1      49.383 133.710  23.180  1.00  0.00    -0.323 N 
ATOM     29  H   UNL     1      50.269 134.056  22.753  1.00  0.00     0.179 HD
ATOM     30  H   UNL     1      49.460 133.128  24.041  1.00  0.00     0.179 HD
ENDBRANCH  27  28
ENDBRANCH   3  27
TORSDOF 5
ENDMDL


