MODEL 1
REMARK VINA RESULT:      -4.3      0.000      0.000
REMARK SMILES C=C[C@@H](Oc1nc[nH+]c(C)c1C)c1cc2[nH]ccc2cc1-c1c[nH+]c2c(c1)C(=O)NC2
REMARK SMILES IDX 3 1 2 2 1 3 4 4 5 5 6 6 11 7 7 8 9 9 8 10 12 11 10 12 13 14
REMARK SMILES IDX 14 15 21 16 15 17 20 18 16 19 19 20 17 21 18 22 22 24 23 25
REMARK SMILES IDX 27 26 24 27 26 28 25 29 28 30 31 31 30 32 29 34
REMARK H PARENT 8 13 16 23 24 33 30 35
ROOT
ATOM      1  C   UNL     1      45.265 130.383  21.191  1.00  0.00     0.231 C 
ENDROOT
BRANCH   1   2
ATOM      2  C   UNL     1      46.514 131.211  21.055  1.00  0.00     0.014 C 
ATOM      3  C   UNL     1      46.471 132.547  21.084  1.00  0.00     0.008 C 
ENDBRANCH   1   2
BRANCH   1   4
ATOM      4  O   UNL     1      45.229 129.767  22.480  1.00  0.00    -0.447 OA
BRANCH   4   5
ATOM      5  C   UNL     1      44.398 128.686  22.806  1.00  0.00     0.335 A 
ATOM      6  N   UNL     1      43.203 128.903  23.416  1.00  0.00    -0.010 NA
ATOM      7  C   UNL     1      44.807 127.372  22.518  1.00  0.00     0.080 A 
ATOM      8  C   UNL     1      42.391 127.876  23.763  1.00  0.00     0.453 A 
ATOM      9  C   UNL     1      43.941 126.315  22.880  1.00  0.00     0.108 A 
ATOM     10  N   UNL     1      42.761 126.597  23.503  1.00  0.00    -0.247 N 
ATOM     11  C   UNL     1      46.113 127.106  21.808  1.00  0.00     0.057 C 
ATOM     12  C   UNL     1      44.308 124.880  22.610  1.00  0.00     0.093 C 
ATOM     13  H   UNL     1      42.118 125.826  23.791  1.00  0.00     0.311 HD
ENDBRANCH   4   5
ENDBRANCH   1   4
BRANCH   1  14
ATOM     14  C   UNL     1      44.031 131.239  20.934  1.00  0.00     0.007 A 
ATOM     15  C   UNL     1      43.249 131.608  22.054  1.00  0.00     0.035 A 
ATOM     16  C   UNL     1      43.620 131.664  19.623  1.00  0.00    -0.004 A 
ATOM     17  C   UNL     1      42.125 132.402  21.853  1.00  0.00     0.046 A 
ATOM     18  C   UNL     1      42.477 132.482  19.474  1.00  0.00     0.019 A 
ATOM     19  N   UNL     1      41.272 132.858  22.784  1.00  0.00    -0.361 N 
ATOM     20  C   UNL     1      41.759 132.827  20.610  1.00  0.00    -0.000 A 
ATOM     21  C   UNL     1      40.350 133.588  22.116  1.00  0.00     0.083 A 
ATOM     22  C   UNL     1      40.622 133.593  20.753  1.00  0.00     0.028 A 
ATOM     23  H   UNL     1      41.311 132.691  23.814  1.00  0.00     0.166 HD
BRANCH  16  24
ATOM     24  C   UNL     1      44.365 131.303  18.398  1.00  0.00     0.047 A 
ATOM     25  C   UNL     1      45.631 130.675  18.499  1.00  0.00     0.315 A 
ATOM     26  C   UNL     1      43.838 131.589  17.124  1.00  0.00     0.035 A 
ATOM     27  N   UNL     1      46.320 130.313  17.375  1.00  0.00    -0.212 N 
ATOM     28  C   UNL     1      44.578 131.196  16.015  1.00  0.00     0.109 A 
ATOM     29  C   UNL     1      45.791 130.568  16.151  1.00  0.00     0.211 A 
ATOM     30  C   UNL     1      44.314 131.305  14.604  1.00  0.00     0.258 C 
ATOM     31  C   UNL     1      46.383 130.222  14.816  1.00  0.00     0.225 C 
ATOM     32  N   UNL     1      45.387 130.729  13.870  1.00  0.00    -0.342 N 
ATOM     33  H   UNL     1      47.244 129.831  17.460  1.00  0.00     0.453 HD
ATOM     34  O   UNL     1      43.294 131.826  14.081  1.00  0.00    -0.269 OA
ATOM     35  H   UNL     1      45.447 130.668  12.829  1.00  0.00     0.164 HD
ENDBRANCH  16  24
ENDBRANCH   1  14
TORSDOF 5
ENDMDL
MODEL 2
REMARK VINA RESULT:      -4.2      2.197      7.277
REMARK SMILES C=C[C@@H](Oc1nc[nH+]c(C)c1C)c1cc2[nH]ccc2cc1-c1c[nH+]c2c(c1)C(=O)NC2
REMARK SMILES IDX 3 1 2 2 1 3 4 4 5 5 6 6 11 7 7 8 9 9 8 10 12 11 10 12 13 14
REMARK SMILES IDX 14 15 21 16 15 17 20 18 16 19 19 20 17 21 18 22 22 24 23 25
REMARK SMILES IDX 27 26 24 27 26 28 25 29 28 30 31 31 30 32 29 34
REMARK H PARENT 8 13 16 23 24 33 30 35
ROOT
ATOM      1  C   UNL     1      44.362 131.396  20.210  1.00  0.00     0.231 C 
ENDROOT
BRANCH   1   2
ATOM      2  C   UNL     1      42.882 131.494  20.473  1.00  0.00     0.014 C 
ATOM      3  C   UNL     1      42.195 132.603  20.182  1.00  0.00     0.008 C 
ENDBRANCH   1   2
BRANCH   1   4
ATOM      4  O   UNL     1      44.669 131.982  18.943  1.00  0.00    -0.447 OA
BRANCH   4   5
ATOM      5  C   UNL     1      45.020 131.243  17.806  1.00  0.00     0.335 A 
ATOM      6  N   UNL     1      46.130 130.459  17.816  1.00  0.00    -0.010 NA
ATOM      7  C   UNL     1      44.234 131.324  16.643  1.00  0.00     0.080 A 
ATOM      8  C   UNL     1      46.506 129.751  16.724  1.00  0.00     0.453 A 
ATOM      9  C   UNL     1      44.638 130.571  15.517  1.00  0.00     0.108 A 
ATOM     10  N   UNL     1      45.770 129.813  15.586  1.00  0.00    -0.247 N 
ATOM     11  C   UNL     1      42.975 132.159  16.616  1.00  0.00     0.057 C 
ATOM     12  C   UNL     1      43.852 130.608  14.233  1.00  0.00     0.093 C 
ATOM     13  H   UNL     1      46.090 129.265  14.757  1.00  0.00     0.311 HD
ENDBRANCH   4   5
ENDBRANCH   1   4
BRANCH   1  14
ATOM     14  C   UNL     1      45.145 132.046  21.344  1.00  0.00     0.007 A 
ATOM     15  C   UNL     1      46.193 132.929  20.990  1.00  0.00     0.035 A 
ATOM     16  C   UNL     1      44.886 131.789  22.735  1.00  0.00    -0.004 A 
ATOM     17  C   UNL     1      46.917 133.548  22.002  1.00  0.00     0.046 A 
ATOM     18  C   UNL     1      45.642 132.455  23.726  1.00  0.00     0.019 A 
ATOM     19  N   UNL     1      47.931 134.418  21.865  1.00  0.00    -0.361 N 
ATOM     20  C   UNL     1      46.645 133.324  23.320  1.00  0.00    -0.000 A 
ATOM     21  C   UNL     1      48.306 134.750  23.121  1.00  0.00     0.083 A 
ATOM     22  C   UNL     1      47.524 134.086  24.059  1.00  0.00     0.028 A 
ATOM     23  H   UNL     1      48.345 134.770  20.974  1.00  0.00     0.166 HD
BRANCH  16  24
ATOM     24  C   UNL     1      43.828 130.864  23.191  1.00  0.00     0.047 A 
ATOM     25  C   UNL     1      42.597 131.377  23.672  1.00  0.00     0.315 A 
ATOM     26  C   UNL     1      44.031 129.471  23.169  1.00  0.00     0.035 A 
ATOM     27  N   UNL     1      41.600 130.532  24.073  1.00  0.00    -0.212 N 
ATOM     28  C   UNL     1      42.984 128.658  23.586  1.00  0.00     0.109 A 
ATOM     29  C   UNL     1      41.796 129.189  24.022  1.00  0.00     0.211 A 
ATOM     30  C   UNL     1      42.856 127.225  23.652  1.00  0.00     0.258 C 
ATOM     31  C   UNL     1      40.815 128.115  24.393  1.00  0.00     0.225 C 
ATOM     32  N   UNL     1      41.563 126.881  24.136  1.00  0.00    -0.342 N 
ATOM     33  H   UNL     1      40.688 130.919  24.406  1.00  0.00     0.453 HD
ATOM     34  O   UNL     1      43.740 126.388  23.333  1.00  0.00    -0.269 OA
ATOM     35  H   UNL     1      41.205 125.910  24.276  1.00  0.00     0.164 HD
ENDBRANCH  16  24
ENDBRANCH   1  14
TORSDOF 5
ENDMDL
MODEL 3
REMARK VINA RESULT:      -3.9      2.184      7.256
REMARK SMILES C=C[C@@H](Oc1nc[nH+]c(C)c1C)c1cc2[nH]ccc2cc1-c1c[nH+]c2c(c1)C(=O)NC2
REMARK SMILES IDX 3 1 2 2 1 3 4 4 5 5 6 6 11 7 7 8 9 9 8 10 12 11 10 12 13 14
REMARK SMILES IDX 14 15 21 16 15 17 20 18 16 19 19 20 17 21 18 22 22 24 23 25
REMARK SMILES IDX 27 26 24 27 26 28 25 29 28 30 31 31 30 32 29 34
REMARK H PARENT 8 13 16 23 24 33 30 35
ROOT
ATOM      1  C   UNL     1      44.356 131.351  20.132  1.00  0.00     0.231 C 
ENDROOT
BRANCH   1   2
ATOM      2  C   UNL     1      43.284 132.280  19.627  1.00  0.00     0.014 C 
ATOM      3  C   UNL     1      42.149 132.469  20.309  1.00  0.00     0.008 C 
ENDBRANCH   1   2
BRANCH   1   4
ATOM      4  O   UNL     1      45.177 130.922  19.044  1.00  0.00    -0.447 OA
BRANCH   4   5
ATOM      5  C   UNL     1      44.838 131.092  17.695  1.00  0.00     0.335 A 
ATOM      6  N   UNL     1      43.686 131.730  17.356  1.00  0.00    -0.010 NA
ATOM      7  C   UNL     1      45.679 130.589  16.687  1.00  0.00     0.080 A 
ATOM      8  C   UNL     1      43.321 131.889  16.061  1.00  0.00     0.453 A 
ATOM      9  C   UNL     1      45.285 130.773  15.342  1.00  0.00     0.108 A 
ATOM     10  N   UNL     1      44.111 131.409  15.067  1.00  0.00    -0.247 N 
ATOM     11  C   UNL     1      46.983 129.909  17.036  1.00  0.00     0.057 C 
ATOM     12  C   UNL     1      46.130 130.259  14.207  1.00  0.00     0.093 C 
ATOM     13  H   UNL     1      43.799 131.538  14.079  1.00  0.00     0.311 HD
ENDBRANCH   4   5
ENDBRANCH   1   4
BRANCH   1  14
ATOM     14  C   UNL     1      45.169 132.026  21.229  1.00  0.00     0.007 A 
ATOM     15  C   UNL     1      46.214 132.891  20.826  1.00  0.00     0.035 A 
ATOM     16  C   UNL     1      44.940 131.811  22.632  1.00  0.00    -0.004 A 
ATOM     17  C   UNL     1      46.966 133.534  21.804  1.00  0.00     0.046 A 
ATOM     18  C   UNL     1      45.722 132.499  23.586  1.00  0.00     0.019 A 
ATOM     19  N   UNL     1      47.982 134.391  21.619  1.00  0.00    -0.361 N 
ATOM     20  C   UNL     1      46.722 133.349  23.134  1.00  0.00    -0.000 A 
ATOM     21  C   UNL     1      48.388 134.756  22.857  1.00  0.00     0.083 A 
ATOM     22  C   UNL     1      47.622 134.125  23.831  1.00  0.00     0.028 A 
ATOM     23  H   UNL     1      48.378 134.715  20.710  1.00  0.00     0.166 HD
BRANCH  16  24
ATOM     24  C   UNL     1      43.887 130.906  23.138  1.00  0.00     0.047 A 
ATOM     25  C   UNL     1      42.668 131.442  23.626  1.00  0.00     0.315 A 
ATOM     26  C   UNL     1      44.082 129.513  23.157  1.00  0.00     0.035 A 
ATOM     27  N   UNL     1      41.674 130.616  24.073  1.00  0.00    -0.212 N 
ATOM     28  C   UNL     1      43.038 128.719  23.619  1.00  0.00     0.109 A 
ATOM     29  C   UNL     1      41.862 129.271  24.062  1.00  0.00     0.211 A 
ATOM     30  C   UNL     1      42.905 127.290  23.734  1.00  0.00     0.258 C 
ATOM     31  C   UNL     1      40.884 128.215  24.485  1.00  0.00     0.225 C 
ATOM     32  N   UNL     1      41.620 126.969  24.254  1.00  0.00    -0.342 N 
ATOM     33  H   UNL     1      40.771 131.019  24.411  1.00  0.00     0.453 HD
ATOM     34  O   UNL     1      43.778 126.438  23.425  1.00  0.00    -0.269 OA
ATOM     35  H   UNL     1      41.259 126.006  24.432  1.00  0.00     0.164 HD
ENDBRANCH  16  24
ENDBRANCH   1  14
TORSDOF 5
ENDMDL
MODEL 4
REMARK VINA RESULT:      -3.3      1.965      6.894
REMARK SMILES C=C[C@@H](Oc1nc[nH+]c(C)c1C)c1cc2[nH]ccc2cc1-c1c[nH+]c2c(c1)C(=O)NC2
REMARK SMILES IDX 3 1 2 2 1 3 4 4 5 5 6 6 11 7 7 8 9 9 8 10 12 11 10 12 13 14
REMARK SMILES IDX 14 15 21 16 15 17 20 18 16 19 19 20 17 21 18 22 22 24 23 25
REMARK SMILES IDX 27 26 24 27 26 28 25 29 28 30 31 31 30 32 29 34
REMARK H PARENT 8 13 16 23 24 33 30 35
ROOT
ATOM      1  C   UNL     1      45.528 130.537  20.274  1.00  0.00     0.231 C 
ENDROOT
BRANCH   1   2
ATOM      2  C   UNL     1      46.631 131.451  20.735  1.00  0.00     0.014 C 
ATOM      3  C   UNL     1      46.376 132.692  21.162  1.00  0.00     0.008 C 
ENDBRANCH   1   2
BRANCH   1   4
ATOM      4  O   UNL     1      45.787 130.099  18.938  1.00  0.00    -0.447 OA
BRANCH   4   5
ATOM      5  C   UNL     1      45.174 130.648  17.804  1.00  0.00     0.335 A 
ATOM      6  N   UNL     1      44.020 131.355  17.926  1.00  0.00    -0.010 NA
ATOM      7  C   UNL     1      45.743 130.454  16.533  1.00  0.00     0.080 A 
ATOM      8  C   UNL     1      43.394 131.877  16.844  1.00  0.00     0.453 A 
ATOM      9  C   UNL     1      45.079 131.014  15.418  1.00  0.00     0.108 A 
ATOM     10  N   UNL     1      43.916 131.702  15.604  1.00  0.00    -0.247 N 
ATOM     11  C   UNL     1      47.044 129.703  16.373  1.00  0.00     0.057 C 
ATOM     12  C   UNL     1      45.621 130.847  14.023  1.00  0.00     0.093 C 
ATOM     13  H   UNL     1      43.406 132.108  14.788  1.00  0.00     0.311 HD
ENDBRANCH   4   5
ENDBRANCH   1   4
BRANCH   1  14
ATOM     14  C   UNL     1      45.370 129.368  21.237  1.00  0.00     0.007 A 
ATOM     15  C   UNL     1      46.289 128.297  21.118  1.00  0.00     0.035 A 
ATOM     16  C   UNL     1      44.334 129.293  22.232  1.00  0.00    -0.004 A 
ATOM     17  C   UNL     1      46.180 127.222  21.992  1.00  0.00     0.046 A 
ATOM     18  C   UNL     1      44.276 128.185  23.106  1.00  0.00     0.019 A 
ATOM     19  N   UNL     1      46.958 126.128  22.041  1.00  0.00    -0.361 N 
ATOM     20  C   UNL     1      45.214 127.173  22.955  1.00  0.00    -0.000 A 
ATOM     21  C   UNL     1      46.474 125.375  23.054  1.00  0.00     0.083 A 
ATOM     22  C   UNL     1      45.383 125.996  23.651  1.00  0.00     0.028 A 
ATOM     23  H   UNL     1      47.772 125.904  21.427  1.00  0.00     0.166 HD
BRANCH  16  24
ATOM     24  C   UNL     1      43.321 130.354  22.408  1.00  0.00     0.047 A 
ATOM     25  C   UNL     1      42.737 130.572  23.682  1.00  0.00     0.315 A 
ATOM     26  C   UNL     1      42.914 131.149  21.320  1.00  0.00     0.035 A 
ATOM     27  N   UNL     1      41.817 131.566  23.865  1.00  0.00    -0.212 N 
ATOM     28  C   UNL     1      41.978 132.148  21.563  1.00  0.00     0.109 A 
ATOM     29  C   UNL     1      41.451 132.345  22.815  1.00  0.00     0.211 A 
ATOM     30  C   UNL     1      41.389 133.134  20.695  1.00  0.00     0.258 C 
ATOM     31  C   UNL     1      40.485 133.493  22.830  1.00  0.00     0.225 C 
ATOM     32  N   UNL     1      40.488 133.948  21.437  1.00  0.00    -0.342 N 
ATOM     33  H   UNL     1      41.408 131.732  24.812  1.00  0.00     0.453 HD
ATOM     34  O   UNL     1      41.623 133.273  19.467  1.00  0.00    -0.269 OA
ATOM     35  H   UNL     1      39.931 134.744  21.054  1.00  0.00     0.164 HD
ENDBRANCH  16  24
ENDBRANCH   1  14
TORSDOF 5
ENDMDL
MODEL 5
REMARK VINA RESULT:      -2.1      1.158      1.258
REMARK SMILES C=C[C@@H](Oc1nc[nH+]c(C)c1C)c1cc2[nH]ccc2cc1-c1c[nH+]c2c(c1)C(=O)NC2
REMARK SMILES IDX 3 1 2 2 1 3 4 4 5 5 6 6 11 7 7 8 9 9 8 10 12 11 10 12 13 14
REMARK SMILES IDX 14 15 21 16 15 17 20 18 16 19 19 20 17 21 18 22 22 24 23 25
REMARK SMILES IDX 27 26 24 27 26 28 25 29 28 30 31 31 30 32 29 34
REMARK H PARENT 8 13 16 23 24 33 30 35
ROOT
ATOM      1  C   UNL     1      45.679 130.170  20.685  1.00  0.00     0.231 C 
ENDROOT
BRANCH   1   2
ATOM      2  C   UNL     1      46.942 130.954  20.447  1.00  0.00     0.014 C 
ATOM      3  C   UNL     1      47.090 132.195  20.922  1.00  0.00     0.008 C 
ENDBRANCH   1   2
BRANCH   1   4
ATOM      4  O   UNL     1      45.632 129.727  22.043  1.00  0.00    -0.447 OA
BRANCH   4   5
ATOM      5  C   UNL     1      44.721 128.775  22.522  1.00  0.00     0.335 A 
ATOM      6  N   UNL     1      43.554 129.174  23.093  1.00  0.00    -0.010 NA
ATOM      7  C   UNL     1      45.021 127.405  22.430  1.00  0.00     0.080 A 
ATOM      8  C   UNL     1      42.666 128.278  23.585  1.00  0.00     0.453 A 
ATOM      9  C   UNL     1      44.078 126.485  22.943  1.00  0.00     0.108 A 
ATOM     10  N   UNL     1      42.930 126.948  23.515  1.00  0.00    -0.247 N 
ATOM     11  C   UNL     1      46.295 126.934  21.768  1.00  0.00     0.057 C 
ATOM     12  C   UNL     1      44.327 125.001  22.886  1.00  0.00     0.093 C 
ATOM     13  H   UNL     1      42.231 126.282  23.912  1.00  0.00     0.311 HD
ENDBRANCH   4   5
ENDBRANCH   1   4
BRANCH   1  14
ATOM     14  C   UNL     1      44.459 131.004  20.314  1.00  0.00     0.007 A 
ATOM     15  C   UNL     1      43.649 131.480  21.372  1.00  0.00     0.035 A 
ATOM     16  C   UNL     1      44.087 131.305  18.958  1.00  0.00    -0.004 A 
ATOM     17  C   UNL     1      42.537 132.256  21.067  1.00  0.00     0.046 A 
ATOM     18  C   UNL     1      42.955 132.111  18.701  1.00  0.00     0.019 A 
ATOM     19  N   UNL     1      41.662 132.802  21.927  1.00  0.00    -0.361 N 
ATOM     20  C   UNL     1      42.208 132.565  19.779  1.00  0.00    -0.000 A 
ATOM     21  C   UNL     1      40.764 133.470  21.167  1.00  0.00     0.083 A 
ATOM     22  C   UNL     1      41.073 133.345  19.818  1.00  0.00     0.028 A 
ATOM     23  H   UNL     1      41.672 132.732  22.968  1.00  0.00     0.166 HD
BRANCH  16  24
ATOM     24  C   UNL     1      44.863 130.828  17.794  1.00  0.00     0.047 A 
ATOM     25  C   UNL     1      45.060 129.438  17.596  1.00  0.00     0.315 A 
ATOM     26  C   UNL     1      45.425 131.739  16.880  1.00  0.00     0.035 A 
ATOM     27  N   UNL     1      45.753 128.980  16.510  1.00  0.00    -0.212 N 
ATOM     28  C   UNL     1      46.117 131.220  15.792  1.00  0.00     0.109 A 
ATOM     29  C   UNL     1      46.268 129.867  15.620  1.00  0.00     0.211 A 
ATOM     30  C   UNL     1      46.769 131.863  14.681  1.00  0.00     0.258 C 
ATOM     31  C   UNL     1      47.028 129.553  14.364  1.00  0.00     0.225 C 
ATOM     32  N   UNL     1      47.324 130.880  13.816  1.00  0.00    -0.342 N 
ATOM     33  H   UNL     1      45.875 127.953  16.362  1.00  0.00     0.453 HD
ATOM     34  O   UNL     1      46.846 133.104  14.486  1.00  0.00    -0.269 OA
ATOM     35  H   UNL     1      47.845 131.072  12.932  1.00  0.00     0.164 HD
ENDBRANCH  16  24
ENDBRANCH   1  14
TORSDOF 5
ENDMDL
MODEL 6
REMARK VINA RESULT:      -1.3      2.069      6.965
REMARK SMILES C=C[C@@H](Oc1nc[nH+]c(C)c1C)c1cc2[nH]ccc2cc1-c1c[nH+]c2c(c1)C(=O)NC2
REMARK SMILES IDX 3 1 2 2 1 3 4 4 5 5 6 6 11 7 7 8 9 9 8 10 12 11 10 12 13 14
REMARK SMILES IDX 14 15 21 16 15 17 20 18 16 19 19 20 17 21 18 22 22 24 23 25
REMARK SMILES IDX 27 26 24 27 26 28 25 29 28 30 31 31 30 32 29 34
REMARK H PARENT 8 13 16 23 24 33 30 35
ROOT
ATOM      1  C   UNL     1      44.028 131.446  19.367  1.00  0.00     0.231 C 
ENDROOT
BRANCH   1   2
ATOM      2  C   UNL     1      42.648 131.417  19.967  1.00  0.00     0.014 C 
ATOM      3  C   UNL     1      42.188 132.432  20.705  1.00  0.00     0.008 C 
ENDBRANCH   1   2
BRANCH   1   4
ATOM      4  O   UNL     1      44.004 132.155  18.127  1.00  0.00    -0.447 OA
BRANCH   4   5
ATOM      5  C   UNL     1      44.255 131.562  16.882  1.00  0.00     0.335 A 
ATOM      6  N   UNL     1      43.497 131.892  15.803  1.00  0.00    -0.010 NA
ATOM      7  C   UNL     1      45.281 130.610  16.749  1.00  0.00     0.080 A 
ATOM      8  C   UNL     1      43.702 131.318  14.594  1.00  0.00     0.453 A 
ATOM      9  C   UNL     1      45.484 130.029  15.477  1.00  0.00     0.108 A 
ATOM     10  N   UNL     1      44.681 130.392  14.436  1.00  0.00    -0.247 N 
ATOM     11  C   UNL     1      46.161 130.252  17.924  1.00  0.00     0.057 C 
ATOM     12  C   UNL     1      46.559 128.999  15.255  1.00  0.00     0.093 C 
ATOM     13  H   UNL     1      44.809 129.959  13.494  1.00  0.00     0.311 HD
ENDBRANCH   4   5
ENDBRANCH   1   4
BRANCH   1  14
ATOM     14  C   UNL     1      45.021 132.051  20.351  1.00  0.00     0.007 A 
ATOM     15  C   UNL     1      45.603 133.295  20.007  1.00  0.00     0.035 A 
ATOM     16  C   UNL     1      45.404 131.416  21.583  1.00  0.00    -0.004 A 
ATOM     17  C   UNL     1      46.502 133.880  20.891  1.00  0.00     0.046 A 
ATOM     18  C   UNL     1      46.311 132.060  22.454  1.00  0.00     0.019 A 
ATOM     19  N   UNL     1      47.144 135.050  20.746  1.00  0.00    -0.361 N 
ATOM     20  C   UNL     1      46.837 133.287  22.074  1.00  0.00    -0.000 A 
ATOM     21  C   UNL     1      47.897 135.200  21.860  1.00  0.00     0.083 A 
ATOM     22  C   UNL     1      47.731 134.116  22.715  1.00  0.00     0.028 A 
ATOM     23  H   UNL     1      47.075 135.714  19.944  1.00  0.00     0.166 HD
BRANCH  16  24
ATOM     24  C   UNL     1      44.863 130.108  22.007  1.00  0.00     0.047 A 
ATOM     25  C   UNL     1      45.493 128.910  21.582  1.00  0.00     0.315 A 
ATOM     26  C   UNL     1      43.716 130.031  22.819  1.00  0.00     0.035 A 
ATOM     27  N   UNL     1      45.019 127.694  21.987  1.00  0.00    -0.212 N 
ATOM     28  C   UNL     1      43.279 128.769  23.204  1.00  0.00     0.109 A 
ATOM     29  C   UNL     1      43.928 127.632  22.793  1.00  0.00     0.211 A 
ATOM     30  C   UNL     1      42.184 128.352  24.040  1.00  0.00     0.258 C 
ATOM     31  C   UNL     1      43.285 126.397  23.356  1.00  0.00     0.225 C 
ATOM     32  N   UNL     1      42.170 126.934  24.141  1.00  0.00    -0.342 N 
ATOM     33  H   UNL     1      45.502 126.817  21.686  1.00  0.00     0.453 HD
ATOM     34  O   UNL     1      41.355 129.112  24.606  1.00  0.00    -0.269 OA
ATOM     35  H   UNL     1      41.485 126.370  24.691  1.00  0.00     0.164 HD
ENDBRANCH  16  24
ENDBRANCH   1  14
TORSDOF 5
ENDMDL


