MODEL 1
REMARK VINA RESULT:      -9.3      0.000      0.000
REMARK SMILES Nc1cc(F)c(CCC(=O)c2ccccc2)c(F)c1C1CC1
REMARK SMILES IDX 7 1 6 2 2 3 3 4 19 5 4 6 17 7 5 8 18 9 1 10 20 13 21 14
REMARK SMILES IDX 22 15 8 16 9 17 10 18 11 19 12 20 16 21 13 22 15 23 14 24
REMARK H PARENT 1 11 1 12
ROOT
ATOM      1  C   UNL     1      45.249 131.154  17.696  1.00  0.00     0.050 C 
ENDROOT
BRANCH   1   2
ATOM      2  C   UNL     1      44.457 131.380  18.962  1.00  0.00     0.024 A 
ATOM      3  C   UNL     1      42.912 131.711  21.297  1.00  0.00     0.041 A 
ATOM      4  C   UNL     1      42.447 132.181  20.062  1.00  0.00     0.065 A 
ATOM      5  C   UNL     1      44.149 131.026  21.363  1.00  0.00     0.014 A 
ATOM      6  C   UNL     1      43.204 132.010  18.903  1.00  0.00     0.131 A 
ATOM      7  C   UNL     1      44.934 130.908  20.199  1.00  0.00     0.134 A 
ATOM      8  F   UNL     1      42.711 132.459  17.721  1.00  0.00    -0.207 F 
ATOM      9  F   UNL     1      46.158 130.321  20.265  1.00  0.00    -0.206 F 
BRANCH   3  10
ATOM     10  N   UNL     1      42.123 131.955  22.470  1.00  0.00    -0.398 N 
ATOM     11  H   UNL     1      42.344 131.469  23.368  1.00  0.00     0.156 HD
ATOM     12  H   UNL     1      41.278 132.567  22.453  1.00  0.00     0.156 HD
ENDBRANCH   3  10
BRANCH   5  13
ATOM     13  C   UNL     1      44.669 130.484  22.676  1.00  0.00     0.024 C 
ATOM     14  C   UNL     1      44.659 128.966  22.829  1.00  0.00     0.009 C 
ATOM     15  C   UNL     1      43.617 129.799  23.543  1.00  0.00     0.009 C 
ENDBRANCH   5  13
ENDBRANCH   1   2
BRANCH   1  16
ATOM     16  C   UNL     1      44.476 130.299  16.678  1.00  0.00     0.086 C 
BRANCH  16  17
ATOM     17  C   UNL     1      44.739 130.736  15.257  1.00  0.00     0.163 C 
ATOM     18  O   UNL     1      43.849 131.422  14.687  1.00  0.00    -0.294 OA
BRANCH  17  19
ATOM     19  C   UNL     1      46.005 130.437  14.522  1.00  0.00     0.017 A 
ATOM     20  C   UNL     1      46.475 131.346  13.551  1.00  0.00     0.012 A 
ATOM     21  C   UNL     1      46.768 129.277  14.776  1.00  0.00     0.012 A 
ATOM     22  C   UNL     1      47.672 131.109  12.869  1.00  0.00     0.001 A 
ATOM     23  C   UNL     1      47.969 129.050  14.096  1.00  0.00     0.001 A 
ATOM     24  C   UNL     1      48.421 129.965  13.146  1.00  0.00     0.000 A 
ENDBRANCH  17  19
ENDBRANCH  16  17
ENDBRANCH   1  16
TORSDOF 6
ENDMDL
MODEL 2
REMARK VINA RESULT:      -8.9      0.543      1.153
REMARK SMILES Nc1cc(F)c(CCC(=O)c2ccccc2)c(F)c1C1CC1
REMARK SMILES IDX 7 1 6 2 2 3 3 4 19 5 4 6 17 7 5 8 18 9 1 10 20 13 21 14
REMARK SMILES IDX 22 15 8 16 9 17 10 18 11 19 12 20 16 21 13 22 15 23 14 24
REMARK H PARENT 1 11 1 12
ROOT
ATOM      1  C   UNL     1      44.797 130.856  17.447  1.00  0.00     0.050 C 
ENDROOT
BRANCH   1   2
ATOM      2  C   UNL     1      44.116 131.281  18.726  1.00  0.00     0.024 A 
ATOM      3  C   UNL     1      42.772 131.985  21.103  1.00  0.00     0.041 A 
ATOM      4  C   UNL     1      42.238 132.326  19.854  1.00  0.00     0.065 A 
ATOM      5  C   UNL     1      43.976 131.244  21.169  1.00  0.00     0.014 A 
ATOM      6  C   UNL     1      42.895 131.970  18.676  1.00  0.00     0.131 A 
ATOM      7  C   UNL     1      44.663 130.937  19.977  1.00  0.00     0.134 A 
ATOM      8  F   UNL     1      42.335 132.298  17.484  1.00  0.00    -0.207 F 
ATOM      9  F   UNL     1      45.858 130.294  20.032  1.00  0.00    -0.206 F 
BRANCH   3  10
ATOM     10  N   UNL     1      42.089 132.418  22.288  1.00  0.00    -0.398 N 
ATOM     11  H   UNL     1      41.074 132.210  22.420  1.00  0.00     0.156 HD
ATOM     12  H   UNL     1      42.556 132.999  23.017  1.00  0.00     0.156 HD
ENDBRANCH   3  10
BRANCH   5  13
ATOM     13  C   UNL     1      44.567 130.838  22.500  1.00  0.00     0.024 C 
ATOM     14  C   UNL     1      44.571 129.343  22.809  1.00  0.00     0.009 C 
ATOM     15  C   UNL     1      43.566 130.249  23.489  1.00  0.00     0.009 C 
ENDBRANCH   5  13
ENDBRANCH   1   2
BRANCH   1  16
ATOM     16  C   UNL     1      44.717 131.943  16.363  1.00  0.00     0.086 C 
BRANCH  16  17
ATOM     17  C   UNL     1      44.818 131.364  14.972  1.00  0.00     0.163 C 
ATOM     18  O   UNL     1      43.780 131.391  14.256  1.00  0.00    -0.294 OA
BRANCH  17  19
ATOM     19  C   UNL     1      46.081 130.812  14.397  1.00  0.00     0.017 A 
ATOM     20  C   UNL     1      46.623 129.622  14.928  1.00  0.00     0.012 A 
ATOM     21  C   UNL     1      46.753 131.430  13.322  1.00  0.00     0.012 A 
ATOM     22  C   UNL     1      47.788 129.065  14.391  1.00  0.00     0.001 A 
ATOM     23  C   UNL     1      47.913 130.862  12.784  1.00  0.00     0.001 A 
ATOM     24  C   UNL     1      48.428 129.682  13.317  1.00  0.00     0.000 A 
ENDBRANCH  17  19
ENDBRANCH  16  17
ENDBRANCH   1  16
TORSDOF 6
ENDMDL
MODEL 3
REMARK VINA RESULT:      -8.5      1.018      1.478
REMARK SMILES Nc1cc(F)c(CCC(=O)c2ccccc2)c(F)c1C1CC1
REMARK SMILES IDX 7 1 6 2 2 3 3 4 19 5 4 6 17 7 5 8 18 9 1 10 20 13 21 14
REMARK SMILES IDX 22 15 8 16 9 17 10 18 11 19 12 20 16 21 13 22 15 23 14 24
REMARK H PARENT 1 11 1 12
ROOT
ATOM      1  C   UNL     1      43.754 131.621  17.205  1.00  0.00     0.050 C 
ENDROOT
BRANCH   1   2
ATOM      2  C   UNL     1      43.424 131.766  18.671  1.00  0.00     0.024 A 
ATOM      3  C   UNL     1      42.731 131.948  21.399  1.00  0.00     0.041 A 
ATOM      4  C   UNL     1      41.904 132.505  20.414  1.00  0.00     0.065 A 
ATOM      5  C   UNL     1      43.902 131.252  21.016  1.00  0.00     0.014 A 
ATOM      6  C   UNL     1      42.238 132.407  19.063  1.00  0.00     0.131 A 
ATOM      7  C   UNL     1      44.263 131.207  19.654  1.00  0.00     0.134 A 
ATOM      8  F   UNL     1      41.401 132.939  18.137  1.00  0.00    -0.207 F 
ATOM      9  F   UNL     1      45.424 130.609  19.281  1.00  0.00    -0.206 F 
BRANCH   3  10
ATOM     10  N   UNL     1      42.374 132.118  22.778  1.00  0.00    -0.398 N 
ATOM     11  H   UNL     1      41.451 132.531  23.039  1.00  0.00     0.156 HD
ATOM     12  H   UNL     1      43.036 131.899  23.554  1.00  0.00     0.156 HD
ENDBRANCH   3  10
BRANCH   5  13
ATOM     13  C   UNL     1      44.804 130.618  22.051  1.00  0.00     0.024 C 
ATOM     14  C   UNL     1      44.899 129.096  22.021  1.00  0.00     0.009 C 
ATOM     15  C   UNL     1      44.080 129.776  23.096  1.00  0.00     0.009 C 
ENDBRANCH   5  13
ENDBRANCH   1   2
BRANCH   1  16
ATOM     16  C   UNL     1      45.259 131.406  16.972  1.00  0.00     0.086 C 
BRANCH  16  17
ATOM     17  C   UNL     1      45.528 130.243  16.049  1.00  0.00     0.163 C 
ATOM     18  O   UNL     1      44.847 129.196  16.221  1.00  0.00    -0.294 OA
BRANCH  17  19
ATOM     19  C   UNL     1      46.516 130.289  14.929  1.00  0.00     0.017 A 
ATOM     20  C   UNL     1      47.379 129.193  14.719  1.00  0.00     0.012 A 
ATOM     21  C   UNL     1      46.610 131.390  14.051  1.00  0.00     0.012 A 
ATOM     22  C   UNL     1      48.292 129.194  13.661  1.00  0.00     0.001 A 
ATOM     23  C   UNL     1      47.520 131.381  12.989  1.00  0.00     0.001 A 
ATOM     24  C   UNL     1      48.358 130.285  12.794  1.00  0.00     0.000 A 
ENDBRANCH  17  19
ENDBRANCH  16  17
ENDBRANCH   1  16
TORSDOF 6
ENDMDL
MODEL 4
REMARK VINA RESULT:      -8.4      1.259      1.588
REMARK SMILES Nc1cc(F)c(CCC(=O)c2ccccc2)c(F)c1C1CC1
REMARK SMILES IDX 7 1 6 2 2 3 3 4 19 5 4 6 17 7 5 8 18 9 1 10 20 13 21 14
REMARK SMILES IDX 22 15 8 16 9 17 10 18 11 19 12 20 16 21 13 22 15 23 14 24
REMARK H PARENT 1 11 1 12
ROOT
ATOM      1  C   UNL     1      45.490 130.988  19.019  1.00  0.00     0.050 C 
ENDROOT
BRANCH   1   2
ATOM      2  C   UNL     1      44.671 130.954  20.287  1.00  0.00     0.024 A 
ATOM      3  C   UNL     1      43.060 130.827  22.598  1.00  0.00     0.041 A 
ATOM      4  C   UNL     1      42.777 131.748  21.581  1.00  0.00     0.065 A 
ATOM      5  C   UNL     1      44.139 129.925  22.443  1.00  0.00     0.014 A 
ATOM      6  C   UNL     1      43.565 131.806  20.432  1.00  0.00     0.131 A 
ATOM      7  C   UNL     1      44.965 130.028  21.305  1.00  0.00     0.134 A 
ATOM      8  F   UNL     1      43.246 132.696  19.458  1.00  0.00    -0.207 F 
ATOM      9  F   UNL     1      46.050 129.219  21.182  1.00  0.00    -0.206 F 
BRANCH   3  10
ATOM     10  N   UNL     1      42.254 130.839  23.784  1.00  0.00    -0.398 N 
ATOM     11  H   UNL     1      41.915 131.741  24.186  1.00  0.00     0.156 HD
ATOM     12  H   UNL     1      42.034 129.967  24.315  1.00  0.00     0.156 HD
ENDBRANCH   3  10
BRANCH   5  13
ATOM     13  C   UNL     1      44.458 128.902  23.510  1.00  0.00     0.024 C 
ATOM     14  C   UNL     1      44.578 127.455  23.042  1.00  0.00     0.009 C 
ATOM     15  C   UNL     1      43.340 127.902  23.788  1.00  0.00     0.009 C 
ENDBRANCH   5  13
ENDBRANCH   1   2
BRANCH   1  16
ATOM     16  C   UNL     1      45.011 132.084  18.053  1.00  0.00     0.086 C 
BRANCH  16  17
ATOM     17  C   UNL     1      44.589 131.518  16.719  1.00  0.00     0.163 C 
ATOM     18  O   UNL     1      43.358 131.536  16.444  1.00  0.00    -0.294 OA
BRANCH  17  19
ATOM     19  C   UNL     1      45.551 130.990  15.705  1.00  0.00     0.017 A 
ATOM     20  C   UNL     1      46.260 131.893  14.885  1.00  0.00     0.012 A 
ATOM     21  C   UNL     1      45.793 129.609  15.544  1.00  0.00     0.012 A 
ATOM     22  C   UNL     1      47.189 131.430  13.948  1.00  0.00     0.001 A 
ATOM     23  C   UNL     1      46.731 129.154  14.611  1.00  0.00     0.001 A 
ATOM     24  C   UNL     1      47.428 130.062  13.816  1.00  0.00     0.000 A 
ENDBRANCH  17  19
ENDBRANCH  16  17
ENDBRANCH   1  16
TORSDOF 6
ENDMDL
MODEL 5
REMARK VINA RESULT:      -8.4      1.355      2.272
REMARK SMILES Nc1cc(F)c(CCC(=O)c2ccccc2)c(F)c1C1CC1
REMARK SMILES IDX 7 1 6 2 2 3 3 4 19 5 4 6 17 7 5 8 18 9 1 10 20 13 21 14
REMARK SMILES IDX 22 15 8 16 9 17 10 18 11 19 12 20 16 21 13 22 15 23 14 24
REMARK H PARENT 1 11 1 12
ROOT
ATOM      1  C   UNL     1      44.750 132.027  17.459  1.00  0.00     0.050 C 
ENDROOT
BRANCH   1   2
ATOM      2  C   UNL     1      44.750 131.424  18.843  1.00  0.00     0.024 A 
ATOM      3  C   UNL     1      44.832 130.373  21.458  1.00  0.00     0.041 A 
ATOM      4  C   UNL     1      45.790 129.997  20.508  1.00  0.00     0.065 A 
ATOM      5  C   UNL     1      43.840 131.322  21.113  1.00  0.00     0.014 A 
ATOM      6  C   UNL     1      45.759 130.523  19.216  1.00  0.00     0.131 A 
ATOM      7  C   UNL     1      43.781 131.805  19.790  1.00  0.00     0.134 A 
ATOM      8  F   UNL     1      46.717 130.152  18.330  1.00  0.00    -0.207 F 
ATOM      9  F   UNL     1      42.786 132.657  19.425  1.00  0.00    -0.206 F 
BRANCH   3  10
ATOM     10  N   UNL     1      44.873 129.767  22.758  1.00  0.00    -0.398 N 
ATOM     11  H   UNL     1      44.054 129.229  23.118  1.00  0.00     0.156 HD
ATOM     12  H   UNL     1      45.683 129.894  23.404  1.00  0.00     0.156 HD
ENDBRANCH   3  10
BRANCH   5  13
ATOM     13  C   UNL     1      42.805 131.768  22.121  1.00  0.00     0.024 C 
ATOM     14  C   UNL     1      43.340 132.234  23.473  1.00  0.00     0.009 C 
ATOM     15  C   UNL     1      42.688 130.874  23.351  1.00  0.00     0.009 C 
ENDBRANCH   5  13
ENDBRANCH   1   2
BRANCH   1  16
ATOM     16  C   UNL     1      43.663 131.413  16.561  1.00  0.00     0.086 C 
BRANCH  16  17
ATOM     17  C   UNL     1      44.092 131.351  15.115  1.00  0.00     0.163 C 
ATOM     18  O   UNL     1      43.326 131.875  14.261  1.00  0.00    -0.294 OA
BRANCH  17  19
ATOM     19  C   UNL     1      45.380 130.748  14.661  1.00  0.00     0.017 A 
ATOM     20  C   UNL     1      46.147 131.410  13.678  1.00  0.00     0.012 A 
ATOM     21  C   UNL     1      45.877 129.539  15.193  1.00  0.00     0.012 A 
ATOM     22  C   UNL     1      47.373 130.886  13.255  1.00  0.00     0.001 A 
ATOM     23  C   UNL     1      47.108 129.026  14.771  1.00  0.00     0.001 A 
ATOM     24  C   UNL     1      47.854 129.698  13.805  1.00  0.00     0.000 A 
ENDBRANCH  17  19
ENDBRANCH  16  17
ENDBRANCH   1  16
TORSDOF 6
ENDMDL
MODEL 6
REMARK VINA RESULT:      -8.3      0.918      1.583
REMARK SMILES Nc1cc(F)c(CCC(=O)c2ccccc2)c(F)c1C1CC1
REMARK SMILES IDX 7 1 6 2 2 3 3 4 19 5 4 6 17 7 5 8 18 9 1 10 20 13 21 14
REMARK SMILES IDX 22 15 8 16 9 17 10 18 11 19 12 20 16 21 13 22 15 23 14 24
REMARK H PARENT 1 11 1 12
ROOT
ATOM      1  C   UNL     1      45.201 131.000  18.172  1.00  0.00     0.050 C 
ENDROOT
BRANCH   1   2
ATOM      2  C   UNL     1      44.297 131.404  19.313  1.00  0.00     0.024 A 
ATOM      3  C   UNL     1      42.550 132.060  21.427  1.00  0.00     0.041 A 
ATOM      4  C   UNL     1      42.165 132.261  20.095  1.00  0.00     0.065 A 
ATOM      5  C   UNL     1      43.811 131.482  21.710  1.00  0.00     0.014 A 
ATOM      6  C   UNL     1      43.023 131.928  19.047  1.00  0.00     0.131 A 
ATOM      7  C   UNL     1      44.694 131.201  20.648  1.00  0.00     0.134 A 
ATOM      8  F   UNL     1      42.606 132.117  17.769  1.00  0.00    -0.207 F 
ATOM      9  F   UNL     1      45.937 130.719  20.911  1.00  0.00    -0.206 F 
BRANCH   3  10
ATOM     10  N   UNL     1      41.657 132.465  22.473  1.00  0.00    -0.398 N 
ATOM     11  H   UNL     1      41.862 132.225  23.469  1.00  0.00     0.156 HD
ATOM     12  H   UNL     1      40.753 132.949  22.275  1.00  0.00     0.156 HD
ENDBRANCH   3  10
BRANCH   5  13
ATOM     13  C   UNL     1      44.248 131.228  23.135  1.00  0.00     0.024 C 
ATOM     14  C   UNL     1      43.673 132.166  24.193  1.00  0.00     0.009 C 
ATOM     15  C   UNL     1      45.109 132.332  23.743  1.00  0.00     0.009 C 
ENDBRANCH   5  13
ENDBRANCH   1   2
BRANCH   1  16
ATOM     16  C   UNL     1      45.294 132.094  17.096  1.00  0.00     0.086 C 
BRANCH  16  17
ATOM     17  C   UNL     1      45.090 131.539  15.707  1.00  0.00     0.163 C 
ATOM     18  O   UNL     1      43.933 131.626  15.212  1.00  0.00    -0.294 OA
BRANCH  17  19
ATOM     19  C   UNL     1      46.187 130.945  14.885  1.00  0.00     0.017 A 
ATOM     20  C   UNL     1      46.580 129.610  15.115  1.00  0.00     0.012 A 
ATOM     21  C   UNL     1      46.841 131.668  13.865  1.00  0.00     0.012 A 
ATOM     22  C   UNL     1      47.582 129.016  14.341  1.00  0.00     0.001 A 
ATOM     23  C   UNL     1      47.837 131.065  13.090  1.00  0.00     0.001 A 
ATOM     24  C   UNL     1      48.206 129.742  13.327  1.00  0.00     0.000 A 
ENDBRANCH  17  19
ENDBRANCH  16  17
ENDBRANCH   1  16
TORSDOF 6
ENDMDL
MODEL 7
REMARK VINA RESULT:      -8.2      1.219      1.282
REMARK SMILES Nc1cc(F)c(CCC(=O)c2ccccc2)c(F)c1C1CC1
REMARK SMILES IDX 7 1 6 2 2 3 3 4 19 5 4 6 17 7 5 8 18 9 1 10 20 13 21 14
REMARK SMILES IDX 22 15 8 16 9 17 10 18 11 19 12 20 16 21 13 22 15 23 14 24
REMARK H PARENT 1 11 1 12
ROOT
ATOM      1  C   UNL     1      44.140 131.842  16.792  1.00  0.00     0.050 C 
ENDROOT
BRANCH   1   2
ATOM      2  C   UNL     1      43.663 131.889  18.224  1.00  0.00     0.024 A 
ATOM      3  C   UNL     1      42.713 131.877  20.879  1.00  0.00     0.041 A 
ATOM      4  C   UNL     1      41.895 132.318  19.831  1.00  0.00     0.065 A 
ATOM      5  C   UNL     1      44.013 131.394  20.595  1.00  0.00     0.014 A 
ATOM      6  C   UNL     1      42.357 132.315  18.515  1.00  0.00     0.131 A 
ATOM      7  C   UNL     1      44.493 131.447  19.271  1.00  0.00     0.134 A 
ATOM      8  F   UNL     1      41.528 132.728  17.524  1.00  0.00    -0.207 F 
ATOM      9  F   UNL     1      45.766 131.059  18.998  1.00  0.00    -0.206 F 
BRANCH   3  10
ATOM     10  N   UNL     1      42.213 131.946  22.222  1.00  0.00    -0.398 N 
ATOM     11  H   UNL     1      42.786 131.592  23.020  1.00  0.00     0.156 HD
ATOM     12  H   UNL     1      41.251 132.288  22.439  1.00  0.00     0.156 HD
ENDBRANCH   3  10
BRANCH   5  13
ATOM     13  C   UNL     1      44.913 130.888  21.700  1.00  0.00     0.024 C 
ATOM     14  C   UNL     1      45.126 129.378  21.757  1.00  0.00     0.009 C 
ATOM     15  C   UNL     1      44.209 130.046  22.759  1.00  0.00     0.009 C 
ENDBRANCH   5  13
ENDBRANCH   1   2
BRANCH   1  16
ATOM     16  C   UNL     1      44.150 130.409  16.235  1.00  0.00     0.086 C 
BRANCH  16  17
ATOM     17  C   UNL     1      45.549 129.847  16.143  1.00  0.00     0.163 C 
ATOM     18  O   UNL     1      45.960 129.156  17.115  1.00  0.00    -0.294 OA
BRANCH  17  19
ATOM     19  C   UNL     1      46.436 130.029  14.956  1.00  0.00     0.017 A 
ATOM     20  C   UNL     1      46.290 131.180  14.152  1.00  0.00     0.012 A 
ATOM     21  C   UNL     1      47.436 129.096  14.611  1.00  0.00     0.012 A 
ATOM     22  C   UNL     1      47.126 131.394  13.051  1.00  0.00     0.001 A 
ATOM     23  C   UNL     1      48.274 129.320  13.514  1.00  0.00     0.001 A 
ATOM     24  C   UNL     1      48.120 130.467  12.737  1.00  0.00     0.000 A 
ENDBRANCH  17  19
ENDBRANCH  16  17
ENDBRANCH   1  16
TORSDOF 6
ENDMDL
MODEL 8
REMARK VINA RESULT:      -7.9      2.728      7.616
REMARK SMILES Nc1cc(F)c(CCC(=O)c2ccccc2)c(F)c1C1CC1
REMARK SMILES IDX 7 1 6 2 2 3 3 4 19 5 4 6 17 7 5 8 18 9 1 10 20 13 21 14
REMARK SMILES IDX 22 15 8 16 9 17 10 18 11 19 12 20 16 21 13 22 15 23 14 24
REMARK H PARENT 1 11 1 12
ROOT
ATOM      1  C   UNL     1      46.243 130.704  18.915  1.00  0.00     0.050 C 
ENDROOT
BRANCH   1   2
ATOM      2  C   UNL     1      45.536 130.881  17.593  1.00  0.00     0.024 A 
ATOM      3  C   UNL     1      44.254 131.321  15.120  1.00  0.00     0.041 A 
ATOM      4  C   UNL     1      43.674 131.768  16.314  1.00  0.00     0.065 A 
ATOM      5  C   UNL     1      45.515 130.680  15.154  1.00  0.00     0.014 A 
ATOM      6  C   UNL     1      44.310 131.562  17.538  1.00  0.00     0.131 A 
ATOM      7  C   UNL     1      46.125 130.424  16.398  1.00  0.00     0.134 A 
ATOM      8  F   UNL     1      43.728 132.030  18.671  1.00  0.00    -0.207 F 
ATOM      9  F   UNL     1      47.298 129.741  16.449  1.00  0.00    -0.206 F 
BRANCH   3  10
ATOM     10  N   UNL     1      43.538 131.510  13.891  1.00  0.00    -0.398 N 
ATOM     11  H   UNL     1      42.663 130.973  13.699  1.00  0.00     0.156 HD
ATOM     12  H   UNL     1      43.894 132.132  13.132  1.00  0.00     0.156 HD
ENDBRANCH   3  10
BRANCH   5  13
ATOM     13  C   UNL     1      46.181 130.206  13.881  1.00  0.00     0.024 C 
ATOM     14  C   UNL     1      47.661 129.849  13.988  1.00  0.00     0.009 C 
ATOM     15  C   UNL     1      47.247 131.149  13.332  1.00  0.00     0.009 C 
ENDBRANCH   5  13
ENDBRANCH   1   2
BRANCH   1  16
ATOM     16  C   UNL     1      45.337 130.050  19.971  1.00  0.00     0.086 C 
BRANCH  16  17
ATOM     17  C   UNL     1      45.111 130.951  21.160  1.00  0.00     0.163 C 
ATOM     18  O   UNL     1      45.711 132.061  21.169  1.00  0.00    -0.294 OA
BRANCH  17  19
ATOM     19  C   UNL     1      44.190 130.616  22.287  1.00  0.00     0.017 A 
ATOM     20  C   UNL     1      44.304 129.363  22.927  1.00  0.00     0.012 A 
ATOM     21  C   UNL     1      43.212 131.519  22.755  1.00  0.00     0.012 A 
ATOM     22  C   UNL     1      43.476 129.033  24.005  1.00  0.00     0.001 A 
ATOM     23  C   UNL     1      42.394 131.185  23.840  1.00  0.00     0.001 A 
ATOM     24  C   UNL     1      42.526 129.946  24.463  1.00  0.00     0.000 A 
ENDBRANCH  17  19
ENDBRANCH  16  17
ENDBRANCH   1  16
TORSDOF 6
ENDMDL
MODEL 9
REMARK VINA RESULT:      -7.9      2.747      7.563
REMARK SMILES Nc1cc(F)c(CCC(=O)c2ccccc2)c(F)c1C1CC1
REMARK SMILES IDX 7 1 6 2 2 3 3 4 19 5 4 6 17 7 5 8 18 9 1 10 20 13 21 14
REMARK SMILES IDX 22 15 8 16 9 17 10 18 11 19 12 20 16 21 13 22 15 23 14 24
REMARK H PARENT 1 11 1 12
ROOT
ATOM      1  C   UNL     1      46.185 130.850  19.047  1.00  0.00     0.050 C 
ENDROOT
BRANCH   1   2
ATOM      2  C   UNL     1      45.485 130.947  17.713  1.00  0.00     0.024 A 
ATOM      3  C   UNL     1      44.217 131.238  15.211  1.00  0.00     0.041 A 
ATOM      4  C   UNL     1      43.630 131.756  16.372  1.00  0.00     0.065 A 
ATOM      5  C   UNL     1      45.479 130.601  15.290  1.00  0.00     0.014 A 
ATOM      6  C   UNL     1      44.260 131.623  17.610  1.00  0.00     0.131 A 
ATOM      7  C   UNL     1      46.081 130.421  16.551  1.00  0.00     0.134 A 
ATOM      8  F   UNL     1      43.670 132.157  18.710  1.00  0.00    -0.207 F 
ATOM      9  F   UNL     1      47.255 129.743  16.649  1.00  0.00    -0.206 F 
BRANCH   3  10
ATOM     10  N   UNL     1      43.509 131.353  13.969  1.00  0.00    -0.398 N 
ATOM     11  H   UNL     1      42.912 130.568  13.625  1.00  0.00     0.156 HD
ATOM     12  H   UNL     1      43.614 132.183  13.344  1.00  0.00     0.156 HD
ENDBRANCH   3  10
BRANCH   5  13
ATOM     13  C   UNL     1      46.153 130.053  14.052  1.00  0.00     0.024 C 
ATOM     14  C   UNL     1      47.675 129.960  14.099  1.00  0.00     0.009 C 
ATOM     15  C   UNL     1      47.014 131.060  13.297  1.00  0.00     0.009 C 
ENDBRANCH   5  13
ENDBRANCH   1   2
BRANCH   1  16
ATOM     16  C   UNL     1      45.350 130.076  20.081  1.00  0.00     0.086 C 
BRANCH  16  17
ATOM     17  C   UNL     1      45.057 130.906  21.307  1.00  0.00     0.163 C 
ATOM     18  O   UNL     1      45.576 132.054  21.369  1.00  0.00    -0.294 OA
BRANCH  17  19
ATOM     19  C   UNL     1      44.158 130.457  22.412  1.00  0.00     0.017 A 
ATOM     20  C   UNL     1      43.234 131.367  22.968  1.00  0.00     0.012 A 
ATOM     21  C   UNL     1      44.183 129.139  22.917  1.00  0.00     0.012 A 
ATOM     22  C   UNL     1      42.358 130.968  23.983  1.00  0.00     0.001 A 
ATOM     23  C   UNL     1      43.298 128.744  23.925  1.00  0.00     0.001 A 
ATOM     24  C   UNL     1      42.387 129.656  24.456  1.00  0.00     0.000 A 
ENDBRANCH  17  19
ENDBRANCH  16  17
ENDBRANCH   1  16
TORSDOF 6
ENDMDL


