REMARK SMILES C=CC(=O)N1CCC[C@@H](c2ccc3ccc(C)c(F)c3n2)[C@@H]1F
REMARK SMILES IDX 5 1 6 2 7 3 8 4 9 5 22 6 23 7 3 8 4 9 2 10 1 11 10 12 11 13
REMARK SMILES IDX 21 14 12 15 20 16 13 17 18 18 14 19 16 20 15 21 19 22 17 23
REMARK H PARENT
ROOT
ATOM      1  N   UNL     1      -0.741  -0.842   1.508  1.00  0.00    -0.308 N 
ATOM      2  C   UNL     1      -2.138  -0.830   1.040  1.00  0.00     0.123 C 
ATOM      3  C   UNL     1      -2.227  -0.722  -0.491  1.00  0.00     0.022 C 
ATOM      4  C   UNL     1      -1.172  -1.621  -1.150  1.00  0.00     0.017 C 
ATOM      5  C   UNL     1       0.276  -1.264  -0.709  1.00  0.00     0.093 C 
ATOM      6  C   UNL     1       0.312  -0.404   0.574  1.00  0.00     0.274 C 
ATOM      7  F   UNL     1       1.574  -0.462   1.146  1.00  0.00    -0.223 F 
ENDROOT
BRANCH   1   8
ATOM      8  C   UNL     1      -0.433  -1.353   2.824  1.00  0.00     0.248 C 
ATOM      9  O   UNL     1       0.672  -1.925   3.033  1.00  0.00    -0.270 OA
BRANCH   8  10
ATOM     10  C   UNL     1      -1.408  -1.230   3.930  1.00  0.00     0.063 C 
ATOM     11  C   UNL     1      -1.188  -1.749   5.137  1.00  0.00     0.014 C 
ENDBRANCH   8  10
ENDBRANCH   1   8
BRANCH   5  12
ATOM     12  C   UNL     1       1.028  -0.563  -1.818  1.00  0.00     0.049 A 
ATOM     13  C   UNL     1       2.287  -1.022  -2.236  1.00  0.00     0.025 A 
ATOM     14  N   UNL     1       0.494   0.550  -2.396  1.00  0.00    -0.249 NA
ATOM     15  C   UNL     1       2.969  -0.343  -3.247  1.00  0.00     0.012 A 
ATOM     16  C   UNL     1       1.135   1.232  -3.383  1.00  0.00     0.106 A 
ATOM     17  C   UNL     1       2.398   0.793  -3.833  1.00  0.00     0.003 A 
ATOM     18  C   UNL     1       0.545   2.369  -3.951  1.00  0.00     0.152 A 
ATOM     19  C   UNL     1       3.060   1.499  -4.846  1.00  0.00     0.011 A 
ATOM     20  C   UNL     1       1.205   3.069  -4.976  1.00  0.00    -0.013 A 
ATOM     21  C   UNL     1       2.468   2.633  -5.411  1.00  0.00     0.007 A 
ATOM     22  F   UNL     1      -0.667   2.791  -3.506  1.00  0.00    -0.204 F 
ATOM     23  C   UNL     1       0.584   4.301  -5.568  1.00  0.00     0.047 C 
ENDBRANCH   5  12
TORSDOF 3


