REMARK SMILES Cc1ccc(-c2cc(C=O)c(/N=C(\O)N[C@@H](c3ccc(F)cc3)C(C)C)cc2F)cc1
REMARK SMILES IDX 13 1 15 2 14 4 12 6 11 7 27 8 8 9 28 10 7 11 6 12 29 13 9 14
REMARK SMILES IDX 10 15 5 16 4 17 30 18 3 19 31 20 2 21 1 22 16 23 17 24 18 25
REMARK SMILES IDX 23 26 19 27 22 28 20 29 21 30 24 31 25 32 26 33
REMARK H PARENT 15 3 14 5
ROOT
ATOM      1  C   UNL     1      -0.395  -0.982   1.097  1.00  0.00     0.287 C 
ATOM      2  N   UNL     1      -0.024  -1.858   2.168  1.00  0.00    -0.333 N 
ATOM      3  H   UNL     1       0.578  -1.477   2.934  1.00  0.00     0.165 HD
ENDROOT
BRANCH   1   4
ATOM      4  O   UNL     1      -1.120  -1.491   0.015  1.00  0.00    -0.481 OA
ATOM      5  H   UNL     1      -1.283  -0.970  -0.837  1.00  0.00     0.296 HD
ENDBRANCH   1   4
BRANCH   1   6
ATOM      6  N   UNL     1      -0.013   0.263   1.143  1.00  0.00    -0.197 NA
BRANCH   6   7
ATOM      7  C   UNL     1      -0.364   1.297   0.211  1.00  0.00     0.082 A 
ATOM      8  C   UNL     1      -1.714   1.520  -0.109  1.00  0.00     0.069 A 
ATOM      9  C   UNL     1       0.624   2.172  -0.298  1.00  0.00     0.041 A 
ATOM     10  C   UNL     1      -2.083   2.558  -0.966  1.00  0.00     0.133 A 
ATOM     11  C   UNL     1       0.240   3.215  -1.158  1.00  0.00     0.025 A 
ATOM     12  C   UNL     1      -1.107   3.411  -1.506  1.00  0.00     0.018 A 
ATOM     13  F   UNL     1      -3.401   2.754  -1.228  1.00  0.00    -0.206 F 
BRANCH   9  14
ATOM     14  C   UNL     1       2.064   2.026   0.020  1.00  0.00     0.262 C 
ATOM     15  O   UNL     1       2.496   1.088   0.740  1.00  0.00    -0.298 OA
ENDBRANCH   9  14
BRANCH  12  16
ATOM     16  C   UNL     1      -1.482   4.517  -2.421  1.00  0.00    -0.015 A 
ATOM     17  C   UNL     1      -2.353   4.287  -3.501  1.00  0.00     0.009 A 
ATOM     18  C   UNL     1      -0.963   5.808  -2.226  1.00  0.00     0.009 A 
ATOM     19  C   UNL     1      -2.699   5.330  -4.365  1.00  0.00     0.004 A 
ATOM     20  C   UNL     1      -1.311   6.850  -3.090  1.00  0.00     0.004 A 
ATOM     21  C   UNL     1      -2.170   6.614  -4.174  1.00  0.00    -0.051 A 
ATOM     22  C   UNL     1      -2.573   7.741  -5.078  1.00  0.00     0.044 C 
ENDBRANCH  12  16
ENDBRANCH   6   7
ENDBRANCH   1   6
BRANCH   2  23
ATOM     23  C   UNL     1      -0.325  -3.293   2.135  1.00  0.00     0.116 C 
BRANCH  23  24
ATOM     24  C   UNL     1       0.662  -3.983   1.214  1.00  0.00    -0.025 A 
ATOM     25  C   UNL     1       2.048  -3.847   1.417  1.00  0.00     0.009 A 
ATOM     26  C   UNL     1       0.202  -4.781   0.151  1.00  0.00     0.009 A 
ATOM     27  C   UNL     1       2.953  -4.492   0.568  1.00  0.00     0.039 A 
ATOM     28  C   UNL     1       1.111  -5.425  -0.694  1.00  0.00     0.039 A 
ATOM     29  C   UNL     1       2.485  -5.280  -0.486  1.00  0.00     0.123 A 
ATOM     30  F   UNL     1       3.364  -5.905  -1.308  1.00  0.00    -0.207 F 
ENDBRANCH  23  24
BRANCH  23  31
ATOM     31  C   UNL     1      -0.300  -3.899   3.567  1.00  0.00     0.010 C 
ATOM     32  C   UNL     1      -0.581  -5.411   3.547  1.00  0.00     0.010 C 
ATOM     33  C   UNL     1      -1.328  -3.204   4.476  1.00  0.00     0.010 C 
ENDBRANCH  23  31
ENDBRANCH   2  23
TORSDOF 8


