MODEL 1
REMARK VINA RESULT:      -8.2      0.000      0.000
REMARK SMILES Cc1c(CCC([O-])=C2CCC2)c(F)cc2[nH]c(-c3ncncc3F)cc12
REMARK SMILES IDX 4 1 3 2 2 3 26 4 12 5 25 6 15 7 14 8 17 9 16 10 1 11 13 12
REMARK SMILES IDX 18 14 19 15 23 16 20 17 22 18 21 19 24 20 5 21 6 22 7 23
REMARK SMILES IDX 8 24 9 25 11 26 10 27
REMARK H PARENT 16 13
ROOT
ATOM      1  C   UNL     1      42.904 132.152  21.881  1.00  0.00     0.042 C 
ENDROOT
BRANCH   1   2
ATOM      2  C   UNL     1      43.198 131.940  20.407  1.00  0.00    -0.008 A 
ATOM      3  C   UNL     1      44.469 131.475  19.944  1.00  0.00    -0.036 A 
ATOM      4  C   UNL     1      44.647 131.370  18.553  1.00  0.00     0.003 A 
ATOM      5  C   UNL     1      42.182 132.264  19.466  1.00  0.00     0.128 A 
ATOM      6  C   UNL     1      45.740 130.979  17.797  1.00  0.00     0.039 A 
ATOM      7  C   UNL     1      43.653 131.693  17.666  1.00  0.00     0.049 A 
ATOM      8  C   UNL     1      42.410 132.142  18.088  1.00  0.00     0.066 A 
ATOM      9  C   UNL     1      45.334 131.083  16.469  1.00  0.00     0.068 A 
ATOM     10  N   UNL     1      44.057 131.528  16.395  1.00  0.00    -0.353 N 
ATOM     11  C   UNL     1      45.565 131.073  20.899  1.00  0.00     0.045 C 
ATOM     12  F   UNL     1      40.970 132.707  19.887  1.00  0.00    -0.207 F 
ATOM     13  H   UNL     1      43.500 131.749  15.541  1.00  0.00     0.167 HD
BRANCH   9  14
ATOM     14  C   UNL     1      46.203 130.802  15.305  1.00  0.00     0.126 A 
ATOM     15  N   UNL     1      46.820 131.845  14.682  1.00  0.00    -0.232 NA
ATOM     16  C   UNL     1      46.428 129.498  14.830  1.00  0.00     0.169 A 
ATOM     17  C   UNL     1      47.629 131.652  13.609  1.00  0.00     0.222 A 
ATOM     18  C   UNL     1      47.263 129.324  13.726  1.00  0.00     0.154 A 
ATOM     19  N   UNL     1      47.844 130.398  13.136  1.00  0.00    -0.242 NA
ATOM     20  F   UNL     1      45.903 128.408  15.443  1.00  0.00    -0.203 F 
ENDBRANCH   9  14
ENDBRANCH   1   2
BRANCH   1  21
ATOM     21  C   UNL     1      42.457 130.853  22.571  1.00  0.00     0.023 C 
BRANCH  21  22
ATOM     22  C   UNL     1      43.470 130.372  23.569  1.00  0.00    -0.133 C 
ATOM     23  O   UNL     1      44.106 131.294  24.391  1.00  0.00    -0.875 OA
BRANCH  22  24
ATOM     24  C   UNL     1      43.752 129.078  23.704  1.00  0.00    -0.082 C 
ATOM     25  C   UNL     1      42.987 127.771  23.637  1.00  0.00     0.030 C 
ATOM     26  C   UNL     1      44.963 128.208  23.990  1.00  0.00     0.030 C 
ATOM     27  C   UNL     1      44.190 126.930  23.918  1.00  0.00     0.009 C 
ENDBRANCH  22  24
ENDBRANCH  21  22
ENDBRANCH   1  21
TORSDOF 5
ENDMDL
MODEL 2
REMARK VINA RESULT:      -7.6      1.062      1.210
REMARK SMILES Cc1c(CCC([O-])=C2CCC2)c(F)cc2[nH]c(-c3ncncc3F)cc12
REMARK SMILES IDX 4 1 3 2 2 3 26 4 12 5 25 6 15 7 14 8 17 9 16 10 1 11 13 12
REMARK SMILES IDX 18 14 19 15 23 16 20 17 22 18 21 19 24 20 5 21 6 22 7 23
REMARK SMILES IDX 8 24 9 25 11 26 10 27
REMARK H PARENT 16 13
ROOT
ATOM      1  C   UNL     1      42.814 132.423  21.933  1.00  0.00     0.042 C 
ENDROOT
BRANCH   1   2
ATOM      2  C   UNL     1      43.101 132.114  20.476  1.00  0.00    -0.008 A 
ATOM      3  C   UNL     1      44.367 131.612  20.039  1.00  0.00    -0.036 A 
ATOM      4  C   UNL     1      44.539 131.416  18.657  1.00  0.00     0.003 A 
ATOM      5  C   UNL     1      42.083 132.382  19.519  1.00  0.00     0.128 A 
ATOM      6  C   UNL     1      45.627 130.971  17.924  1.00  0.00     0.039 A 
ATOM      7  C   UNL     1      43.543 131.687  17.755  1.00  0.00     0.049 A 
ATOM      8  C   UNL     1      42.304 132.169  18.151  1.00  0.00     0.066 A 
ATOM      9  C   UNL     1      45.216 130.991  16.593  1.00  0.00     0.068 A 
ATOM     10  N   UNL     1      43.941 131.437  16.496  1.00  0.00    -0.353 N 
ATOM     11  C   UNL     1      45.465 131.266  21.014  1.00  0.00     0.045 C 
ATOM     12  F   UNL     1      40.875 132.858  19.914  1.00  0.00    -0.207 F 
ATOM     13  H   UNL     1      43.382 131.606  15.631  1.00  0.00     0.167 HD
BRANCH   9  14
ATOM     14  C   UNL     1      46.079 130.629  15.447  1.00  0.00     0.126 A 
ATOM     15  N   UNL     1      47.016 129.655  15.616  1.00  0.00    -0.232 NA
ATOM     16  C   UNL     1      45.956 131.242  14.188  1.00  0.00     0.169 A 
ATOM     17  C   UNL     1      47.840 129.279  14.604  1.00  0.00     0.222 A 
ATOM     18  C   UNL     1      46.812 130.840  13.163  1.00  0.00     0.154 A 
ATOM     19  N   UNL     1      47.736 129.872  13.388  1.00  0.00    -0.242 NA
ATOM     20  F   UNL     1      45.001 132.169  13.929  1.00  0.00    -0.203 F 
ENDBRANCH   9  14
ENDBRANCH   1   2
BRANCH   1  21
ATOM     21  C   UNL     1      42.421 131.163  22.722  1.00  0.00     0.023 C 
BRANCH  21  22
ATOM     22  C   UNL     1      43.524 130.706  23.633  1.00  0.00    -0.133 C 
ATOM     23  O   UNL     1      44.306 131.653  24.282  1.00  0.00    -0.875 OA
BRANCH  22  24
ATOM     24  C   UNL     1      43.750 129.413  23.855  1.00  0.00    -0.082 C 
ATOM     25  C   UNL     1      42.925 128.143  23.909  1.00  0.00     0.030 C 
ATOM     26  C   UNL     1      44.929 128.509  24.168  1.00  0.00     0.030 C 
ATOM     27  C   UNL     1      44.097 127.268  24.215  1.00  0.00     0.009 C 
ENDBRANCH  22  24
ENDBRANCH  21  22
ENDBRANCH   1  21
TORSDOF 5
ENDMDL
MODEL 3
REMARK VINA RESULT:      -6.6      0.994      1.156
REMARK SMILES Cc1c(CCC([O-])=C2CCC2)c(F)cc2[nH]c(-c3ncncc3F)cc12
REMARK SMILES IDX 4 1 3 2 2 3 26 4 12 5 25 6 15 7 14 8 17 9 16 10 1 11 13 12
REMARK SMILES IDX 18 14 19 15 23 16 20 17 22 18 21 19 24 20 5 21 6 22 7 23
REMARK SMILES IDX 8 24 9 25 11 26 10 27
REMARK H PARENT 16 13
ROOT
ATOM      1  C   UNL     1      43.101 131.929  21.173  1.00  0.00     0.042 C 
ENDROOT
BRANCH   1   2
ATOM      2  C   UNL     1      43.432 131.743  19.704  1.00  0.00    -0.008 A 
ATOM      3  C   UNL     1      44.716 131.291  19.266  1.00  0.00    -0.036 A 
ATOM      4  C   UNL     1      44.929 131.208  17.878  1.00  0.00     0.003 A 
ATOM      5  C   UNL     1      42.438 132.077  18.743  1.00  0.00     0.128 A 
ATOM      6  C   UNL     1      46.042 130.835  17.142  1.00  0.00     0.039 A 
ATOM      7  C   UNL     1      43.955 131.541  16.971  1.00  0.00     0.049 A 
ATOM      8  C   UNL     1      42.700 131.977  17.370  1.00  0.00     0.066 A 
ATOM      9  C   UNL     1      45.668 130.958  15.806  1.00  0.00     0.068 A 
ATOM     10  N   UNL     1      44.391 131.398  15.708  1.00  0.00    -0.353 N 
ATOM     11  C   UNL     1      45.790 130.878  20.240  1.00  0.00     0.045 C 
ATOM     12  F   UNL     1      41.213 132.507  19.141  1.00  0.00    -0.207 F 
ATOM     13  H   UNL     1      43.854 131.630  14.845  1.00  0.00     0.167 HD
BRANCH   9  14
ATOM     14  C   UNL     1      46.568 130.700  14.660  1.00  0.00     0.126 A 
ATOM     15  N   UNL     1      46.358 131.380  13.498  1.00  0.00    -0.232 NA
ATOM     16  C   UNL     1      47.638 129.792  14.732  1.00  0.00     0.169 A 
ATOM     17  C   UNL     1      47.147 131.186  12.410  1.00  0.00     0.222 A 
ATOM     18  C   UNL     1      48.436 129.609  13.603  1.00  0.00     0.154 A 
ATOM     19  N   UNL     1      48.177 130.304  12.466  1.00  0.00    -0.242 NA
ATOM     20  F   UNL     1      47.948 129.133  15.876  1.00  0.00    -0.203 F 
ENDBRANCH   9  14
ENDBRANCH   1   2
BRANCH   1  21
ATOM     21  C   UNL     1      42.499 130.658  21.794  1.00  0.00     0.023 C 
BRANCH  21  22
ATOM     22  C   UNL     1      43.120 130.337  23.123  1.00  0.00    -0.133 C 
ATOM     23  O   UNL     1      43.833 131.321  23.797  1.00  0.00    -0.875 OA
BRANCH  22  24
ATOM     24  C   UNL     1      42.978 129.137  23.684  1.00  0.00    -0.082 C 
ATOM     25  C   UNL     1      43.846 127.915  23.908  1.00  0.00     0.030 C 
ATOM     26  C   UNL     1      41.898 128.343  24.397  1.00  0.00     0.030 C 
ATOM     27  C   UNL     1      42.771 127.149  24.608  1.00  0.00     0.009 C 
ENDBRANCH  22  24
ENDBRANCH  21  22
ENDBRANCH   1  21
TORSDOF 5
ENDMDL
MODEL 4
REMARK VINA RESULT:      -5.8      1.366      1.670
REMARK SMILES Cc1c(CCC([O-])=C2CCC2)c(F)cc2[nH]c(-c3ncncc3F)cc12
REMARK SMILES IDX 4 1 3 2 2 3 26 4 12 5 25 6 15 7 14 8 17 9 16 10 1 11 13 12
REMARK SMILES IDX 18 14 19 15 23 16 20 17 22 18 21 19 24 20 5 21 6 22 7 23
REMARK SMILES IDX 8 24 9 25 11 26 10 27
REMARK H PARENT 16 13
ROOT
ATOM      1  C   UNL     1      43.139 132.146  21.009  1.00  0.00     0.042 C 
ENDROOT
BRANCH   1   2
ATOM      2  C   UNL     1      43.543 131.860  19.575  1.00  0.00    -0.008 A 
ATOM      3  C   UNL     1      44.838 131.357  19.236  1.00  0.00    -0.036 A 
ATOM      4  C   UNL     1      45.123 131.182  17.869  1.00  0.00     0.003 A 
ATOM      5  C   UNL     1      42.608 132.149  18.542  1.00  0.00     0.128 A 
ATOM      6  C   UNL     1      46.265 130.742  17.220  1.00  0.00     0.039 A 
ATOM      7  C   UNL     1      44.206 131.473  16.893  1.00  0.00     0.049 A 
ATOM      8  C   UNL     1      42.941 131.958  17.194  1.00  0.00     0.066 A 
ATOM      9  C   UNL     1      45.965 130.786  15.861  1.00  0.00     0.068 A 
ATOM     10  N   UNL     1      44.704 131.242  15.666  1.00  0.00    -0.353 N 
ATOM     11  C   UNL     1      45.850 130.988  20.291  1.00  0.00     0.045 C 
ATOM     12  F   UNL     1      41.374 132.627  18.845  1.00  0.00    -0.207 F 
ATOM     13  H   UNL     1      44.219 131.428  14.762  1.00  0.00     0.167 HD
BRANCH   9  14
ATOM     14  C   UNL     1      46.917 130.438  14.784  1.00  0.00     0.126 A 
ATOM     15  N   UNL     1      47.266 129.131  14.617  1.00  0.00    -0.232 NA
ATOM     16  C   UNL     1      47.461 131.402  13.917  1.00  0.00     0.169 A 
ATOM     17  C   UNL     1      48.137 128.747  13.648  1.00  0.00     0.222 A 
ATOM     18  C   UNL     1      48.353 130.985  12.929  1.00  0.00     0.154 A 
ATOM     19  N   UNL     1      48.675 129.672  12.813  1.00  0.00    -0.242 NA
ATOM     20  F   UNL     1      47.105 132.709  13.981  1.00  0.00    -0.203 F 
ENDBRANCH   9  14
ENDBRANCH   1   2
BRANCH   1  21
ATOM     21  C   UNL     1      42.425 130.948  21.657  1.00  0.00     0.023 C 
BRANCH  21  22
ATOM     22  C   UNL     1      42.737 130.837  23.121  1.00  0.00    -0.133 C 
ATOM     23  O   UNL     1      42.239 131.793  23.998  1.00  0.00    -0.875 OA
BRANCH  22  24
ATOM     24  C   UNL     1      43.457 129.825  23.603  1.00  0.00    -0.082 C 
ATOM     25  C   UNL     1      43.542 128.328  23.379  1.00  0.00     0.030 C 
ATOM     26  C   UNL     1      44.567 129.608  24.616  1.00  0.00     0.030 C 
ATOM     27  C   UNL     1      44.636 128.134  24.379  1.00  0.00     0.009 C 
ENDBRANCH  22  24
ENDBRANCH  21  22
ENDBRANCH   1  21
TORSDOF 5
ENDMDL
MODEL 5
REMARK VINA RESULT:      -5.5      1.907      2.524
REMARK SMILES Cc1c(CCC([O-])=C2CCC2)c(F)cc2[nH]c(-c3ncncc3F)cc12
REMARK SMILES IDX 4 1 3 2 2 3 26 4 12 5 25 6 15 7 14 8 17 9 16 10 1 11 13 12
REMARK SMILES IDX 18 14 19 15 23 16 20 17 22 18 21 19 24 20 5 21 6 22 7 23
REMARK SMILES IDX 8 24 9 25 11 26 10 27
REMARK H PARENT 16 13
ROOT
ATOM      1  C   UNL     1      42.519 131.586  21.883  1.00  0.00     0.042 C 
ENDROOT
BRANCH   1   2
ATOM      2  C   UNL     1      43.596 131.326  20.846  1.00  0.00    -0.008 A 
ATOM      3  C   UNL     1      43.376 131.541  19.450  1.00  0.00    -0.036 A 
ATOM      4  C   UNL     1      44.427 131.212  18.575  1.00  0.00     0.003 A 
ATOM      5  C   UNL     1      44.845 130.808  21.290  1.00  0.00     0.128 A 
ATOM      6  C   UNL     1      44.525 131.281  17.195  1.00  0.00     0.039 A 
ATOM      7  C   UNL     1      45.620 130.710  19.028  1.00  0.00     0.049 A 
ATOM      8  C   UNL     1      45.861 130.496  20.377  1.00  0.00     0.066 A 
ATOM      9  C   UNL     1      45.800 130.813  16.886  1.00  0.00     0.068 A 
ATOM     10  N   UNL     1      46.463 130.458  18.012  1.00  0.00    -0.353 N 
ATOM     11  C   UNL     1      42.090 132.132  18.929  1.00  0.00     0.045 C 
ATOM     12  F   UNL     1      45.072 130.598  22.612  1.00  0.00    -0.207 F 
ATOM     13  H   UNL     1      47.411 130.031  18.095  1.00  0.00     0.167 HD
BRANCH   9  14
ATOM     14  C   UNL     1      46.327 130.671  15.510  1.00  0.00     0.126 A 
ATOM     15  N   UNL     1      47.312 129.759  15.278  1.00  0.00    -0.232 NA
ATOM     16  C   UNL     1      45.837 131.431  14.434  1.00  0.00     0.169 A 
ATOM     17  C   UNL     1      47.839 129.583  14.039  1.00  0.00     0.222 A 
ATOM     18  C   UNL     1      46.393 131.233  13.169  1.00  0.00     0.154 A 
ATOM     19  N   UNL     1      47.380 130.319  12.995  1.00  0.00    -0.242 NA
ATOM     20  F   UNL     1      44.811 132.306  14.578  1.00  0.00    -0.203 F 
ENDBRANCH   9  14
ENDBRANCH   1   2
BRANCH   1  21
ATOM     21  C   UNL     1      42.957 131.149  23.291  1.00  0.00     0.023 C 
BRANCH  21  22
ATOM     22  C   UNL     1      41.916 130.300  23.962  1.00  0.00    -0.133 C 
ATOM     23  O   UNL     1      40.861 130.914  24.625  1.00  0.00    -0.875 OA
BRANCH  22  24
ATOM     24  C   UNL     1      41.966 128.970  23.911  1.00  0.00    -0.082 C 
ATOM     25  C   UNL     1      41.081 127.852  23.397  1.00  0.00     0.030 C 
ATOM     26  C   UNL     1      42.914 127.858  24.325  1.00  0.00     0.030 C 
ATOM     27  C   UNL     1      42.026 126.771  23.810  1.00  0.00     0.009 C 
ENDBRANCH  22  24
ENDBRANCH  21  22
ENDBRANCH   1  21
TORSDOF 5
ENDMDL
MODEL 6
REMARK VINA RESULT:      -5.3      1.084      1.156
REMARK SMILES Cc1c(CCC([O-])=C2CCC2)c(F)cc2[nH]c(-c3ncncc3F)cc12
REMARK SMILES IDX 4 1 3 2 2 3 26 4 12 5 25 6 15 7 14 8 17 9 16 10 1 11 13 12
REMARK SMILES IDX 18 14 19 15 23 16 20 17 22 18 21 19 24 20 5 21 6 22 7 23
REMARK SMILES IDX 8 24 9 25 11 26 10 27
REMARK H PARENT 16 13
ROOT
ATOM      1  C   UNL     1      43.050 132.795  22.402  1.00  0.00     0.042 C 
ENDROOT
BRANCH   1   2
ATOM      2  C   UNL     1      43.180 132.399  20.943  1.00  0.00    -0.008 A 
ATOM      3  C   UNL     1      44.432 132.019  20.366  1.00  0.00    -0.036 A 
ATOM      4  C   UNL     1      44.444 131.728  18.990  1.00  0.00     0.003 A 
ATOM      5  C   UNL     1      42.018 132.459  20.124  1.00  0.00     0.128 A 
ATOM      6  C   UNL     1      45.475 131.356  18.142  1.00  0.00     0.039 A 
ATOM      7  C   UNL     1      43.311 131.798  18.222  1.00  0.00     0.049 A 
ATOM      8  C   UNL     1      42.083 132.159  18.757  1.00  0.00     0.066 A 
ATOM      9  C   UNL     1      44.892 131.213  16.885  1.00  0.00     0.068 A 
ATOM     10  N   UNL     1      43.568 131.492  16.939  1.00  0.00    -0.353 N 
ATOM     11  C   UNL     1      45.685 131.893  21.197  1.00  0.00     0.045 C 
ATOM     12  F   UNL     1      40.820 132.818  20.654  1.00  0.00    -0.207 F 
ATOM     13  H   UNL     1      42.882 131.516  16.154  1.00  0.00     0.167 HD
BRANCH   9  14
ATOM     14  C   UNL     1      45.637 130.862  15.655  1.00  0.00     0.126 A 
ATOM     15  N   UNL     1      45.419 131.595  14.528  1.00  0.00    -0.232 NA
ATOM     16  C   UNL     1      46.571 129.812  15.613  1.00  0.00     0.169 A 
ATOM     17  C   UNL     1      46.069 131.322  13.367  1.00  0.00     0.222 A 
ATOM     18  C   UNL     1      47.227 129.550  14.410  1.00  0.00     0.154 A 
ATOM     19  N   UNL     1      46.965 130.304  13.313  1.00  0.00    -0.242 NA
ATOM     20  F   UNL     1      46.888 129.087  16.714  1.00  0.00    -0.203 F 
ENDBRANCH   9  14
ENDBRANCH   1   2
BRANCH   1  21
ATOM     21  C   UNL     1      43.876 131.880  23.322  1.00  0.00     0.023 C 
BRANCH  21  22
ATOM     22  C   UNL     1      43.246 130.526  23.476  1.00  0.00    -0.133 C 
ATOM     23  O   UNL     1      41.862 130.421  23.530  1.00  0.00    -0.875 OA
BRANCH  22  24
ATOM     24  C   UNL     1      43.985 129.419  23.533  1.00  0.00    -0.082 C 
ATOM     25  C   UNL     1      44.596 128.557  24.620  1.00  0.00     0.030 C 
ATOM     26  C   UNL     1      44.611 128.426  22.570  1.00  0.00     0.030 C 
ATOM     27  C   UNL     1      45.204 127.589  23.657  1.00  0.00     0.009 C 
ENDBRANCH  22  24
ENDBRANCH  21  22
ENDBRANCH   1  21
TORSDOF 5
ENDMDL


