REMARK SMILES Cc1ccc(-c2ccc([O-])cc2)c2cn(C(=O)[N-]c3ccc(N(C)C)cc3)[nH+]c12
REMARK SMILES IDX 16 1 17 2 15 3 2 4 3 5 29 6 4 7 28 8 13 9 5 10 14 11 1 12
REMARK SMILES IDX 6 14 7 15 12 16 8 17 11 18 9 19 10 20 18 21 19 22 20 23
REMARK SMILES IDX 27 24 21 25 26 26 22 27 23 28 24 29 25 30
REMARK H PARENT 28 13
ROOT
ATOM      1  C   UNL     1       3.897  -1.825  -0.364  1.00  0.00     0.214 C 
ATOM      2  O   UNL     1       4.952  -2.378   0.043  1.00  0.00    -0.293 OA
ENDROOT
BRANCH   1   3
ATOM      3  N   UNL     1       2.941  -1.334   0.591  1.00  0.00    -0.203 N 
ATOM      4  C   UNL     1       1.415  -1.176   3.767  1.00  0.00     0.022 A 
ATOM      5  C   UNL     1       0.344  -0.337   4.147  1.00  0.00     0.011 A 
ATOM      6  C   UNL     1       1.861  -1.082   2.445  1.00  0.00     0.221 A 
ATOM      7  C   UNL     1      -0.251   0.543   3.216  1.00  0.00     0.010 A 
ATOM      8  N   UNL     1       2.863  -1.755   1.849  1.00  0.00    -0.187 N 
ATOM      9  C   UNL     1       1.291  -0.217   1.546  1.00  0.00     0.056 A 
ATOM     10  C   UNL     1       0.211   0.607   1.882  1.00  0.00    -0.005 A 
ATOM     11  C   UNL     1       2.012  -0.370   0.379  1.00  0.00     0.063 A 
ATOM     12  C   UNL     1       2.054  -2.119   4.742  1.00  0.00     0.052 C 
ATOM     13  H   UNL     1       3.474  -2.485   2.280  1.00  0.00     0.465 HD
BRANCH  10  14
ATOM     14  C   UNL     1      -0.455   1.476   0.883  1.00  0.00    -0.018 A 
ATOM     15  C   UNL     1      -0.830   0.961  -0.371  1.00  0.00     0.008 A 
ATOM     16  C   UNL     1      -0.742   2.817   1.186  1.00  0.00     0.008 A 
ATOM     17  C   UNL     1      -1.460   1.780  -1.312  1.00  0.00    -0.008 A 
ATOM     18  C   UNL     1      -1.374   3.634   0.242  1.00  0.00    -0.008 A 
ATOM     19  C   UNL     1      -1.730   3.117  -1.007  1.00  0.00    -0.109 A 
ATOM     20  O   UNL     1      -2.356   3.931  -1.943  1.00  0.00    -0.872 OA
ENDBRANCH  10  14
ENDBRANCH   1   3
BRANCH   1  21
ATOM     21  N   UNL     1       3.702  -1.662  -1.776  1.00  0.00    -0.396 NA
BRANCH  21  22
ATOM     22  C   UNL     1       2.433  -1.622  -2.444  1.00  0.00    -0.039 A 
ATOM     23  C   UNL     1       2.301  -0.865  -3.610  1.00  0.00     0.006 A 
ATOM     24  C   UNL     1       1.324  -2.326  -1.953  1.00  0.00     0.006 A 
ATOM     25  C   UNL     1       1.062  -0.753  -4.245  1.00  0.00     0.026 A 
ATOM     26  C   UNL     1       0.083  -2.218  -2.584  1.00  0.00     0.026 A 
ATOM     27  C   UNL     1      -0.076  -1.414  -3.734  1.00  0.00     0.036 A 
BRANCH  27  28
ATOM     28  N   UNL     1      -1.374  -1.267  -4.370  1.00  0.00    -0.378 N 
ATOM     29  C   UNL     1      -1.630  -0.157  -5.296  1.00  0.00     0.143 C 
ATOM     30  C   UNL     1      -2.459  -2.214  -4.082  1.00  0.00     0.143 C 
ENDBRANCH  27  28
ENDBRANCH  21  22
ENDBRANCH   1  21
TORSDOF 5


