MODEL 1
REMARK VINA RESULT:      -3.7      0.000      0.000
REMARK SMILES C=CCn1cc(N(c2ccc3[nH]ccc3c2)c2cccc3c2CCC3)cn1
REMARK SMILES IDX 4 1 5 2 6 3 26 4 27 5 3 6 2 7 1 8 7 9 8 10 9 11 16 12 10 13
REMARK SMILES IDX 15 14 11 15 14 16 12 17 13 18 17 20 18 21 22 22 19 23 21 24
REMARK SMILES IDX 23 25 20 26 25 27 24 28
REMARK H PARENT 12 19
ROOT
ATOM      1  N   UNL     1      47.262 133.682  22.325  1.00  0.00    -0.267 N 
ATOM      2  C   UNL     1      46.632 132.850  21.474  1.00  0.00     0.135 A 
ATOM      3  C   UNL     1      45.555 132.309  22.143  1.00  0.00     0.084 A 
ATOM      4  C   UNL     1      45.593 132.852  23.415  1.00  0.00     0.161 A 
ATOM      5  N   UNL     1      46.650 133.684  23.501  1.00  0.00    -0.179 NA
ENDROOT
BRANCH   1   6
ATOM      6  C   UNL     1      48.487 134.422  22.044  1.00  0.00     0.171 C 
BRANCH   6   7
ATOM      7  C   UNL     1      49.444 134.309  23.198  1.00  0.00    -0.011 C 
ATOM      8  C   UNL     1      50.454 135.169  23.354  1.00  0.00     0.006 C 
ENDBRANCH   6   7
ENDBRANCH   1   6
BRANCH   3   9
ATOM      9  N   UNL     1      44.605 131.350  21.637  1.00  0.00    -0.307 N 
BRANCH   9  10
ATOM     10  C   UNL     1      44.433 130.076  22.290  1.00  0.00     0.047 A 
ATOM     11  C   UNL     1      43.471 129.927  23.323  1.00  0.00     0.029 A 
ATOM     12  C   UNL     1      45.192 128.956  21.876  1.00  0.00     0.037 A 
ATOM     13  C   UNL     1      43.272 128.683  23.948  1.00  0.00     0.029 A 
ATOM     14  C   UNL     1      44.969 127.740  22.517  1.00  0.00     0.001 A 
ATOM     15  C   UNL     1      44.044 127.607  23.516  1.00  0.00     0.045 A 
ATOM     16  C   UNL     1      45.549 126.506  22.324  1.00  0.00     0.028 A 
ATOM     17  N   UNL     1      44.009 126.344  23.969  1.00  0.00    -0.361 N 
ATOM     18  C   UNL     1      44.928 125.666  23.243  1.00  0.00     0.083 A 
ATOM     19  H   UNL     1      43.399 125.959  24.724  1.00  0.00     0.166 HD
ENDBRANCH   9  10
BRANCH   9  20
ATOM     20  C   UNL     1      43.789 131.684  20.499  1.00  0.00     0.050 A 
ATOM     21  C   UNL     1      42.531 132.292  20.677  1.00  0.00     0.027 A 
ATOM     22  C   UNL     1      44.219 131.416  19.187  1.00  0.00    -0.021 A 
ATOM     23  C   UNL     1      41.734 132.617  19.566  1.00  0.00     0.002 A 
ATOM     24  C   UNL     1      43.440 131.746  18.106  1.00  0.00    -0.043 A 
ATOM     25  C   UNL     1      45.508 130.811  18.765  1.00  0.00     0.038 C 
ATOM     26  C   UNL     1      42.189 132.344  18.269  1.00  0.00     0.004 A 
ATOM     27  C   UNL     1      44.089 131.405  16.819  1.00  0.00     0.036 C 
ATOM     28  C   UNL     1      45.488 130.914  17.229  1.00  0.00     0.010 C 
ENDBRANCH   9  20
ENDBRANCH   3   9
TORSDOF 5
ENDMDL
MODEL 2
REMARK VINA RESULT:      -3.6      1.293      4.937
REMARK SMILES C=CCn1cc(N(c2ccc3[nH]ccc3c2)c2cccc3c2CCC3)cn1
REMARK SMILES IDX 4 1 5 2 6 3 26 4 27 5 3 6 2 7 1 8 7 9 8 10 9 11 16 12 10 13
REMARK SMILES IDX 15 14 11 15 14 16 12 17 13 18 17 20 18 21 22 22 19 23 21 24
REMARK SMILES IDX 23 25 20 26 25 27 24 28
REMARK H PARENT 12 19
ROOT
ATOM      1  N   UNL     1      47.360 133.670  22.347  1.00  0.00    -0.267 N 
ATOM      2  C   UNL     1      46.667 132.899  21.487  1.00  0.00     0.135 A 
ATOM      3  C   UNL     1      45.566 132.413  22.160  1.00  0.00     0.084 A 
ATOM      4  C   UNL     1      45.655 132.924  23.443  1.00  0.00     0.161 A 
ATOM      5  N   UNL     1      46.764 133.685  23.531  1.00  0.00    -0.179 NA
ENDROOT
BRANCH   1   6
ATOM      6  C   UNL     1      48.626 134.337  22.065  1.00  0.00     0.171 C 
BRANCH   6   7
ATOM      7  C   UNL     1      49.439 134.470  23.321  1.00  0.00    -0.011 C 
ATOM      8  C   UNL     1      50.560 135.196  23.353  1.00  0.00     0.006 C 
ENDBRANCH   6   7
ENDBRANCH   1   6
BRANCH   3   9
ATOM      9  N   UNL     1      44.550 131.528  21.648  1.00  0.00    -0.307 N 
BRANCH   9  10
ATOM     10  C   UNL     1      44.176 131.568  20.256  1.00  0.00     0.047 A 
ATOM     11  C   UNL     1      42.853 131.919  19.882  1.00  0.00     0.029 A 
ATOM     12  C   UNL     1      45.137 131.299  19.254  1.00  0.00     0.037 A 
ATOM     13  C   UNL     1      42.483 131.991  18.527  1.00  0.00     0.029 A 
ATOM     14  C   UNL     1      44.736 131.380  17.923  1.00  0.00     0.001 A 
ATOM     15  C   UNL     1      43.456 131.713  17.571  1.00  0.00     0.045 A 
ATOM     16  C   UNL     1      45.444 131.177  16.759  1.00  0.00     0.028 A 
ATOM     17  N   UNL     1      43.317 131.730  16.236  1.00  0.00    -0.361 N 
ATOM     18  C   UNL     1      44.531 131.403  15.734  1.00  0.00     0.083 A 
ATOM     19  H   UNL     1      42.453 131.952  15.692  1.00  0.00     0.166 HD
ENDBRANCH   9  10
BRANCH   9  20
ATOM     20  C   UNL     1      43.934 130.565  22.523  1.00  0.00     0.050 A 
ATOM     21  C   UNL     1      42.845 130.934  23.337  1.00  0.00     0.027 A 
ATOM     22  C   UNL     1      44.396 129.237  22.591  1.00  0.00    -0.021 A 
ATOM     23  C   UNL     1      42.245 129.994  24.192  1.00  0.00     0.002 A 
ATOM     24  C   UNL     1      43.797 128.322  23.421  1.00  0.00    -0.043 A 
ATOM     25  C   UNL     1      45.501 128.625  21.812  1.00  0.00     0.038 C 
ATOM     26  C   UNL     1      42.721 128.678  24.237  1.00  0.00     0.004 A 
ATOM     27  C   UNL     1      44.417 126.982  23.320  1.00  0.00     0.036 C 
ATOM     28  C   UNL     1      45.443 127.132  22.184  1.00  0.00     0.010 C 
ENDBRANCH   9  20
ENDBRANCH   3   9
TORSDOF 5
ENDMDL
MODEL 3
REMARK VINA RESULT:      -3.5      1.872      4.940
REMARK SMILES C=CCn1cc(N(c2ccc3[nH]ccc3c2)c2cccc3c2CCC3)cn1
REMARK SMILES IDX 4 1 5 2 6 3 26 4 27 5 3 6 2 7 1 8 7 9 8 10 9 11 16 12 10 13
REMARK SMILES IDX 15 14 11 15 14 16 12 17 13 18 17 20 18 21 22 22 19 23 21 24
REMARK SMILES IDX 23 25 20 26 25 27 24 28
REMARK H PARENT 12 19
ROOT
ATOM      1  N   UNL     1      47.443 134.561  21.419  1.00  0.00    -0.267 N 
ATOM      2  C   UNL     1      46.250 134.117  20.980  1.00  0.00     0.135 A 
ATOM      3  C   UNL     1      46.237 132.747  21.131  1.00  0.00     0.084 A 
ATOM      4  C   UNL     1      47.470 132.416  21.664  1.00  0.00     0.161 A 
ATOM      5  N   UNL     1      48.190 133.544  21.825  1.00  0.00    -0.179 NA
ENDROOT
BRANCH   1   6
ATOM      6  C   UNL     1      47.902 135.946  21.389  1.00  0.00     0.171 C 
BRANCH   6   7
ATOM      7  C   UNL     1      49.368 136.005  21.065  1.00  0.00    -0.011 C 
ATOM      8  C   UNL     1      50.264 136.431  21.960  1.00  0.00     0.006 C 
ENDBRANCH   6   7
ENDBRANCH   1   6
BRANCH   3   9
ATOM      9  N   UNL     1      45.174 131.839  20.775  1.00  0.00    -0.307 N 
BRANCH   9  10
ATOM     10  C   UNL     1      44.918 131.518  19.393  1.00  0.00     0.047 A 
ATOM     11  C   UNL     1      43.700 131.917  18.781  1.00  0.00     0.029 A 
ATOM     12  C   UNL     1      45.894 130.839  18.627  1.00  0.00     0.037 A 
ATOM     13  C   UNL     1      43.449 131.636  17.427  1.00  0.00     0.029 A 
ATOM     14  C   UNL     1      45.612 130.577  17.289  1.00  0.00     0.001 A 
ATOM     15  C   UNL     1      44.433 130.960  16.709  1.00  0.00     0.045 A 
ATOM     16  C   UNL     1      46.363 129.947  16.321  1.00  0.00     0.028 A 
ATOM     17  N   UNL     1      44.399 130.602  15.416  1.00  0.00    -0.361 N 
ATOM     18  C   UNL     1      45.577 129.982  15.173  1.00  0.00     0.083 A 
ATOM     19  H   UNL     1      43.626 130.767  14.733  1.00  0.00     0.166 HD
ENDBRANCH   9  10
BRANCH   9  20
ATOM     20  C   UNL     1      44.392 131.215  21.809  1.00  0.00     0.050 A 
ATOM     21  C   UNL     1      43.401 131.945  22.494  1.00  0.00     0.027 A 
ATOM     22  C   UNL     1      44.590 129.868  22.165  1.00  0.00    -0.021 A 
ATOM     23  C   UNL     1      42.637 131.337  23.504  1.00  0.00     0.002 A 
ATOM     24  C   UNL     1      43.832 129.277  23.146  1.00  0.00    -0.043 A 
ATOM     25  C   UNL     1      45.550 128.908  21.565  1.00  0.00     0.038 C 
ATOM     26  C   UNL     1      42.851 129.992  23.835  1.00  0.00     0.004 A 
ATOM     27  C   UNL     1      44.182 127.852  23.343  1.00  0.00     0.036 C 
ATOM     28  C   UNL     1      45.209 127.564  22.234  1.00  0.00     0.010 C 
ENDBRANCH   9  20
ENDBRANCH   3   9
TORSDOF 5
ENDMDL
MODEL 4
REMARK VINA RESULT:      -3.5      1.945      5.473
REMARK SMILES C=CCn1cc(N(c2ccc3[nH]ccc3c2)c2cccc3c2CCC3)cn1
REMARK SMILES IDX 4 1 5 2 6 3 26 4 27 5 3 6 2 7 1 8 7 9 8 10 9 11 16 12 10 13
REMARK SMILES IDX 15 14 11 15 14 16 12 17 13 18 17 20 18 21 22 22 19 23 21 24
REMARK SMILES IDX 23 25 20 26 25 27 24 28
REMARK H PARENT 12 19
ROOT
ATOM      1  N   UNL     1      47.220 134.438  21.452  1.00  0.00    -0.267 N 
ATOM      2  C   UNL     1      46.104 133.867  20.958  1.00  0.00     0.135 A 
ATOM      3  C   UNL     1      46.290 132.502  20.985  1.00  0.00     0.084 A 
ATOM      4  C   UNL     1      47.559 132.306  21.502  1.00  0.00     0.161 A 
ATOM      5  N   UNL     1      48.107 133.507  21.775  1.00  0.00    -0.179 NA
ENDROOT
BRANCH   1   6
ATOM      6  C   UNL     1      47.472 135.871  21.553  1.00  0.00     0.171 C 
BRANCH   6   7
ATOM      7  C   UNL     1      48.737 136.233  20.827  1.00  0.00    -0.011 C 
ATOM      8  C   UNL     1      49.886 136.426  21.480  1.00  0.00     0.006 C 
ENDBRANCH   6   7
ENDBRANCH   1   6
BRANCH   3   9
ATOM      9  N   UNL     1      45.371 131.486  20.534  1.00  0.00    -0.307 N 
BRANCH   9  10
ATOM     10  C   UNL     1      44.901 131.477  19.171  1.00  0.00     0.047 A 
ATOM     11  C   UNL     1      43.547 131.790  18.881  1.00  0.00     0.029 A 
ATOM     12  C   UNL     1      45.795 131.195  18.112  1.00  0.00     0.037 A 
ATOM     13  C   UNL     1      43.082 131.813  17.555  1.00  0.00     0.029 A 
ATOM     14  C   UNL     1      45.299 131.227  16.810  1.00  0.00     0.001 A 
ATOM     15  C   UNL     1      43.992 131.524  16.540  1.00  0.00     0.045 A 
ATOM     16  C   UNL     1      45.929 131.003  15.606  1.00  0.00     0.028 A 
ATOM     17  N   UNL     1      43.759 131.498  15.218  1.00  0.00    -0.361 N 
ATOM     18  C   UNL     1      44.942 131.179  14.642  1.00  0.00     0.083 A 
ATOM     19  H   UNL     1      42.855 131.686  14.731  1.00  0.00     0.166 HD
ENDBRANCH   9  10
BRANCH   9  20
ATOM     20  C   UNL     1      44.954 130.448  21.439  1.00  0.00     0.050 A 
ATOM     21  C   UNL     1      45.537 129.167  21.374  1.00  0.00     0.027 A 
ATOM     22  C   UNL     1      43.960 130.677  22.408  1.00  0.00    -0.021 A 
ATOM     23  C   UNL     1      45.130 128.153  22.256  1.00  0.00     0.002 A 
ATOM     24  C   UNL     1      43.575 129.684  23.275  1.00  0.00    -0.043 A 
ATOM     25  C   UNL     1      43.234 131.945  22.675  1.00  0.00     0.038 C 
ATOM     26  C   UNL     1      44.142 128.409  23.216  1.00  0.00     0.004 A 
ATOM     27  C   UNL     1      42.540 130.141  24.230  1.00  0.00     0.036 C 
ATOM     28  C   UNL     1      42.401 131.645  23.934  1.00  0.00     0.010 C 
ENDBRANCH   9  20
ENDBRANCH   3   9
TORSDOF 5
ENDMDL
MODEL 5
REMARK VINA RESULT:      -3.1      1.633      6.224
REMARK SMILES C=CCn1cc(N(c2ccc3[nH]ccc3c2)c2cccc3c2CCC3)cn1
REMARK SMILES IDX 4 1 5 2 6 3 26 4 27 5 3 6 2 7 1 8 7 9 8 10 9 11 16 12 10 13
REMARK SMILES IDX 15 14 11 15 14 16 12 17 13 18 17 20 18 21 22 22 19 23 21 24
REMARK SMILES IDX 23 25 20 26 25 27 24 28
REMARK H PARENT 12 19
ROOT
ATOM      1  N   UNL     1      45.069 131.101  18.280  1.00  0.00    -0.267 N 
ATOM      2  C   UNL     1      45.534 130.917  19.531  1.00  0.00     0.135 A 
ATOM      3  C   UNL     1      44.635 131.502  20.398  1.00  0.00     0.084 A 
ATOM      4  C   UNL     1      43.641 132.040  19.600  1.00  0.00     0.161 A 
ATOM      5  N   UNL     1      43.933 131.784  18.310  1.00  0.00    -0.179 NA
ENDROOT
BRANCH   1   6
ATOM      6  C   UNL     1      45.739 130.689  17.051  1.00  0.00     0.171 C 
BRANCH   6   7
ATOM      7  C   UNL     1      45.648 131.774  16.016  1.00  0.00    -0.011 C 
ATOM      8  C   UNL     1      44.968 131.598  14.879  1.00  0.00     0.006 C 
ENDBRANCH   6   7
ENDBRANCH   1   6
BRANCH   3   9
ATOM      9  N   UNL     1      44.728 131.572  21.835  1.00  0.00    -0.307 N 
BRANCH   9  10
ATOM     10  C   UNL     1      45.687 132.445  22.465  1.00  0.00     0.047 A 
ATOM     11  C   UNL     1      45.580 132.742  23.849  1.00  0.00     0.029 A 
ATOM     12  C   UNL     1      46.763 132.978  21.718  1.00  0.00     0.037 A 
ATOM     13  C   UNL     1      46.525 133.568  24.483  1.00  0.00     0.029 A 
ATOM     14  C   UNL     1      47.680 133.792  22.378  1.00  0.00     0.001 A 
ATOM     15  C   UNL     1      47.566 134.078  23.711  1.00  0.00     0.045 A 
ATOM     16  C   UNL     1      48.806 134.434  21.913  1.00  0.00     0.028 A 
ATOM     17  N   UNL     1      48.568 134.874  24.116  1.00  0.00    -0.361 N 
ATOM     18  C   UNL     1      49.330 135.095  23.020  1.00  0.00     0.083 A 
ATOM     19  H   UNL     1      48.732 135.246  25.078  1.00  0.00     0.166 HD
ENDBRANCH   9  10
BRANCH   9  20
ATOM     20  C   UNL     1      43.827 130.799  22.648  1.00  0.00     0.050 A 
ATOM     21  C   UNL     1      42.708 131.407  23.250  1.00  0.00     0.027 A 
ATOM     22  C   UNL     1      44.032 129.424  22.864  1.00  0.00    -0.021 A 
ATOM     23  C   UNL     1      41.828 130.653  24.044  1.00  0.00     0.002 A 
ATOM     24  C   UNL     1      43.162 128.691  23.633  1.00  0.00    -0.043 A 
ATOM     25  C   UNL     1      45.119 128.576  22.312  1.00  0.00     0.038 C 
ATOM     26  C   UNL     1      42.053 129.284  24.239  1.00  0.00     0.004 A 
ATOM     27  C   UNL     1      43.545 127.263  23.709  1.00  0.00     0.036 C 
ATOM     28  C   UNL     1      44.744 127.149  22.751  1.00  0.00     0.010 C 
ENDBRANCH   9  20
ENDBRANCH   3   9
TORSDOF 5
ENDMDL
MODEL 6
REMARK VINA RESULT:      -3.1      1.419      5.380
REMARK SMILES C=CCn1cc(N(c2ccc3[nH]ccc3c2)c2cccc3c2CCC3)cn1
REMARK SMILES IDX 4 1 5 2 6 3 26 4 27 5 3 6 2 7 1 8 7 9 8 10 9 11 16 12 10 13
REMARK SMILES IDX 15 14 11 15 14 16 12 17 13 18 17 20 18 21 22 22 19 23 21 24
REMARK SMILES IDX 23 25 20 26 25 27 24 28
REMARK H PARENT 12 19
ROOT
ATOM      1  N   UNL     1      46.476 133.537  23.455  1.00  0.00    -0.267 N 
ATOM      2  C   UNL     1      46.223 132.723  22.412  1.00  0.00     0.135 A 
ATOM      3  C   UNL     1      45.151 131.928  22.758  1.00  0.00     0.084 A 
ATOM      4  C   UNL     1      44.802 132.306  24.043  1.00  0.00     0.161 A 
ATOM      5  N   UNL     1      45.632 133.289  24.447  1.00  0.00    -0.179 NA
ENDROOT
BRANCH   1   6
ATOM      6  C   UNL     1      47.565 134.505  23.537  1.00  0.00     0.171 C 
BRANCH   6   7
ATOM      7  C   UNL     1      48.378 134.487  22.274  1.00  0.00    -0.011 C 
ATOM      8  C   UNL     1      49.099 135.545  21.891  1.00  0.00     0.006 C 
ENDBRANCH   6   7
ENDBRANCH   1   6
BRANCH   3   9
ATOM      9  N   UNL     1      44.541 130.891  21.964  1.00  0.00    -0.307 N 
BRANCH   9  10
ATOM     10  C   UNL     1      44.159 131.145  20.597  1.00  0.00     0.047 A 
ATOM     11  C   UNL     1      42.850 131.603  20.294  1.00  0.00     0.029 A 
ATOM     12  C   UNL     1      45.099 130.978  19.553  1.00  0.00     0.037 A 
ATOM     13  C   UNL     1      42.473 131.883  18.969  1.00  0.00     0.029 A 
ATOM     14  C   UNL     1      44.691 131.264  18.252  1.00  0.00     0.001 A 
ATOM     15  C   UNL     1      43.426 131.700  17.969  1.00  0.00     0.045 A 
ATOM     16  C   UNL     1      45.381 131.197  17.062  1.00  0.00     0.028 A 
ATOM     17  N   UNL     1      43.277 131.912  16.652  1.00  0.00    -0.361 N 
ATOM     18  C   UNL     1      44.471 131.606  16.092  1.00  0.00     0.083 A 
ATOM     19  H   UNL     1      42.421 132.247  16.157  1.00  0.00     0.166 HD
ENDBRANCH   9  10
BRANCH   9  20
ATOM     20  C   UNL     1      44.351 129.579  22.525  1.00  0.00     0.050 A 
ATOM     21  C   UNL     1      45.310 128.569  22.317  1.00  0.00     0.027 A 
ATOM     22  C   UNL     1      43.213 129.268  23.291  1.00  0.00    -0.021 A 
ATOM     23  C   UNL     1      45.126 127.288  22.864  1.00  0.00     0.002 A 
ATOM     24  C   UNL     1      43.044 128.017  23.831  1.00  0.00    -0.043 A 
ATOM     25  C   UNL     1      42.096 130.175  23.658  1.00  0.00     0.038 C 
ATOM     26  C   UNL     1      43.985 127.006  23.627  1.00  0.00     0.004 A 
ATOM     27  C   UNL     1      41.797 127.910  24.623  1.00  0.00     0.036 C 
ATOM     28  C   UNL     1      41.235 129.342  24.625  1.00  0.00     0.010 C 
ENDBRANCH   9  20
ENDBRANCH   3   9
TORSDOF 5
ENDMDL
MODEL 7
REMARK VINA RESULT:      -2.5      1.236      2.350
REMARK SMILES C=CCn1cc(N(c2ccc3[nH]ccc3c2)c2cccc3c2CCC3)cn1
REMARK SMILES IDX 4 1 5 2 6 3 26 4 27 5 3 6 2 7 1 8 7 9 8 10 9 11 16 12 10 13
REMARK SMILES IDX 15 14 11 15 14 16 12 17 13 18 17 20 18 21 22 22 19 23 21 24
REMARK SMILES IDX 23 25 20 26 25 27 24 28
REMARK H PARENT 12 19
ROOT
ATOM      1  N   UNL     1      47.537 134.184  21.650  1.00  0.00    -0.267 N 
ATOM      2  C   UNL     1      46.350 133.634  21.327  1.00  0.00     0.135 A 
ATOM      3  C   UNL     1      46.559 132.286  21.127  1.00  0.00     0.084 A 
ATOM      4  C   UNL     1      47.911 132.081  21.335  1.00  0.00     0.161 A 
ATOM      5  N   UNL     1      48.486 133.258  21.649  1.00  0.00    -0.179 NA
ENDROOT
BRANCH   1   6
ATOM      6  C   UNL     1      47.783 135.602  21.891  1.00  0.00     0.171 C 
BRANCH   6   7
ATOM      7  C   UNL     1      48.884 136.101  20.999  1.00  0.00    -0.011 C 
ATOM      8  C   UNL     1      48.781 137.262  20.346  1.00  0.00     0.006 C 
ENDBRANCH   6   7
ENDBRANCH   1   6
BRANCH   3   9
ATOM      9  N   UNL     1      45.580 131.299  20.744  1.00  0.00    -0.307 N 
BRANCH   9  10
ATOM     10  C   UNL     1      45.088 130.344  21.705  1.00  0.00     0.047 A 
ATOM     11  C   UNL     1      44.242 130.767  22.764  1.00  0.00     0.029 A 
ATOM     12  C   UNL     1      45.412 128.973  21.576  1.00  0.00     0.037 A 
ATOM     13  C   UNL     1      43.732 129.842  23.691  1.00  0.00     0.029 A 
ATOM     14  C   UNL     1      44.889 128.085  22.512  1.00  0.00     0.001 A 
ATOM     15  C   UNL     1      44.079 128.502  23.533  1.00  0.00     0.045 A 
ATOM     16  C   UNL     1      45.031 126.720  22.629  1.00  0.00     0.028 A 
ATOM     17  N   UNL     1      43.700 127.465  24.296  1.00  0.00    -0.361 N 
ATOM     18  C   UNL     1      44.279 126.372  23.747  1.00  0.00     0.083 A 
ATOM     19  H   UNL     1      43.083 127.491  25.138  1.00  0.00     0.166 HD
ENDBRANCH   9  10
BRANCH   9  20
ATOM     20  C   UNL     1      45.056 131.295  19.403  1.00  0.00     0.050 A 
ATOM     21  C   UNL     1      45.823 130.784  18.338  1.00  0.00     0.027 A 
ATOM     22  C   UNL     1      43.773 131.797  19.117  1.00  0.00    -0.021 A 
ATOM     23  C   UNL     1      45.313 130.781  17.030  1.00  0.00     0.002 A 
ATOM     24  C   UNL     1      43.276 131.781  17.837  1.00  0.00    -0.043 A 
ATOM     25  C   UNL     1      42.787 132.355  20.077  1.00  0.00     0.038 C 
ATOM     26  C   UNL     1      44.030 131.282  16.773  1.00  0.00     0.004 A 
ATOM     27  C   UNL     1      41.903 132.328  17.760  1.00  0.00     0.036 C 
ATOM     28  C   UNL     1      41.523 132.586  19.229  1.00  0.00     0.010 C 
ENDBRANCH   9  20
ENDBRANCH   3   9
TORSDOF 5
ENDMDL
MODEL 8
REMARK VINA RESULT:      -2.4      1.597      5.117
REMARK SMILES C=CCn1cc(N(c2ccc3[nH]ccc3c2)c2cccc3c2CCC3)cn1
REMARK SMILES IDX 4 1 5 2 6 3 26 4 27 5 3 6 2 7 1 8 7 9 8 10 9 11 16 12 10 13
REMARK SMILES IDX 15 14 11 15 14 16 12 17 13 18 17 20 18 21 22 22 19 23 21 24
REMARK SMILES IDX 23 25 20 26 25 27 24 28
REMARK H PARENT 12 19
ROOT
ATOM      1  N   UNL     1      47.783 133.805  21.975  1.00  0.00    -0.267 N 
ATOM      2  C   UNL     1      46.454 133.591  21.922  1.00  0.00     0.135 A 
ATOM      3  C   UNL     1      46.253 132.386  21.283  1.00  0.00     0.084 A 
ATOM      4  C   UNL     1      47.514 131.919  20.959  1.00  0.00     0.161 A 
ATOM      5  N   UNL     1      48.431 132.808  21.389  1.00  0.00    -0.179 NA
ENDROOT
BRANCH   1   6
ATOM      6  C   UNL     1      48.435 134.991  22.519  1.00  0.00     0.171 C 
BRANCH   6   7
ATOM      7  C   UNL     1      49.095 134.670  23.831  1.00  0.00    -0.011 C 
ATOM      8  C   UNL     1      49.490 133.429  24.128  1.00  0.00     0.006 C 
ENDBRANCH   6   7
ENDBRANCH   1   6
BRANCH   3   9
ATOM      9  N   UNL     1      44.991 131.759  20.980  1.00  0.00    -0.307 N 
BRANCH   9  10
ATOM     10  C   UNL     1      44.511 131.696  19.622  1.00  0.00     0.047 A 
ATOM     11  C   UNL     1      43.124 131.836  19.348  1.00  0.00     0.029 A 
ATOM     12  C   UNL     1      45.421 131.536  18.552  1.00  0.00     0.037 A 
ATOM     13  C   UNL     1      42.646 131.806  18.027  1.00  0.00     0.029 A 
ATOM     14  C   UNL     1      44.912 131.512  17.256  1.00  0.00     0.001 A 
ATOM     15  C   UNL     1      43.574 131.640  17.001  1.00  0.00     0.045 A 
ATOM     16  C   UNL     1      45.552 131.375  16.044  1.00  0.00     0.028 A 
ATOM     17  N   UNL     1      43.332 131.591  15.681  1.00  0.00    -0.361 N 
ATOM     18  C   UNL     1      44.540 131.429  15.091  1.00  0.00     0.083 A 
ATOM     19  H   UNL     1      42.406 131.665  15.204  1.00  0.00     0.166 HD
ENDBRANCH   9  10
BRANCH   9  20
ATOM     20  C   UNL     1      44.224 131.150  22.036  1.00  0.00     0.050 A 
ATOM     21  C   UNL     1      43.262 131.898  22.742  1.00  0.00     0.027 A 
ATOM     22  C   UNL     1      44.411 129.802  22.392  1.00  0.00    -0.021 A 
ATOM     23  C   UNL     1      42.514 131.305  23.772  1.00  0.00     0.002 A 
ATOM     24  C   UNL     1      43.669 129.226  23.393  1.00  0.00    -0.043 A 
ATOM     25  C   UNL     1      45.342 128.825  21.772  1.00  0.00     0.038 C 
ATOM     26  C   UNL     1      42.716 129.959  24.103  1.00  0.00     0.004 A 
ATOM     27  C   UNL     1      44.001 127.796  23.588  1.00  0.00     0.036 C 
ATOM     28  C   UNL     1      44.996 127.489  22.455  1.00  0.00     0.010 C 
ENDBRANCH   9  20
ENDBRANCH   3   9
TORSDOF 5
ENDMDL
MODEL 9
REMARK VINA RESULT:      -2.2      0.975      2.091
REMARK SMILES C=CCn1cc(N(c2ccc3[nH]ccc3c2)c2cccc3c2CCC3)cn1
REMARK SMILES IDX 4 1 5 2 6 3 26 4 27 5 3 6 2 7 1 8 7 9 8 10 9 11 16 12 10 13
REMARK SMILES IDX 15 14 11 15 14 16 12 17 13 18 17 20 18 21 22 22 19 23 21 24
REMARK SMILES IDX 23 25 20 26 25 27 24 28
REMARK H PARENT 12 19
ROOT
ATOM      1  N   UNL     1      46.437 133.785  23.659  1.00  0.00    -0.267 N 
ATOM      2  C   UNL     1      46.299 132.902  22.651  1.00  0.00     0.135 A 
ATOM      3  C   UNL     1      45.227 132.090  22.956  1.00  0.00     0.084 A 
ATOM      4  C   UNL     1      44.759 132.530  24.182  1.00  0.00     0.161 A 
ATOM      5  N   UNL     1      45.520 133.565  24.591  1.00  0.00    -0.179 NA
ENDROOT
BRANCH   1   6
ATOM      6  C   UNL     1      47.484 134.796  23.770  1.00  0.00     0.171 C 
BRANCH   6   7
ATOM      7  C   UNL     1      48.776 134.276  23.207  1.00  0.00    -0.011 C 
ATOM      8  C   UNL     1      49.669 133.646  23.975  1.00  0.00     0.006 C 
ENDBRANCH   6   7
ENDBRANCH   1   6
BRANCH   3   9
ATOM      9  N   UNL     1      44.720 130.986  22.180  1.00  0.00    -0.307 N 
BRANCH   9  10
ATOM     10  C   UNL     1      44.172 129.822  22.831  1.00  0.00     0.047 A 
ATOM     11  C   UNL     1      43.058 129.950  23.702  1.00  0.00     0.029 A 
ATOM     12  C   UNL     1      44.714 128.542  22.575  1.00  0.00     0.037 A 
ATOM     13  C   UNL     1      42.494 128.821  24.321  1.00  0.00     0.029 A 
ATOM     14  C   UNL     1      44.131 127.445  23.206  1.00  0.00     0.001 A 
ATOM     15  C   UNL     1      43.061 127.578  24.048  1.00  0.00     0.045 A 
ATOM     16  C   UNL     1      44.442 126.105  23.142  1.00  0.00     0.028 A 
ATOM     17  N   UNL     1      42.677 126.384  24.525  1.00  0.00    -0.361 N 
ATOM     18  C   UNL     1      43.519 125.478  23.973  1.00  0.00     0.083 A 
ATOM     19  H   UNL     1      41.891 126.188  25.184  1.00  0.00     0.166 HD
ENDBRANCH   9  10
BRANCH   9  20
ATOM     20  C   UNL     1      44.719 131.064  20.743  1.00  0.00     0.050 A 
ATOM     21  C   UNL     1      45.797 130.545  19.999  1.00  0.00     0.027 A 
ATOM     22  C   UNL     1      43.652 131.656  20.042  1.00  0.00    -0.021 A 
ATOM     23  C   UNL     1      45.797 130.622  18.596  1.00  0.00     0.002 A 
ATOM     24  C   UNL     1      43.654 131.718  18.670  1.00  0.00    -0.043 A 
ATOM     25  C   UNL     1      42.411 132.238  20.612  1.00  0.00     0.038 C 
ATOM     26  C   UNL     1      44.719 131.212  17.923  1.00  0.00     0.004 A 
ATOM     27  C   UNL     1      42.428 132.352  18.134  1.00  0.00     0.036 C 
ATOM     28  C   UNL     1      41.554 132.580  19.380  1.00  0.00     0.010 C 
ENDBRANCH   9  20
ENDBRANCH   3   9
TORSDOF 5
ENDMDL


