MODEL 1
REMARK VINA RESULT:      -6.1      0.000      0.000
REMARK SMILES C[C@H]1NN(C(=O)C(C)(C)[NH2+]C2CC2)[C@@H](c2cc3ccc(F)cc3[nH]2)O1
REMARK SMILES IDX 5 1 6 2 4 3 2 4 3 5 25 6 14 7 1 8 15 10 16 11 24 12 17 13
REMARK SMILES IDX 23 14 18 15 22 16 19 17 20 18 21 20 7 21 8 22 9 23 10 24
REMARK SMILES IDX 11 27 12 28 13 29
REMARK H PARENT 3 9 24 19 10 25 10 26
ROOT
ATOM      1  C   UNL     1      44.968 128.381  22.302  1.00  0.00     0.300 C 
ATOM      2  O   UNL     1      45.645 128.211  21.252  1.00  0.00    -0.266 OA
ENDROOT
BRANCH   1   3
ATOM      3  N   UNL     1      44.543 129.714  22.638  1.00  0.00    -0.236 N 
ATOM      4  C   UNL     1      43.612 131.467  23.669  1.00  0.00     0.204 C 
ATOM      5  N   UNL     1      43.619 130.001  23.633  1.00  0.00    -0.201 NA
ATOM      6  O   UNL     1      44.442 131.992  22.645  1.00  0.00    -0.332 OA
ATOM      7  C   UNL     1      45.120 130.905  22.073  1.00  0.00     0.283 C 
ATOM      8  C   UNL     1      42.188 131.974  23.480  1.00  0.00     0.058 C 
ATOM      9  H   UNL     1      44.014 129.646  24.534  1.00  0.00     0.151 HD
BRANCH   7  10
ATOM     10  C   UNL     1      44.940 130.918  20.584  1.00  0.00     0.068 A 
ATOM     11  C   UNL     1      43.858 131.485  19.915  1.00  0.00     0.036 A 
ATOM     12  N   UNL     1      45.857 130.439  19.710  1.00  0.00    -0.355 N 
ATOM     13  C   UNL     1      44.152 131.335  18.577  1.00  0.00     0.000 A 
ATOM     14  C   UNL     1      45.366 130.704  18.490  1.00  0.00     0.049 A 
ATOM     15  C   UNL     1      43.452 131.743  17.444  1.00  0.00     0.013 A 
ATOM     16  C   UNL     1      45.966 130.437  17.260  1.00  0.00     0.065 A 
ATOM     17  C   UNL     1      44.029 131.482  16.188  1.00  0.00     0.040 A 
ATOM     18  C   UNL     1      45.281 130.833  16.095  1.00  0.00     0.125 A 
ATOM     19  H   UNL     1      46.769 129.984  19.937  1.00  0.00     0.166 HD
ATOM     20  F   UNL     1      45.828 130.593  14.879  1.00  0.00    -0.207 F 
ENDBRANCH   7  10
ENDBRANCH   1   3
BRANCH   1  21
ATOM     21  C   UNL     1      44.649 127.170  23.181  1.00  0.00     0.171 C 
ATOM     22  C   UNL     1      45.201 127.331  24.625  1.00  0.00     0.090 C 
ATOM     23  C   UNL     1      45.331 125.940  22.544  1.00  0.00     0.090 C 
BRANCH  21  24
ATOM     24  N   UNL     1      43.179 126.932  23.223  1.00  0.00    -0.332 N 
ATOM     25  H   UNL     1      42.744 127.313  22.350  1.00  0.00     0.347 HD
ATOM     26  H   UNL     1      42.761 127.468  24.021  1.00  0.00     0.347 HD
BRANCH  24  27
ATOM     27  C   UNL     1      42.825 125.497  23.308  1.00  0.00     0.183 C 
ATOM     28  C   UNL     1      41.320 125.264  23.383  1.00  0.00     0.071 C 
ATOM     29  C   UNL     1      42.182 125.039  24.612  1.00  0.00     0.071 C 
ENDBRANCH  24  27
ENDBRANCH  21  24
ENDBRANCH   1  21
TORSDOF 5
ENDMDL
MODEL 2
REMARK VINA RESULT:      -5.8      0.858      1.196
REMARK SMILES C[C@H]1NN(C(=O)C(C)(C)[NH2+]C2CC2)[C@@H](c2cc3ccc(F)cc3[nH]2)O1
REMARK SMILES IDX 5 1 6 2 4 3 2 4 3 5 25 6 14 7 1 8 15 10 16 11 24 12 17 13
REMARK SMILES IDX 23 14 18 15 22 16 19 17 20 18 21 20 7 21 8 22 9 23 10 24
REMARK SMILES IDX 11 27 12 28 13 29
REMARK H PARENT 3 9 24 19 10 25 10 26
ROOT
ATOM      1  C   UNL     1      44.840 128.425  22.418  1.00  0.00     0.300 C 
ATOM      2  O   UNL     1      45.601 128.247  21.428  1.00  0.00    -0.266 OA
ENDROOT
BRANCH   1   3
ATOM      3  N   UNL     1      44.458 129.769  22.759  1.00  0.00    -0.236 N 
ATOM      4  C   UNL     1      43.582 131.546  23.797  1.00  0.00     0.204 C 
ATOM      5  N   UNL     1      43.540 130.082  23.753  1.00  0.00    -0.201 NA
ATOM      6  O   UNL     1      44.433 132.050  22.779  1.00  0.00    -0.332 OA
ATOM      7  C   UNL     1      45.077 130.944  22.203  1.00  0.00     0.283 C 
ATOM      8  C   UNL     1      42.176 132.101  23.606  1.00  0.00     0.058 C 
ATOM      9  H   UNL     1      43.920 129.708  24.654  1.00  0.00     0.151 HD
BRANCH   7  10
ATOM     10  C   UNL     1      44.902 130.971  20.713  1.00  0.00     0.068 A 
ATOM     11  C   UNL     1      43.802 131.505  20.048  1.00  0.00     0.036 A 
ATOM     12  N   UNL     1      45.841 130.539  19.838  1.00  0.00    -0.355 N 
ATOM     13  C   UNL     1      44.107 131.385  18.709  1.00  0.00     0.000 A 
ATOM     14  C   UNL     1      45.344 130.802  18.619  1.00  0.00     0.049 A 
ATOM     15  C   UNL     1      43.396 131.782  17.579  1.00  0.00     0.013 A 
ATOM     16  C   UNL     1      45.959 130.576  17.388  1.00  0.00     0.065 A 
ATOM     17  C   UNL     1      43.989 131.561  16.322  1.00  0.00     0.040 A 
ATOM     18  C   UNL     1      45.265 130.962  16.226  1.00  0.00     0.125 A 
ATOM     19  H   UNL     1      46.768 130.117  20.062  1.00  0.00     0.166 HD
ATOM     20  F   UNL     1      45.825 130.760  15.009  1.00  0.00    -0.207 F 
ENDBRANCH   7  10
ENDBRANCH   1   3
BRANCH   1  21
ATOM     21  C   UNL     1      44.376 127.208  23.222  1.00  0.00     0.171 C 
ATOM     22  C   UNL     1      42.939 127.390  23.784  1.00  0.00     0.090 C 
ATOM     23  C   UNL     1      45.339 127.045  24.417  1.00  0.00     0.090 C 
BRANCH  21  24
ATOM     24  N   UNL     1      44.442 125.977  22.385  1.00  0.00    -0.332 N 
ATOM     25  H   UNL     1      45.361 125.501  22.547  1.00  0.00     0.347 HD
ATOM     26  H   UNL     1      44.420 126.242  21.371  1.00  0.00     0.347 HD
BRANCH  24  27
ATOM     27  C   UNL     1      43.374 125.003  22.700  1.00  0.00     0.183 C 
ATOM     28  C   UNL     1      43.789 123.562  22.422  1.00  0.00     0.071 C 
ATOM     29  C   UNL     1      42.782 124.247  21.515  1.00  0.00     0.071 C 
ENDBRANCH  24  27
ENDBRANCH  21  24
ENDBRANCH   1  21
TORSDOF 5
ENDMDL
MODEL 3
REMARK VINA RESULT:      -4.9      1.345      2.440
REMARK SMILES C[C@H]1NN(C(=O)C(C)(C)[NH2+]C2CC2)[C@@H](c2cc3ccc(F)cc3[nH]2)O1
REMARK SMILES IDX 5 1 6 2 4 3 2 4 3 5 25 6 14 7 1 8 15 10 16 11 24 12 17 13
REMARK SMILES IDX 23 14 18 15 22 16 19 17 20 18 21 20 7 21 8 22 9 23 10 24
REMARK SMILES IDX 11 27 12 28 13 29
REMARK H PARENT 3 9 24 19 10 25 10 26
ROOT
ATOM      1  C   UNL     1      44.841 128.385  22.431  1.00  0.00     0.300 C 
ATOM      2  O   UNL     1      45.475 128.359  21.341  1.00  0.00    -0.266 OA
ENDROOT
BRANCH   1   3
ATOM      3  N   UNL     1      44.284 129.635  22.873  1.00  0.00    -0.236 N 
ATOM      4  C   UNL     1      43.123 131.182  23.995  1.00  0.00     0.204 C 
ATOM      5  N   UNL     1      43.243 129.736  23.786  1.00  0.00    -0.201 NA
ATOM      6  O   UNL     1      44.011 131.884  23.140  1.00  0.00    -0.332 OA
ATOM      7  C   UNL     1      44.825 130.922  22.521  1.00  0.00     0.283 C 
ATOM      8  C   UNL     1      41.691 131.619  23.711  1.00  0.00     0.058 C 
ATOM      9  H   UNL     1      43.570 129.295  24.677  1.00  0.00     0.151 HD
BRANCH   7  10
ATOM     10  C   UNL     1      44.798 131.111  21.033  1.00  0.00     0.068 A 
ATOM     11  C   UNL     1      45.862 130.847  20.175  1.00  0.00     0.036 A 
ATOM     12  N   UNL     1      43.697 131.495  20.343  1.00  0.00    -0.355 N 
ATOM     13  C   UNL     1      45.364 131.085  18.912  1.00  0.00     0.000 A 
ATOM     14  C   UNL     1      44.055 131.469  19.051  1.00  0.00     0.049 A 
ATOM     15  C   UNL     1      45.964 130.952  17.662  1.00  0.00     0.013 A 
ATOM     16  C   UNL     1      43.253 131.748  17.945  1.00  0.00     0.065 A 
ATOM     17  C   UNL     1      45.181 131.232  16.527  1.00  0.00     0.040 A 
ATOM     18  C   UNL     1      43.831 131.627  16.667  1.00  0.00     0.125 A 
ATOM     19  H   UNL     1      42.758 131.732  20.732  1.00  0.00     0.166 HD
ATOM     20  F   UNL     1      43.088 131.888  15.564  1.00  0.00    -0.207 F 
ENDBRANCH   7  10
ENDBRANCH   1   3
BRANCH   1  21
ATOM     21  C   UNL     1      44.713 127.094  23.242  1.00  0.00     0.171 C 
ATOM     22  C   UNL     1      43.230 126.686  23.465  1.00  0.00     0.090 C 
ATOM     23  C   UNL     1      45.351 127.347  24.625  1.00  0.00     0.090 C 
BRANCH  21  24
ATOM     24  N   UNL     1      45.449 125.985  22.574  1.00  0.00    -0.332 N 
ATOM     25  H   UNL     1      45.667 126.262  21.587  1.00  0.00     0.347 HD
ATOM     26  H   UNL     1      44.830 125.140  22.513  1.00  0.00     0.347 HD
BRANCH  24  27
ATOM     27  C   UNL     1      46.730 125.654  23.237  1.00  0.00     0.183 C 
ATOM     28  C   UNL     1      47.690 124.902  22.323  1.00  0.00     0.071 C 
ATOM     29  C   UNL     1      47.007 124.172  23.465  1.00  0.00     0.071 C 
ENDBRANCH  24  27
ENDBRANCH  21  24
ENDBRANCH   1  21
TORSDOF 5
ENDMDL
MODEL 4
REMARK VINA RESULT:      -4.7      1.732      2.420
REMARK SMILES C[C@H]1NN(C(=O)C(C)(C)[NH2+]C2CC2)[C@@H](c2cc3ccc(F)cc3[nH]2)O1
REMARK SMILES IDX 5 1 6 2 4 3 2 4 3 5 25 6 14 7 1 8 15 10 16 11 24 12 17 13
REMARK SMILES IDX 23 14 18 15 22 16 19 17 20 18 21 20 7 21 8 22 9 23 10 24
REMARK SMILES IDX 11 27 12 28 13 29
REMARK H PARENT 3 9 24 19 10 25 10 26
ROOT
ATOM      1  C   UNL     1      44.616 129.956  21.570  1.00  0.00     0.300 C 
ATOM      2  O   UNL     1      45.619 129.613  20.886  1.00  0.00    -0.266 OA
ENDROOT
BRANCH   1   3
ATOM      3  N   UNL     1      43.909 131.153  21.201  1.00  0.00    -0.236 N 
ATOM      4  C   UNL     1      42.459 132.855  21.162  1.00  0.00     0.204 C 
ATOM      5  N   UNL     1      42.705 131.545  21.770  1.00  0.00    -0.201 NA
ATOM      6  O   UNL     1      43.455 133.148  20.194  1.00  0.00    -0.332 OA
ATOM      7  C   UNL     1      44.430 132.145  20.297  1.00  0.00     0.283 C 
ATOM      8  C   UNL     1      41.088 132.859  20.498  1.00  0.00     0.058 C 
ATOM      9  H   UNL     1      42.876 131.678  22.794  1.00  0.00     0.151 HD
BRANCH   7  10
ATOM     10  C   UNL     1      44.684 131.540  18.947  1.00  0.00     0.068 A 
ATOM     11  C   UNL     1      43.854 131.684  17.838  1.00  0.00     0.036 A 
ATOM     12  N   UNL     1      45.800 130.839  18.635  1.00  0.00    -0.355 N 
ATOM     13  C   UNL     1      44.515 131.037  16.817  1.00  0.00     0.000 A 
ATOM     14  C   UNL     1      45.686 130.542  17.332  1.00  0.00     0.049 A 
ATOM     15  C   UNL     1      44.180 130.886  15.473  1.00  0.00     0.013 A 
ATOM     16  C   UNL     1      46.605 129.861  16.535  1.00  0.00     0.065 A 
ATOM     17  C   UNL     1      45.086 130.197  14.646  1.00  0.00     0.040 A 
ATOM     18  C   UNL     1      46.294 129.688  15.173  1.00  0.00     0.125 A 
ATOM     19  H   UNL     1      46.596 130.603  19.267  1.00  0.00     0.166 HD
ATOM     20  F   UNL     1      47.160 129.032  14.363  1.00  0.00    -0.207 F 
ENDBRANCH   7  10
ENDBRANCH   1   3
BRANCH   1  21
ATOM     21  C   UNL     1      44.211 129.098  22.771  1.00  0.00     0.171 C 
ATOM     22  C   UNL     1      42.671 128.914  22.867  1.00  0.00     0.090 C 
ATOM     23  C   UNL     1      44.686 129.828  24.046  1.00  0.00     0.090 C 
BRANCH  21  24
ATOM     24  N   UNL     1      44.878 127.768  22.707  1.00  0.00    -0.332 N 
ATOM     25  H   UNL     1      45.805 127.824  23.191  1.00  0.00     0.347 HD
ATOM     26  H   UNL     1      45.081 127.525  21.707  1.00  0.00     0.347 HD
BRANCH  24  27
ATOM     27  C   UNL     1      44.098 126.694  23.362  1.00  0.00     0.183 C 
ATOM     28  C   UNL     1      44.829 126.073  24.547  1.00  0.00     0.071 C 
ATOM     29  C   UNL     1      44.673 125.286  23.259  1.00  0.00     0.071 C 
ENDBRANCH  24  27
ENDBRANCH  21  24
ENDBRANCH   1  21
TORSDOF 5
ENDMDL
MODEL 5
REMARK VINA RESULT:      -4.2      1.931      2.608
REMARK SMILES C[C@H]1NN(C(=O)C(C)(C)[NH2+]C2CC2)[C@@H](c2cc3ccc(F)cc3[nH]2)O1
REMARK SMILES IDX 5 1 6 2 4 3 2 4 3 5 25 6 14 7 1 8 15 10 16 11 24 12 17 13
REMARK SMILES IDX 23 14 18 15 22 16 19 17 20 18 21 20 7 21 8 22 9 23 10 24
REMARK SMILES IDX 11 27 12 28 13 29
REMARK H PARENT 3 9 24 19 10 25 10 26
ROOT
ATOM      1  C   UNL     1      44.716 130.043  21.407  1.00  0.00     0.300 C 
ATOM      2  O   UNL     1      45.752 129.729  20.760  1.00  0.00    -0.266 OA
ENDROOT
BRANCH   1   3
ATOM      3  N   UNL     1      43.950 131.178  20.969  1.00  0.00    -0.236 N 
ATOM      4  C   UNL     1      42.352 132.730  20.762  1.00  0.00     0.204 C 
ATOM      5  N   UNL     1      42.643 131.426  21.366  1.00  0.00    -0.201 NA
ATOM      6  O   UNL     1      43.440 133.158  19.958  1.00  0.00    -0.332 OA
ATOM      7  C   UNL     1      44.489 132.252  20.177  1.00  0.00     0.283 C 
ATOM      8  C   UNL     1      41.096 132.624  19.905  1.00  0.00     0.058 C 
ATOM      9  H   UNL     1      42.651 131.534  22.407  1.00  0.00     0.151 HD
BRANCH   7  10
ATOM     10  C   UNL     1      44.994 131.730  18.864  1.00  0.00     0.068 A 
ATOM     11  C   UNL     1      45.531 130.461  18.663  1.00  0.00     0.036 A 
ATOM     12  N   UNL     1      44.915 132.418  17.700  1.00  0.00    -0.355 N 
ATOM     13  C   UNL     1      45.780 130.394  17.309  1.00  0.00     0.000 A 
ATOM     14  C   UNL     1      45.394 131.589  16.759  1.00  0.00     0.049 A 
ATOM     15  C   UNL     1      46.283 129.354  16.530  1.00  0.00     0.013 A 
ATOM     16  C   UNL     1      45.483 131.827  15.389  1.00  0.00     0.065 A 
ATOM     17  C   UNL     1      46.390 129.567  15.144  1.00  0.00     0.040 A 
ATOM     18  C   UNL     1      45.991 130.797  14.574  1.00  0.00     0.125 A 
ATOM     19  H   UNL     1      44.535 133.379  17.558  1.00  0.00     0.166 HD
ATOM     20  F   UNL     1      46.095 130.986  13.236  1.00  0.00    -0.207 F 
ENDBRANCH   7  10
ENDBRANCH   1   3
BRANCH   1  21
ATOM     21  C   UNL     1      44.335 129.217  22.638  1.00  0.00     0.171 C 
ATOM     22  C   UNL     1      44.647 129.964  23.964  1.00  0.00     0.090 C 
ATOM     23  C   UNL     1      45.177 127.923  22.610  1.00  0.00     0.090 C 
BRANCH  21  24
ATOM     24  N   UNL     1      42.893 128.849  22.589  1.00  0.00    -0.332 N 
ATOM     25  H   UNL     1      42.776 127.996  21.992  1.00  0.00     0.347 HD
ATOM     26  H   UNL     1      42.351 129.615  22.121  1.00  0.00     0.347 HD
BRANCH  24  27
ATOM     27  C   UNL     1      42.327 128.540  23.921  1.00  0.00     0.183 C 
ATOM     28  C   UNL     1      41.976 127.065  24.086  1.00  0.00     0.071 C 
ATOM     29  C   UNL     1      40.869 128.094  23.946  1.00  0.00     0.071 C 
ENDBRANCH  24  27
ENDBRANCH  21  24
ENDBRANCH   1  21
TORSDOF 5
ENDMDL
MODEL 6
REMARK VINA RESULT:      -4.0      3.458      4.950
REMARK SMILES C[C@H]1NN(C(=O)C(C)(C)[NH2+]C2CC2)[C@@H](c2cc3ccc(F)cc3[nH]2)O1
REMARK SMILES IDX 5 1 6 2 4 3 2 4 3 5 25 6 14 7 1 8 15 10 16 11 24 12 17 13
REMARK SMILES IDX 23 14 18 15 22 16 19 17 20 18 21 20 7 21 8 22 9 23 10 24
REMARK SMILES IDX 11 27 12 28 13 29
REMARK H PARENT 3 9 24 19 10 25 10 26
ROOT
ATOM      1  C   UNL     1      43.366 131.766  18.927  1.00  0.00     0.300 C 
ATOM      2  O   UNL     1      43.305 131.892  17.674  1.00  0.00    -0.266 OA
ENDROOT
BRANCH   1   3
ATOM      3  N   UNL     1      44.654 131.561  19.535  1.00  0.00    -0.236 N 
ATOM      4  C   UNL     1      46.404 131.661  20.924  1.00  0.00     0.204 C 
ATOM      5  N   UNL     1      45.136 132.318  20.594  1.00  0.00    -0.201 NA
ATOM      6  O   UNL     1      46.676 130.616  20.004  1.00  0.00    -0.332 OA
ATOM      7  C   UNL     1      45.531 130.469  19.205  1.00  0.00     0.283 C 
ATOM      8  C   UNL     1      47.533 132.683  20.882  1.00  0.00     0.058 C 
ATOM      9  H   UNL     1      44.474 132.190  21.394  1.00  0.00     0.151 HD
BRANCH   7  10
ATOM     10  C   UNL     1      45.910 130.524  17.755  1.00  0.00     0.068 A 
ATOM     11  C   UNL     1      45.681 131.607  16.910  1.00  0.00     0.036 A 
ATOM     12  N   UNL     1      46.592 129.542  17.118  1.00  0.00    -0.355 N 
ATOM     13  C   UNL     1      46.260 131.247  15.712  1.00  0.00     0.000 A 
ATOM     14  C   UNL     1      46.803 129.999  15.874  1.00  0.00     0.049 A 
ATOM     15  C   UNL     1      46.373 131.949  14.513  1.00  0.00     0.013 A 
ATOM     16  C   UNL     1      47.499 129.364  14.846  1.00  0.00     0.065 A 
ATOM     17  C   UNL     1      47.065 131.331  13.456  1.00  0.00     0.040 A 
ATOM     18  C   UNL     1      47.627 130.045  13.620  1.00  0.00     0.125 A 
ATOM     19  H   UNL     1      46.913 128.633  17.517  1.00  0.00     0.166 HD
ATOM     20  F   UNL     1      48.296 129.465  12.595  1.00  0.00    -0.207 F 
ENDBRANCH   7  10
ENDBRANCH   1   3
BRANCH   1  21
ATOM     21  C   UNL     1      42.070 131.816  19.739  1.00  0.00     0.171 C 
ATOM     22  C   UNL     1      40.866 131.220  18.958  1.00  0.00     0.090 C 
ATOM     23  C   UNL     1      41.761 133.300  20.033  1.00  0.00     0.090 C 
BRANCH  21  24
ATOM     24  N   UNL     1      42.241 131.099  21.034  1.00  0.00    -0.332 N 
ATOM     25  H   UNL     1      43.021 130.406  20.942  1.00  0.00     0.347 HD
ATOM     26  H   UNL     1      41.376 130.545  21.244  1.00  0.00     0.347 HD
BRANCH  24  27
ATOM     27  C   UNL     1      42.576 132.001  22.158  1.00  0.00     0.183 C 
ATOM     28  C   UNL     1      43.509 131.354  23.175  1.00  0.00     0.071 C 
ATOM     29  C   UNL     1      42.052 131.590  23.530  1.00  0.00     0.071 C 
ENDBRANCH  24  27
ENDBRANCH  21  24
ENDBRANCH   1  21
TORSDOF 5
ENDMDL
MODEL 7
REMARK VINA RESULT:      -3.8      3.642      6.508
REMARK SMILES C[C@H]1NN(C(=O)C(C)(C)[NH2+]C2CC2)[C@@H](c2cc3ccc(F)cc3[nH]2)O1
REMARK SMILES IDX 5 1 6 2 4 3 2 4 3 5 25 6 14 7 1 8 15 10 16 11 24 12 17 13
REMARK SMILES IDX 23 14 18 15 22 16 19 17 20 18 21 20 7 21 8 22 9 23 10 24
REMARK SMILES IDX 11 27 12 28 13 29
REMARK H PARENT 3 9 24 19 10 25 10 26
ROOT
ATOM      1  C   UNL     1      46.795 125.139  22.358  1.00  0.00     0.300 C 
ATOM      2  O   UNL     1      46.963 126.331  21.981  1.00  0.00    -0.266 OA
ENDROOT
BRANCH   1   3
ATOM      3  N   UNL     1      45.454 124.679  22.604  1.00  0.00    -0.236 N 
ATOM      4  C   UNL     1      43.569 123.476  22.590  1.00  0.00     0.204 C 
ATOM      5  N   UNL     1      44.855 123.639  21.906  1.00  0.00    -0.201 NA
ATOM      6  O   UNL     1      43.407 124.471  23.588  1.00  0.00    -0.332 OA
ATOM      7  C   UNL     1      44.630 125.153  23.685  1.00  0.00     0.283 C 
ATOM      8  C   UNL     1      42.436 123.584  21.576  1.00  0.00     0.058 C 
ATOM      9  H   UNL     1      45.433 122.782  22.071  1.00  0.00     0.151 HD
BRANCH   7  10
ATOM     10  C   UNL     1      44.402 126.630  23.559  1.00  0.00     0.068 A 
ATOM     11  C   UNL     1      43.934 127.456  24.577  1.00  0.00     0.036 A 
ATOM     12  N   UNL     1      44.701 127.346  22.448  1.00  0.00    -0.355 N 
ATOM     13  C   UNL     1      43.959 128.726  24.042  1.00  0.00     0.000 A 
ATOM     14  C   UNL     1      44.430 128.622  22.759  1.00  0.00     0.049 A 
ATOM     15  C   UNL     1      43.635 129.955  24.611  1.00  0.00     0.013 A 
ATOM     16  C   UNL     1      44.611 129.746  21.953  1.00  0.00     0.065 A 
ATOM     17  C   UNL     1      43.802 131.107  23.819  1.00  0.00     0.040 A 
ATOM     18  C   UNL     1      44.289 131.004  22.497  1.00  0.00     0.125 A 
ATOM     19  H   UNL     1      45.088 126.985  21.549  1.00  0.00     0.166 HD
ATOM     20  F   UNL     1      44.450 132.122  21.749  1.00  0.00    -0.207 F 
ENDBRANCH   7  10
ENDBRANCH   1   3
BRANCH   1  21
ATOM     21  C   UNL     1      48.021 124.246  22.555  1.00  0.00     0.171 C 
ATOM     22  C   UNL     1      47.651 122.736  22.567  1.00  0.00     0.090 C 
ATOM     23  C   UNL     1      48.637 124.596  23.927  1.00  0.00     0.090 C 
BRANCH  21  24
ATOM     24  N   UNL     1      49.034 124.512  21.496  1.00  0.00    -0.332 N 
ATOM     25  H   UNL     1      49.768 125.155  21.876  1.00  0.00     0.347 HD
ATOM     26  H   UNL     1      48.581 125.020  20.698  1.00  0.00     0.347 HD
BRANCH  24  27
ATOM     27  C   UNL     1      49.716 123.287  21.023  1.00  0.00     0.183 C 
ATOM     28  C   UNL     1      50.960 123.587  20.194  1.00  0.00     0.071 C 
ATOM     29  C   UNL     1      49.711 123.054  19.515  1.00  0.00     0.071 C 
ENDBRANCH  24  27
ENDBRANCH  21  24
ENDBRANCH   1  21
TORSDOF 5
ENDMDL
MODEL 8
REMARK VINA RESULT:      -3.6      1.559      1.833
REMARK SMILES C[C@H]1NN(C(=O)C(C)(C)[NH2+]C2CC2)[C@@H](c2cc3ccc(F)cc3[nH]2)O1
REMARK SMILES IDX 5 1 6 2 4 3 2 4 3 5 25 6 14 7 1 8 15 10 16 11 24 12 17 13
REMARK SMILES IDX 23 14 18 15 22 16 19 17 20 18 21 20 7 21 8 22 9 23 10 24
REMARK SMILES IDX 11 27 12 28 13 29
REMARK H PARENT 3 9 24 19 10 25 10 26
ROOT
ATOM      1  C   UNL     1      44.321 129.679  22.005  1.00  0.00     0.300 C 
ATOM      2  O   UNL     1      45.026 129.106  21.130  1.00  0.00    -0.266 OA
ENDROOT
BRANCH   1   3
ATOM      3  N   UNL     1      43.683 130.923  21.667  1.00  0.00    -0.236 N 
ATOM      4  C   UNL     1      42.309 132.688  21.652  1.00  0.00     0.204 C 
ATOM      5  N   UNL     1      42.471 131.339  22.202  1.00  0.00    -0.201 NA
ATOM      6  O   UNL     1      43.361 132.985  20.747  1.00  0.00    -0.332 OA
ATOM      7  C   UNL     1      44.287 131.935  20.841  1.00  0.00     0.283 C 
ATOM      8  C   UNL     1      40.972 132.785  20.928  1.00  0.00     0.058 C 
ATOM      9  H   UNL     1      42.598 131.412  23.238  1.00  0.00     0.151 HD
BRANCH   7  10
ATOM     10  C   UNL     1      44.579 131.388  19.475  1.00  0.00     0.068 A 
ATOM     11  C   UNL     1      43.770 131.562  18.355  1.00  0.00     0.036 A 
ATOM     12  N   UNL     1      45.714 130.719  19.159  1.00  0.00    -0.355 N 
ATOM     13  C   UNL     1      44.463 130.967  17.323  1.00  0.00     0.000 A 
ATOM     14  C   UNL     1      45.631 130.473  17.842  1.00  0.00     0.049 A 
ATOM     15  C   UNL     1      44.157 130.863  15.968  1.00  0.00     0.013 A 
ATOM     16  C   UNL     1      46.579 129.839  17.039  1.00  0.00     0.065 A 
ATOM     17  C   UNL     1      45.092 130.223  15.133  1.00  0.00     0.040 A 
ATOM     18  C   UNL     1      46.298 129.714  15.665  1.00  0.00     0.125 A 
ATOM     19  H   UNL     1      46.501 130.472  19.797  1.00  0.00     0.166 HD
ATOM     20  F   UNL     1      47.192 129.106  14.848  1.00  0.00    -0.207 F 
ENDBRANCH   7  10
ENDBRANCH   1   3
BRANCH   1  21
ATOM     21  C   UNL     1      44.193 129.037  23.388  1.00  0.00     0.171 C 
ATOM     22  C   UNL     1      44.683 129.982  24.520  1.00  0.00     0.090 C 
ATOM     23  C   UNL     1      45.084 127.776  23.401  1.00  0.00     0.090 C 
BRANCH  21  24
ATOM     24  N   UNL     1      42.784 128.628  23.643  1.00  0.00    -0.332 N 
ATOM     25  H   UNL     1      42.141 129.249  23.096  1.00  0.00     0.347 HD
ATOM     26  H   UNL     1      42.552 128.780  24.654  1.00  0.00     0.347 HD
BRANCH  24  27
ATOM     27  C   UNL     1      42.502 127.232  23.241  1.00  0.00     0.183 C 
ATOM     28  C   UNL     1      41.020 126.884  23.315  1.00  0.00     0.071 C 
ATOM     29  C   UNL     1      41.983 126.308  24.337  1.00  0.00     0.071 C 
ENDBRANCH  24  27
ENDBRANCH  21  24
ENDBRANCH   1  21
TORSDOF 5
ENDMDL
MODEL 9
REMARK VINA RESULT:      -3.5      3.023      5.492
REMARK SMILES C[C@H]1NN(C(=O)C(C)(C)[NH2+]C2CC2)[C@@H](c2cc3ccc(F)cc3[nH]2)O1
REMARK SMILES IDX 5 1 6 2 4 3 2 4 3 5 25 6 14 7 1 8 15 10 16 11 24 12 17 13
REMARK SMILES IDX 23 14 18 15 22 16 19 17 20 18 21 20 7 21 8 22 9 23 10 24
REMARK SMILES IDX 11 27 12 28 13 29
REMARK H PARENT 3 9 24 19 10 25 10 26
ROOT
ATOM      1  C   UNL     1      46.648 132.384  21.389  1.00  0.00     0.300 C 
ATOM      2  O   UNL     1      47.339 131.736  20.556  1.00  0.00    -0.266 OA
ENDROOT
BRANCH   1   3
ATOM      3  N   UNL     1      45.284 131.983  21.609  1.00  0.00    -0.236 N 
ATOM      4  C   UNL     1      43.396 131.251  22.559  1.00  0.00     0.204 C 
ATOM      5  N   UNL     1      44.846 131.334  22.756  1.00  0.00    -0.201 NA
ATOM      6  O   UNL     1      43.038 131.754  21.281  1.00  0.00    -0.332 OA
ATOM      7  C   UNL     1      44.196 132.322  20.729  1.00  0.00     0.283 C 
ATOM      8  C   UNL     1      42.949 129.799  22.678  1.00  0.00     0.058 C 
ATOM      9  H   UNL     1      45.038 131.970  23.564  1.00  0.00     0.151 HD
BRANCH   7  10
ATOM     10  C   UNL     1      44.438 131.760  19.359  1.00  0.00     0.068 A 
ATOM     11  C   UNL     1      43.719 132.103  18.217  1.00  0.00     0.036 A 
ATOM     12  N   UNL     1      45.443 130.901  19.065  1.00  0.00    -0.355 N 
ATOM     13  C   UNL     1      44.333 131.413  17.194  1.00  0.00     0.000 A 
ATOM     14  C   UNL     1      45.370 130.702  17.740  1.00  0.00     0.049 A 
ATOM     15  C   UNL     1      44.068 131.395  15.826  1.00  0.00     0.013 A 
ATOM     16  C   UNL     1      46.217 129.922  16.954  1.00  0.00     0.065 A 
ATOM     17  C   UNL     1      44.903 130.613  15.008  1.00  0.00     0.040 A 
ATOM     18  C   UNL     1      45.974 129.880  15.568  1.00  0.00     0.125 A 
ATOM     19  H   UNL     1      46.146 130.501  19.724  1.00  0.00     0.166 HD
ATOM     20  F   UNL     1      46.773 129.136  14.766  1.00  0.00    -0.207 F 
ENDBRANCH   7  10
ENDBRANCH   1   3
BRANCH   1  21
ATOM     21  C   UNL     1      47.281 133.577  22.108  1.00  0.00     0.171 C 
ATOM     22  C   UNL     1      46.578 133.889  23.458  1.00  0.00     0.090 C 
ATOM     23  C   UNL     1      47.125 134.810  21.192  1.00  0.00     0.090 C 
BRANCH  21  24
ATOM     24  N   UNL     1      48.733 133.333  22.336  1.00  0.00    -0.332 N 
ATOM     25  H   UNL     1      49.283 133.792  21.571  1.00  0.00     0.347 HD
ATOM     26  H   UNL     1      48.931 132.306  22.268  1.00  0.00     0.347 HD
BRANCH  24  27
ATOM     27  C   UNL     1      49.219 133.881  23.623  1.00  0.00     0.183 C 
ATOM     28  C   UNL     1      50.562 134.589  23.493  1.00  0.00     0.071 C 
ATOM     29  C   UNL     1      50.482 133.243  24.191  1.00  0.00     0.071 C 
ENDBRANCH  24  27
ENDBRANCH  21  24
ENDBRANCH   1  21
TORSDOF 5
ENDMDL


