REMARK SMILES C=Cc1cc([C@@H]2O[C@H]2c2ccccc2)c(N)c([O-])c1[NH2+]c1ccc(C)c(F)c1
REMARK SMILES IDX 3 1 4 2 5 3 15 4 17 5 18 6 19 7 2 8 1 9 20 10 21 13 22 14
REMARK SMILES IDX 28 15 23 16 26 17 24 18 27 19 25 20 6 21 7 22 8 23 9 24
REMARK SMILES IDX 10 25 14 26 11 27 13 28 12 29 16 30
REMARK H PARENT 20 11 20 12 16 31 16 32
ROOT
ATOM      1  C   UNL     1       1.184   0.042  -1.240  1.00  0.00     0.035 A 
ATOM      2  C   UNL     1       0.770  -1.274  -1.502  1.00  0.00     0.023 A 
ATOM      3  C   UNL     1      -0.224  -1.892  -0.734  1.00  0.00     0.007 A 
ATOM      4  C   UNL     1      -0.792  -1.200   0.355  1.00  0.00     0.035 A 
ATOM      5  C   UNL     1      -0.396   0.123   0.620  1.00  0.00    -0.020 A 
ATOM      6  O   UNL     1      -0.982   0.805   1.683  1.00  0.00    -0.867 OA
ATOM      7  C   UNL     1       0.587   0.762  -0.172  1.00  0.00     0.136 A 
ENDROOT
BRANCH   1   8
ATOM      8  C   UNL     1       2.206   0.664  -2.117  1.00  0.00     0.006 C 
ATOM      9  C   UNL     1       3.286   0.005  -2.537  1.00  0.00     0.009 C 
ENDBRANCH   1   8
BRANCH   7  10
ATOM     10  N   UNL     1       1.015   2.109   0.160  1.00  0.00    -0.281 N 
ATOM     11  H   UNL     1       1.083   2.689  -0.707  1.00  0.00     0.358 HD
ATOM     12  H   UNL     1       0.308   2.598   0.755  1.00  0.00     0.358 HD
BRANCH  10  13
ATOM     13  C   UNL     1       2.271   2.082   0.872  1.00  0.00     0.137 A 
ATOM     14  C   UNL     1       3.451   2.550   0.266  1.00  0.00     0.068 A 
ATOM     15  C   UNL     1       2.331   1.602   2.193  1.00  0.00     0.107 A 
ATOM     16  C   UNL     1       4.665   2.518   0.958  1.00  0.00     0.012 A 
ATOM     17  C   UNL     1       3.545   1.573   2.887  1.00  0.00     0.132 A 
ATOM     18  C   UNL     1       4.719   2.041   2.275  1.00  0.00    -0.015 A 
ATOM     19  F   UNL     1       3.575   1.086   4.154  1.00  0.00    -0.206 F 
ATOM     20  C   UNL     1       6.026   1.986   3.011  1.00  0.00     0.047 C 
ENDBRANCH  10  13
ENDBRANCH   7  10
BRANCH   3  21
ATOM     21  C   UNL     1      -0.631  -3.302  -1.078  1.00  0.00     0.185 C 
ATOM     22  O   UNL     1      -0.880  -3.437  -2.459  1.00  0.00    -0.359 OA
ATOM     23  C   UNL     1      -2.007  -3.475  -1.617  1.00  0.00     0.183 C 
BRANCH  23  24
ATOM     24  C   UNL     1      -2.587  -4.859  -1.579  1.00  0.00    -0.016 A 
ATOM     25  C   UNL     1      -3.098  -5.431  -2.754  1.00  0.00     0.006 A 
ATOM     26  C   UNL     1      -2.678  -5.569  -0.370  1.00  0.00     0.006 A 
ATOM     27  C   UNL     1      -3.672  -6.706  -2.725  1.00  0.00     0.000 A 
ATOM     28  C   UNL     1      -3.253  -6.844  -0.345  1.00  0.00     0.000 A 
ATOM     29  C   UNL     1      -3.748  -7.412  -1.522  1.00  0.00     0.000 A 
ENDBRANCH  23  24
ENDBRANCH   3  21
BRANCH   4  30
ATOM     30  N   UNL     1      -1.767  -1.830   1.202  1.00  0.00    -0.399 N 
ATOM     31  H   UNL     1      -2.025  -2.834   1.093  1.00  0.00     0.156 HD
ATOM     32  H   UNL     1      -2.224  -1.311   1.983  1.00  0.00     0.156 HD
ENDBRANCH   4  30
TORSDOF 6


