MODEL 1
REMARK VINA RESULT:      -8.2      0.000      0.000
REMARK SMILES C[C@@H]1NN(/C(O)=C/c2ccn[nH+]c2)[C@@H](c2cc3ccc(F)cc3[nH]2)O1
REMARK SMILES IDX 5 1 6 2 7 4 8 5 9 6 13 7 10 8 12 9 11 10 4 12 3 13 14 14
REMARK SMILES IDX 2 15 25 16 1 18 15 19 16 20 24 21 17 22 23 23 18 24 22 25
REMARK SMILES IDX 19 26 20 27 21 29
REMARK H PARENT 6 3 12 11 3 17 24 28
ROOT
ATOM      1  C   UNL     1      45.445 130.893  20.716  1.00  0.00     0.205 C 
ENDROOT
BRANCH   1   2
ATOM      2  O   UNL     1      46.507 131.736  21.048  1.00  0.00    -0.494 OA
ATOM      3  H   UNL     1      47.315 131.410  21.563  1.00  0.00     0.295 HD
ENDBRANCH   1   2
BRANCH   1   4
ATOM      4  C   UNL     1      45.498 129.595  21.069  1.00  0.00     0.082 C 
BRANCH   4   5
ATOM      5  C   UNL     1      44.934 129.056  22.327  1.00  0.00     0.048 A 
ATOM      6  C   UNL     1      44.317 129.876  23.284  1.00  0.00     0.041 A 
ATOM      7  C   UNL     1      44.942 127.673  22.545  1.00  0.00     0.343 A 
ATOM      8  C   UNL     1      43.775 129.299  24.429  1.00  0.00     0.185 A 
ATOM      9  N   UNL     1      44.399 127.163  23.682  1.00  0.00    -0.106 N 
ATOM     10  N   UNL     1      43.835 127.954  24.596  1.00  0.00    -0.011 NA
ATOM     11  H   UNL     1      44.420 126.131  23.843  1.00  0.00     0.490 HD
ENDBRANCH   4   5
ENDBRANCH   1   4
BRANCH   1  12
ATOM     12  N   UNL     1      44.325 131.424  19.972  1.00  0.00    -0.242 N 
ATOM     13  N   UNL     1      43.011 131.107  20.301  1.00  0.00    -0.201 NA
ATOM     14  C   UNL     1      44.389 132.381  18.891  1.00  0.00     0.283 C 
ATOM     15  C   UNL     1      42.220 131.979  19.430  1.00  0.00     0.204 C 
ATOM     16  O   UNL     1      43.066 132.714  18.562  1.00  0.00    -0.332 OA
ATOM     17  H   UNL     1      42.855 130.114  20.008  1.00  0.00     0.151 HD
ATOM     18  C   UNL     1      41.405 132.945  20.282  1.00  0.00     0.058 C 
BRANCH  14  19
ATOM     19  C   UNL     1      45.060 131.780  17.691  1.00  0.00     0.068 A 
ATOM     20  C   UNL     1      45.486 130.458  17.591  1.00  0.00     0.036 A 
ATOM     21  N   UNL     1      45.347 132.472  16.563  1.00  0.00    -0.355 N 
ATOM     22  C   UNL     1      46.045 130.361  16.336  1.00  0.00     0.000 A 
ATOM     23  C   UNL     1      45.945 131.592  15.742  1.00  0.00     0.049 A 
ATOM     24  C   UNL     1      46.629 129.276  15.684  1.00  0.00     0.013 A 
ATOM     25  C   UNL     1      46.422 131.826  14.454  1.00  0.00     0.065 A 
ATOM     26  C   UNL     1      47.121 129.481  14.382  1.00  0.00     0.040 A 
ATOM     27  C   UNL     1      47.019 130.751  13.769  1.00  0.00     0.125 A 
ATOM     28  H   UNL     1      45.145 133.479  16.370  1.00  0.00     0.166 HD
ATOM     29  F   UNL     1      47.497 130.933  12.514  1.00  0.00    -0.207 F 
ENDBRANCH  14  19
ENDBRANCH   1  12
TORSDOF 5
ENDMDL
MODEL 2
REMARK VINA RESULT:      -7.5      3.459      4.568
REMARK SMILES C[C@@H]1NN(/C(O)=C/c2ccn[nH+]c2)[C@@H](c2cc3ccc(F)cc3[nH]2)O1
REMARK SMILES IDX 5 1 6 2 7 4 8 5 9 6 13 7 10 8 12 9 11 10 4 12 3 13 14 14
REMARK SMILES IDX 2 15 25 16 1 18 15 19 16 20 24 21 17 22 23 23 18 24 22 25
REMARK SMILES IDX 19 26 20 27 21 29
REMARK H PARENT 6 3 12 11 3 17 24 28
ROOT
ATOM      1  C   UNL     1      46.805 132.599  21.174  1.00  0.00     0.205 C 
ENDROOT
BRANCH   1   2
ATOM      2  O   UNL     1      47.958 131.899  20.813  1.00  0.00    -0.494 OA
ATOM      3  H   UNL     1      47.953 131.182  20.099  1.00  0.00     0.295 HD
ENDBRANCH   1   2
BRANCH   1   4
ATOM      4  C   UNL     1      46.911 133.869  21.604  1.00  0.00     0.082 C 
BRANCH   4   5
ATOM      5  C   UNL     1      48.167 134.471  22.105  1.00  0.00     0.048 A 
ATOM      6  C   UNL     1      48.889 133.920  23.173  1.00  0.00     0.041 A 
ATOM      7  C   UNL     1      48.703 135.585  21.447  1.00  0.00     0.343 A 
ATOM      8  C   UNL     1      50.083 134.515  23.571  1.00  0.00     0.185 A 
ATOM      9  N   UNL     1      49.873 136.128  21.877  1.00  0.00    -0.106 N 
ATOM     10  N   UNL     1      50.540 135.609  22.909  1.00  0.00    -0.011 NA
ATOM     11  H   UNL     1      50.260 136.966  21.389  1.00  0.00     0.490 HD
ENDBRANCH   4   5
ENDBRANCH   1   4
BRANCH   1  12
ATOM     12  N   UNL     1      45.523 131.933  21.108  1.00  0.00    -0.242 N 
ATOM     13  N   UNL     1      45.109 131.042  22.091  1.00  0.00    -0.201 NA
ATOM     14  C   UNL     1      44.495 132.147  20.114  1.00  0.00     0.283 C 
ATOM     15  C   UNL     1      43.719 130.754  21.729  1.00  0.00     0.204 C 
ATOM     16  O   UNL     1      43.378 131.400  20.515  1.00  0.00    -0.332 OA
ATOM     17  H   UNL     1      45.673 130.168  21.968  1.00  0.00     0.151 HD
ATOM     18  C   UNL     1      42.793 131.236  22.839  1.00  0.00     0.058 C 
BRANCH  14  19
ATOM     19  C   UNL     1      44.953 131.667  18.767  1.00  0.00     0.068 A 
ATOM     20  C   UNL     1      45.677 130.499  18.538  1.00  0.00     0.036 A 
ATOM     21  N   UNL     1      44.728 132.336  17.612  1.00  0.00    -0.355 N 
ATOM     22  C   UNL     1      45.880 130.472  17.176  1.00  0.00     0.000 A 
ATOM     23  C   UNL     1      45.296 131.593  16.648  1.00  0.00     0.049 A 
ATOM     24  C   UNL     1      46.536 129.538  16.376  1.00  0.00     0.013 A 
ATOM     25  C   UNL     1      45.326 131.861  15.280  1.00  0.00     0.065 A 
ATOM     26  C   UNL     1      46.584 129.780  14.991  1.00  0.00     0.040 A 
ATOM     27  C   UNL     1      45.982 130.937  14.444  1.00  0.00     0.125 A 
ATOM     28  H   UNL     1      44.217 133.240  17.494  1.00  0.00     0.166 HD
ATOM     29  F   UNL     1      46.036 131.158  13.108  1.00  0.00    -0.207 F 
ENDBRANCH  14  19
ENDBRANCH   1  12
TORSDOF 5
ENDMDL
MODEL 3
REMARK VINA RESULT:      -7.4      3.423      4.671
REMARK SMILES C[C@@H]1NN(/C(O)=C/c2ccn[nH+]c2)[C@@H](c2cc3ccc(F)cc3[nH]2)O1
REMARK SMILES IDX 5 1 6 2 7 4 8 5 9 6 13 7 10 8 12 9 11 10 4 12 3 13 14 14
REMARK SMILES IDX 2 15 25 16 1 18 15 19 16 20 24 21 17 22 23 23 18 24 22 25
REMARK SMILES IDX 19 26 20 27 21 29
REMARK H PARENT 6 3 12 11 3 17 24 28
ROOT
ATOM      1  C   UNL     1      46.667 132.441  21.161  1.00  0.00     0.205 C 
ENDROOT
BRANCH   1   2
ATOM      2  O   UNL     1      47.814 131.774  20.727  1.00  0.00    -0.494 OA
ATOM      3  H   UNL     1      47.854 130.766  20.644  1.00  0.00     0.295 HD
ENDBRANCH   1   2
BRANCH   1   4
ATOM      4  C   UNL     1      46.762 133.717  21.579  1.00  0.00     0.082 C 
BRANCH   4   5
ATOM      5  C   UNL     1      48.011 134.331  22.081  1.00  0.00     0.048 A 
ATOM      6  C   UNL     1      48.742 133.782  23.144  1.00  0.00     0.041 A 
ATOM      7  C   UNL     1      48.532 135.456  21.430  1.00  0.00     0.343 A 
ATOM      8  C   UNL     1      49.929 134.390  23.544  1.00  0.00     0.185 A 
ATOM      9  N   UNL     1      49.695 136.012  21.862  1.00  0.00    -0.106 N 
ATOM     10  N   UNL     1      50.371 135.494  22.889  1.00  0.00    -0.011 NA
ATOM     11  H   UNL     1      50.070 136.858  21.379  1.00  0.00     0.490 HD
ENDBRANCH   4   5
ENDBRANCH   1   4
BRANCH   1  12
ATOM     12  N   UNL     1      45.404 131.737  21.182  1.00  0.00    -0.242 N 
ATOM     13  N   UNL     1      45.107 130.794  22.160  1.00  0.00    -0.201 NA
ATOM     14  C   UNL     1      44.284 131.956  20.294  1.00  0.00     0.283 C 
ATOM     15  C   UNL     1      43.699 130.475  21.912  1.00  0.00     0.204 C 
ATOM     16  O   UNL     1      43.230 131.157  20.762  1.00  0.00    -0.332 OA
ATOM     17  H   UNL     1      45.683 129.945  21.950  1.00  0.00     0.151 HD
ATOM     18  C   UNL     1      42.864 130.883  23.120  1.00  0.00     0.058 C 
BRANCH  14  19
ATOM     19  C   UNL     1      44.632 131.544  18.893  1.00  0.00     0.068 A 
ATOM     20  C   UNL     1      43.940 131.937  17.749  1.00  0.00     0.036 A 
ATOM     21  N   UNL     1      45.658 130.717  18.583  1.00  0.00    -0.355 N 
ATOM     22  C   UNL     1      44.599 131.318  16.709  1.00  0.00     0.000 A 
ATOM     23  C   UNL     1      45.629 130.590  17.246  1.00  0.00     0.049 A 
ATOM     24  C   UNL     1      44.359 131.350  15.337  1.00  0.00     0.013 A 
ATOM     25  C   UNL     1      46.492 129.843  16.448  1.00  0.00     0.065 A 
ATOM     26  C   UNL     1      45.213 130.605  14.504  1.00  0.00     0.040 A 
ATOM     27  C   UNL     1      46.276 129.853  15.056  1.00  0.00     0.125 A 
ATOM     28  H   UNL     1      46.332 130.271  19.245  1.00  0.00     0.166 HD
ATOM     29  F   UNL     1      47.092 129.140  14.242  1.00  0.00    -0.207 F 
ENDBRANCH  14  19
ENDBRANCH   1  12
TORSDOF 5
ENDMDL
MODEL 4
REMARK VINA RESULT:      -7.4      0.759      1.141
REMARK SMILES C[C@@H]1NN(/C(O)=C/c2ccn[nH+]c2)[C@@H](c2cc3ccc(F)cc3[nH]2)O1
REMARK SMILES IDX 5 1 6 2 7 4 8 5 9 6 13 7 10 8 12 9 11 10 4 12 3 13 14 14
REMARK SMILES IDX 2 15 25 16 1 18 15 19 16 20 24 21 17 22 23 23 18 24 22 25
REMARK SMILES IDX 19 26 20 27 21 29
REMARK H PARENT 6 3 12 11 3 17 24 28
ROOT
ATOM      1  C   UNL     1      45.211 130.660  20.673  1.00  0.00     0.205 C 
ENDROOT
BRANCH   1   2
ATOM      2  O   UNL     1      46.340 130.217  19.982  1.00  0.00    -0.494 OA
ATOM      3  H   UNL     1      46.279 129.562  19.213  1.00  0.00     0.295 HD
ENDBRANCH   1   2
BRANCH   1   4
ATOM      4  C   UNL     1      45.118 130.439  21.997  1.00  0.00     0.082 C 
BRANCH   4   5
ATOM      5  C   UNL     1      44.383 129.302  22.597  1.00  0.00     0.048 A 
ATOM      6  C   UNL     1      44.896 127.997  22.602  1.00  0.00     0.041 A 
ATOM      7  C   UNL     1      43.168 129.540  23.252  1.00  0.00     0.343 A 
ATOM      8  C   UNL     1      44.169 126.979  23.216  1.00  0.00     0.185 A 
ATOM      9  N   UNL     1      42.499 128.510  23.834  1.00  0.00    -0.106 N 
ATOM     10  N   UNL     1      42.986 127.268  23.814  1.00  0.00    -0.011 NA
ATOM     11  H   UNL     1      41.588 128.693  24.310  1.00  0.00     0.490 HD
ENDBRANCH   4   5
ENDBRANCH   1   4
BRANCH   1  12
ATOM     12  N   UNL     1      44.149 131.320  19.946  1.00  0.00    -0.242 N 
ATOM     13  N   UNL     1      42.809 131.099  20.247  1.00  0.00    -0.201 NA
ATOM     14  C   UNL     1      44.308 132.321  18.916  1.00  0.00     0.283 C 
ATOM     15  C   UNL     1      42.106 132.078  19.414  1.00  0.00     0.204 C 
ATOM     16  O   UNL     1      43.022 132.780  18.592  1.00  0.00    -0.332 OA
ATOM     17  H   UNL     1      42.574 130.139  19.902  1.00  0.00     0.151 HD
ATOM     18  C   UNL     1      41.363 133.065  20.305  1.00  0.00     0.058 C 
BRANCH  14  19
ATOM     19  C   UNL     1      44.942 131.725  17.693  1.00  0.00     0.068 A 
ATOM     20  C   UNL     1      45.071 130.361  17.442  1.00  0.00     0.036 A 
ATOM     21  N   UNL     1      45.487 132.459  16.693  1.00  0.00    -0.355 N 
ATOM     22  C   UNL     1      45.714 130.285  16.227  1.00  0.00     0.000 A 
ATOM     23  C   UNL     1      45.951 131.567  15.803  1.00  0.00     0.049 A 
ATOM     24  C   UNL     1      46.103 129.178  15.474  1.00  0.00     0.013 A 
ATOM     25  C   UNL     1      46.592 131.832  14.595  1.00  0.00     0.065 A 
ATOM     26  C   UNL     1      46.753 129.414  14.249  1.00  0.00     0.040 A 
ATOM     27  C   UNL     1      46.998 130.736  13.811  1.00  0.00     0.125 A 
ATOM     28  H   UNL     1      45.534 133.500  16.627  1.00  0.00     0.166 HD
ATOM     29  F   UNL     1      47.626 130.948  12.628  1.00  0.00    -0.207 F 
ENDBRANCH  14  19
ENDBRANCH   1  12
TORSDOF 5
ENDMDL
MODEL 5
REMARK VINA RESULT:      -7.3      2.239      3.300
REMARK SMILES C[C@@H]1NN(/C(O)=C/c2ccn[nH+]c2)[C@@H](c2cc3ccc(F)cc3[nH]2)O1
REMARK SMILES IDX 5 1 6 2 7 4 8 5 9 6 13 7 10 8 12 9 11 10 4 12 3 13 14 14
REMARK SMILES IDX 2 15 25 16 1 18 15 19 16 20 24 21 17 22 23 23 18 24 22 25
REMARK SMILES IDX 19 26 20 27 21 29
REMARK H PARENT 6 3 12 11 3 17 24 28
ROOT
ATOM      1  C   UNL     1      44.993 128.639  22.264  1.00  0.00     0.205 C 
ENDROOT
BRANCH   1   2
ATOM      2  O   UNL     1      45.804 128.346  21.165  1.00  0.00    -0.494 OA
ATOM      3  H   UNL     1      46.795 128.550  21.156  1.00  0.00     0.295 HD
ENDBRANCH   1   2
BRANCH   1   4
ATOM      4  C   UNL     1      44.822 127.713  23.224  1.00  0.00     0.082 C 
BRANCH   4   5
ATOM      5  C   UNL     1      43.875 126.580  23.122  1.00  0.00     0.048 A 
ATOM      6  C   UNL     1      42.596 126.618  23.696  1.00  0.00     0.041 A 
ATOM      7  C   UNL     1      44.228 125.458  22.363  1.00  0.00     0.343 A 
ATOM      8  C   UNL     1      41.740 125.532  23.531  1.00  0.00     0.185 A 
ATOM      9  N   UNL     1      43.354 124.424  22.235  1.00  0.00    -0.106 N 
ATOM     10  N   UNL     1      42.148 124.461  22.804  1.00  0.00    -0.011 NA
ATOM     11  H   UNL     1      43.629 123.585  21.678  1.00  0.00     0.490 HD
ENDBRANCH   4   5
ENDBRANCH   1   4
BRANCH   1  12
ATOM     12  N   UNL     1      44.329 129.922  22.331  1.00  0.00    -0.242 N 
ATOM     13  N   UNL     1      43.137 130.093  23.027  1.00  0.00    -0.201 NA
ATOM     14  C   UNL     1      44.819 131.171  21.793  1.00  0.00     0.283 C 
ATOM     15  C   UNL     1      42.923 131.541  22.986  1.00  0.00     0.204 C 
ATOM     16  O   UNL     1      43.926 132.171  22.208  1.00  0.00    -0.332 OA
ATOM     17  H   UNL     1      42.386 129.630  22.464  1.00  0.00     0.151 HD
ATOM     18  C   UNL     1      42.953 132.101  24.403  1.00  0.00     0.058 C 
BRANCH  14  19
ATOM     19  C   UNL     1      44.847 131.126  20.293  1.00  0.00     0.068 A 
ATOM     20  C   UNL     1      43.876 131.673  19.458  1.00  0.00     0.036 A 
ATOM     21  N   UNL     1      45.825 130.523  19.576  1.00  0.00    -0.355 N 
ATOM     22  C   UNL     1      44.307 131.387  18.182  1.00  0.00     0.000 A 
ATOM     23  C   UNL     1      45.485 130.693  18.288  1.00  0.00     0.049 A 
ATOM     24  C   UNL     1      43.743 131.691  16.944  1.00  0.00     0.013 A 
ATOM     25  C   UNL     1      46.181 130.255  17.164  1.00  0.00     0.065 A 
ATOM     26  C   UNL     1      44.423 131.262  15.790  1.00  0.00     0.040 A 
ATOM     27  C   UNL     1      45.638 130.546  15.898  1.00  0.00     0.125 A 
ATOM     28  H   UNL     1      46.668 130.030  19.947  1.00  0.00     0.166 HD
ATOM     29  F   UNL     1      46.282 130.139  14.777  1.00  0.00    -0.207 F 
ENDBRANCH  14  19
ENDBRANCH   1  12
TORSDOF 5
ENDMDL
MODEL 6
REMARK VINA RESULT:      -7.2      1.028      1.201
REMARK SMILES C[C@@H]1NN(/C(O)=C/c2ccn[nH+]c2)[C@@H](c2cc3ccc(F)cc3[nH]2)O1
REMARK SMILES IDX 5 1 6 2 7 4 8 5 9 6 13 7 10 8 12 9 11 10 4 12 3 13 14 14
REMARK SMILES IDX 2 15 25 16 1 18 15 19 16 20 24 21 17 22 23 23 18 24 22 25
REMARK SMILES IDX 19 26 20 27 21 29
REMARK H PARENT 6 3 12 11 3 17 24 28
ROOT
ATOM      1  C   UNL     1      45.367 131.048  20.418  1.00  0.00     0.205 C 
ENDROOT
BRANCH   1   2
ATOM      2  O   UNL     1      46.456 130.455  19.778  1.00  0.00    -0.494 OA
ATOM      3  H   UNL     1      47.394 130.829  19.849  1.00  0.00     0.295 HD
ENDBRANCH   1   2
BRANCH   1   4
ATOM      4  C   UNL     1      45.392 131.206  21.754  1.00  0.00     0.082 C 
BRANCH   4   5
ATOM      5  C   UNL     1      44.318 130.744  22.662  1.00  0.00     0.048 A 
ATOM      6  C   UNL     1      43.453 131.634  23.315  1.00  0.00     0.041 A 
ATOM      7  C   UNL     1      44.100 129.370  22.823  1.00  0.00     0.343 A 
ATOM      8  C   UNL     1      42.440 131.132  24.127  1.00  0.00     0.185 A 
ATOM      9  N   UNL     1      43.097 128.933  23.629  1.00  0.00    -0.106 N 
ATOM     10  N   UNL     1      42.293 129.789  24.263  1.00  0.00    -0.011 NA
ATOM     11  H   UNL     1      42.948 127.907  23.754  1.00  0.00     0.490 HD
ENDBRANCH   4   5
ENDBRANCH   1   4
BRANCH   1  12
ATOM     12  N   UNL     1      44.219 131.452  19.636  1.00  0.00    -0.242 N 
ATOM     13  N   UNL     1      42.928 131.063  19.976  1.00  0.00    -0.201 NA
ATOM     14  C   UNL     1      44.227 132.344  18.499  1.00  0.00     0.283 C 
ATOM     15  C   UNL     1      42.087 131.823  19.048  1.00  0.00     0.204 C 
ATOM     16  O   UNL     1      42.888 132.561  18.142  1.00  0.00    -0.332 OA
ATOM     17  H   UNL     1      42.845 130.045  19.743  1.00  0.00     0.151 HD
ATOM     18  C   UNL     1      41.196 132.778  19.833  1.00  0.00     0.058 C 
BRANCH  14  19
ATOM     19  C   UNL     1      44.952 131.720  17.342  1.00  0.00     0.068 A 
ATOM     20  C   UNL     1      45.113 130.351  17.143  1.00  0.00     0.036 A 
ATOM     21  N   UNL     1      45.554 132.430  16.359  1.00  0.00    -0.355 N 
ATOM     22  C   UNL     1      45.840 130.247  15.978  1.00  0.00     0.000 A 
ATOM     23  C   UNL     1      46.090 131.518  15.531  1.00  0.00     0.049 A 
ATOM     24  C   UNL     1      46.293 129.123  15.289  1.00  0.00     0.013 A 
ATOM     25  C   UNL     1      46.810 131.756  14.362  1.00  0.00     0.065 A 
ATOM     26  C   UNL     1      47.023 129.330  14.105  1.00  0.00     0.040 A 
ATOM     27  C   UNL     1      47.282 130.642  13.642  1.00  0.00     0.125 A 
ATOM     28  H   UNL     1      45.594 133.470  16.263  1.00  0.00     0.166 HD
ATOM     29  F   UNL     1      47.987 130.826  12.500  1.00  0.00    -0.207 F 
ENDBRANCH  14  19
ENDBRANCH   1  12
TORSDOF 5
ENDMDL
MODEL 7
REMARK VINA RESULT:      -7.0      3.359      4.504
REMARK SMILES C[C@@H]1NN(/C(O)=C/c2ccn[nH+]c2)[C@@H](c2cc3ccc(F)cc3[nH]2)O1
REMARK SMILES IDX 5 1 6 2 7 4 8 5 9 6 13 7 10 8 12 9 11 10 4 12 3 13 14 14
REMARK SMILES IDX 2 15 25 16 1 18 15 19 16 20 24 21 17 22 23 23 18 24 22 25
REMARK SMILES IDX 19 26 20 27 21 29
REMARK H PARENT 6 3 12 11 3 17 24 28
ROOT
ATOM      1  C   UNL     1      46.706 132.329  21.308  1.00  0.00     0.205 C 
ENDROOT
BRANCH   1   2
ATOM      2  O   UNL     1      47.762 131.825  20.547  1.00  0.00    -0.494 OA
ATOM      3  H   UNL     1      47.647 131.042  19.915  1.00  0.00     0.295 HD
ENDBRANCH   1   2
BRANCH   1   4
ATOM      4  C   UNL     1      46.948 133.286  22.222  1.00  0.00     0.082 C 
BRANCH   4   5
ATOM      5  C   UNL     1      48.042 134.277  22.112  1.00  0.00     0.048 A 
ATOM      6  C   UNL     1      48.052 135.278  21.130  1.00  0.00     0.041 A 
ATOM      7  C   UNL     1      49.069 134.272  23.064  1.00  0.00     0.343 A 
ATOM      8  C   UNL     1      49.094 136.201  21.105  1.00  0.00     0.185 A 
ATOM      9  N   UNL     1      50.064 135.196  22.993  1.00  0.00    -0.106 N 
ATOM     10  N   UNL     1      50.075 136.130  22.041  1.00  0.00    -0.011 NA
ATOM     11  H   UNL     1      50.833 135.178  23.699  1.00  0.00     0.490 HD
ENDBRANCH   4   5
ENDBRANCH   1   4
BRANCH   1  12
ATOM     12  N   UNL     1      45.377 131.789  21.120  1.00  0.00    -0.242 N 
ATOM     13  N   UNL     1      44.813 130.899  22.028  1.00  0.00    -0.201 NA
ATOM     14  C   UNL     1      44.449 132.140  20.069  1.00  0.00     0.283 C 
ATOM     15  C   UNL     1      43.434 130.758  21.556  1.00  0.00     0.204 C 
ATOM     16  O   UNL     1      43.242 131.484  20.355  1.00  0.00    -0.332 OA
ATOM     17  H   UNL     1      45.304 129.983  21.901  1.00  0.00     0.151 HD
ATOM     18  C   UNL     1      42.476 131.276  22.622  1.00  0.00     0.058 C 
BRANCH  14  19
ATOM     19  C   UNL     1      44.959 131.677  18.736  1.00  0.00     0.068 A 
ATOM     20  C   UNL     1      45.561 130.444  18.494  1.00  0.00     0.036 A 
ATOM     21  N   UNL     1      44.909 132.425  17.608  1.00  0.00    -0.355 N 
ATOM     22  C   UNL     1      45.873 130.461  17.153  1.00  0.00     0.000 A 
ATOM     23  C   UNL     1      45.466 131.669  16.648  1.00  0.00     0.049 A 
ATOM     24  C   UNL     1      46.482 129.498  16.351  1.00  0.00     0.013 A 
ATOM     25  C   UNL     1      45.641 131.999  15.306  1.00  0.00     0.065 A 
ATOM     26  C   UNL     1      46.673 129.801  14.990  1.00  0.00     0.040 A 
ATOM     27  C   UNL     1      46.254 131.047  14.469  1.00  0.00     0.125 A 
ATOM     28  H   UNL     1      44.517 133.388  17.505  1.00  0.00     0.166 HD
ATOM     29  F   UNL     1      46.444 131.326  13.156  1.00  0.00    -0.207 F 
ENDBRANCH  14  19
ENDBRANCH   1  12
TORSDOF 5
ENDMDL
MODEL 8
REMARK VINA RESULT:      -7.0      2.243      3.548
REMARK SMILES C[C@@H]1NN(/C(O)=C/c2ccn[nH+]c2)[C@@H](c2cc3ccc(F)cc3[nH]2)O1
REMARK SMILES IDX 5 1 6 2 7 4 8 5 9 6 13 7 10 8 12 9 11 10 4 12 3 13 14 14
REMARK SMILES IDX 2 15 25 16 1 18 15 19 16 20 24 21 17 22 23 23 18 24 22 25
REMARK SMILES IDX 19 26 20 27 21 29
REMARK H PARENT 6 3 12 11 3 17 24 28
ROOT
ATOM      1  C   UNL     1      45.033 128.647  22.362  1.00  0.00     0.205 C 
ENDROOT
BRANCH   1   2
ATOM      2  O   UNL     1      45.735 128.319  21.200  1.00  0.00    -0.494 OA
ATOM      3  H   UNL     1      45.657 127.410  20.762  1.00  0.00     0.295 HD
ENDBRANCH   1   2
BRANCH   1   4
ATOM      4  C   UNL     1      44.939 127.744  23.355  1.00  0.00     0.082 C 
BRANCH   4   5
ATOM      5  C   UNL     1      45.043 126.281  23.155  1.00  0.00     0.048 A 
ATOM      6  C   UNL     1      44.028 125.534  22.538  1.00  0.00     0.041 A 
ATOM      7  C   UNL     1      46.223 125.622  23.520  1.00  0.00     0.343 A 
ATOM      8  C   UNL     1      44.206 124.166  22.348  1.00  0.00     0.185 A 
ATOM      9  N   UNL     1      46.344 124.283  23.312  1.00  0.00    -0.106 N 
ATOM     10  N   UNL     1      45.363 123.579  22.746  1.00  0.00    -0.011 NA
ATOM     11  H   UNL     1      47.222 123.796  23.599  1.00  0.00     0.490 HD
ENDBRANCH   4   5
ENDBRANCH   1   4
BRANCH   1  12
ATOM     12  N   UNL     1      44.395 129.941  22.461  1.00  0.00    -0.242 N 
ATOM     13  N   UNL     1      43.229 130.128  23.195  1.00  0.00    -0.201 NA
ATOM     14  C   UNL     1      44.891 131.186  21.919  1.00  0.00     0.283 C 
ATOM     15  C   UNL     1      43.040 131.580  23.174  1.00  0.00     0.204 C 
ATOM     16  O   UNL     1      44.030 132.199  22.371  1.00  0.00    -0.332 OA
ATOM     17  H   UNL     1      42.452 129.684  22.652  1.00  0.00     0.151 HD
ATOM     18  C   UNL     1      43.125 132.126  24.594  1.00  0.00     0.058 C 
BRANCH  14  19
ATOM     19  C   UNL     1      44.872 131.155  20.419  1.00  0.00     0.068 A 
ATOM     20  C   UNL     1      43.864 131.689  19.620  1.00  0.00     0.036 A 
ATOM     21  N   UNL     1      45.838 130.579  19.665  1.00  0.00    -0.355 N 
ATOM     22  C   UNL     1      44.259 131.423  18.328  1.00  0.00     0.000 A 
ATOM     23  C   UNL     1      45.453 130.752  18.390  1.00  0.00     0.049 A 
ATOM     24  C   UNL     1      43.649 131.726  17.112  1.00  0.00     0.013 A 
ATOM     25  C   UNL     1      46.123 130.338  17.240  1.00  0.00     0.065 A 
ATOM     26  C   UNL     1      44.301 131.321  15.932  1.00  0.00     0.040 A 
ATOM     27  C   UNL     1      45.532 130.629  15.995  1.00  0.00     0.125 A 
ATOM     28  H   UNL     1      46.703 130.100  20.004  1.00  0.00     0.166 HD
ATOM     29  F   UNL     1      46.149 130.245  14.851  1.00  0.00    -0.207 F 
ENDBRANCH  14  19
ENDBRANCH   1  12
TORSDOF 5
ENDMDL
MODEL 9
REMARK VINA RESULT:      -6.8      2.348      3.498
REMARK SMILES C[C@@H]1NN(/C(O)=C/c2ccn[nH+]c2)[C@@H](c2cc3ccc(F)cc3[nH]2)O1
REMARK SMILES IDX 5 1 6 2 7 4 8 5 9 6 13 7 10 8 12 9 11 10 4 12 3 13 14 14
REMARK SMILES IDX 2 15 25 16 1 18 15 19 16 20 24 21 17 22 23 23 18 24 22 25
REMARK SMILES IDX 19 26 20 27 21 29
REMARK H PARENT 6 3 12 11 3 17 24 28
ROOT
ATOM      1  C   UNL     1      44.894 128.670  22.332  1.00  0.00     0.205 C 
ENDROOT
BRANCH   1   2
ATOM      2  O   UNL     1      45.646 128.374  21.193  1.00  0.00    -0.494 OA
ATOM      3  H   UNL     1      45.422 128.757  20.284  1.00  0.00     0.295 HD
ENDBRANCH   1   2
BRANCH   1   4
ATOM      4  C   UNL     1      44.806 127.761  23.320  1.00  0.00     0.082 C 
BRANCH   4   5
ATOM      5  C   UNL     1      44.228 126.409  23.151  1.00  0.00     0.048 A 
ATOM      6  C   UNL     1      44.974 125.332  22.651  1.00  0.00     0.041 A 
ATOM      7  C   UNL     1      42.916 126.166  23.575  1.00  0.00     0.343 A 
ATOM      8  C   UNL     1      44.380 124.076  22.552  1.00  0.00     0.185 A 
ATOM      9  N   UNL     1      42.384 124.921  23.454  1.00  0.00    -0.106 N 
ATOM     10  N   UNL     1      43.096 123.909  22.956  1.00  0.00    -0.011 NA
ATOM     11  H   UNL     1      41.400 124.751  23.760  1.00  0.00     0.490 HD
ENDBRANCH   4   5
ENDBRANCH   1   4
BRANCH   1  12
ATOM     12  N   UNL     1      44.199 129.936  22.412  1.00  0.00    -0.242 N 
ATOM     13  N   UNL     1      42.997 130.069  23.100  1.00  0.00    -0.201 NA
ATOM     14  C   UNL     1      44.663 131.204  21.897  1.00  0.00     0.283 C 
ATOM     15  C   UNL     1      42.749 131.512  23.078  1.00  0.00     0.204 C 
ATOM     16  O   UNL     1      43.744 132.176  22.319  1.00  0.00    -0.332 OA
ATOM     17  H   UNL     1      42.262 129.596  22.522  1.00  0.00     0.151 HD
ATOM     18  C   UNL     1      42.754 132.051  24.503  1.00  0.00     0.058 C 
BRANCH  14  19
ATOM     19  C   UNL     1      44.707 131.182  20.397  1.00  0.00     0.068 A 
ATOM     20  C   UNL     1      45.770 130.704  19.634  1.00  0.00     0.036 A 
ATOM     21  N   UNL     1      43.711 131.650  19.608  1.00  0.00    -0.355 N 
ATOM     22  C   UNL     1      45.377 130.890  18.327  1.00  0.00     0.000 A 
ATOM     23  C   UNL     1      44.132 131.462  18.346  1.00  0.00     0.049 A 
ATOM     24  C   UNL     1      46.032 130.594  17.133  1.00  0.00     0.013 A 
ATOM     25  C   UNL     1      43.452 131.779  17.171  1.00  0.00     0.065 A 
ATOM     26  C   UNL     1      45.371 130.902  15.929  1.00  0.00     0.040 A 
ATOM     27  C   UNL     1      44.087 131.492  15.947  1.00  0.00     0.125 A 
ATOM     28  H   UNL     1      42.804 132.069  19.915  1.00  0.00     0.166 HD
ATOM     29  F   UNL     1      43.462 131.783  14.780  1.00  0.00    -0.207 F 
ENDBRANCH  14  19
ENDBRANCH   1  12
TORSDOF 5
ENDMDL


