MODEL 1
REMARK VINA RESULT:      -7.6      0.000      0.000
REMARK SMILES C/C=C/C(=O)N1Cc2[nH+]cc(-c3ccc4[nH]ccc4c3)cc2C1=O
REMARK SMILES IDX 4 1 5 2 3 3 2 4 1 5 6 6 23 7 7 8 22 9 8 10 21 11 9 12 11 13
REMARK SMILES IDX 10 14 24 15 12 17 13 18 20 19 14 20 19 21 15 22 18 23 16 24
REMARK SMILES IDX 17 25
REMARK H PARENT 9 16 16 26
ROOT
ATOM      1  C   UNL     1      43.289 130.923  23.597  1.00  0.00     0.253 C 
ATOM      2  O   UNL     1      43.988 131.558  24.432  1.00  0.00    -0.269 OA
ENDROOT
BRANCH   1   3
ATOM      3  C   UNL     1      42.294 129.939  24.073  1.00  0.00     0.067 C 
BRANCH   3   4
ATOM      4  C   UNL     1      42.288 128.671  23.649  1.00  0.00    -0.025 C 
ATOM      5  C   UNL     1      43.532 127.843  23.686  1.00  0.00     0.036 C 
ENDBRANCH   3   4
ENDBRANCH   1   3
BRANCH   1   6
ATOM      6  N   UNL     1      43.506 131.143  22.193  1.00  0.00    -0.264 N 
ATOM      7  C   UNL     1      44.632 130.738  21.411  1.00  0.00     0.267 C 
ATOM      8  C   UNL     1      42.520 131.763  21.297  1.00  0.00     0.238 C 
ATOM      9  C   UNL     1      44.426 131.114  20.035  1.00  0.00     0.110 A 
ATOM     10  C   UNL     1      43.196 131.714  19.959  1.00  0.00     0.212 A 
ATOM     11  C   UNL     1      45.218 130.942  18.908  1.00  0.00     0.035 A 
ATOM     12  N   UNL     1      42.706 132.167  18.777  1.00  0.00    -0.212 N 
ATOM     13  C   UNL     1      44.724 131.411  17.670  1.00  0.00     0.046 A 
ATOM     14  C   UNL     1      43.446 132.028  17.636  1.00  0.00     0.315 A 
ATOM     15  O   UNL     1      45.619 130.088  21.846  1.00  0.00    -0.268 OA
ATOM     16  H   UNL     1      41.767 132.621  18.738  1.00  0.00     0.453 HD
BRANCH  13  17
ATOM     17  C   UNL     1      45.525 131.256  16.430  1.00  0.00    -0.012 A 
ATOM     18  C   UNL     1      45.523 132.278  15.441  1.00  0.00     0.011 A 
ATOM     19  C   UNL     1      46.299 130.090  16.220  1.00  0.00     0.019 A 
ATOM     20  C   UNL     1      46.280 132.142  14.262  1.00  0.00     0.027 A 
ATOM     21  C   UNL     1      47.033 129.991  15.041  1.00  0.00    -0.000 A 
ATOM     22  C   UNL     1      47.025 130.979  14.097  1.00  0.00     0.045 A 
ATOM     23  C   UNL     1      47.863 128.990  14.584  1.00  0.00     0.028 A 
ATOM     24  N   UNL     1      47.810 130.653  13.057  1.00  0.00    -0.361 N 
ATOM     25  C   UNL     1      48.325 129.438  13.350  1.00  0.00     0.083 A 
ATOM     26  H   UNL     1      47.991 131.219  12.198  1.00  0.00     0.166 HD
ENDBRANCH  13  17
ENDBRANCH   1   6
TORSDOF 4
ENDMDL
MODEL 2
REMARK VINA RESULT:      -7.3      0.737      1.337
REMARK SMILES C/C=C/C(=O)N1Cc2[nH+]cc(-c3ccc4[nH]ccc4c3)cc2C1=O
REMARK SMILES IDX 4 1 5 2 3 3 2 4 1 5 6 6 23 7 7 8 22 9 8 10 21 11 9 12 11 13
REMARK SMILES IDX 10 14 24 15 12 17 13 18 20 19 14 20 19 21 15 22 18 23 16 24
REMARK SMILES IDX 17 25
REMARK H PARENT 9 16 16 26
ROOT
ATOM      1  C   UNL     1      43.183 131.301  23.735  1.00  0.00     0.253 C 
ATOM      2  O   UNL     1      43.926 131.949  24.522  1.00  0.00    -0.269 OA
ENDROOT
BRANCH   1   3
ATOM      3  C   UNL     1      42.105 130.450  24.282  1.00  0.00     0.067 C 
BRANCH   3   4
ATOM      4  C   UNL     1      42.072 129.128  24.085  1.00  0.00    -0.025 C 
ATOM      5  C   UNL     1      43.288 128.288  24.314  1.00  0.00     0.036 C 
ENDBRANCH   3   4
ENDBRANCH   1   3
BRANCH   1   6
ATOM      6  N   UNL     1      43.430 131.375  22.321  1.00  0.00    -0.264 N 
ATOM      7  C   UNL     1      44.460 130.716  21.580  1.00  0.00     0.267 C 
ATOM      8  C   UNL     1      42.568 132.094  21.373  1.00  0.00     0.238 C 
ATOM      9  C   UNL     1      44.319 131.021  20.179  1.00  0.00     0.110 A 
ATOM     10  C   UNL     1      43.217 131.826  20.048  1.00  0.00     0.212 A 
ATOM     11  C   UNL     1      45.062 130.626  19.074  1.00  0.00     0.035 A 
ATOM     12  N   UNL     1      42.812 132.271  18.833  1.00  0.00    -0.212 N 
ATOM     13  C   UNL     1      44.654 131.084  17.802  1.00  0.00     0.046 A 
ATOM     14  C   UNL     1      43.510 131.918  17.711  1.00  0.00     0.315 A 
ATOM     15  O   UNL     1      45.315 129.932  22.071  1.00  0.00    -0.268 OA
ATOM     16  H   UNL     1      41.970 132.884  18.752  1.00  0.00     0.453 HD
BRANCH  13  17
ATOM     17  C   UNL     1      45.408 130.696  16.584  1.00  0.00    -0.012 A 
ATOM     18  C   UNL     1      45.520 129.328  16.211  1.00  0.00     0.011 A 
ATOM     19  C   UNL     1      46.025 131.685  15.780  1.00  0.00     0.019 A 
ATOM     20  C   UNL     1      46.231 128.949  15.058  1.00  0.00     0.027 A 
ATOM     21  C   UNL     1      46.721 131.272  14.647  1.00  0.00    -0.000 A 
ATOM     22  C   UNL     1      46.822 129.954  14.298  1.00  0.00     0.045 A 
ATOM     23  C   UNL     1      47.402 132.003  13.697  1.00  0.00     0.028 A 
ATOM     24  N   UNL     1      47.537 129.811  13.170  1.00  0.00    -0.361 N 
ATOM     25  C   UNL     1      47.894 131.061  12.798  1.00  0.00     0.083 A 
ATOM     26  H   UNL     1      47.770 128.920  12.677  1.00  0.00     0.166 HD
ENDBRANCH  13  17
ENDBRANCH   1   6
TORSDOF 4
ENDMDL
MODEL 3
REMARK VINA RESULT:      -6.4      1.385      1.816
REMARK SMILES C/C=C/C(=O)N1Cc2[nH+]cc(-c3ccc4[nH]ccc4c3)cc2C1=O
REMARK SMILES IDX 4 1 5 2 3 3 2 4 1 5 6 6 23 7 7 8 22 9 8 10 21 11 9 12 11 13
REMARK SMILES IDX 10 14 24 15 12 17 13 18 20 19 14 20 19 21 15 22 18 23 16 24
REMARK SMILES IDX 17 25
REMARK H PARENT 9 16 16 26
ROOT
ATOM      1  C   UNL     1      42.991 131.773  23.019  1.00  0.00     0.253 C 
ATOM      2  O   UNL     1      41.821 131.960  23.452  1.00  0.00    -0.269 OA
ENDROOT
BRANCH   1   3
ATOM      3  C   UNL     1      44.109 131.619  23.974  1.00  0.00     0.067 C 
BRANCH   3   4
ATOM      4  C   UNL     1      44.638 132.659  24.625  1.00  0.00    -0.025 C 
ATOM      5  C   UNL     1      46.013 133.150  24.300  1.00  0.00     0.036 C 
ENDBRANCH   3   4
ENDBRANCH   1   3
BRANCH   1   6
ATOM      6  N   UNL     1      43.216 131.756  21.600  1.00  0.00    -0.264 N 
ATOM      7  C   UNL     1      44.417 131.400  20.911  1.00  0.00     0.267 C 
ATOM      8  C   UNL     1      42.173 132.025  20.600  1.00  0.00     0.238 C 
ATOM      9  C   UNL     1      44.198 131.470  19.488  1.00  0.00     0.110 A 
ATOM     10  C   UNL     1      42.891 131.836  19.297  1.00  0.00     0.212 A 
ATOM     11  C   UNL     1      45.044 131.220  18.416  1.00  0.00     0.035 A 
ATOM     12  N   UNL     1      42.374 131.970  18.050  1.00  0.00    -0.212 N 
ATOM     13  C   UNL     1      44.522 131.359  17.111  1.00  0.00     0.046 A 
ATOM     14  C   UNL     1      43.164 131.741  16.957  1.00  0.00     0.315 A 
ATOM     15  O   UNL     1      45.481 131.014  21.465  1.00  0.00    -0.268 OA
ATOM     16  H   UNL     1      41.375 132.249  17.923  1.00  0.00     0.453 HD
BRANCH  13  17
ATOM     17  C   UNL     1      45.377 131.105  15.925  1.00  0.00    -0.012 A 
ATOM     18  C   UNL     1      45.211 131.874  14.740  1.00  0.00     0.011 A 
ATOM     19  C   UNL     1      46.368 130.095  15.961  1.00  0.00     0.019 A 
ATOM     20  C   UNL     1      46.017 131.644  13.610  1.00  0.00     0.027 A 
ATOM     21  C   UNL     1      47.146 129.895  14.823  1.00  0.00    -0.000 A 
ATOM     22  C   UNL     1      46.978 130.640  13.690  1.00  0.00     0.045 A 
ATOM     23  C   UNL     1      48.168 129.003  14.582  1.00  0.00     0.028 A 
ATOM     24  N   UNL     1      47.844 130.262  12.736  1.00  0.00    -0.361 N 
ATOM     25  C   UNL     1      48.574 129.261  13.276  1.00  0.00     0.083 A 
ATOM     26  H   UNL     1      47.940 130.659  11.775  1.00  0.00     0.166 HD
ENDBRANCH  13  17
ENDBRANCH   1   6
TORSDOF 4
ENDMDL
MODEL 4
REMARK VINA RESULT:      -6.4      1.246      1.882
REMARK SMILES C/C=C/C(=O)N1Cc2[nH+]cc(-c3ccc4[nH]ccc4c3)cc2C1=O
REMARK SMILES IDX 4 1 5 2 3 3 2 4 1 5 6 6 23 7 7 8 22 9 8 10 21 11 9 12 11 13
REMARK SMILES IDX 10 14 24 15 12 17 13 18 20 19 14 20 19 21 15 22 18 23 16 24
REMARK SMILES IDX 17 25
REMARK H PARENT 9 16 16 26
ROOT
ATOM      1  C   UNL     1      42.440 132.180  22.544  1.00  0.00     0.253 C 
ATOM      2  O   UNL     1      41.360 132.792  22.767  1.00  0.00    -0.269 OA
ENDROOT
BRANCH   1   3
ATOM      3  C   UNL     1      43.244 131.676  23.678  1.00  0.00     0.067 C 
BRANCH   3   4
ATOM      4  C   UNL     1      43.033 130.472  24.219  1.00  0.00    -0.025 C 
ATOM      5  C   UNL     1      42.010 129.542  23.649  1.00  0.00     0.036 C 
ENDBRANCH   3   4
ENDBRANCH   1   3
BRANCH   1   6
ATOM      6  N   UNL     1      42.886 132.024  21.186  1.00  0.00    -0.264 N 
ATOM      7  C   UNL     1      44.121 131.462  20.733  1.00  0.00     0.267 C 
ATOM      8  C   UNL     1      42.067 132.347  20.010  1.00  0.00     0.238 C 
ATOM      9  C   UNL     1      44.146 131.449  19.293  1.00  0.00     0.110 A 
ATOM     10  C   UNL     1      42.952 131.965  18.861  1.00  0.00     0.212 A 
ATOM     11  C   UNL     1      45.110 131.008  18.396  1.00  0.00     0.035 A 
ATOM     12  N   UNL     1      42.667 132.068  17.539  1.00  0.00    -0.212 N 
ATOM     13  C   UNL     1      44.830 131.111  17.015  1.00  0.00     0.046 A 
ATOM     14  C   UNL     1      43.582 131.654  16.611  1.00  0.00     0.315 A 
ATOM     15  O   UNL     1      45.016 130.986  21.481  1.00  0.00    -0.268 OA
ATOM     16  H   UNL     1      41.752 132.463  17.228  1.00  0.00     0.453 HD
BRANCH  13  17
ATOM     17  C   UNL     1      45.821 130.657  16.008  1.00  0.00    -0.012 A 
ATOM     18  C   UNL     1      46.547 129.450  16.206  1.00  0.00     0.011 A 
ATOM     19  C   UNL     1      46.055 131.422  14.840  1.00  0.00     0.019 A 
ATOM     20  C   UNL     1      47.488 129.010  15.258  1.00  0.00     0.027 A 
ATOM     21  C   UNL     1      46.995 130.955  13.924  1.00  0.00    -0.000 A 
ATOM     22  C   UNL     1      47.686 129.792  14.124  1.00  0.00     0.045 A 
ATOM     23  C   UNL     1      47.413 131.481  12.721  1.00  0.00     0.028 A 
ATOM     24  N   UNL     1      48.528 129.555  13.105  1.00  0.00    -0.361 N 
ATOM     25  C   UNL     1      48.364 130.585  12.244  1.00  0.00     0.083 A 
ATOM     26  H   UNL     1      49.175 128.743  12.995  1.00  0.00     0.166 HD
ENDBRANCH  13  17
ENDBRANCH   1   6
TORSDOF 4
ENDMDL
MODEL 5
REMARK VINA RESULT:      -5.0      0.925      1.249
REMARK SMILES C/C=C/C(=O)N1Cc2[nH+]cc(-c3ccc4[nH]ccc4c3)cc2C1=O
REMARK SMILES IDX 4 1 5 2 3 3 2 4 1 5 6 6 23 7 7 8 22 9 8 10 21 11 9 12 11 13
REMARK SMILES IDX 10 14 24 15 12 17 13 18 20 19 14 20 19 21 15 22 18 23 16 24
REMARK SMILES IDX 17 25
REMARK H PARENT 9 16 16 26
ROOT
ATOM      1  C   UNL     1      43.950 131.149  23.196  1.00  0.00     0.253 C 
ATOM      2  O   UNL     1      44.668 131.892  23.918  1.00  0.00    -0.269 OA
ENDROOT
BRANCH   1   3
ATOM      3  C   UNL     1      43.067 130.145  23.829  1.00  0.00     0.067 C 
BRANCH   3   4
ATOM      4  C   UNL     1      41.854 130.457  24.294  1.00  0.00    -0.025 C 
ATOM      5  C   UNL     1      41.457 131.883  24.509  1.00  0.00     0.036 C 
ENDBRANCH   3   4
ENDBRANCH   1   3
BRANCH   1   6
ATOM      6  N   UNL     1      44.036 131.268  21.766  1.00  0.00    -0.264 N 
ATOM      7  C   UNL     1      45.109 130.847  20.919  1.00  0.00     0.267 C 
ATOM      8  C   UNL     1      42.951 131.778  20.917  1.00  0.00     0.238 C 
ATOM      9  C   UNL     1      44.769 131.108  19.543  1.00  0.00     0.110 A 
ATOM     10  C   UNL     1      43.511 131.653  19.532  1.00  0.00     0.212 A 
ATOM     11  C   UNL     1      45.470 130.881  18.366  1.00  0.00     0.035 A 
ATOM     12  N   UNL     1      42.903 131.994  18.368  1.00  0.00    -0.212 N 
ATOM     13  C   UNL     1      44.851 131.233  17.146  1.00  0.00     0.046 A 
ATOM     14  C   UNL     1      43.549 131.796  17.180  1.00  0.00     0.315 A 
ATOM     15  O   UNL     1      46.157 130.271  21.312  1.00  0.00    -0.268 OA
ATOM     16  H   UNL     1      41.944 132.407  18.379  1.00  0.00     0.453 HD
BRANCH  13  17
ATOM     17  C   UNL     1      45.550 131.014  15.855  1.00  0.00    -0.012 A 
ATOM     18  C   UNL     1      45.030 131.570  14.653  1.00  0.00     0.011 A 
ATOM     19  C   UNL     1      46.740 130.250  15.807  1.00  0.00     0.019 A 
ATOM     20  C   UNL     1      45.685 131.369  13.424  1.00  0.00     0.027 A 
ATOM     21  C   UNL     1      47.359 130.073  14.572  1.00  0.00    -0.000 A 
ATOM     22  C   UNL     1      46.852 130.611  13.423  1.00  0.00     0.045 A 
ATOM     23  C   UNL     1      48.510 129.393  14.236  1.00  0.00     0.028 A 
ATOM     24  N   UNL     1      47.625 130.304  12.369  1.00  0.00    -0.361 N 
ATOM     25  C   UNL     1      48.641 129.559  12.861  1.00  0.00     0.083 A 
ATOM     26  H   UNL     1      47.478 130.583  11.373  1.00  0.00     0.166 HD
ENDBRANCH  13  17
ENDBRANCH   1   6
TORSDOF 4
ENDMDL


