REMARK SMILES CC(C)C[C@H](C)OC(=O)n1nc(-c2ccc3[nH]ccc3c2)cc(NN)c1=O
REMARK SMILES IDX 7 1 5 2 6 3 4 4 2 5 1 6 3 7 8 8 9 9 10 10 11 11 26 12 12 13
REMARK SMILES IDX 23 14 22 15 27 16 13 17 14 18 21 19 15 20 20 21 16 22 19 23
REMARK SMILES IDX 17 24 18 25 24 27 25 29
REMARK H PARENT 17 26 24 28 25 30 25 31
ROOT
ATOM      1  O   UNL     1       0.828   0.300  -3.106  1.00  0.00    -0.445 OA
ENDROOT
BRANCH   1   2
ATOM      2  C   UNL     1       0.683   0.341  -4.525  1.00  0.00     0.175 C 
ATOM      3  C   UNL     1       0.938  -1.055  -5.105  1.00  0.00     0.053 C 
BRANCH   2   4
ATOM      4  C   UNL     1      -0.741   0.812  -4.892  1.00  0.00     0.048 C 
BRANCH   4   5
ATOM      5  C   UNL     1      -1.085   2.274  -4.509  1.00  0.00    -0.014 C 
ATOM      6  C   UNL     1      -0.144   3.297  -5.159  1.00  0.00     0.007 C 
ATOM      7  C   UNL     1      -1.172   2.494  -2.992  1.00  0.00     0.007 C 
ENDBRANCH   4   5
ENDBRANCH   2   4
ENDBRANCH   1   2
BRANCH   1   8
ATOM      8  C   UNL     1       2.065   0.260  -2.449  1.00  0.00     0.438 C 
ATOM      9  O   UNL     1       3.135   0.271  -3.120  1.00  0.00    -0.222 OA
BRANCH   8  10
ATOM     10  N   UNL     1       2.094   0.232  -1.008  1.00  0.00    -0.124 N 
ATOM     11  N   UNL     1       0.932   0.411  -0.374  1.00  0.00    -0.159 NA
ATOM     12  C   UNL     1       3.248   0.030  -0.290  1.00  0.00     0.301 A 
ATOM     13  C   UNL     1       0.820   0.406   0.980  1.00  0.00     0.094 A 
ATOM     14  C   UNL     1       3.207   0.023   1.115  1.00  0.00     0.119 A 
ATOM     15  C   UNL     1       1.973   0.218   1.749  1.00  0.00     0.064 A 
ATOM     16  O   UNL     1       4.348  -0.156  -0.879  1.00  0.00    -0.265 OA
BRANCH  13  17
ATOM     17  C   UNL     1      -0.510   0.622   1.600  1.00  0.00     0.003 A 
ATOM     18  C   UNL     1      -1.479   1.414   0.926  1.00  0.00     0.012 A 
ATOM     19  C   UNL     1      -0.843   0.031   2.844  1.00  0.00     0.020 A 
ATOM     20  C   UNL     1      -2.753   1.627   1.482  1.00  0.00     0.027 A 
ATOM     21  C   UNL     1      -2.114   0.264   3.364  1.00  0.00     0.000 A 
ATOM     22  C   UNL     1      -3.035   1.034   2.709  1.00  0.00     0.045 A 
ATOM     23  C   UNL     1      -2.701  -0.179   4.529  1.00  0.00     0.028 A 
ATOM     24  N   UNL     1      -4.182   1.103   3.405  1.00  0.00    -0.361 N 
ATOM     25  C   UNL     1      -3.982   0.363   4.519  1.00  0.00     0.083 A 
ATOM     26  H   UNL     1      -5.051   1.619   3.142  1.00  0.00     0.166 HD
ENDBRANCH  13  17
BRANCH  14  27
ATOM     27  N   UNL     1       4.416  -0.178   1.878  1.00  0.00    -0.319 N 
ATOM     28  H   UNL     1       5.324  -0.318   1.382  1.00  0.00     0.181 HD
BRANCH  27  29
ATOM     29  N   UNL     1       4.439  -0.204   3.283  1.00  0.00    -0.250 NA
ATOM     30  H   UNL     1       3.797  -0.965   3.603  1.00  0.00     0.143 HD
ATOM     31  H   UNL     1       4.078   0.713   3.629  1.00  0.00     0.143 HD
ENDBRANCH  27  29
ENDBRANCH  14  27
ENDBRANCH   8  10
ENDBRANCH   1   8
TORSDOF 8


