MODEL 1
REMARK VINA RESULT:      -7.8      0.000      0.000
REMARK SMILES C=Cc1cc([C@@H]2O[C@H]2c2ccccc2)c(N)c([O-])c1[NH2+]c1ccc(C)c(F)c1
REMARK SMILES IDX 3 1 4 2 5 3 15 4 17 5 18 6 19 7 2 8 1 9 20 10 21 13 22 14
REMARK SMILES IDX 28 15 23 16 26 17 24 18 27 19 25 20 6 21 7 22 8 23 9 24
REMARK SMILES IDX 10 25 14 26 11 27 13 28 12 29 16 30
REMARK H PARENT 20 11 20 12 16 31 16 32
ROOT
ATOM      1  C   UNL     1      44.995 128.439  22.547  1.00  0.00     0.035 A 
ATOM      2  C   UNL     1      45.473 129.008  21.355  1.00  0.00     0.023 A 
ATOM      3  C   UNL     1      45.046 130.271  20.928  1.00  0.00     0.007 A 
ATOM      4  C   UNL     1      44.150 131.011  21.727  1.00  0.00     0.035 A 
ATOM      5  C   UNL     1      43.651 130.446  22.914  1.00  0.00    -0.020 A 
ATOM      6  O   UNL     1      42.735 131.168  23.676  1.00  0.00    -0.867 OA
ATOM      7  C   UNL     1      44.068 129.162  23.342  1.00  0.00     0.136 A 
ENDROOT
BRANCH   1   8
ATOM      8  C   UNL     1      45.504 127.109  22.966  1.00  0.00     0.006 C 
ATOM      9  C   UNL     1      46.339 126.393  22.213  1.00  0.00     0.009 C 
ENDBRANCH   1   8
BRANCH   7  10
ATOM     10  N   UNL     1      43.511 128.587  24.553  1.00  0.00    -0.281 N 
ATOM     11  H   UNL     1      44.274 128.139  25.112  1.00  0.00     0.358 HD
ATOM     12  H   UNL     1      43.111 129.322  25.179  1.00  0.00     0.358 HD
BRANCH  10  13
ATOM     13  C   UNL     1      42.466 127.642  24.236  1.00  0.00     0.137 A 
ATOM     14  C   UNL     1      41.206 128.086  23.801  1.00  0.00     0.068 A 
ATOM     15  C   UNL     1      42.694 126.259  24.354  1.00  0.00     0.107 A 
ATOM     16  C   UNL     1      40.191 127.172  23.514  1.00  0.00     0.012 A 
ATOM     17  C   UNL     1      41.679 125.342  24.066  1.00  0.00     0.132 A 
ATOM     18  C   UNL     1      40.421 125.794  23.639  1.00  0.00    -0.015 A 
ATOM     19  F   UNL     1      41.922 124.017  24.205  1.00  0.00    -0.206 F 
ATOM     20  C   UNL     1      39.319 124.814  23.360  1.00  0.00     0.047 C 
ENDBRANCH  10  13
ENDBRANCH   7  10
BRANCH   3  21
ATOM     21  C   UNL     1      45.624 130.830  19.656  1.00  0.00     0.185 C 
ATOM     22  O   UNL     1      44.936 131.981  19.220  1.00  0.00    -0.359 OA
ATOM     23  C   UNL     1      44.725 130.807  18.471  1.00  0.00     0.183 C 
BRANCH  23  24
ATOM     24  C   UNL     1      45.422 130.847  17.144  1.00  0.00    -0.016 A 
ATOM     25  C   UNL     1      45.493 132.054  16.434  1.00  0.00     0.006 A 
ATOM     26  C   UNL     1      46.048 129.701  16.626  1.00  0.00     0.006 A 
ATOM     27  C   UNL     1      46.161 132.110  15.207  1.00  0.00     0.000 A 
ATOM     28  C   UNL     1      46.720 129.761  15.401  1.00  0.00     0.000 A 
ATOM     29  C   UNL     1      46.774 130.963  14.690  1.00  0.00     0.000 A 
ENDBRANCH  23  24
ENDBRANCH   3  21
BRANCH   4  30
ATOM     30  N   UNL     1      43.759 132.339  21.355  1.00  0.00    -0.399 N 
ATOM     31  H   UNL     1      44.384 133.158  21.536  1.00  0.00     0.156 HD
ATOM     32  H   UNL     1      42.892 132.530  20.809  1.00  0.00     0.156 HD
ENDBRANCH   4  30
TORSDOF 6
ENDMDL
MODEL 2
REMARK VINA RESULT:      -6.4      1.938      3.219
REMARK SMILES C=Cc1cc([C@@H]2O[C@H]2c2ccccc2)c(N)c([O-])c1[NH2+]c1ccc(C)c(F)c1
REMARK SMILES IDX 3 1 4 2 5 3 15 4 17 5 18 6 19 7 2 8 1 9 20 10 21 13 22 14
REMARK SMILES IDX 28 15 23 16 26 17 24 18 27 19 25 20 6 21 7 22 8 23 9 24
REMARK SMILES IDX 10 25 14 26 11 27 13 28 12 29 16 30
REMARK H PARENT 20 11 20 12 16 31 16 32
ROOT
ATOM      1  C   UNL     1      42.917 131.830  21.595  1.00  0.00     0.035 A 
ATOM      2  C   UNL     1      43.411 132.062  20.301  1.00  0.00     0.023 A 
ATOM      3  C   UNL     1      44.527 131.373  19.812  1.00  0.00     0.007 A 
ATOM      4  C   UNL     1      45.146 130.392  20.614  1.00  0.00     0.035 A 
ATOM      5  C   UNL     1      44.672 130.161  21.917  1.00  0.00    -0.020 A 
ATOM      6  O   UNL     1      45.316 129.218  22.716  1.00  0.00    -0.867 OA
ATOM      7  C   UNL     1      43.553 130.867  22.422  1.00  0.00     0.136 A 
ENDROOT
BRANCH   1   8
ATOM      8  C   UNL     1      41.713 132.569  22.052  1.00  0.00     0.006 C 
ATOM      9  C   UNL     1      40.989 133.331  21.233  1.00  0.00     0.009 C 
ENDBRANCH   1   8
BRANCH   7  10
ATOM     10  N   UNL     1      43.105 130.635  23.783  1.00  0.00    -0.281 N 
ATOM     11  H   UNL     1      43.898 130.796  24.446  1.00  0.00     0.358 HD
ATOM     12  H   UNL     1      42.370 131.322  24.068  1.00  0.00     0.358 HD
BRANCH  10  13
ATOM     13  C   UNL     1      42.562 129.305  23.924  1.00  0.00     0.137 A 
ATOM     14  C   UNL     1      43.327 128.277  24.500  1.00  0.00     0.068 A 
ATOM     15  C   UNL     1      41.256 129.016  23.490  1.00  0.00     0.107 A 
ATOM     16  C   UNL     1      42.809 126.986  24.619  1.00  0.00     0.012 A 
ATOM     17  C   UNL     1      40.735 127.725  23.609  1.00  0.00     0.132 A 
ATOM     18  C   UNL     1      41.507 126.701  24.178  1.00  0.00    -0.015 A 
ATOM     19  F   UNL     1      39.479 127.472  23.166  1.00  0.00    -0.206 F 
ATOM     20  C   UNL     1      40.963 125.307  24.277  1.00  0.00     0.047 C 
ENDBRANCH  10  13
ENDBRANCH   7  10
BRANCH   3  21
ATOM     21  C   UNL     1      44.981 131.653  18.406  1.00  0.00     0.185 C 
ATOM     22  O   UNL     1      43.908 132.008  17.562  1.00  0.00    -0.359 OA
ATOM     23  C   UNL     1      44.462 130.728  17.362  1.00  0.00     0.183 C 
BRANCH  23  24
ATOM     24  C   UNL     1      45.285 130.657  16.111  1.00  0.00    -0.016 A 
ATOM     25  C   UNL     1      46.482 129.926  16.108  1.00  0.00     0.006 A 
ATOM     26  C   UNL     1      44.847 131.271  14.926  1.00  0.00     0.006 A 
ATOM     27  C   UNL     1      47.247 129.832  14.941  1.00  0.00     0.000 A 
ATOM     28  C   UNL     1      45.610 131.171  13.758  1.00  0.00     0.000 A 
ATOM     29  C   UNL     1      46.810 130.455  13.766  1.00  0.00     0.000 A 
ENDBRANCH  23  24
ENDBRANCH   3  21
BRANCH   4  30
ATOM     30  N   UNL     1      46.239 129.613  20.109  1.00  0.00    -0.399 N 
ATOM     31  H   UNL     1      47.214 129.756  20.461  1.00  0.00     0.156 HD
ATOM     32  H   UNL     1      46.096 128.817  19.451  1.00  0.00     0.156 HD
ENDBRANCH   4  30
TORSDOF 6
ENDMDL
MODEL 3
REMARK VINA RESULT:      -6.2      2.190      3.664
REMARK SMILES C=Cc1cc([C@@H]2O[C@H]2c2ccccc2)c(N)c([O-])c1[NH2+]c1ccc(C)c(F)c1
REMARK SMILES IDX 3 1 4 2 5 3 15 4 17 5 18 6 19 7 2 8 1 9 20 10 21 13 22 14
REMARK SMILES IDX 28 15 23 16 26 17 24 18 27 19 25 20 6 21 7 22 8 23 9 24
REMARK SMILES IDX 10 25 14 26 11 27 13 28 12 29 16 30
REMARK H PARENT 20 11 20 12 16 31 16 32
ROOT
ATOM      1  C   UNL     1      45.338 131.903  20.618  1.00  0.00     0.035 A 
ATOM      2  C   UNL     1      45.661 131.801  19.255  1.00  0.00     0.023 A 
ATOM      3  C   UNL     1      44.666 131.758  18.271  1.00  0.00     0.007 A 
ATOM      4  C   UNL     1      43.310 131.861  18.646  1.00  0.00     0.035 A 
ATOM      5  C   UNL     1      42.973 131.947  20.009  1.00  0.00    -0.020 A 
ATOM      6  O   UNL     1      41.628 132.008  20.371  1.00  0.00    -0.867 OA
ATOM      7  C   UNL     1      43.975 131.975  21.009  1.00  0.00     0.136 A 
ENDROOT
BRANCH   1   8
ATOM      8  C   UNL     1      46.434 131.973  21.617  1.00  0.00     0.006 C 
ATOM      9  C   UNL     1      46.523 132.956  22.512  1.00  0.00     0.009 C 
ENDBRANCH   1   8
BRANCH   7  10
ATOM     10  N   UNL     1      43.599 132.028  22.409  1.00  0.00    -0.281 N 
ATOM     11  H   UNL     1      44.322 132.558  22.947  1.00  0.00     0.358 HD
ATOM     12  H   UNL     1      42.711 132.561  22.548  1.00  0.00     0.358 HD
BRANCH  10  13
ATOM     13  C   UNL     1      43.418 130.698  22.941  1.00  0.00     0.137 A 
ATOM     14  C   UNL     1      44.450 129.748  22.863  1.00  0.00     0.068 A 
ATOM     15  C   UNL     1      42.205 130.332  23.552  1.00  0.00     0.107 A 
ATOM     16  C   UNL     1      44.268 128.457  23.361  1.00  0.00     0.012 A 
ATOM     17  C   UNL     1      42.021 129.039  24.052  1.00  0.00     0.132 A 
ATOM     18  C   UNL     1      43.054 128.094  23.963  1.00  0.00    -0.015 A 
ATOM     19  F   UNL     1      40.835 128.710  24.620  1.00  0.00    -0.206 F 
ATOM     20  C   UNL     1      42.848 126.697  24.469  1.00  0.00     0.047 C 
ENDBRANCH  10  13
ENDBRANCH   7  10
BRANCH   3  21
ATOM     21  C   UNL     1      45.088 131.679  16.830  1.00  0.00     0.185 C 
ATOM     22  O   UNL     1      44.228 130.861  16.068  1.00  0.00    -0.359 OA
ATOM     23  C   UNL     1      45.503 130.333  16.350  1.00  0.00     0.183 C 
BRANCH  23  24
ATOM     24  C   UNL     1      46.397 130.336  15.145  1.00  0.00    -0.016 A 
ATOM     25  C   UNL     1      46.070 131.134  14.040  1.00  0.00     0.006 A 
ATOM     26  C   UNL     1      47.586 129.587  15.131  1.00  0.00     0.006 A 
ATOM     27  C   UNL     1      46.907 131.163  12.921  1.00  0.00     0.000 A 
ATOM     28  C   UNL     1      48.425 129.622  14.013  1.00  0.00     0.000 A 
ATOM     29  C   UNL     1      48.085 130.407  12.908  1.00  0.00     0.000 A 
ENDBRANCH  23  24
ENDBRANCH   3  21
BRANCH   4  30
ATOM     30  N   UNL     1      42.275 131.902  17.655  1.00  0.00    -0.399 N 
ATOM     31  H   UNL     1      41.374 131.390  17.793  1.00  0.00     0.156 HD
ATOM     32  H   UNL     1      42.337 132.513  16.813  1.00  0.00     0.156 HD
ENDBRANCH   4  30
TORSDOF 6
ENDMDL
MODEL 4
REMARK VINA RESULT:      -5.2      2.017      3.664
REMARK SMILES C=Cc1cc([C@@H]2O[C@H]2c2ccccc2)c(N)c([O-])c1[NH2+]c1ccc(C)c(F)c1
REMARK SMILES IDX 3 1 4 2 5 3 15 4 17 5 18 6 19 7 2 8 1 9 20 10 21 13 22 14
REMARK SMILES IDX 28 15 23 16 26 17 24 18 27 19 25 20 6 21 7 22 8 23 9 24
REMARK SMILES IDX 10 25 14 26 11 27 13 28 12 29 16 30
REMARK H PARENT 20 11 20 12 16 31 16 32
ROOT
ATOM      1  C   UNL     1      42.585 131.963  20.302  1.00  0.00     0.035 A 
ATOM      2  C   UNL     1      43.238 132.079  19.064  1.00  0.00     0.023 A 
ATOM      3  C   UNL     1      44.584 131.723  18.914  1.00  0.00     0.007 A 
ATOM      4  C   UNL     1      45.292 131.195  20.014  1.00  0.00     0.035 A 
ATOM      5  C   UNL     1      44.654 131.090  21.263  1.00  0.00    -0.020 A 
ATOM      6  O   UNL     1      45.375 130.606  22.353  1.00  0.00    -0.867 OA
ATOM      7  C   UNL     1      43.298 131.464  21.423  1.00  0.00     0.136 A 
ENDROOT
BRANCH   1   8
ATOM      8  C   UNL     1      41.149 132.328  20.397  1.00  0.00     0.006 C 
ATOM      9  C   UNL     1      40.744 133.555  20.724  1.00  0.00     0.009 C 
ENDBRANCH   1   8
BRANCH   7  10
ATOM     10  N   UNL     1      42.674 131.378  22.730  1.00  0.00    -0.281 N 
ATOM     11  H   UNL     1      43.224 131.940  23.420  1.00  0.00     0.358 HD
ATOM     12  H   UNL     1      41.720 131.807  22.730  1.00  0.00     0.358 HD
BRANCH  10  13
ATOM     13  C   UNL     1      42.552 130.002  23.151  1.00  0.00     0.137 A 
ATOM     14  C   UNL     1      43.633 129.114  23.017  1.00  0.00     0.068 A 
ATOM     15  C   UNL     1      41.350 129.528  23.706  1.00  0.00     0.107 A 
ATOM     16  C   UNL     1      43.509 127.780  23.407  1.00  0.00     0.012 A 
ATOM     17  C   UNL     1      41.224 128.192  24.097  1.00  0.00     0.132 A 
ATOM     18  C   UNL     1      42.306 127.310  23.954  1.00  0.00    -0.015 A 
ATOM     19  F   UNL     1      40.049 127.759  24.613  1.00  0.00    -0.206 F 
ATOM     20  C   UNL     1      42.164 125.867  24.342  1.00  0.00     0.047 C 
ENDBRANCH  10  13
ENDBRANCH   7  10
BRANCH   3  21
ATOM     21  C   UNL     1      45.208 131.845  17.551  1.00  0.00     0.185 C 
ATOM     22  O   UNL     1      44.241 131.993  16.535  1.00  0.00    -0.359 OA
ATOM     23  C   UNL     1      44.897 130.748  16.596  1.00  0.00     0.183 C 
BRANCH  23  24
ATOM     24  C   UNL     1      45.888 130.574  15.483  1.00  0.00    -0.016 A 
ATOM     25  C   UNL     1      46.943 129.663  15.630  1.00  0.00     0.006 A 
ATOM     26  C   UNL     1      45.743 131.277  14.276  1.00  0.00     0.006 A 
ATOM     27  C   UNL     1      47.859 129.475  14.590  1.00  0.00     0.000 A 
ATOM     28  C   UNL     1      46.657 131.083  13.235  1.00  0.00     0.000 A 
ATOM     29  C   UNL     1      47.716 130.185  13.393  1.00  0.00     0.000 A 
ENDBRANCH  23  24
ENDBRANCH   3  21
BRANCH   4  30
ATOM     30  N   UNL     1      46.646 130.747  19.869  1.00  0.00    -0.399 N 
ATOM     31  H   UNL     1      46.955 129.825  20.253  1.00  0.00     0.156 HD
ATOM     32  H   UNL     1      47.345 131.269  19.297  1.00  0.00     0.156 HD
ENDBRANCH   4  30
TORSDOF 6
ENDMDL


