REMARK SMILES C=Cc1cc([C@@H]2O[C@H]2c2ccccc2)c(N)c([O-])c1Nc1ccc(C)c(F)c1
REMARK SMILES IDX 3 1 4 2 5 3 15 4 17 5 18 6 19 7 2 8 1 9 20 10 21 12 22 13
REMARK SMILES IDX 28 14 23 15 26 16 24 17 27 18 25 19 6 20 7 21 8 22 9 23
REMARK SMILES IDX 10 24 14 25 11 26 13 27 12 28 16 29
REMARK H PARENT 20 11 16 30 16 31
ROOT
ATOM      1  C   UNL     1       0.472   0.318  -0.100  1.00  0.00    -0.003 A 
ATOM      2  C   UNL     1      -0.085  -0.751   0.621  1.00  0.00     0.019 A 
ATOM      3  C   UNL     1       0.443  -2.046   0.522  1.00  0.00     0.007 A 
ATOM      4  C   UNL     1       1.596  -2.272  -0.261  1.00  0.00     0.032 A 
ATOM      5  C   UNL     1       2.156  -1.206  -0.987  1.00  0.00    -0.060 A 
ATOM      6  O   UNL     1       3.279  -1.420  -1.781  1.00  0.00    -0.870 OA
ATOM      7  C   UNL     1       1.591   0.078  -0.929  1.00  0.00     0.040 A 
ENDROOT
BRANCH   1   8
ATOM      8  C   UNL     1      -0.059   1.695   0.062  1.00  0.00     0.002 C 
ATOM      9  C   UNL     1      -1.343   1.961   0.301  1.00  0.00     0.009 C 
ENDBRANCH   1   8
BRANCH   7  10
ATOM     10  N   UNL     1       2.183   1.132  -1.707  1.00  0.00    -0.355 N 
ATOM     11  H   UNL     1       3.211   1.291  -1.605  1.00  0.00     0.167 HD
BRANCH  10  12
ATOM     12  C   UNL     1       1.467   1.894  -2.697  1.00  0.00     0.041 A 
ATOM     13  C   UNL     1       2.027   3.083  -3.187  1.00  0.00     0.026 A 
ATOM     14  C   UNL     1       0.229   1.460  -3.207  1.00  0.00     0.065 A 
ATOM     15  C   UNL     1       1.353   3.841  -4.148  1.00  0.00     0.008 A 
ATOM     16  C   UNL     1      -0.447   2.219  -4.167  1.00  0.00     0.128 A 
ATOM     17  C   UNL     1       0.106   3.421  -4.636  1.00  0.00    -0.015 A 
ATOM     18  F   UNL     1      -1.639   1.778  -4.644  1.00  0.00    -0.207 F 
ATOM     19  C   UNL     1      -0.613   4.226  -5.680  1.00  0.00     0.047 C 
ENDBRANCH  10  12
ENDBRANCH   7  10
BRANCH   3  20
ATOM     20  C   UNL     1      -0.199  -3.151   1.317  1.00  0.00     0.185 C 
ATOM     21  O   UNL     1      -0.678  -4.182   0.484  1.00  0.00    -0.359 OA
ATOM     22  C   UNL     1      -1.652  -3.361   1.084  1.00  0.00     0.183 C 
BRANCH  22  23
ATOM     23  C   UNL     1      -2.388  -4.081   2.175  1.00  0.00    -0.016 A 
ATOM     24  C   UNL     1      -2.524  -3.487   3.439  1.00  0.00     0.006 A 
ATOM     25  C   UNL     1      -3.001  -5.317   1.921  1.00  0.00     0.006 A 
ATOM     26  C   UNL     1      -3.241  -4.138   4.448  1.00  0.00     0.000 A 
ATOM     27  C   UNL     1      -3.718  -5.966   2.932  1.00  0.00     0.000 A 
ATOM     28  C   UNL     1      -3.836  -5.378   4.195  1.00  0.00     0.000 A 
ENDBRANCH  22  23
ENDBRANCH   3  20
BRANCH   4  29
ATOM     29  N   UNL     1       2.213  -3.568  -0.315  1.00  0.00    -0.399 N 
ATOM     30  H   UNL     1       1.892  -4.358   0.286  1.00  0.00     0.156 HD
ATOM     31  H   UNL     1       3.036  -3.750  -0.931  1.00  0.00     0.156 HD
ENDBRANCH   4  29
TORSDOF 6


