REMARK SMILES C=Cc1cc(-c2ccc3cc[nH]c3c2)cc(O)c1F
REMARK SMILES IDX 3 1 4 2 5 3 15 4 16 5 18 6 19 7 2 8 1 9 6 10 7 11 14 12 8 13
REMARK SMILES IDX 13 14 9 15 12 16 10 17 11 18 17 20
REMARK H PARENT 12 19 17 21
ROOT
ATOM      1  C   UNL     1      -1.335   1.674   1.918  1.00  0.00     0.014 A 
ATOM      2  C   UNL     1      -0.624   0.922   0.961  1.00  0.00     0.020 A 
ATOM      3  C   UNL     1      -1.087  -0.340   0.546  1.00  0.00    -0.014 A 
ATOM      4  C   UNL     1      -2.268  -0.852   1.107  1.00  0.00     0.058 A 
ATOM      5  C   UNL     1      -2.973  -0.121   2.069  1.00  0.00     0.152 A 
ATOM      6  C   UNL     1      -2.506   1.132   2.477  1.00  0.00     0.172 A 
ATOM      7  F   UNL     1      -3.209   1.827   3.409  1.00  0.00    -0.202 F 
ENDROOT
BRANCH   1   8
ATOM      8  C   UNL     1      -0.861   3.002   2.382  1.00  0.00     0.003 C 
ATOM      9  C   UNL     1      -0.053   3.792   1.673  1.00  0.00     0.009 C 
ENDBRANCH   1   8
BRANCH   3  10
ATOM     10  C   UNL     1      -0.333  -1.123  -0.466  1.00  0.00    -0.016 A 
ATOM     11  C   UNL     1      -0.171  -2.527  -0.316  1.00  0.00     0.009 A 
ATOM     12  C   UNL     1       0.232  -0.476  -1.592  1.00  0.00     0.035 A 
ATOM     13  C   UNL     1       0.540  -3.278  -1.269  1.00  0.00     0.011 A 
ATOM     14  C   UNL     1       0.930  -1.251  -2.516  1.00  0.00     0.046 A 
ATOM     15  C   UNL     1       1.078  -2.601  -2.359  1.00  0.00    -0.001 A 
ATOM     16  N   UNL     1       1.532  -0.833  -3.642  1.00  0.00    -0.361 N 
ATOM     17  C   UNL     1       1.808  -3.065  -3.432  1.00  0.00     0.028 A 
ATOM     18  C   UNL     1       2.070  -1.938  -4.205  1.00  0.00     0.083 A 
ATOM     19  H   UNL     1       1.577   0.143  -4.010  1.00  0.00     0.166 HD
ENDBRANCH   3  10
BRANCH   5  20
ATOM     20  O   UNL     1      -4.144  -0.633   2.626  1.00  0.00    -0.505 OA
ATOM     21  H   UNL     1      -4.510  -1.538   2.353  1.00  0.00     0.293 HD
ENDBRANCH   5  20
TORSDOF 3


