MODEL 1
REMARK VINA RESULT:      -9.8      0.000      0.000
REMARK SMILES Cc1ccc(-c2ccc(N)c(C=O)c2)cc1
REMARK SMILES IDX 6 1 7 2 8 3 9 4 11 5 14 6 5 7 2 8 3 9 16 10 4 11 15 12 1 13
REMARK SMILES IDX 12 14 13 15 10 16
REMARK H PARENT 10 17 10 18
ROOT
ATOM      1  C   UNL     1      45.032 131.203  18.257  1.00  0.00    -0.018 A 
ATOM      2  C   UNL     1      45.704 130.794  19.419  1.00  0.00     0.011 A 
ATOM      3  C   UNL     1      45.097 130.918  20.669  1.00  0.00     0.027 A 
ATOM      4  C   UNL     1      43.808 131.457  20.791  1.00  0.00     0.042 A 
ATOM      5  C   UNL     1      43.133 131.915  19.630  1.00  0.00     0.038 A 
ATOM      6  C   UNL     1      43.747 131.760  18.375  1.00  0.00     0.022 A 
ENDROOT
BRANCH   1   7
ATOM      7  C   UNL     1      45.675 131.059  16.927  1.00  0.00    -0.018 A 
ATOM      8  C   UNL     1      46.882 130.781  14.393  1.00  0.00    -0.051 A 
ATOM      9  C   UNL     1      46.847 129.697  15.282  1.00  0.00     0.004 A 
ATOM     10  C   UNL     1      46.334 132.011  14.784  1.00  0.00     0.004 A 
ATOM     11  C   UNL     1      46.243 129.832  16.536  1.00  0.00     0.009 A 
ATOM     12  C   UNL     1      45.729 132.147  16.038  1.00  0.00     0.009 A 
ATOM     13  C   UNL     1      47.567 130.646  13.065  1.00  0.00     0.044 C 
ENDBRANCH   1   7
BRANCH   5  14
ATOM     14  C   UNL     1      41.815 132.585  19.668  1.00  0.00     0.262 C 
ATOM     15  O   UNL     1      41.461 133.296  20.645  1.00  0.00    -0.298 OA
ENDBRANCH   5  14
BRANCH   4  16
ATOM     16  N   UNL     1      43.193 131.472  22.087  1.00  0.00    -0.398 N 
ATOM     17  H   UNL     1      42.297 130.961  22.250  1.00  0.00     0.156 HD
ATOM     18  H   UNL     1      43.519 132.108  22.846  1.00  0.00     0.156 HD
ENDBRANCH   4  16
TORSDOF 3
ENDMDL
MODEL 2
REMARK VINA RESULT:      -9.8      0.040      1.212
REMARK SMILES Cc1ccc(-c2ccc(N)c(C=O)c2)cc1
REMARK SMILES IDX 6 1 7 2 8 3 9 4 11 5 14 6 5 7 2 8 3 9 16 10 4 11 15 12 1 13
REMARK SMILES IDX 12 14 13 15 10 16
REMARK H PARENT 10 17 10 18
ROOT
ATOM      1  C   UNL     1      45.011 131.213  18.279  1.00  0.00    -0.018 A 
ATOM      2  C   UNL     1      45.672 130.794  19.443  1.00  0.00     0.011 A 
ATOM      3  C   UNL     1      45.058 130.916  20.689  1.00  0.00     0.027 A 
ATOM      4  C   UNL     1      43.771 131.460  20.805  1.00  0.00     0.042 A 
ATOM      5  C   UNL     1      43.106 131.928  19.642  1.00  0.00     0.038 A 
ATOM      6  C   UNL     1      43.728 131.776  18.390  1.00  0.00     0.022 A 
ENDROOT
BRANCH   1   7
ATOM      7  C   UNL     1      45.662 131.072  16.951  1.00  0.00    -0.018 A 
ATOM      8  C   UNL     1      46.911 130.807  14.437  1.00  0.00    -0.051 A 
ATOM      9  C   UNL     1      46.306 132.018  14.801  1.00  0.00     0.004 A 
ATOM     10  C   UNL     1      46.869 129.721  15.324  1.00  0.00     0.004 A 
ATOM     11  C   UNL     1      45.692 132.152  16.051  1.00  0.00     0.009 A 
ATOM     12  C   UNL     1      46.255 129.855  16.573  1.00  0.00     0.009 A 
ATOM     13  C   UNL     1      47.534 130.652  13.081  1.00  0.00     0.044 C 
ENDBRANCH   1   7
BRANCH   5  14
ATOM     14  C   UNL     1      41.791 132.604  19.674  1.00  0.00     0.262 C 
ATOM     15  O   UNL     1      41.440 133.325  20.645  1.00  0.00    -0.298 OA
ENDBRANCH   5  14
BRANCH   4  16
ATOM     16  N   UNL     1      43.148 131.472  22.097  1.00  0.00    -0.398 N 
ATOM     17  H   UNL     1      43.522 132.084  22.856  1.00  0.00     0.156 HD
ATOM     18  H   UNL     1      42.424 130.773  22.370  1.00  0.00     0.156 HD
ENDBRANCH   4  16
TORSDOF 3
ENDMDL
MODEL 3
REMARK VINA RESULT:      -9.7      1.301      2.017
REMARK SMILES Cc1ccc(-c2ccc(N)c(C=O)c2)cc1
REMARK SMILES IDX 6 1 7 2 8 3 9 4 11 5 14 6 5 7 2 8 3 9 16 10 4 11 15 12 1 13
REMARK SMILES IDX 12 14 13 15 10 16
REMARK H PARENT 10 17 10 18
ROOT
ATOM      1  C   UNL     1      44.543 131.383  17.803  1.00  0.00    -0.018 A 
ATOM      2  C   UNL     1      43.190 131.722  17.653  1.00  0.00     0.011 A 
ATOM      3  C   UNL     1      42.403 132.003  18.770  1.00  0.00     0.027 A 
ATOM      4  C   UNL     1      42.944 131.951  20.062  1.00  0.00     0.042 A 
ATOM      5  C   UNL     1      44.299 131.568  20.233  1.00  0.00     0.038 A 
ATOM      6  C   UNL     1      45.087 131.312  19.097  1.00  0.00     0.022 A 
ENDROOT
BRANCH   1   7
ATOM      7  C   UNL     1      45.383 131.096  16.613  1.00  0.00    -0.018 A 
ATOM      8  C   UNL     1      46.966 130.551  14.343  1.00  0.00    -0.051 A 
ATOM      9  C   UNL     1      46.553 129.508  15.185  1.00  0.00     0.004 A 
ATOM     10  C   UNL     1      46.605 131.870  14.653  1.00  0.00     0.004 A 
ATOM     11  C   UNL     1      45.763 129.777  16.307  1.00  0.00     0.009 A 
ATOM     12  C   UNL     1      45.814 132.140  15.775  1.00  0.00     0.009 A 
ATOM     13  C   UNL     1      47.847 130.266  13.163  1.00  0.00     0.044 C 
ENDBRANCH   1   7
BRANCH   5  14
ATOM     14  C   UNL     1      44.933 131.390  21.558  1.00  0.00     0.262 C 
ATOM     15  O   UNL     1      44.333 130.822  22.508  1.00  0.00    -0.298 OA
ENDBRANCH   5  14
BRANCH   4  16
ATOM     16  N   UNL     1      42.117 132.343  21.167  1.00  0.00    -0.398 N 
ATOM     17  H   UNL     1      41.077 132.275  21.095  1.00  0.00     0.156 HD
ATOM     18  H   UNL     1      42.500 132.849  21.993  1.00  0.00     0.156 HD
ENDBRANCH   4  16
TORSDOF 3
ENDMDL
MODEL 4
REMARK VINA RESULT:      -9.7      1.309      2.360
REMARK SMILES Cc1ccc(-c2ccc(N)c(C=O)c2)cc1
REMARK SMILES IDX 6 1 7 2 8 3 9 4 11 5 14 6 5 7 2 8 3 9 16 10 4 11 15 12 1 13
REMARK SMILES IDX 12 14 13 15 10 16
REMARK H PARENT 10 17 10 18
ROOT
ATOM      1  C   UNL     1      44.571 131.383  17.911  1.00  0.00    -0.018 A 
ATOM      2  C   UNL     1      43.226 131.754  17.764  1.00  0.00     0.011 A 
ATOM      3  C   UNL     1      42.439 132.017  18.885  1.00  0.00     0.027 A 
ATOM      4  C   UNL     1      42.972 131.916  20.178  1.00  0.00     0.042 A 
ATOM      5  C   UNL     1      44.318 131.501  20.344  1.00  0.00     0.038 A 
ATOM      6  C   UNL     1      45.107 131.262  19.204  1.00  0.00     0.022 A 
ENDROOT
BRANCH   1   7
ATOM      7  C   UNL     1      45.412 131.114  16.716  1.00  0.00    -0.018 A 
ATOM      8  C   UNL     1      47.019 130.605  14.456  1.00  0.00    -0.051 A 
ATOM      9  C   UNL     1      46.522 131.895  14.693  1.00  0.00     0.004 A 
ATOM     10  C   UNL     1      46.691 129.566  15.338  1.00  0.00     0.004 A 
ATOM     11  C   UNL     1      45.730 132.149  15.818  1.00  0.00     0.009 A 
ATOM     12  C   UNL     1      45.899 129.820  16.463  1.00  0.00     0.009 A 
ATOM     13  C   UNL     1      47.835 130.325  13.228  1.00  0.00     0.044 C 
ENDBRANCH   1   7
BRANCH   5  14
ATOM     14  C   UNL     1      44.941 131.270  21.666  1.00  0.00     0.262 C 
ATOM     15  O   UNL     1      44.380 130.569  22.548  1.00  0.00    -0.298 OA
ENDBRANCH   5  14
BRANCH   4  16
ATOM     16  N   UNL     1      42.147 132.292  21.289  1.00  0.00    -0.398 N 
ATOM     17  H   UNL     1      41.850 131.577  21.990  1.00  0.00     0.156 HD
ATOM     18  H   UNL     1      41.691 133.227  21.348  1.00  0.00     0.156 HD
ENDBRANCH   4  16
TORSDOF 3
ENDMDL
MODEL 5
REMARK VINA RESULT:      -7.7      3.688      6.576
REMARK SMILES Cc1ccc(-c2ccc(N)c(C=O)c2)cc1
REMARK SMILES IDX 6 1 7 2 8 3 9 4 11 5 14 6 5 7 2 8 3 9 16 10 4 11 15 12 1 13
REMARK SMILES IDX 12 14 13 15 10 16
REMARK H PARENT 10 17 10 18
ROOT
ATOM      1  C   UNL     1      45.624 131.155  17.148  1.00  0.00    -0.018 A 
ATOM      2  C   UNL     1      45.438 132.314  16.379  1.00  0.00     0.011 A 
ATOM      3  C   UNL     1      45.863 132.358  15.051  1.00  0.00     0.027 A 
ATOM      4  C   UNL     1      46.486 131.250  14.459  1.00  0.00     0.042 A 
ATOM      5  C   UNL     1      46.720 130.086  15.236  1.00  0.00     0.038 A 
ATOM      6  C   UNL     1      46.264 130.048  16.565  1.00  0.00     0.022 A 
ENDROOT
BRANCH   1   7
ATOM      7  C   UNL     1      45.160 131.105  18.558  1.00  0.00    -0.018 A 
ATOM      8  C   UNL     1      44.273 130.998  21.232  1.00  0.00    -0.051 A 
ATOM      9  C   UNL     1      43.525 131.687  20.267  1.00  0.00     0.004 A 
ATOM     10  C   UNL     1      45.478 130.384  20.862  1.00  0.00     0.004 A 
ATOM     11  C   UNL     1      43.961 131.735  18.939  1.00  0.00     0.009 A 
ATOM     12  C   UNL     1      45.914 130.431  19.534  1.00  0.00     0.009 A 
ATOM     13  C   UNL     1      43.825 130.982  22.664  1.00  0.00     0.044 C 
ENDBRANCH   1   7
BRANCH   5  14
ATOM     14  C   UNL     1      47.455 128.906  14.731  1.00  0.00     0.262 C 
ATOM     15  O   UNL     1      48.256 128.989  13.763  1.00  0.00    -0.298 OA
ENDBRANCH   5  14
BRANCH   4  16
ATOM     16  N   UNL     1      46.815 131.315  13.064  1.00  0.00    -0.398 N 
ATOM     17  H   UNL     1      46.294 130.730  12.373  1.00  0.00     0.156 HD
ATOM     18  H   UNL     1      47.666 131.806  12.719  1.00  0.00     0.156 HD
ENDBRANCH   4  16
TORSDOF 3
ENDMDL
MODEL 6
REMARK VINA RESULT:      -7.7      3.674      6.485
REMARK SMILES Cc1ccc(-c2ccc(N)c(C=O)c2)cc1
REMARK SMILES IDX 6 1 7 2 8 3 9 4 11 5 14 6 5 7 2 8 3 9 16 10 4 11 15 12 1 13
REMARK SMILES IDX 12 14 13 15 10 16
REMARK H PARENT 10 17 10 18
ROOT
ATOM      1  C   UNL     1      45.609 131.168  17.186  1.00  0.00    -0.018 A 
ATOM      2  C   UNL     1      45.468 132.341  16.429  1.00  0.00     0.011 A 
ATOM      3  C   UNL     1      45.905 132.386  15.105  1.00  0.00     0.027 A 
ATOM      4  C   UNL     1      46.494 131.264  14.504  1.00  0.00     0.042 A 
ATOM      5  C   UNL     1      46.683 130.085  15.270  1.00  0.00     0.038 A 
ATOM      6  C   UNL     1      46.216 130.046  16.595  1.00  0.00     0.022 A 
ENDROOT
BRANCH   1   7
ATOM      7  C   UNL     1      45.133 131.118  18.591  1.00  0.00    -0.018 A 
ATOM      8  C   UNL     1      44.235 131.036  21.263  1.00  0.00    -0.051 A 
ATOM      9  C   UNL     1      45.429 130.397  20.899  1.00  0.00     0.004 A 
ATOM     10  C   UNL     1      43.480 131.696  20.284  1.00  0.00     0.004 A 
ATOM     11  C   UNL     1      45.878 130.442  19.575  1.00  0.00     0.009 A 
ATOM     12  C   UNL     1      43.929 131.743  18.960  1.00  0.00     0.009 A 
ATOM     13  C   UNL     1      43.734 130.952  22.675  1.00  0.00     0.044 C 
ENDBRANCH   1   7
BRANCH   5  14
ATOM     14  C   UNL     1      47.381 128.886  14.756  1.00  0.00     0.262 C 
ATOM     15  O   UNL     1      48.230 128.960  13.829  1.00  0.00    -0.298 OA
ENDBRANCH   5  14
BRANCH   4  16
ATOM     16  N   UNL     1      46.836 131.334  13.113  1.00  0.00    -0.398 N 
ATOM     17  H   UNL     1      46.193 130.935  12.393  1.00  0.00     0.156 HD
ATOM     18  H   UNL     1      47.782 131.627  12.789  1.00  0.00     0.156 HD
ENDBRANCH   4  16
TORSDOF 3
ENDMDL
MODEL 7
REMARK VINA RESULT:      -7.6      3.207      6.052
REMARK SMILES Cc1ccc(-c2ccc(N)c(C=O)c2)cc1
REMARK SMILES IDX 6 1 7 2 8 3 9 4 11 5 14 6 5 7 2 8 3 9 16 10 4 11 15 12 1 13
REMARK SMILES IDX 12 14 13 15 10 16
REMARK H PARENT 10 17 10 18
ROOT
ATOM      1  C   UNL     1      44.809 131.101  17.863  1.00  0.00    -0.018 A 
ATOM      2  C   UNL     1      45.986 130.395  17.573  1.00  0.00     0.011 A 
ATOM      3  C   UNL     1      46.399 130.221  16.252  1.00  0.00     0.027 A 
ATOM      4  C   UNL     1      45.650 130.745  15.190  1.00  0.00     0.042 A 
ATOM      5  C   UNL     1      44.435 131.424  15.465  1.00  0.00     0.038 A 
ATOM      6  C   UNL     1      44.044 131.613  16.802  1.00  0.00     0.022 A 
ENDROOT
BRANCH   1   7
ATOM      7  C   UNL     1      44.376 131.296  19.270  1.00  0.00    -0.018 A 
ATOM      8  C   UNL     1      43.559 131.679  21.942  1.00  0.00    -0.051 A 
ATOM      9  C   UNL     1      44.817 131.128  21.660  1.00  0.00     0.004 A 
ATOM     10  C   UNL     1      42.701 132.015  20.885  1.00  0.00     0.004 A 
ATOM     11  C   UNL     1      45.226 130.944  20.335  1.00  0.00     0.009 A 
ATOM     12  C   UNL     1      43.109 131.831  19.560  1.00  0.00     0.009 A 
ATOM     13  C   UNL     1      43.106 131.839  23.363  1.00  0.00     0.044 C 
ENDBRANCH   1   7
BRANCH   5  14
ATOM     14  C   UNL     1      43.528 131.926  14.410  1.00  0.00     0.262 C 
ATOM     15  O   UNL     1      43.087 131.173  13.502  1.00  0.00    -0.298 OA
ENDBRANCH   5  14
BRANCH   4  16
ATOM     16  N   UNL     1      46.171 130.621  13.859  1.00  0.00    -0.398 N 
ATOM     17  H   UNL     1      45.758 129.930  13.194  1.00  0.00     0.156 HD
ATOM     18  H   UNL     1      47.058 131.083  13.567  1.00  0.00     0.156 HD
ENDBRANCH   4  16
TORSDOF 3
ENDMDL
MODEL 8
REMARK VINA RESULT:      -7.6      3.212      6.123
REMARK SMILES Cc1ccc(-c2ccc(N)c(C=O)c2)cc1
REMARK SMILES IDX 6 1 7 2 8 3 9 4 11 5 14 6 5 7 2 8 3 9 16 10 4 11 15 12 1 13
REMARK SMILES IDX 12 14 13 15 10 16
REMARK H PARENT 10 17 10 18
ROOT
ATOM      1  C   UNL     1      44.812 131.078  17.842  1.00  0.00    -0.018 A 
ATOM      2  C   UNL     1      45.990 130.375  17.546  1.00  0.00     0.011 A 
ATOM      3  C   UNL     1      46.402 130.210  16.223  1.00  0.00     0.027 A 
ATOM      4  C   UNL     1      45.650 130.739  15.165  1.00  0.00     0.042 A 
ATOM      5  C   UNL     1      44.435 131.415  15.446  1.00  0.00     0.038 A 
ATOM      6  C   UNL     1      44.044 131.595  16.784  1.00  0.00     0.022 A 
ENDROOT
BRANCH   1   7
ATOM      7  C   UNL     1      44.381 131.264  19.251  1.00  0.00    -0.018 A 
ATOM      8  C   UNL     1      43.558 131.602  21.926  1.00  0.00    -0.051 A 
ATOM      9  C   UNL     1      42.722 132.002  20.874  1.00  0.00     0.004 A 
ATOM     10  C   UNL     1      44.816 131.056  21.638  1.00  0.00     0.004 A 
ATOM     11  C   UNL     1      43.127 131.828  19.547  1.00  0.00     0.009 A 
ATOM     12  C   UNL     1      45.222 130.882  20.311  1.00  0.00     0.009 A 
ATOM     13  C   UNL     1      43.139 131.826  23.350  1.00  0.00     0.044 C 
ENDBRANCH   1   7
BRANCH   5  14
ATOM     14  C   UNL     1      43.524 131.921  14.395  1.00  0.00     0.262 C 
ATOM     15  O   UNL     1      43.082 131.172  13.485  1.00  0.00    -0.298 OA
ENDBRANCH   5  14
BRANCH   4  16
ATOM     16  N   UNL     1      46.169 130.624  13.833  1.00  0.00    -0.398 N 
ATOM     17  H   UNL     1      46.231 131.466  13.218  1.00  0.00     0.156 HD
ATOM     18  H   UNL     1      46.343 129.700  13.384  1.00  0.00     0.156 HD
ENDBRANCH   4  16
TORSDOF 3
ENDMDL


