REMARK SMILES Nc1c(/C(O)=N/Cc2ccc[nH]2)cc(-n2nc3ccccc3n2)c([O-])c1N
REMARK SMILES IDX 4 1 5 2 6 4 7 5 8 6 9 7 12 8 10 9 11 10 3 12 13 13 2 14
REMARK SMILES IDX 14 15 26 16 24 17 25 18 1 19 15 22 16 23 23 24 17 25 22 26
REMARK SMILES IDX 18 27 21 28 19 29 20 30 27 31
REMARK H PARENT 5 3 12 11 1 20 1 21 27 32 27 33
ROOT
ATOM      1  C   UNL     1      -1.043   0.103  -1.266  1.00  0.00     0.216 C 
ENDROOT
BRANCH   1   2
ATOM      2  O   UNL     1      -1.649  -0.941  -1.970  1.00  0.00    -0.493 OA
ATOM      3  H   UNL     1      -1.897  -1.811  -1.515  1.00  0.00     0.295 HD
ENDBRANCH   1   2
BRANCH   1   4
ATOM      4  N   UNL     1      -0.763   1.219  -1.868  1.00  0.00    -0.245 NA
BRANCH   4   5
ATOM      5  C   UNL     1      -1.071   1.476  -3.269  1.00  0.00     0.199 C 
BRANCH   5   6
ATOM      6  C   UNL     1      -0.647   2.865  -3.619  1.00  0.00     0.037 A 
ATOM      7  C   UNL     1       0.582   3.223  -4.138  1.00  0.00     0.025 A 
ATOM      8  N   UNL     1      -1.391   3.960  -3.378  1.00  0.00    -0.363 N 
ATOM      9  C   UNL     1       0.571   4.601  -4.234  1.00  0.00     0.020 A 
ATOM     10  C   UNL     1      -0.656   5.021  -3.758  1.00  0.00     0.082 A 
ATOM     11  H   UNL     1      -2.350   3.987  -2.965  1.00  0.00     0.166 HD
ENDBRANCH   5   6
ENDBRANCH   4   5
ENDBRANCH   1   4
BRANCH   1  12
ATOM     12  C   UNL     1      -0.683  -0.072   0.158  1.00  0.00     0.063 A 
ATOM     13  C   UNL     1       0.009  -1.234   0.521  1.00  0.00     0.045 A 
ATOM     14  C   UNL     1      -0.994   0.898   1.142  1.00  0.00     0.067 A 
ATOM     15  C   UNL     1       0.432  -1.451   1.840  1.00  0.00     0.081 A 
ATOM     16  C   UNL     1      -0.520   0.717   2.465  1.00  0.00     0.050 A 
ATOM     17  C   UNL     1       0.176  -0.459   2.808  1.00  0.00    -0.055 A 
ATOM     18  O   UNL     1       0.625  -0.623   4.115  1.00  0.00    -0.870 OA
BRANCH  14  19
ATOM     19  N   UNL     1      -1.862   2.003   0.824  1.00  0.00    -0.396 N 
ATOM     20  H   UNL     1      -2.224   2.655   1.551  1.00  0.00     0.156 HD
ATOM     21  H   UNL     1      -2.310   2.101  -0.112  1.00  0.00     0.156 HD
ENDBRANCH  14  19
BRANCH  15  22
ATOM     22  N   UNL     1       1.135  -2.670   2.172  1.00  0.00    -0.151 N 
ATOM     23  N   UNL     1       1.495  -3.578   1.263  1.00  0.00    -0.148 NA
ATOM     24  N   UNL     1       1.486  -3.020   3.409  1.00  0.00    -0.148 NA
ATOM     25  C   UNL     1       2.105  -4.547   1.961  1.00  0.00     0.113 A 
ATOM     26  C   UNL     1       2.099  -4.205   3.276  1.00  0.00     0.113 A 
ATOM     27  C   UNL     1       2.672  -5.732   1.504  1.00  0.00     0.032 A 
ATOM     28  C   UNL     1       2.661  -5.016   4.257  1.00  0.00     0.032 A 
ATOM     29  C   UNL     1       3.254  -6.582   2.465  1.00  0.00     0.002 A 
ATOM     30  C   UNL     1       3.248  -6.226   3.836  1.00  0.00     0.002 A 
ENDBRANCH  15  22
BRANCH  16  31
ATOM     31  N   UNL     1      -0.718   1.725   3.470  1.00  0.00    -0.397 N 
ATOM     32  H   UNL     1      -0.567   1.515   4.481  1.00  0.00     0.156 HD
ATOM     33  H   UNL     1      -0.880   2.725   3.224  1.00  0.00     0.156 HD
ENDBRANCH  16  31
ENDBRANCH   1  12
TORSDOF 8


