REMARK SMILES CC(=O)N(N)c1cc(C)cc(-n2nc3ccccc3n2)c1[O-]
REMARK SMILES IDX 4 1 2 2 1 3 3 4 5 5 6 8 7 9 21 10 8 11 11 12 10 13 22 14
REMARK SMILES IDX 9 15 12 16 13 17 20 18 14 19 19 20 15 21 18 22 16 23 17 24
REMARK H PARENT 5 6 5 7
ROOT
ATOM      1  N   UNL     1      -1.003   2.052  -1.940  1.00  0.00    -0.249 N 
ENDROOT
BRANCH   1   2
ATOM      2  C   UNL     1      -0.447   3.377  -1.982  1.00  0.00     0.238 C 
ATOM      3  C   UNL     1      -1.161   4.482  -2.696  1.00  0.00     0.116 C 
ATOM      4  O   UNL     1       0.645   3.625  -1.402  1.00  0.00    -0.273 OA
ENDBRANCH   1   2
BRANCH   1   5
ATOM      5  N   UNL     1      -2.219   1.789  -2.597  1.00  0.00    -0.241 NA
ATOM      6  H   UNL     1      -2.006   1.186  -3.424  1.00  0.00     0.144 HD
ATOM      7  H   UNL     1      -2.829   1.237  -1.954  1.00  0.00     0.144 HD
ENDBRANCH   1   5
BRANCH   1   8
ATOM      8  C   UNL     1      -0.251   0.966  -1.371  1.00  0.00     0.055 A 
ATOM      9  C   UNL     1       0.932   0.546  -1.989  1.00  0.00     0.030 A 
ATOM     10  C   UNL     1      -0.696   0.329  -0.200  1.00  0.00    -0.054 A 
ATOM     11  C   UNL     1       1.668  -0.521  -1.462  1.00  0.00    -0.047 A 
ATOM     12  C   UNL     1       0.044  -0.743   0.352  1.00  0.00     0.080 A 
ATOM     13  C   UNL     1       1.229  -1.150  -0.289  1.00  0.00     0.033 A 
ATOM     14  O   UNL     1      -1.859   0.782   0.415  1.00  0.00    -0.870 OA
ATOM     15  C   UNL     1       2.955  -0.943  -2.108  1.00  0.00     0.044 C 
BRANCH  12  16
ATOM     16  N   UNL     1      -0.385  -1.417   1.555  1.00  0.00    -0.151 N 
ATOM     17  N   UNL     1       0.313  -2.396   2.134  1.00  0.00    -0.148 NA
ATOM     18  N   UNL     1      -1.514  -1.141   2.208  1.00  0.00    -0.148 NA
ATOM     19  C   UNL     1      -0.411  -2.754   3.204  1.00  0.00     0.113 A 
ATOM     20  C   UNL     1      -1.531  -1.985   3.249  1.00  0.00     0.113 A 
ATOM     21  C   UNL     1      -0.142  -3.731   4.157  1.00  0.00     0.032 A 
ATOM     22  C   UNL     1      -2.486  -2.122   4.252  1.00  0.00     0.032 A 
ATOM     23  C   UNL     1      -1.085  -3.902   5.191  1.00  0.00     0.002 A 
ATOM     24  C   UNL     1      -2.252  -3.101   5.238  1.00  0.00     0.002 A 
ENDBRANCH  12  16
ENDBRANCH   1   8
TORSDOF 4


