REMARK SMILES C=Cc1ccc(-c2ccc(Nc3ccc([O-])cc3F)c3ccoc23)nc1
REMARK SMILES IDX 7 1 8 2 9 3 10 4 20 5 21 6 22 7 23 8 24 9 6 10 3 11 4 12
REMARK SMILES IDX 26 13 5 14 25 15 2 16 1 17 11 18 12 20 13 21 18 22 14 23
REMARK SMILES IDX 17 24 15 25 19 26 16 27
REMARK H PARENT 11 19
ROOT
ATOM      1  C   UNL     1      -0.400  -0.337   1.141  1.00  0.00     0.044 A 
ATOM      2  C   UNL     1       0.182  -1.300   0.281  1.00  0.00     0.016 A 
ATOM      3  C   UNL     1       0.472  -0.989  -1.064  1.00  0.00     0.027 A 
ATOM      4  C   UNL     1       0.182   0.289  -1.589  1.00  0.00     0.050 A 
ATOM      5  C   UNL     1      -0.369   1.228  -0.713  1.00  0.00     0.044 A 
ATOM      6  C   UNL     1      -0.752   2.537  -0.914  1.00  0.00     0.053 A 
ATOM      7  C   UNL     1      -1.250   2.952   0.313  1.00  0.00     0.196 A 
ATOM      8  O   UNL     1      -1.179   1.971   1.193  1.00  0.00    -0.464 OA
ATOM      9  C   UNL     1      -0.653   0.929   0.595  1.00  0.00     0.145 A 
ENDROOT
BRANCH   1  10
ATOM     10  C   UNL     1      -0.705  -0.635   2.563  1.00  0.00     0.074 A 
ATOM     11  C   UNL     1      -1.284  -1.111   5.263  1.00  0.00    -0.008 A 
ATOM     12  C   UNL     1      -1.303  -2.165   4.340  1.00  0.00     0.012 A 
ATOM     13  C   UNL     1      -0.960   0.175   4.793  1.00  0.00     0.119 A 
ATOM     14  C   UNL     1      -1.022  -1.933   2.993  1.00  0.00     0.030 A 
ATOM     15  N   UNL     1      -0.686   0.375   3.477  1.00  0.00    -0.255 NA
BRANCH  11  16
ATOM     16  C   UNL     1      -1.584  -1.402   6.687  1.00  0.00     0.002 C 
ATOM     17  C   UNL     1      -1.873  -0.473   7.600  1.00  0.00     0.009 C 
ENDBRANCH  11  16
ENDBRANCH   1  10
BRANCH   4  18
ATOM     18  N   UNL     1       0.496   0.642  -2.948  1.00  0.00    -0.353 N 
ATOM     19  H   UNL     1       0.762   1.632  -3.151  1.00  0.00     0.167 HD
BRANCH  18  20
ATOM     20  C   UNL     1       0.567  -0.304  -4.027  1.00  0.00     0.075 A 
ATOM     21  C   UNL     1       1.583  -0.176  -4.987  1.00  0.00     0.028 A 
ATOM     22  C   UNL     1      -0.395  -1.323  -4.175  1.00  0.00     0.146 A 
ATOM     23  C   UNL     1       1.664  -1.073  -6.055  1.00  0.00    -0.006 A 
ATOM     24  C   UNL     1      -0.309  -2.218  -5.246  1.00  0.00     0.033 A 
ATOM     25  C   UNL     1       0.721  -2.097  -6.183  1.00  0.00    -0.106 A 
ATOM     26  F   UNL     1      -1.436  -1.426  -3.311  1.00  0.00    -0.205 F 
ATOM     27  O   UNL     1       0.804  -2.989  -7.245  1.00  0.00    -0.872 OA
ENDBRANCH  18  20
ENDBRANCH   4  18
TORSDOF 4


