REMARK SMILES O/C(=N\c1cc2cc(-c3nc[nH+]cc3F)[nH]c2cc1F)c1cc(F)c[nH]1
REMARK SMILES IDX 3 1 2 2 1 3 21 5 22 6 26 7 23 8 25 9 24 11 4 12 19 13 5 14
REMARK SMILES IDX 18 15 6 16 17 17 7 18 16 19 8 20 20 21 9 23 10 24 14 25
REMARK SMILES IDX 11 26 13 27 12 28 15 29
REMARK H PARENT 1 4 26 10 16 22 12 30
ROOT
ATOM      1  N   UNL     1      -2.059   1.859   0.622  1.00  0.00    -0.209 NA
ENDROOT
BRANCH   1   2
ATOM      2  C   UNL     1      -2.891   2.030   1.607  1.00  0.00     0.235 C 
BRANCH   2   3
ATOM      3  O   UNL     1      -2.751   1.287   2.782  1.00  0.00    -0.492 OA
ATOM      4  H   UNL     1      -3.382   1.383   3.566  1.00  0.00     0.295 HD
ENDBRANCH   2   3
BRANCH   2   5
ATOM      5  C   UNL     1      -4.002   2.991   1.445  1.00  0.00     0.104 A 
ATOM      6  C   UNL     1      -4.975   3.287   2.388  1.00  0.00     0.072 A 
ATOM      7  N   UNL     1      -4.204   3.720   0.327  1.00  0.00    -0.355 N 
ATOM      8  C   UNL     1      -5.788   4.231   1.799  1.00  0.00     0.141 A 
ATOM      9  C   UNL     1      -5.295   4.479   0.538  1.00  0.00     0.122 A 
ATOM     10  H   UNL     1      -3.629   3.707  -0.545  1.00  0.00     0.166 HD
ATOM     11  F   UNL     1      -6.876   4.812   2.361  1.00  0.00    -0.205 F 
ENDBRANCH   2   5
ENDBRANCH   1   2
BRANCH   1  12
ATOM     12  C   UNL     1      -0.908   1.002   0.646  1.00  0.00     0.104 A 
ATOM     13  C   UNL     1       0.026   1.037   1.720  1.00  0.00     0.151 A 
ATOM     14  C   UNL     1      -0.667   0.167  -0.464  1.00  0.00     0.042 A 
ATOM     15  C   UNL     1       1.162   0.205   1.703  1.00  0.00     0.068 A 
ATOM     16  C   UNL     1       0.465  -0.644  -0.443  1.00  0.00     0.003 A 
ATOM     17  C   UNL     1       1.346  -0.629   0.603  1.00  0.00     0.049 A 
ATOM     18  C   UNL     1       0.938  -1.544  -1.372  1.00  0.00     0.041 A 
ATOM     19  N   UNL     1       2.364  -1.476   0.383  1.00  0.00    -0.351 N 
ATOM     20  C   UNL     1       2.120  -2.049  -0.822  1.00  0.00     0.095 A 
ATOM     21  F   UNL     1      -0.131   1.908   2.747  1.00  0.00    -0.205 F 
ATOM     22  H   UNL     1       3.177  -1.651   1.015  1.00  0.00     0.167 HD
BRANCH  20  23
ATOM     23  C   UNL     1       3.039  -3.030  -1.444  1.00  0.00     0.237 A 
ATOM     24  N   UNL     1       4.314  -3.111  -0.976  1.00  0.00    -0.044 NA
ATOM     25  C   UNL     1       2.643  -3.889  -2.485  1.00  0.00     0.215 A 
ATOM     26  C   UNL     1       5.211  -3.986  -1.499  1.00  0.00     0.449 A 
ATOM     27  C   UNL     1       3.580  -4.780  -3.010  1.00  0.00     0.241 A 
ATOM     28  N   UNL     1       4.844  -4.812  -2.513  1.00  0.00    -0.247 N 
ATOM     29  F   UNL     1       1.374  -3.907  -2.964  1.00  0.00    -0.198 F 
ATOM     30  H   UNL     1       5.539  -5.483  -2.911  1.00  0.00     0.311 HD
ENDBRANCH  20  23
ENDBRANCH   1  12
TORSDOF 5


