REMARK SMILES Cc1ccc(-c2cc(C=O)c([NH2+]C(F)(F)C(=O)Cl)cc2F)cc1
REMARK SMILES IDX 12 1 11 4 6 5 7 6 20 7 8 8 19 9 21 10 5 11 2 12 3 13 23 14
REMARK SMILES IDX 4 15 22 16 1 17 9 18 10 19 13 20 14 21 15 22 16 23 17 24
REMARK SMILES IDX 18 25
REMARK H PARENT 12 2 12 3
ROOT
ATOM      1  N   UNL     1      -3.219   1.391  -0.882  1.00  0.00    -0.244 N 
ATOM      2  H   UNL     1      -3.863   0.960  -0.177  1.00  0.00     0.358 HD
ATOM      3  H   UNL     1      -3.363   2.421  -0.790  1.00  0.00     0.358 HD
ENDROOT
BRANCH   1   4
ATOM      4  C   UNL     1      -1.856   1.022  -0.558  1.00  0.00     0.148 A 
ATOM      5  C   UNL     1       0.751   0.207   0.190  1.00  0.00     0.019 A 
ATOM      6  C   UNL     1       0.536   1.474  -0.373  1.00  0.00     0.029 A 
ATOM      7  C   UNL     1      -0.340  -0.656   0.364  1.00  0.00     0.136 A 
ATOM      8  C   UNL     1      -0.747   1.896  -0.765  1.00  0.00     0.076 A 
ATOM      9  C   UNL     1      -1.622  -0.250  -0.004  1.00  0.00     0.108 A 
ATOM     10  F   UNL     1      -0.165  -1.907   0.863  1.00  0.00    -0.206 F 
BRANCH   5  11
ATOM     11  C   UNL     1       2.121  -0.204   0.586  1.00  0.00    -0.015 A 
ATOM     12  C   UNL     1       4.729  -0.958   1.342  1.00  0.00    -0.051 A 
ATOM     13  C   UNL     1       4.493  -0.396   0.079  1.00  0.00     0.004 A 
ATOM     14  C   UNL     1       3.652  -1.161   2.217  1.00  0.00     0.004 A 
ATOM     15  C   UNL     1       3.201  -0.014  -0.293  1.00  0.00     0.009 A 
ATOM     16  C   UNL     1       2.359  -0.780   1.846  1.00  0.00     0.009 A 
ATOM     17  C   UNL     1       6.109  -1.403   1.726  1.00  0.00     0.044 C 
ENDBRANCH   5  11
BRANCH   8  18
ATOM     18  C   UNL     1      -0.844   3.253  -1.361  1.00  0.00     0.266 C 
ATOM     19  O   UNL     1      -1.819   3.617  -2.068  1.00  0.00    -0.298 OA
ENDBRANCH   8  18
ENDBRANCH   1   4
BRANCH   1  20
ATOM     20  C   UNL     1      -3.604   0.911  -2.224  1.00  0.00     0.468 C 
ATOM     21  F   UNL     1      -2.661   1.289  -3.168  1.00  0.00    -0.139 F 
ATOM     22  F   UNL     1      -3.686  -0.473  -2.226  1.00  0.00    -0.139 F 
BRANCH  20  23
ATOM     23  C   UNL     1      -4.951   1.466  -2.609  1.00  0.00     0.354 C 
ATOM     24  O   UNL     1      -5.943   1.159  -1.967  1.00  0.00    -0.267 OA
ATOM     25  Cl  UNL     1      -5.125   2.557  -3.978  1.00  0.00    -0.030 Cl
ENDBRANCH  20  23
ENDBRANCH   1  20
TORSDOF 5


