REMARK SMILES C=Cc1ccc(N)c(-c2ccc3c(c2)[N-]C(=O)C3)c1
REMARK SMILES IDX 3 1 4 2 5 3 6 4 8 5 19 6 2 7 1 8 9 9 10 10 14 11 11 12 13 13
REMARK SMILES IDX 12 14 15 15 18 16 16 17 17 18 7 19
REMARK H PARENT 7 20 7 21
ROOT
ATOM      1  C   UNL     1      -1.248   3.560   0.154  1.00  0.00    -0.025 A 
ATOM      2  C   UNL     1      -0.123   4.316   0.510  1.00  0.00     0.010 A 
ATOM      3  C   UNL     1       1.095   3.692   0.786  1.00  0.00     0.027 A 
ATOM      4  C   UNL     1       1.214   2.297   0.723  1.00  0.00     0.039 A 
ATOM      5  C   UNL     1       0.078   1.517   0.404  1.00  0.00     0.005 A 
ATOM      6  C   UNL     1      -1.141   2.157   0.115  1.00  0.00     0.019 A 
ENDROOT
BRANCH   1   7
ATOM      7  C   UNL     1      -2.518   4.272  -0.131  1.00  0.00     0.000 C 
ATOM      8  C   UNL     1      -3.541   3.740  -0.802  1.00  0.00     0.009 C 
ENDBRANCH   1   7
BRANCH   5   9
ATOM      9  C   UNL     1       0.123   0.038   0.394  1.00  0.00    -0.018 A 
ATOM     10  C   UNL     1       0.492  -0.674   1.560  1.00  0.00     0.009 A 
ATOM     11  C   UNL     1      -0.247  -0.671  -0.768  1.00  0.00    -0.007 A 
ATOM     12  C   UNL     1       0.514  -2.077   1.563  1.00  0.00     0.003 A 
ATOM     13  C   UNL     1      -0.217  -2.064  -0.738  1.00  0.00    -0.130 A 
ATOM     14  C   UNL     1       0.155  -2.751   0.396  1.00  0.00    -0.057 A 
ATOM     15  N   UNL     1      -0.551  -2.922  -1.816  1.00  0.00    -0.626 NA
ATOM     16  C   UNL     1       0.099  -4.220   0.161  1.00  0.00     0.089 C 
ATOM     17  C   UNL     1      -0.358  -4.224  -1.266  1.00  0.00     0.059 C 
ATOM     18  O   UNL     1      -0.558  -5.274  -1.931  1.00  0.00    -0.320 OA
ENDBRANCH   5   9
BRANCH   4  19
ATOM     19  N   UNL     1       2.498   1.700   0.948  1.00  0.00    -0.398 N 
ATOM     20  H   UNL     1       3.312   2.286   1.240  1.00  0.00     0.156 HD
ATOM     21  H   UNL     1       2.679   0.690   0.759  1.00  0.00     0.156 HD
ENDBRANCH   4  19
TORSDOF 3


