REMARK SMILES CC(=O)c1ccc(-c2cc(N=C=O)c([O-])c([NH2+]c3ccc(C)c(F)c3)c2)c[nH+]1
REMARK SMILES IDX 9 1 10 2 14 3 15 4 16 5 26 6 8 7 11 8 12 9 13 10 7 11 6 12
REMARK SMILES IDX 27 13 5 14 28 15 4 16 2 18 3 19 1 20 17 21 18 24 19 25 25 26
REMARK SMILES IDX 20 27 23 28 21 29 24 30 22 31
REMARK H PARENT 28 17 17 22 17 23
ROOT
ATOM      1  C   UNL     1      -2.368  -2.100   1.011  1.00  0.00     0.038 A 
ATOM      2  C   UNL     1      -1.686  -3.159   0.401  1.00  0.00     0.075 A 
ATOM      3  C   UNL     1      -0.676  -2.874  -0.551  1.00  0.00    -0.018 A 
ATOM      4  O   UNL     1       0.021  -3.904  -1.174  1.00  0.00    -0.867 OA
ATOM      5  C   UNL     1      -0.369  -1.536  -0.878  1.00  0.00     0.129 A 
ATOM      6  C   UNL     1      -1.069  -0.495  -0.247  1.00  0.00     0.076 A 
ATOM      7  C   UNL     1      -2.069  -0.765   0.699  1.00  0.00    -0.004 A 
ENDROOT
BRANCH   2   8
ATOM      8  N   UNL     1      -2.054  -4.495   0.789  1.00  0.00    -0.168 NA
BRANCH   8   9
ATOM      9  C   UNL     1      -1.531  -5.565   0.339  1.00  0.00     0.240 C 
ATOM     10  O   UNL     1      -1.024  -6.606  -0.097  1.00  0.00    -0.211 OA
ENDBRANCH   8   9
ENDBRANCH   2   8
BRANCH   7  11
ATOM     11  C   UNL     1      -2.795   0.346   1.365  1.00  0.00     0.046 A 
ATOM     12  C   UNL     1      -2.115   1.497   1.788  1.00  0.00     0.022 A 
ATOM     13  C   UNL     1      -4.178   0.272   1.588  1.00  0.00     0.315 A 
ATOM     14  C   UNL     1      -2.806   2.534   2.413  1.00  0.00     0.084 A 
ATOM     15  N   UNL     1      -4.838   1.294   2.199  1.00  0.00    -0.208 N 
ATOM     16  C   UNL     1      -4.193   2.425   2.619  1.00  0.00     0.246 A 
ATOM     17  H   UNL     1      -5.868   1.193   2.338  1.00  0.00     0.454 HD
BRANCH  16  18
ATOM     18  C   UNL     1      -4.960   3.513   3.283  1.00  0.00     0.223 C 
ATOM     19  O   UNL     1      -6.202   3.382   3.456  1.00  0.00    -0.288 OA
ATOM     20  C   UNL     1      -4.302   4.773   3.759  1.00  0.00     0.100 C 
ENDBRANCH  16  18
ENDBRANCH   7  11
BRANCH   5  21
ATOM     21  N   UNL     1       0.681  -1.224  -1.820  1.00  0.00    -0.282 N 
ATOM     22  H   UNL     1       0.453  -0.339  -2.331  1.00  0.00     0.358 HD
ATOM     23  H   UNL     1       0.759  -1.970  -2.549  1.00  0.00     0.358 HD
BRANCH  21  24
ATOM     24  C   UNL     1       1.933  -1.071  -1.119  1.00  0.00     0.137 A 
ATOM     25  C   UNL     1       2.812  -2.160  -0.982  1.00  0.00     0.068 A 
ATOM     26  C   UNL     1       2.277   0.161  -0.536  1.00  0.00     0.107 A 
ATOM     27  C   UNL     1       4.011  -2.018  -0.277  1.00  0.00     0.012 A 
ATOM     28  C   UNL     1       3.476   0.304   0.170  1.00  0.00     0.132 A 
ATOM     29  C   UNL     1       4.346  -0.789   0.313  1.00  0.00    -0.015 A 
ATOM     30  F   UNL     1       3.787   1.507   0.714  1.00  0.00    -0.206 F 
ATOM     31  C   UNL     1       5.644  -0.630   1.050  1.00  0.00     0.047 C 
ENDBRANCH  21  24
ENDBRANCH   5  21
TORSDOF 6


