REMARK SMILES Cc1ccc([NH2+]c2[n-]cnc2[N+](=O)[O-])c(-c2ccc3c(c2)[N-]C(=O)C3)c1
REMARK SMILES IDX 6 1 5 4 2 5 3 6 26 7 4 8 15 9 1 10 16 11 17 12 21 13 18 14
REMARK SMILES IDX 20 15 19 16 22 17 25 18 23 19 24 20 7 21 8 22 11 23 9 24
REMARK SMILES IDX 10 25 12 26 13 27 14 28
REMARK H PARENT 6 2 6 3
ROOT
ATOM      1  N   UNL     1       1.044  -1.070   1.492  1.00  0.00    -0.276 N 
ATOM      2  H   UNL     1       1.764  -1.457   2.145  1.00  0.00     0.358 HD
ATOM      3  H   UNL     1       0.779  -0.130   1.851  1.00  0.00     0.358 HD
ENDROOT
BRANCH   1   4
ATOM      4  C   UNL     1       1.585  -0.922   0.158  1.00  0.00     0.142 A 
ATOM      5  C   UNL     1       2.637  -0.738  -2.456  1.00  0.00    -0.050 A 
ATOM      6  C   UNL     1       3.303  -1.485  -1.476  1.00  0.00     0.009 A 
ATOM      7  C   UNL     1       1.428  -0.105  -2.137  1.00  0.00     0.018 A 
ATOM      8  C   UNL     1       2.784  -1.575  -0.183  1.00  0.00     0.069 A 
ATOM      9  C   UNL     1       0.902  -0.179  -0.839  1.00  0.00     0.043 A 
ATOM     10  C   UNL     1       3.172  -0.682  -3.856  1.00  0.00     0.044 C 
BRANCH   9  11
ATOM     11  C   UNL     1      -0.381   0.491  -0.556  1.00  0.00    -0.014 A 
ATOM     12  C   UNL     1      -0.411   1.683   0.203  1.00  0.00     0.009 A 
ATOM     13  C   UNL     1      -1.582  -0.068  -1.035  1.00  0.00    -0.007 A 
ATOM     14  C   UNL     1      -1.634   2.302   0.505  1.00  0.00     0.003 A 
ATOM     15  C   UNL     1      -2.783   0.565  -0.718  1.00  0.00    -0.130 A 
ATOM     16  C   UNL     1      -2.810   1.719   0.035  1.00  0.00    -0.057 A 
ATOM     17  N   UNL     1      -4.076   0.119  -1.089  1.00  0.00    -0.626 NA
ATOM     18  C   UNL     1      -4.211   2.173   0.245  1.00  0.00     0.089 C 
ATOM     19  C   UNL     1      -4.936   1.095  -0.503  1.00  0.00     0.059 C 
ATOM     20  O   UNL     1      -6.188   1.044  -0.613  1.00  0.00    -0.320 OA
ENDBRANCH   9  11
ENDBRANCH   1   4
BRANCH   1  21
ATOM     21  C   UNL     1      -0.074  -1.978   1.472  1.00  0.00     0.232 A 
ATOM     22  N   UNL     1      -0.021  -3.201   0.912  1.00  0.00    -0.344 NA
ATOM     23  C   UNL     1      -1.353  -1.762   1.960  1.00  0.00     0.422 A 
ATOM     24  C   UNL     1      -1.273  -3.684   1.062  1.00  0.00     0.247 A 
ATOM     25  N   UNL     1      -2.115  -2.836   1.690  1.00  0.00    -0.045 NA
BRANCH  23  26
ATOM     26  N   UNL     1      -1.855  -0.609   2.650  1.00  0.00    -0.018 N 
ATOM     27  O   UNL     1      -1.088   0.170   3.250  1.00  0.00    -0.358 OA
ATOM     28  O   UNL     1      -3.213  -0.456   2.804  1.00  0.00    -0.358 OA
ENDBRANCH  23  26
ENDBRANCH   1  21
TORSDOF 4


