MODEL 1
REMARK VINA RESULT:      -7.5      0.000      0.000
REMARK SMILES [H]/N=c1\c([NH2+]c2ccc3c(c2)[nH+]nn3C)cccn1C(=O)OCc1ccccc1
REMARK SMILES IDX 3 1 4 2 16 3 17 4 18 5 19 6 2 7 1 8 5 9 6 12 7 13 11 14 8 15
REMARK SMILES IDX 10 16 9 17 12 18 14 19 13 20 15 22 20 23 21 24 22 25 23 26
REMARK SMILES IDX 24 27 25 28 29 29 26 30 28 31 27 32
REMARK H PARENT 5 10 5 11 12 21
ROOT
ATOM      1  C   UNL     1      44.063 130.672  21.712  1.00  0.00     0.197 A 
ATOM      2  C   UNL     1      44.121 130.177  23.048  1.00  0.00     0.178 A 
ATOM      3  C   UNL     1      43.201 130.673  23.984  1.00  0.00     0.074 A 
ATOM      4  C   UNL     1      42.259 131.620  23.614  1.00  0.00     0.025 A 
ATOM      5  C   UNL     1      42.237 132.090  22.306  1.00  0.00     0.100 A 
ATOM      6  N   UNL     1      43.131 131.633  21.376  1.00  0.00    -0.232 N 
ENDROOT
BRANCH   1   7
ATOM      7  N   UNL     1      44.862 130.208  20.795  1.00  0.00    -0.279 NA
ATOM      8  H   UNL     1      45.685 129.593  20.962  1.00  0.00     0.190 HD
ENDBRANCH   1   7
BRANCH   2   9
ATOM      9  N   UNL     1      45.109 129.208  23.480  1.00  0.00    -0.278 N 
ATOM     10  H   UNL     1      45.334 129.355  24.491  1.00  0.00     0.358 HD
ATOM     11  H   UNL     1      46.011 129.349  22.967  1.00  0.00     0.358 HD
BRANCH   9  12
ATOM     12  C   UNL     1      44.658 127.861  23.219  1.00  0.00     0.139 A 
ATOM     13  C   UNL     1      45.441 126.983  22.412  1.00  0.00     0.073 A 
ATOM     14  C   UNL     1      43.406 127.417  23.717  1.00  0.00     0.126 A 
ATOM     15  C   UNL     1      45.006 125.672  22.137  1.00  0.00     0.065 A 
ATOM     16  C   UNL     1      43.017 126.116  23.419  1.00  0.00     0.201 A 
ATOM     17  C   UNL     1      43.782 125.280  22.669  1.00  0.00     0.198 A 
ATOM     18  N   UNL     1      41.899 125.458  23.768  1.00  0.00    -0.143 N 
ATOM     19  N   UNL     1      43.123 124.113  22.565  1.00  0.00    -0.133 N 
ATOM     20  N   UNL     1      41.983 124.240  23.238  1.00  0.00     0.088 NA
ATOM     21  H   UNL     1      41.101 125.812  24.343  1.00  0.00     0.342 HD
ATOM     22  C   UNL     1      43.541 122.913  21.852  1.00  0.00     0.327 C 
ENDBRANCH   9  12
ENDBRANCH   2   9
BRANCH   6  23
ATOM     23  C   UNL     1      43.071 132.194  20.043  1.00  0.00     0.420 C 
ATOM     24  O   UNL     1      42.318 133.177  19.803  1.00  0.00    -0.223 OA
BRANCH  23  25
ATOM     25  O   UNL     1      43.867 131.663  19.021  1.00  0.00    -0.444 OA
BRANCH  25  26
ATOM     26  C   UNL     1      43.444 131.599  17.664  1.00  0.00     0.270 C 
BRANCH  26  27
ATOM     27  C   UNL     1      44.608 131.201  16.806  1.00  0.00    -0.011 A 
ATOM     28  C   UNL     1      45.378 130.074  17.141  1.00  0.00     0.007 A 
ATOM     29  C   UNL     1      44.985 131.990  15.707  1.00  0.00     0.007 A 
ATOM     30  C   UNL     1      46.490 129.727  16.369  1.00  0.00     0.000 A 
ATOM     31  C   UNL     1      46.097 131.638  14.937  1.00  0.00     0.000 A 
ATOM     32  C   UNL     1      46.848 130.507  15.265  1.00  0.00     0.000 A 
ENDBRANCH  26  27
ENDBRANCH  25  26
ENDBRANCH  23  25
ENDBRANCH   6  23
TORSDOF 7
ENDMDL
MODEL 2
REMARK VINA RESULT:      -7.0      2.940      7.636
REMARK SMILES [H]/N=c1\c([NH2+]c2ccc3c(c2)[nH+]nn3C)cccn1C(=O)OCc1ccccc1
REMARK SMILES IDX 3 1 4 2 16 3 17 4 18 5 19 6 2 7 1 8 5 9 6 12 7 13 11 14 8 15
REMARK SMILES IDX 10 16 9 17 12 18 14 19 13 20 15 22 20 23 21 24 22 25 23 26
REMARK SMILES IDX 24 27 25 28 29 29 26 30 28 31 27 32
REMARK H PARENT 5 10 5 11 12 21
ROOT
ATOM      1  C   UNL     1      43.294 131.455  20.734  1.00  0.00     0.197 A 
ATOM      2  C   UNL     1      44.076 131.799  19.592  1.00  0.00     0.178 A 
ATOM      3  C   UNL     1      45.439 132.072  19.775  1.00  0.00     0.074 A 
ATOM      4  C   UNL     1      46.010 132.005  21.036  1.00  0.00     0.025 A 
ATOM      5  C   UNL     1      45.217 131.677  22.130  1.00  0.00     0.100 A 
ATOM      6  N   UNL     1      43.881 131.419  21.983  1.00  0.00    -0.232 N 
ENDROOT
BRANCH   1   7
ATOM      7  N   UNL     1      42.036 131.145  20.611  1.00  0.00    -0.279 NA
ATOM      8  H   UNL     1      41.621 130.208  20.794  1.00  0.00     0.190 HD
ENDBRANCH   1   7
BRANCH   2   9
ATOM      9  N   UNL     1      43.510 131.906  18.262  1.00  0.00    -0.278 N 
ATOM     10  H   UNL     1      43.247 132.900  18.065  1.00  0.00     0.358 HD
ATOM     11  H   UNL     1      42.618 131.362  18.196  1.00  0.00     0.358 HD
BRANCH   9  12
ATOM     12  C   UNL     1      44.421 131.384  17.270  1.00  0.00     0.139 A 
ATOM     13  C   UNL     1      45.435 130.452  17.643  1.00  0.00     0.073 A 
ATOM     14  C   UNL     1      44.351 131.836  15.927  1.00  0.00     0.126 A 
ATOM     15  C   UNL     1      46.340 129.946  16.689  1.00  0.00     0.065 A 
ATOM     16  C   UNL     1      45.265 131.310  15.020  1.00  0.00     0.201 A 
ATOM     17  C   UNL     1      46.212 130.404  15.382  1.00  0.00     0.198 A 
ATOM     18  N   UNL     1      45.408 131.562  13.708  1.00  0.00    -0.143 N 
ATOM     19  N   UNL     1      46.929 130.108  14.284  1.00  0.00    -0.133 N 
ATOM     20  N   UNL     1      46.426 130.821  13.279  1.00  0.00     0.088 NA
ATOM     21  H   UNL     1      44.843 132.211  13.117  1.00  0.00     0.342 HD
ATOM     22  C   UNL     1      48.056 129.192  14.175  1.00  0.00     0.327 C 
ENDBRANCH   9  12
ENDBRANCH   2   9
BRANCH   6  23
ATOM     23  C   UNL     1      43.112 131.120  23.171  1.00  0.00     0.420 C 
ATOM     24  O   UNL     1      42.286 131.963  23.619  1.00  0.00    -0.223 OA
BRANCH  23  25
ATOM     25  O   UNL     1      43.262 129.886  23.814  1.00  0.00    -0.444 OA
BRANCH  25  26
ATOM     26  C   UNL     1      44.439 129.093  23.702  1.00  0.00     0.270 C 
BRANCH  26  27
ATOM     27  C   UNL     1      44.050 127.687  23.352  1.00  0.00    -0.011 A 
ATOM     28  C   UNL     1      42.815 127.171  23.776  1.00  0.00     0.007 A 
ATOM     29  C   UNL     1      44.946 126.852  22.664  1.00  0.00     0.007 A 
ATOM     30  C   UNL     1      42.469 125.847  23.489  1.00  0.00     0.000 A 
ATOM     31  C   UNL     1      44.596 125.529  22.379  1.00  0.00     0.000 A 
ATOM     32  C   UNL     1      43.358 125.027  22.788  1.00  0.00     0.000 A 
ENDBRANCH  26  27
ENDBRANCH  25  26
ENDBRANCH  23  25
ENDBRANCH   6  23
TORSDOF 7
ENDMDL
MODEL 3
REMARK VINA RESULT:      -4.9      3.005      7.557
REMARK SMILES [H]/N=c1\c([NH2+]c2ccc3c(c2)[nH+]nn3C)cccn1C(=O)OCc1ccccc1
REMARK SMILES IDX 3 1 4 2 16 3 17 4 18 5 19 6 2 7 1 8 5 9 6 12 7 13 11 14 8 15
REMARK SMILES IDX 10 16 9 17 12 18 14 19 13 20 15 22 20 23 21 24 22 25 23 26
REMARK SMILES IDX 24 27 25 28 29 29 26 30 28 31 27 32
REMARK H PARENT 5 10 5 11 12 21
ROOT
ATOM      1  C   UNL     1      44.078 131.171  22.031  1.00  0.00     0.197 A 
ATOM      2  C   UNL     1      44.452 131.316  20.663  1.00  0.00     0.178 A 
ATOM      3  C   UNL     1      43.563 131.963  19.793  1.00  0.00     0.074 A 
ATOM      4  C   UNL     1      42.351 132.451  20.257  1.00  0.00     0.025 A 
ATOM      5  C   UNL     1      42.012 132.284  21.594  1.00  0.00     0.100 A 
ATOM      6  N   UNL     1      42.855 131.644  22.462  1.00  0.00    -0.232 N 
ENDROOT
BRANCH   1   7
ATOM      7  N   UNL     1      44.889 130.623  22.889  1.00  0.00    -0.279 NA
ATOM      8  H   UNL     1      44.733 130.559  23.916  1.00  0.00     0.190 HD
ENDBRANCH   1   7
BRANCH   2   9
ATOM      9  N   UNL     1      45.698 130.795  20.134  1.00  0.00    -0.278 N 
ATOM     10  H   UNL     1      45.876 129.839  20.520  1.00  0.00     0.358 HD
ATOM     11  H   UNL     1      46.505 131.381  20.450  1.00  0.00     0.358 HD
BRANCH   9  12
ATOM     12  C   UNL     1      45.687 130.799  18.690  1.00  0.00     0.139 A 
ATOM     13  C   UNL     1      45.352 131.988  17.975  1.00  0.00     0.073 A 
ATOM     14  C   UNL     1      45.953 129.606  17.970  1.00  0.00     0.126 A 
ATOM     15  C   UNL     1      45.322 132.002  16.567  1.00  0.00     0.065 A 
ATOM     16  C   UNL     1      45.912 129.667  16.581  1.00  0.00     0.201 A 
ATOM     17  C   UNL     1      45.615 130.811  15.911  1.00  0.00     0.198 A 
ATOM     18  N   UNL     1      46.128 128.697  15.677  1.00  0.00    -0.143 N 
ATOM     19  N   UNL     1      45.653 130.530  14.596  1.00  0.00    -0.133 N 
ATOM     20  N   UNL     1      45.966 129.243  14.475  1.00  0.00     0.088 NA
ATOM     21  H   UNL     1      46.376 127.698  15.858  1.00  0.00     0.342 HD
ATOM     22  C   UNL     1      45.398 131.435  13.483  1.00  0.00     0.327 C 
ENDBRANCH   9  12
ENDBRANCH   2   9
BRANCH   6  23
ATOM     23  C   UNL     1      42.420 131.475  23.831  1.00  0.00     0.420 C 
ATOM     24  O   UNL     1      42.427 132.457  24.624  1.00  0.00    -0.223 OA
BRANCH  23  25
ATOM     25  O   UNL     1      41.966 130.228  24.276  1.00  0.00    -0.444 OA
BRANCH  25  26
ATOM     26  C   UNL     1      42.812 129.088  24.379  1.00  0.00     0.270 C 
BRANCH  26  27
ATOM     27  C   UNL     1      42.027 127.861  24.018  1.00  0.00    -0.011 A 
ATOM     28  C   UNL     1      40.631 127.932  23.882  1.00  0.00     0.007 A 
ATOM     29  C   UNL     1      42.670 126.619  23.886  1.00  0.00     0.007 A 
ATOM     30  C   UNL     1      39.893 126.782  23.589  1.00  0.00     0.000 A 
ATOM     31  C   UNL     1      41.928 125.471  23.592  1.00  0.00     0.000 A 
ATOM     32  C   UNL     1      40.542 125.552  23.441  1.00  0.00     0.000 A 
ENDBRANCH  26  27
ENDBRANCH  25  26
ENDBRANCH  23  25
ENDBRANCH   6  23
TORSDOF 7
ENDMDL
MODEL 4
REMARK VINA RESULT:      -4.7      1.655      2.358
REMARK SMILES [H]/N=c1\c([NH2+]c2ccc3c(c2)[nH+]nn3C)cccn1C(=O)OCc1ccccc1
REMARK SMILES IDX 3 1 4 2 16 3 17 4 18 5 19 6 2 7 1 8 5 9 6 12 7 13 11 14 8 15
REMARK SMILES IDX 10 16 9 17 12 18 14 19 13 20 15 22 20 23 21 24 22 25 23 26
REMARK SMILES IDX 24 27 25 28 29 29 26 30 28 31 27 32
REMARK H PARENT 5 10 5 11 12 21
ROOT
ATOM      1  C   UNL     1      42.964 131.033  21.576  1.00  0.00     0.197 A 
ATOM      2  C   UNL     1      43.043 130.837  22.986  1.00  0.00     0.178 A 
ATOM      3  C   UNL     1      44.257 131.113  23.631  1.00  0.00     0.074 A 
ATOM      4  C   UNL     1      45.351 131.568  22.911  1.00  0.00     0.025 A 
ATOM      5  C   UNL     1      45.245 131.738  21.536  1.00  0.00     0.100 A 
ATOM      6  N   UNL     1      44.076 131.464  20.879  1.00  0.00    -0.232 N 
ENDROOT
BRANCH   1   7
ATOM      7  N   UNL     1      41.847 130.838  20.937  1.00  0.00    -0.279 NA
ATOM      8  H   UNL     1      40.902 131.124  21.268  1.00  0.00     0.190 HD
ENDBRANCH   1   7
BRANCH   2   9
ATOM      9  N   UNL     1      41.930 130.336  23.768  1.00  0.00    -0.278 N 
ATOM     10  H   UNL     1      41.027 130.645  23.341  1.00  0.00     0.358 HD
ATOM     11  H   UNL     1      41.942 130.747  24.731  1.00  0.00     0.358 HD
BRANCH   9  12
ATOM     12  C   UNL     1      41.998 128.899  23.900  1.00  0.00     0.139 A 
ATOM     13  C   UNL     1      40.846 128.156  24.292  1.00  0.00     0.073 A 
ATOM     14  C   UNL     1      43.228 128.220  23.697  1.00  0.00     0.126 A 
ATOM     15  C   UNL     1      40.902 126.756  24.439  1.00  0.00     0.065 A 
ATOM     16  C   UNL     1      43.237 126.839  23.854  1.00  0.00     0.201 A 
ATOM     17  C   UNL     1      42.126 126.138  24.204  1.00  0.00     0.198 A 
ATOM     18  N   UNL     1      44.253 125.970  23.716  1.00  0.00    -0.143 N 
ATOM     19  N   UNL     1      42.473 124.841  24.277  1.00  0.00    -0.133 N 
ATOM     20  N   UNL     1      43.767 124.759  23.978  1.00  0.00     0.088 NA
ATOM     21  H   UNL     1      45.242 126.179  23.456  1.00  0.00     0.342 HD
ATOM     22  C   UNL     1      41.624 123.709  24.624  1.00  0.00     0.327 C 
ENDBRANCH   9  12
ENDBRANCH   2   9
BRANCH   6  23
ATOM     23  C   UNL     1      44.049 131.630  19.442  1.00  0.00     0.420 C 
ATOM     24  O   UNL     1      42.946 131.683  18.831  1.00  0.00    -0.223 OA
BRANCH  23  25
ATOM     25  O   UNL     1      45.245 131.757  18.727  1.00  0.00    -0.444 OA
BRANCH  25  26
ATOM     26  C   UNL     1      45.341 132.467  17.497  1.00  0.00     0.270 C 
BRANCH  26  27
ATOM     27  C   UNL     1      45.652 131.499  16.395  1.00  0.00    -0.011 A 
ATOM     28  C   UNL     1      46.265 130.270  16.688  1.00  0.00     0.007 A 
ATOM     29  C   UNL     1      45.403 131.842  15.056  1.00  0.00     0.007 A 
ATOM     30  C   UNL     1      46.597 129.385  15.658  1.00  0.00     0.000 A 
ATOM     31  C   UNL     1      45.734 130.953  14.029  1.00  0.00     0.000 A 
ATOM     32  C   UNL     1      46.328 129.725  14.329  1.00  0.00     0.000 A 
ENDBRANCH  26  27
ENDBRANCH  25  26
ENDBRANCH  23  25
ENDBRANCH   6  23
TORSDOF 7
ENDMDL


