MODEL 1
REMARK VINA RESULT:     -10.7      0.000      0.000
REMARK SMILES C=Cc1cccc(-c2ccc3ccnc([O-])c3c2)c1
REMARK SMILES IDX 3 1 4 2 5 3 6 4 7 5 19 6 2 7 1 8 8 9 9 10 18 11 10 12 17 13
REMARK SMILES IDX 11 14 15 15 12 16 14 17 13 18 16 19
REMARK H PARENT
ROOT
ATOM      1  C   UNL     1      46.272 130.647  14.780  1.00  0.00    -0.026 A 
ATOM      2  C   UNL     1      45.209 131.143  14.011  1.00  0.00     0.008 A 
ATOM      3  C   UNL     1      44.044 131.606  14.624  1.00  0.00     0.001 A 
ATOM      4  C   UNL     1      43.927 131.587  16.014  1.00  0.00     0.009 A 
ATOM      5  C   UNL     1      44.982 131.109  16.810  1.00  0.00    -0.018 A 
ATOM      6  C   UNL     1      46.155 130.645  16.185  1.00  0.00     0.016 A 
ENDROOT
BRANCH   1   7
ATOM      7  C   UNL     1      47.494 130.176  14.080  1.00  0.00     0.000 C 
ATOM      8  C   UNL     1      47.991 130.743  12.980  1.00  0.00     0.009 C 
ENDBRANCH   1   7
BRANCH   5   9
ATOM      9  C   UNL     1      44.863 131.099  18.291  1.00  0.00    -0.018 A 
ATOM     10  C   UNL     1      45.850 130.480  19.080  1.00  0.00     0.009 A 
ATOM     11  C   UNL     1      43.763 131.708  18.923  1.00  0.00     0.018 A 
ATOM     12  C   UNL     1      45.743 130.467  20.472  1.00  0.00     0.009 A 
ATOM     13  C   UNL     1      43.649 131.699  20.323  1.00  0.00    -0.007 A 
ATOM     14  C   UNL     1      44.649 131.073  21.102  1.00  0.00    -0.016 A 
ATOM     15  C   UNL     1      42.560 132.305  20.978  1.00  0.00    -0.005 A 
ATOM     16  C   UNL     1      44.534 131.064  22.498  1.00  0.00     0.029 A 
ATOM     17  N   UNL     1      42.483 132.276  22.336  1.00  0.00    -0.272 NA
ATOM     18  C   UNL     1      43.433 131.677  23.099  1.00  0.00     0.111 A 
ATOM     19  O   UNL     1      41.551 132.934  20.257  1.00  0.00    -0.858 OA
ENDBRANCH   5   9
TORSDOF 2
ENDMDL
MODEL 2
REMARK VINA RESULT:      -8.9      1.529      2.185
REMARK SMILES C=Cc1cccc(-c2ccc3ccnc([O-])c3c2)c1
REMARK SMILES IDX 3 1 4 2 5 3 6 4 7 5 19 6 2 7 1 8 8 9 9 10 18 11 10 12 17 13
REMARK SMILES IDX 11 14 15 15 12 16 14 17 13 18 16 19
REMARK H PARENT
ROOT
ATOM      1  C   UNL     1      46.325 130.516  14.946  1.00  0.00    -0.026 A 
ATOM      2  C   UNL     1      45.586 130.891  13.815  1.00  0.00     0.008 A 
ATOM      3  C   UNL     1      44.314 131.450  13.950  1.00  0.00     0.001 A 
ATOM      4  C   UNL     1      43.766 131.651  15.217  1.00  0.00     0.009 A 
ATOM      5  C   UNL     1      44.490 131.299  16.369  1.00  0.00    -0.018 A 
ATOM      6  C   UNL     1      45.774 130.736  16.225  1.00  0.00     0.016 A 
ENDROOT
BRANCH   1   7
ATOM      7  C   UNL     1      47.677 129.936  14.749  1.00  0.00     0.000 C 
ATOM      8  C   UNL     1      48.137 129.490  13.579  1.00  0.00     0.009 C 
ENDBRANCH   1   7
BRANCH   5   9
ATOM      9  C   UNL     1      43.913 131.523  17.719  1.00  0.00    -0.018 A 
ATOM     10  C   UNL     1      42.602 132.012  17.860  1.00  0.00     0.009 A 
ATOM     11  C   UNL     1      44.670 131.249  18.873  1.00  0.00     0.018 A 
ATOM     12  C   UNL     1      42.054 132.225  19.127  1.00  0.00     0.009 A 
ATOM     13  C   UNL     1      44.127 131.461  20.151  1.00  0.00    -0.007 A 
ATOM     14  C   UNL     1      42.807 131.953  20.276  1.00  0.00    -0.016 A 
ATOM     15  C   UNL     1      44.863 131.192  21.320  1.00  0.00    -0.005 A 
ATOM     16  C   UNL     1      42.266 132.164  21.551  1.00  0.00     0.029 A 
ATOM     17  N   UNL     1      44.303 131.409  22.541  1.00  0.00    -0.272 NA
ATOM     18  C   UNL     1      43.038 131.883  22.679  1.00  0.00     0.111 A 
ATOM     19  O   UNL     1      46.164 130.706  21.250  1.00  0.00    -0.858 OA
ENDBRANCH   5   9
TORSDOF 2
ENDMDL
MODEL 3
REMARK VINA RESULT:      -8.2      2.742      6.674
REMARK SMILES C=Cc1cccc(-c2ccc3ccnc([O-])c3c2)c1
REMARK SMILES IDX 3 1 4 2 5 3 6 4 7 5 19 6 2 7 1 8 8 9 9 10 18 11 10 12 17 13
REMARK SMILES IDX 11 14 15 15 12 16 14 17 13 18 16 19
REMARK H PARENT
ROOT
ATOM      1  C   UNL     1      42.852 131.862  21.835  1.00  0.00    -0.026 A 
ATOM      2  C   UNL     1      41.741 132.657  21.519  1.00  0.00     0.008 A 
ATOM      3  C   UNL     1      41.486 133.029  20.197  1.00  0.00     0.001 A 
ATOM      4  C   UNL     1      42.333 132.605  19.173  1.00  0.00     0.009 A 
ATOM      5  C   UNL     1      43.445 131.795  19.459  1.00  0.00    -0.018 A 
ATOM      6  C   UNL     1      43.695 131.422  20.794  1.00  0.00     0.016 A 
ENDROOT
BRANCH   1   7
ATOM      7  C   UNL     1      43.073 131.485  23.254  1.00  0.00     0.000 C 
ATOM      8  C   UNL     1      44.262 131.507  23.858  1.00  0.00     0.009 C 
ENDBRANCH   1   7
BRANCH   5   9
ATOM      9  C   UNL     1      44.341 131.333  18.368  1.00  0.00    -0.018 A 
ATOM     10  C   UNL     1      45.545 130.671  18.668  1.00  0.00     0.009 A 
ATOM     11  C   UNL     1      43.996 131.551  17.021  1.00  0.00     0.018 A 
ATOM     12  C   UNL     1      46.392 130.235  17.647  1.00  0.00     0.009 A 
ATOM     13  C   UNL     1      44.842 131.115  15.987  1.00  0.00    -0.007 A 
ATOM     14  C   UNL     1      46.049 130.451  16.306  1.00  0.00    -0.016 A 
ATOM     15  C   UNL     1      44.518 131.319  14.633  1.00  0.00    -0.005 A 
ATOM     16  C   UNL     1      46.893 130.018  15.275  1.00  0.00     0.029 A 
ATOM     17  N   UNL     1      45.362 130.883  13.660  1.00  0.00    -0.272 NA
ATOM     18  C   UNL     1      46.526 130.246  13.948  1.00  0.00     0.111 A 
ATOM     19  O   UNL     1      43.342 131.966  14.269  1.00  0.00    -0.858 OA
ENDBRANCH   5   9
TORSDOF 2
ENDMDL
MODEL 4
REMARK VINA RESULT:      -7.7      0.823      1.977
REMARK SMILES C=Cc1cccc(-c2ccc3ccnc([O-])c3c2)c1
REMARK SMILES IDX 3 1 4 2 5 3 6 4 7 5 19 6 2 7 1 8 8 9 9 10 18 11 10 12 17 13
REMARK SMILES IDX 11 14 15 15 12 16 14 17 13 18 16 19
REMARK H PARENT
ROOT
ATOM      1  C   UNL     1      44.910 131.020  14.686  1.00  0.00    -0.026 A 
ATOM      2  C   UNL     1      46.106 130.381  14.326  1.00  0.00     0.008 A 
ATOM      3  C   UNL     1      46.983 129.912  15.305  1.00  0.00     0.001 A 
ATOM      4  C   UNL     1      46.675 130.066  16.656  1.00  0.00     0.009 A 
ATOM      5  C   UNL     1      45.477 130.689  17.046  1.00  0.00    -0.018 A 
ATOM      6  C   UNL     1      44.595 131.159  16.053  1.00  0.00     0.016 A 
ENDROOT
BRANCH   1   7
ATOM      7  C   UNL     1      44.006 131.492  13.607  1.00  0.00     0.000 C 
ATOM      8  C   UNL     1      42.742 131.874  13.803  1.00  0.00     0.009 C 
ENDBRANCH   1   7
BRANCH   5   9
ATOM      9  C   UNL     1      45.142 130.844  18.485  1.00  0.00    -0.018 A 
ATOM     10  C   UNL     1      45.998 130.326  19.474  1.00  0.00     0.009 A 
ATOM     11  C   UNL     1      43.966 131.509  18.876  1.00  0.00     0.018 A 
ATOM     12  C   UNL     1      45.687 130.467  20.829  1.00  0.00     0.009 A 
ATOM     13  C   UNL     1      43.646 131.655  20.237  1.00  0.00    -0.007 A 
ATOM     14  C   UNL     1      44.517 131.129  21.219  1.00  0.00    -0.016 A 
ATOM     15  C   UNL     1      42.477 132.319  20.653  1.00  0.00    -0.005 A 
ATOM     16  C   UNL     1      44.198 131.275  22.575  1.00  0.00     0.029 A 
ATOM     17  N   UNL     1      42.201 132.441  21.980  1.00  0.00    -0.272 NA
ATOM     18  C   UNL     1      43.025 131.940  22.936  1.00  0.00     0.111 A 
ATOM     19  O   UNL     1      41.589 132.854  19.726  1.00  0.00    -0.858 OA
ENDBRANCH   5   9
TORSDOF 2
ENDMDL


