MODEL 1
REMARK VINA RESULT:      -6.3      0.000      0.000
REMARK SMILES N#C[C@H]1c2ccccc2C[C@@H]1NC(=O)C1CCCC1
REMARK SMILES IDX 3 1 4 2 5 3 6 4 7 5 8 6 9 7 10 8 11 9 2 10 1 11 12 12 13 13
REMARK SMILES IDX 14 15 15 16 16 17 19 18 17 19 18 20
REMARK H PARENT 12 14
ROOT
ATOM      1  C   UNL     1      45.369 131.246  20.499  1.00  0.00     0.145 C 
ATOM      2  C   UNL     1      44.523 130.661  21.570  1.00  0.00    -0.025 A 
ATOM      3  C   UNL     1      44.928 129.769  22.569  1.00  0.00     0.005 A 
ATOM      4  C   UNL     1      43.979 129.325  23.502  1.00  0.00     0.000 A 
ATOM      5  C   UNL     1      42.648 129.774  23.426  1.00  0.00     0.000 A 
ATOM      6  C   UNL     1      42.262 130.666  22.414  1.00  0.00     0.004 A 
ATOM      7  C   UNL     1      43.221 131.090  21.491  1.00  0.00    -0.041 A 
ATOM      8  C   UNL     1      43.012 132.032  20.367  1.00  0.00     0.062 C 
ATOM      9  C   UNL     1      44.348 131.977  19.583  1.00  0.00     0.108 C 
ENDROOT
BRANCH   1  10
ATOM     10  C   UNL     1      46.336 132.190  21.081  1.00  0.00     0.073 C 
ATOM     11  N   UNL     1      47.098 132.932  21.537  1.00  0.00    -0.198 NA
ENDBRANCH   1  10
BRANCH   9  12
ATOM     12  N   UNL     1      44.187 131.233  18.326  1.00  0.00    -0.351 N 
ATOM     13  C   UNL     1      44.859 131.630  17.120  1.00  0.00     0.223 C 
ATOM     14  H   UNL     1      43.595 130.373  18.305  1.00  0.00     0.163 HD
ATOM     15  O   UNL     1      45.571 132.671  17.106  1.00  0.00    -0.275 OA
BRANCH  13  16
ATOM     16  C   UNL     1      44.740 130.801  15.865  1.00  0.00     0.078 C 
ATOM     17  C   UNL     1      45.177 131.584  14.622  1.00  0.00     0.013 C 
ATOM     18  C   UNL     1      45.604 129.532  15.917  1.00  0.00     0.013 C 
ATOM     19  C   UNL     1      45.967 130.603  13.774  1.00  0.00     0.001 C 
ATOM     20  C   UNL     1      46.588 129.632  14.760  1.00  0.00     0.001 C 
ENDBRANCH  13  16
ENDBRANCH   9  12
TORSDOF 3
ENDMDL
MODEL 2
REMARK VINA RESULT:      -5.7      2.650      6.453
REMARK SMILES N#C[C@H]1c2ccccc2C[C@@H]1NC(=O)C1CCCC1
REMARK SMILES IDX 3 1 4 2 5 3 6 4 7 5 8 6 9 7 10 8 11 9 2 10 1 11 12 12 13 13
REMARK SMILES IDX 14 15 15 16 16 17 19 18 17 19 18 20
REMARK H PARENT 12 14
ROOT
ATOM      1  C   UNL     1      42.865 131.455  20.383  1.00  0.00     0.145 C 
ATOM      2  C   UNL     1      43.519 131.533  19.052  1.00  0.00    -0.025 A 
ATOM      3  C   UNL     1      42.894 131.447  17.802  1.00  0.00     0.005 A 
ATOM      4  C   UNL     1      43.682 131.546  16.645  1.00  0.00     0.000 A 
ATOM      5  C   UNL     1      45.073 131.729  16.751  1.00  0.00     0.000 A 
ATOM      6  C   UNL     1      45.680 131.809  18.014  1.00  0.00     0.004 A 
ATOM      7  C   UNL     1      44.878 131.701  19.153  1.00  0.00    -0.041 A 
ATOM      8  C   UNL     1      45.326 131.774  20.562  1.00  0.00     0.062 C 
ATOM      9  C   UNL     1      44.061 131.400  21.375  1.00  0.00     0.108 C 
ENDROOT
BRANCH   1  10
ATOM     10  C   UNL     1      42.038 132.651  20.609  1.00  0.00     0.073 C 
ATOM     11  N   UNL     1      41.387 133.590  20.788  1.00  0.00    -0.198 NA
ENDBRANCH   1  10
BRANCH   9  12
ATOM     12  N   UNL     1      44.179 130.047  21.936  1.00  0.00    -0.351 N 
ATOM     13  C   UNL     1      44.228 129.816  23.352  1.00  0.00     0.223 C 
ATOM     14  H   UNL     1      44.198 129.221  21.297  1.00  0.00     0.163 HD
ATOM     15  O   UNL     1      44.221 130.791  24.153  1.00  0.00    -0.275 OA
BRANCH  13  16
ATOM     16  C   UNL     1      44.267 128.412  23.902  1.00  0.00     0.078 C 
ATOM     17  C   UNL     1      42.899 127.727  23.815  1.00  0.00     0.013 C 
ATOM     18  C   UNL     1      45.261 127.515  23.149  1.00  0.00     0.013 C 
ATOM     19  C   UNL     1      43.179 126.298  23.387  1.00  0.00     0.001 C 
ATOM     20  C   UNL     1      44.449 126.370  22.560  1.00  0.00     0.001 C 
ENDBRANCH  13  16
ENDBRANCH   9  12
TORSDOF 3
ENDMDL
MODEL 3
REMARK VINA RESULT:      -5.6      4.101      6.144
REMARK SMILES N#C[C@H]1c2ccccc2C[C@@H]1NC(=O)C1CCCC1
REMARK SMILES IDX 3 1 4 2 5 3 6 4 7 5 8 6 9 7 10 8 11 9 2 10 1 11 12 12 13 13
REMARK SMILES IDX 14 15 15 16 16 17 19 18 17 19 18 20
REMARK H PARENT 12 14
ROOT
ATOM      1  C   UNL     1      44.996 126.537  22.705  1.00  0.00     0.145 C 
ATOM      2  C   UNL     1      43.745 125.745  22.591  1.00  0.00    -0.025 A 
ATOM      3  C   UNL     1      43.545 124.594  21.821  1.00  0.00     0.005 A 
ATOM      4  C   UNL     1      42.285 123.977  21.843  1.00  0.00     0.000 A 
ATOM      5  C   UNL     1      41.249 124.514  22.628  1.00  0.00     0.000 A 
ATOM      6  C   UNL     1      41.469 125.671  23.391  1.00  0.00     0.004 A 
ATOM      7  C   UNL     1      42.729 126.273  23.349  1.00  0.00    -0.041 A 
ATOM      8  C   UNL     1      43.157 127.483  24.088  1.00  0.00     0.062 C 
ATOM      9  C   UNL     1      44.563 127.792  23.513  1.00  0.00     0.108 C 
ENDROOT
BRANCH   1  10
ATOM     10  C   UNL     1      46.018 125.763  23.427  1.00  0.00     0.073 C 
ATOM     11  N   UNL     1      46.822 125.156  23.995  1.00  0.00    -0.198 NA
ENDBRANCH   1  10
BRANCH   9  12
ATOM     12  N   UNL     1      44.521 128.963  22.628  1.00  0.00    -0.351 N 
ATOM     13  C   UNL     1      44.239 130.280  23.127  1.00  0.00     0.223 C 
ATOM     14  H   UNL     1      44.732 128.852  21.611  1.00  0.00     0.163 HD
ATOM     15  O   UNL     1      43.966 130.449  24.347  1.00  0.00    -0.275 OA
BRANCH  13  16
ATOM     16  C   UNL     1      44.283 131.477  22.209  1.00  0.00     0.078 C 
ATOM     17  C   UNL     1      45.190 131.233  20.998  1.00  0.00     0.013 C 
ATOM     18  C   UNL     1      42.896 131.845  21.659  1.00  0.00     0.013 C 
ATOM     19  C   UNL     1      44.463 131.839  19.811  1.00  0.00     0.001 C 
ATOM     20  C   UNL     1      42.988 131.726  20.144  1.00  0.00     0.001 C 
ENDBRANCH  13  16
ENDBRANCH   9  12
TORSDOF 3
ENDMDL
MODEL 4
REMARK VINA RESULT:      -5.0      3.827      6.884
REMARK SMILES N#C[C@H]1c2ccccc2C[C@@H]1NC(=O)C1CCCC1
REMARK SMILES IDX 3 1 4 2 5 3 6 4 7 5 8 6 9 7 10 8 11 9 2 10 1 11 12 12 13 13
REMARK SMILES IDX 14 15 15 16 16 17 19 18 17 19 18 20
REMARK H PARENT 12 14
ROOT
ATOM      1  C   UNL     1      43.118 130.572  22.872  1.00  0.00     0.145 C 
ATOM      2  C   UNL     1      43.435 131.077  21.512  1.00  0.00    -0.025 A 
ATOM      3  C   UNL     1      42.671 131.964  20.744  1.00  0.00     0.005 A 
ATOM      4  C   UNL     1      43.137 132.330  19.473  1.00  0.00     0.000 A 
ATOM      5  C   UNL     1      44.352 131.811  18.988  1.00  0.00     0.000 A 
ATOM      6  C   UNL     1      45.100 130.920  19.772  1.00  0.00     0.004 A 
ATOM      7  C   UNL     1      44.615 130.563  21.032  1.00  0.00    -0.041 A 
ATOM      8  C   UNL     1      45.262 129.654  22.006  1.00  0.00     0.062 C 
ATOM      9  C   UNL     1      44.197 129.480  23.118  1.00  0.00     0.108 C 
ENDROOT
BRANCH   1  10
ATOM     10  C   UNL     1      43.229 131.664  23.852  1.00  0.00     0.073 C 
ATOM     11  N   UNL     1      43.315 132.521  24.624  1.00  0.00    -0.198 NA
ENDBRANCH   1  10
BRANCH   9  12
ATOM     12  N   UNL     1      43.581 128.149  23.050  1.00  0.00    -0.351 N 
ATOM     13  C   UNL     1      44.118 127.028  23.769  1.00  0.00     0.223 C 
ATOM     14  H   UNL     1      42.709 128.009  22.492  1.00  0.00     0.163 HD
ATOM     15  O   UNL     1      45.177 127.158  24.443  1.00  0.00    -0.275 OA
BRANCH  13  16
ATOM     16  C   UNL     1      43.419 125.691  23.746  1.00  0.00     0.078 C 
ATOM     17  C   UNL     1      43.350 125.108  22.331  1.00  0.00     0.013 C 
ATOM     18  C   UNL     1      44.124 124.646  24.624  1.00  0.00     0.013 C 
ATOM     19  C   UNL     1      43.632 123.624  22.482  1.00  0.00     0.001 C 
ATOM     20  C   UNL     1      44.534 123.510  23.696  1.00  0.00     0.001 C 
ENDBRANCH  13  16
ENDBRANCH   9  12
TORSDOF 3
ENDMDL
MODEL 5
REMARK VINA RESULT:      -4.7      3.491      6.695
REMARK SMILES N#C[C@H]1c2ccccc2C[C@@H]1NC(=O)C1CCCC1
REMARK SMILES IDX 3 1 4 2 5 3 6 4 7 5 8 6 9 7 10 8 11 9 2 10 1 11 12 12 13 13
REMARK SMILES IDX 14 15 15 16 16 17 19 18 17 19 18 20
REMARK H PARENT 12 14
ROOT
ATOM      1  C   UNL     1      43.685 130.473  22.389  1.00  0.00     0.145 C 
ATOM      2  C   UNL     1      43.563 131.033  21.020  1.00  0.00    -0.025 A 
ATOM      3  C   UNL     1      42.456 131.696  20.478  1.00  0.00     0.005 A 
ATOM      4  C   UNL     1      42.528 132.161  19.156  1.00  0.00     0.000 A 
ATOM      5  C   UNL     1      43.697 131.961  18.399  1.00  0.00     0.000 A 
ATOM      6  C   UNL     1      44.795 131.292  18.961  1.00  0.00     0.004 A 
ATOM      7  C   UNL     1      44.699 130.830  20.276  1.00  0.00    -0.041 A 
ATOM      8  C   UNL     1      45.747 130.119  21.043  1.00  0.00     0.062 C 
ATOM      9  C   UNL     1      45.026 129.688  22.346  1.00  0.00     0.108 C 
ENDROOT
BRANCH   1  10
ATOM     10  C   UNL     1      43.735 131.562  23.377  1.00  0.00     0.073 C 
ATOM     11  N   UNL     1      43.773 132.419  24.153  1.00  0.00    -0.198 NA
ENDBRANCH   1  10
BRANCH   9  12
ATOM     12  N   UNL     1      44.758 128.244  22.344  1.00  0.00    -0.351 N 
ATOM     13  C   UNL     1      44.851 127.455  23.540  1.00  0.00     0.223 C 
ATOM     14  H   UNL     1      44.460 127.773  21.460  1.00  0.00     0.163 HD
ATOM     15  O   UNL     1      45.221 127.988  24.622  1.00  0.00    -0.275 OA
BRANCH  13  16
ATOM     16  C   UNL     1      44.491 125.990  23.526  1.00  0.00     0.078 C 
ATOM     17  C   UNL     1      43.481 125.641  24.625  1.00  0.00     0.013 C 
ATOM     18  C   UNL     1      43.864 125.554  22.193  1.00  0.00     0.013 C 
ATOM     19  C   UNL     1      42.500 124.671  23.990  1.00  0.00     0.001 C 
ATOM     20  C   UNL     1      42.469 125.039  22.519  1.00  0.00     0.001 C 
ENDBRANCH  13  16
ENDBRANCH   9  12
TORSDOF 3
ENDMDL
MODEL 6
REMARK VINA RESULT:      -4.4      4.102      5.943
REMARK SMILES N#C[C@H]1c2ccccc2C[C@@H]1NC(=O)C1CCCC1
REMARK SMILES IDX 3 1 4 2 5 3 6 4 7 5 8 6 9 7 10 8 11 9 2 10 1 11 12 12 13 13
REMARK SMILES IDX 14 15 15 16 16 17 19 18 17 19 18 20
REMARK H PARENT 12 14
ROOT
ATOM      1  C   UNL     1      46.095 126.773  22.764  1.00  0.00     0.145 C 
ATOM      2  C   UNL     1      45.188 125.645  22.432  1.00  0.00    -0.025 A 
ATOM      3  C   UNL     1      45.530 124.456  21.776  1.00  0.00     0.005 A 
ATOM      4  C   UNL     1      44.529 123.498  21.551  1.00  0.00     0.000 A 
ATOM      5  C   UNL     1      43.211 123.738  21.981  1.00  0.00     0.000 A 
ATOM      6  C   UNL     1      42.890 124.938  22.633  1.00  0.00     0.004 A 
ATOM      7  C   UNL     1      43.899 125.881  22.841  1.00  0.00    -0.041 A 
ATOM      8  C   UNL     1      43.761 127.192  23.517  1.00  0.00     0.062 C 
ATOM      9  C   UNL     1      45.132 127.877  23.284  1.00  0.00     0.108 C 
ENDROOT
BRANCH   1  10
ATOM     10  C   UNL     1      47.049 126.362  23.806  1.00  0.00     0.073 C 
ATOM     11  N   UNL     1      47.799 126.038  24.625  1.00  0.00    -0.198 NA
ENDBRANCH   1  10
BRANCH   9  12
ATOM     12  N   UNL     1      45.019 128.948  22.286  1.00  0.00    -0.351 N 
ATOM     13  C   UNL     1      44.502 130.245  22.622  1.00  0.00     0.223 C 
ATOM     14  H   UNL     1      45.350 128.784  21.309  1.00  0.00     0.163 HD
ATOM     15  O   UNL     1      44.081 130.475  23.789  1.00  0.00    -0.275 OA
BRANCH  13  16
ATOM     16  C   UNL     1      44.474 131.352  21.597  1.00  0.00     0.078 C 
ATOM     17  C   UNL     1      45.165 130.939  20.293  1.00  0.00     0.013 C 
ATOM     18  C   UNL     1      43.043 131.772  21.227  1.00  0.00     0.013 C 
ATOM     19  C   UNL     1      44.300 131.492  19.175  1.00  0.00     0.001 C 
ATOM     20  C   UNL     1      42.891 131.516  19.734  1.00  0.00     0.001 C 
ENDBRANCH  13  16
ENDBRANCH   9  12
TORSDOF 3
ENDMDL
MODEL 7
REMARK VINA RESULT:      -4.4      1.939      2.416
REMARK SMILES N#C[C@H]1c2ccccc2C[C@@H]1NC(=O)C1CCCC1
REMARK SMILES IDX 3 1 4 2 5 3 6 4 7 5 8 6 9 7 10 8 11 9 2 10 1 11 12 12 13 13
REMARK SMILES IDX 14 15 15 16 16 17 19 18 17 19 18 20
REMARK H PARENT 12 14
ROOT
ATOM      1  C   UNL     1      44.627 129.599  21.161  1.00  0.00     0.145 C 
ATOM      2  C   UNL     1      43.929 130.291  22.273  1.00  0.00    -0.025 A 
ATOM      3  C   UNL     1      42.845 129.807  23.015  1.00  0.00     0.005 A 
ATOM      4  C   UNL     1      42.316 130.609  24.038  1.00  0.00     0.000 A 
ATOM      5  C   UNL     1      42.873 131.874  24.305  1.00  0.00     0.000 A 
ATOM      6  C   UNL     1      43.957 132.340  23.546  1.00  0.00     0.004 A 
ATOM      7  C   UNL     1      44.464 131.529  22.528  1.00  0.00    -0.041 A 
ATOM      8  C   UNL     1      45.604 131.837  21.635  1.00  0.00     0.062 C 
ATOM      9  C   UNL     1      45.586 130.685  20.598  1.00  0.00     0.108 C 
ENDROOT
BRANCH   1  10
ATOM     10  C   UNL     1      45.376 128.442  21.677  1.00  0.00     0.073 C 
ATOM     11  N   UNL     1      45.965 127.533  22.083  1.00  0.00    -0.198 NA
ENDBRANCH   1  10
BRANCH   9  12
ATOM     12  N   UNL     1      45.092 131.158  19.298  1.00  0.00    -0.351 N 
ATOM     13  C   UNL     1      45.483 130.532  18.066  1.00  0.00     0.223 C 
ATOM     14  H   UNL     1      44.413 131.951  19.258  1.00  0.00     0.163 HD
ATOM     15  O   UNL     1      46.312 129.581  18.075  1.00  0.00    -0.275 OA
BRANCH  13  16
ATOM     16  C   UNL     1      44.897 130.987  16.752  1.00  0.00     0.078 C 
ATOM     17  C   UNL     1      45.708 132.129  16.131  1.00  0.00     0.013 C 
ATOM     18  C   UNL     1      44.850 129.859  15.710  1.00  0.00     0.013 C 
ATOM     19  C   UNL     1      45.769 131.831  14.644  1.00  0.00     0.001 C 
ATOM     20  C   UNL     1      45.703 130.319  14.536  1.00  0.00     0.001 C 
ENDBRANCH  13  16
ENDBRANCH   9  12
TORSDOF 3
ENDMDL
MODEL 8
REMARK VINA RESULT:      -4.4      3.404      6.698
REMARK SMILES N#C[C@H]1c2ccccc2C[C@@H]1NC(=O)C1CCCC1
REMARK SMILES IDX 3 1 4 2 5 3 6 4 7 5 8 6 9 7 10 8 11 9 2 10 1 11 12 12 13 13
REMARK SMILES IDX 14 15 15 16 16 17 19 18 17 19 18 20
REMARK H PARENT 12 14
ROOT
ATOM      1  C   UNL     1      43.594 130.524  21.798  1.00  0.00     0.145 C 
ATOM      2  C   UNL     1      43.455 131.111  20.441  1.00  0.00    -0.025 A 
ATOM      3  C   UNL     1      42.277 131.574  19.842  1.00  0.00     0.005 A 
ATOM      4  C   UNL     1      42.344 132.102  18.543  1.00  0.00     0.000 A 
ATOM      5  C   UNL     1      43.575 132.160  17.866  1.00  0.00     0.000 A 
ATOM      6  C   UNL     1      44.743 131.688  18.484  1.00  0.00     0.004 A 
ATOM      7  C   UNL     1      44.654 131.159  19.774  1.00  0.00    -0.041 A 
ATOM      8  C   UNL     1      45.767 130.627  20.592  1.00  0.00     0.062 C 
ATOM      9  C   UNL     1      45.061 130.011  21.827  1.00  0.00     0.108 C 
ENDROOT
BRANCH   1  10
ATOM     10  C   UNL     1      43.369 131.559  22.820  1.00  0.00     0.073 C 
ATOM     11  N   UNL     1      43.192 132.372  23.623  1.00  0.00    -0.198 NA
ENDBRANCH   1  10
BRANCH   9  12
ATOM     12  N   UNL     1      45.077 128.544  21.762  1.00  0.00    -0.351 N 
ATOM     13  C   UNL     1      44.998 127.733  22.944  1.00  0.00     0.223 C 
ATOM     14  H   UNL     1      45.113 128.067  20.833  1.00  0.00     0.163 HD
ATOM     15  O   UNL     1      44.967 128.276  24.083  1.00  0.00    -0.275 OA
BRANCH  13  16
ATOM     16  C   UNL     1      44.934 126.229  22.843  1.00  0.00     0.078 C 
ATOM     17  C   UNL     1      46.150 125.561  23.494  1.00  0.00     0.013 C 
ATOM     18  C   UNL     1      43.688 125.648  23.529  1.00  0.00     0.013 C 
ATOM     19  C   UNL     1      45.609 124.349  24.231  1.00  0.00     0.001 C 
ATOM     20  C   UNL     1      44.192 124.720  24.625  1.00  0.00     0.001 C 
ENDBRANCH  13  16
ENDBRANCH   9  12
TORSDOF 3
ENDMDL
MODEL 9
REMARK VINA RESULT:      -4.4      1.755      7.159
REMARK SMILES N#C[C@H]1c2ccccc2C[C@@H]1NC(=O)C1CCCC1
REMARK SMILES IDX 3 1 4 2 5 3 6 4 7 5 8 6 9 7 10 8 11 9 2 10 1 11 12 12 13 13
REMARK SMILES IDX 14 15 15 16 16 17 19 18 17 19 18 20
REMARK H PARENT 12 14
ROOT
ATOM      1  C   UNL     1      45.654 129.478  15.981  1.00  0.00     0.145 C 
ATOM      2  C   UNL     1      46.625 129.928  14.952  1.00  0.00    -0.025 A 
ATOM      3  C   UNL     1      47.727 129.213  14.466  1.00  0.00     0.005 A 
ATOM      4  C   UNL     1      48.536 129.806  13.484  1.00  0.00     0.000 A 
ATOM      5  C   UNL     1      48.235 131.093  13.003  1.00  0.00     0.000 A 
ATOM      6  C   UNL     1      47.128 131.793  13.505  1.00  0.00     0.004 A 
ATOM      7  C   UNL     1      46.340 131.188  14.488  1.00  0.00    -0.041 A 
ATOM      8  C   UNL     1      45.132 131.757  15.128  1.00  0.00     0.062 C 
ATOM      9  C   UNL     1      44.799 130.747  16.256  1.00  0.00     0.108 C 
ENDROOT
BRANCH   1  10
ATOM     10  C   UNL     1      44.828 128.382  15.450  1.00  0.00     0.073 C 
ATOM     11  N   UNL     1      44.180 127.519  15.033  1.00  0.00    -0.198 NA
ENDBRANCH   1  10
BRANCH   9  12
ATOM     12  N   UNL     1      45.140 131.301  17.573  1.00  0.00    -0.351 N 
ATOM     13  C   UNL     1      44.130 131.681  18.520  1.00  0.00     0.223 C 
ATOM     14  H   UNL     1      46.143 131.395  17.851  1.00  0.00     0.163 HD
ATOM     15  O   UNL     1      42.910 131.593  18.212  1.00  0.00    -0.275 OA
BRANCH  13  16
ATOM     16  C   UNL     1      44.510 132.171  19.896  1.00  0.00     0.078 C 
ATOM     17  C   UNL     1      43.324 132.121  20.865  1.00  0.00     0.013 C 
ATOM     18  C   UNL     1      45.634 131.335  20.526  1.00  0.00     0.013 C 
ATOM     19  C   UNL     1      43.890 131.622  22.183  1.00  0.00     0.001 C 
ATOM     20  C   UNL     1      45.064 130.739  21.805  1.00  0.00     0.001 C 
ENDBRANCH  13  16
ENDBRANCH   9  12
TORSDOF 3
ENDMDL


