REMARK SMILES Nc1cc(F)c([NH2+]c2ccc3cc[nH]c3c2)cc1C=O
REMARK SMILES IDX 2 1 3 2 4 3 5 4 6 5 17 6 18 7 1 8 19 11 20 12 7 13 8 16 9 17
REMARK SMILES IDX 16 18 10 19 15 20 11 21 14 22 12 23 13 24
REMARK H PARENT 1 9 1 10 7 14 7 15 14 25
ROOT
ATOM      1  C   UNL     1      -1.536  -3.134  -1.282  1.00  0.00     0.045 A 
ATOM      2  C   UNL     1      -2.290  -2.266  -0.479  1.00  0.00     0.072 A 
ATOM      3  C   UNL     1      -1.885  -0.947  -0.274  1.00  0.00     0.186 A 
ATOM      4  F   UNL     1      -2.648  -0.136   0.502  1.00  0.00    -0.200 F 
ATOM      5  C   UNL     1      -0.713  -0.463  -0.879  1.00  0.00     0.171 A 
ATOM      6  C   UNL     1       0.059  -1.336  -1.665  1.00  0.00     0.085 A 
ATOM      7  C   UNL     1      -0.326  -2.673  -1.859  1.00  0.00     0.043 A 
ENDROOT
BRANCH   1   8
ATOM      8  N   UNL     1      -2.051  -4.449  -1.538  1.00  0.00    -0.398 N 
ATOM      9  H   UNL     1      -1.751  -5.009  -2.364  1.00  0.00     0.156 HD
ATOM     10  H   UNL     1      -2.862  -4.813  -0.989  1.00  0.00     0.156 HD
ENDBRANCH   1   8
BRANCH   7  11
ATOM     11  C   UNL     1       0.591  -3.541  -2.630  1.00  0.00     0.262 C 
ATOM     12  O   UNL     1       0.626  -4.787  -2.457  1.00  0.00    -0.298 OA
ENDBRANCH   7  11
BRANCH   5  13
ATOM     13  N   UNL     1      -0.272   0.893  -0.657  1.00  0.00    -0.279 N 
ATOM     14  H   UNL     1       0.230   1.250  -1.504  1.00  0.00     0.358 HD
ATOM     15  H   UNL     1      -1.093   1.526  -0.510  1.00  0.00     0.358 HD
BRANCH  13  16
ATOM     16  C   UNL     1       0.605   0.940   0.487  1.00  0.00     0.136 A 
ATOM     17  C   UNL     1       1.999   0.710   0.330  1.00  0.00     0.069 A 
ATOM     18  C   UNL     1       0.079   1.175   1.779  1.00  0.00     0.094 A 
ATOM     19  C   UNL     1       2.860   0.722   1.442  1.00  0.00     0.016 A 
ATOM     20  C   UNL     1       0.961   1.179   2.858  1.00  0.00     0.051 A 
ATOM     21  C   UNL     1       2.302   0.961   2.693  1.00  0.00    -0.000 A 
ATOM     22  N   UNL     1       0.666   1.382   4.152  1.00  0.00    -0.361 N 
ATOM     23  C   UNL     1       2.886   1.027   3.939  1.00  0.00     0.028 A 
ATOM     24  C   UNL     1       1.840   1.290   4.818  1.00  0.00     0.083 A 
ATOM     25  H   UNL     1      -0.275   1.571   4.564  1.00  0.00     0.166 HD
ENDBRANCH  13  16
ENDBRANCH   5  13
TORSDOF 4


