REMARK SMILES CC(=O)c1ccc(Oc2c(Nc3ccc(C)cc3)ccc3cc[nH]c23)nn1
REMARK SMILES IDX 9 1 10 2 19 3 20 4 21 5 22 6 23 7 24 8 25 9 8 11 7 12 4 13
REMARK SMILES IDX 5 14 27 15 6 16 26 17 2 18 1 19 3 20 11 21 12 23 13 24 18 25
REMARK SMILES IDX 14 26 17 27 15 28 16 29
REMARK H PARENT 24 10 11 22
ROOT
ATOM      1  C   UNL     1       0.632  -1.539  -0.433  1.00  0.00     0.176 A 
ATOM      2  C   UNL     1       2.025  -1.688  -0.658  1.00  0.00     0.084 A 
ATOM      3  C   UNL     1       2.529  -2.912  -1.162  1.00  0.00     0.031 A 
ATOM      4  C   UNL     1       1.662  -3.964  -1.501  1.00  0.00     0.013 A 
ATOM      5  C   UNL     1       0.298  -3.767  -1.319  1.00  0.00     0.003 A 
ATOM      6  C   UNL     1      -0.767  -4.593  -1.605  1.00  0.00     0.028 A 
ATOM      7  C   UNL     1      -1.896  -3.862  -1.256  1.00  0.00     0.083 A 
ATOM      8  N   UNL     1      -1.551  -2.646  -0.776  1.00  0.00    -0.358 N 
ATOM      9  C   UNL     1      -0.207  -2.600  -0.808  1.00  0.00     0.091 A 
ATOM     10  H   UNL     1      -2.209  -1.895  -0.471  1.00  0.00     0.166 HD
ENDROOT
BRANCH   1  11
ATOM     11  O   UNL     1       0.130  -0.362   0.137  1.00  0.00    -0.433 OA
BRANCH  11  12
ATOM     12  C   UNL     1      -0.731  -0.330   1.238  1.00  0.00     0.239 A 
ATOM     13  C   UNL     1      -2.405  -0.277   3.435  1.00  0.00     0.129 A 
ATOM     14  C   UNL     1      -2.185   0.900   2.707  1.00  0.00     0.040 A 
ATOM     15  N   UNL     1      -1.778  -1.419   3.041  1.00  0.00    -0.144 NA
ATOM     16  C   UNL     1      -1.338   0.871   1.601  1.00  0.00     0.073 A 
ATOM     17  N   UNL     1      -0.967  -1.445   1.982  1.00  0.00    -0.111 NA
BRANCH  13  18
ATOM     18  C   UNL     1      -3.295  -0.296   4.615  1.00  0.00     0.180 C 
ATOM     19  C   UNL     1      -3.519  -1.562   5.382  1.00  0.00     0.095 C 
ATOM     20  O   UNL     1      -3.877   0.759   4.988  1.00  0.00    -0.293 OA
ENDBRANCH  13  18
ENDBRANCH  11  12
ENDBRANCH   1  11
BRANCH   2  21
ATOM     21  N   UNL     1       2.952  -0.647  -0.306  1.00  0.00    -0.352 N 
ATOM     22  H   UNL     1       3.857  -0.930   0.133  1.00  0.00     0.167 HD
BRANCH  21  23
ATOM     23  C   UNL     1       2.737   0.749  -0.573  1.00  0.00     0.038 A 
ATOM     24  C   UNL     1       3.365   1.710   0.233  1.00  0.00     0.026 A 
ATOM     25  C   UNL     1       1.950   1.174  -1.659  1.00  0.00     0.026 A 
ATOM     26  C   UNL     1       3.176   3.073  -0.013  1.00  0.00     0.005 A 
ATOM     27  C   UNL     1       1.762   2.537  -1.904  1.00  0.00     0.005 A 
ATOM     28  C   UNL     1       2.357   3.495  -1.071  1.00  0.00    -0.051 A 
ATOM     29  C   UNL     1       2.186   4.957  -1.357  1.00  0.00     0.044 C 
ENDBRANCH  21  23
ENDBRANCH   2  21
TORSDOF 5


