REMARK SMILES C[C@H]1CCc2ccc(-c3cccnc3F)nc2[C@@H]1F
REMARK SMILES IDX 1 1 2 2 3 3 4 4 5 5 6 6 7 7 8 8 16 9 17 10 18 11 19 12 9 13
REMARK SMILES IDX 10 14 14 15 11 16 13 17 12 18 15 19
REMARK H PARENT
ROOT
ATOM      1  C   UNL     1       2.324   1.449  -3.958  1.00  0.00     0.011 C 
ATOM      2  C   UNL     1       1.160   1.180  -2.997  1.00  0.00     0.027 C 
ATOM      3  C   UNL     1       0.088   0.315  -3.679  1.00  0.00     0.011 C 
ATOM      4  C   UNL     1      -1.136   0.165  -2.772  1.00  0.00     0.038 C 
ATOM      5  C   UNL     1      -0.766  -0.228  -1.363  1.00  0.00    -0.023 A 
ATOM      6  C   UNL     1      -1.752  -0.739  -0.510  1.00  0.00     0.008 A 
ATOM      7  C   UNL     1      -1.446  -1.051   0.814  1.00  0.00     0.029 A 
ATOM      8  C   UNL     1      -0.145  -0.838   1.294  1.00  0.00     0.075 A 
ATOM      9  N   UNL     1       0.796  -0.332   0.449  1.00  0.00    -0.249 NA
ATOM     10  C   UNL     1       0.528  -0.004  -0.844  1.00  0.00     0.079 A 
ATOM     11  C   UNL     1       1.658   0.486  -1.714  1.00  0.00     0.218 C 
ATOM     12  F   UNL     1       2.444   1.367  -0.990  1.00  0.00    -0.240 F 
ENDROOT
BRANCH   8  13
ATOM     13  C   UNL     1       0.227  -1.160   2.695  1.00  0.00     0.055 A 
ATOM     14  C   UNL     1      -0.698  -1.004   3.744  1.00  0.00     0.017 A 
ATOM     15  C   UNL     1       1.525  -1.608   3.015  1.00  0.00     0.222 A 
ATOM     16  C   UNL     1      -0.329  -1.298   5.057  1.00  0.00     0.021 A 
ATOM     17  N   UNL     1       1.854  -1.888   4.304  1.00  0.00    -0.228 NA
ATOM     18  C   UNL     1       0.965  -1.744   5.321  1.00  0.00     0.114 A 
ATOM     19  F   UNL     1       2.457  -1.793   2.046  1.00  0.00    -0.184 F 
ENDBRANCH   8  13
TORSDOF 1


