REMARK SMILES Fc1c[nH]/c(=N\c2c[nH]c3nccc-3c2)c(N=C=S)c1
REMARK SMILES IDX 5 1 16 2 20 3 2 4 1 5 3 6 4 7 6 9 7 10 12 11 11 12 13 13
REMARK SMILES IDX 10 14 14 15 9 16 15 17 8 18 17 20 18 21 19 22
REMARK H PARENT 4 8 9 19
ROOT
ATOM      1  C   UNL     1      -0.604  -0.624   1.130  1.00  0.00     0.157 A 
ATOM      2  C   UNL     1      -1.248  -0.394   2.377  1.00  0.00     0.120 A 
ATOM      3  C   UNL     1      -2.041  -1.411   2.918  1.00  0.00     0.074 A 
ATOM      4  C   UNL     1      -2.184  -2.626   2.256  1.00  0.00     0.141 A 
ATOM      5  F   UNL     1      -2.952  -3.609   2.788  1.00  0.00    -0.205 F 
ATOM      6  C   UNL     1      -1.519  -2.829   1.051  1.00  0.00     0.123 A 
ATOM      7  N   UNL     1      -0.746  -1.844   0.519  1.00  0.00    -0.342 N 
ATOM      8  H   UNL     1      -0.234  -2.075  -0.359  1.00  0.00     0.168 HD
ENDROOT
BRANCH   1   9
ATOM      9  N   UNL     1       0.139   0.311   0.602  1.00  0.00    -0.227 NA
BRANCH   9  10
ATOM     10  C   UNL     1       0.773   0.309  -0.685  1.00  0.00     0.082 A 
ATOM     11  C   UNL     1       1.464   0.174  -5.132  1.00  0.00     0.114 A 
ATOM     12  N   UNL     1       2.534   0.536  -4.375  1.00  0.00    -0.239 NA
ATOM     13  C   UNL     1       0.326  -0.094  -4.367  1.00  0.00     0.032 A 
ATOM     14  C   UNL     1       2.075   0.492  -3.114  1.00  0.00     0.137 A 
ATOM     15  C   UNL     1       0.707   0.105  -3.066  1.00  0.00     0.021 A 
ATOM     16  N   UNL     1       2.765   0.801  -1.991  1.00  0.00    -0.344 N 
ATOM     17  C   UNL     1       0.035   0.022  -1.857  1.00  0.00     0.042 A 
ATOM     18  C   UNL     1       2.127   0.724  -0.782  1.00  0.00     0.112 A 
ATOM     19  H   UNL     1       3.764   1.101  -2.045  1.00  0.00     0.168 HD
ENDBRANCH   9  10
ENDBRANCH   1   9
BRANCH   2  20
ATOM     20  N   UNL     1      -1.150   0.834   3.127  1.00  0.00    -0.191 NA
BRANCH  20  21
ATOM     21  C   UNL     1      -0.464   1.856   2.802  1.00  0.00     0.064 C 
ATOM     22  S   UNL     1       0.404   3.153   2.397  1.00  0.00    -0.006 S 
ENDBRANCH  20  21
ENDBRANCH   2  20
TORSDOF 4


