REMARK SMILES C[C@H](CO/C(O)=N/c1cc(F)c[nH]/c1=N/c1c[n-]c2nccc-2c1)c1ccccc1[N+](=O)[O-]
REMARK SMILES IDX 4 1 5 2 6 3 7 5 8 6 9 7 14 8 10 9 13 10 12 11 11 12 15 14
REMARK SMILES IDX 16 15 17 16 24 17 18 18 23 19 19 20 22 21 20 22 21 23 3 24
REMARK SMILES IDX 2 25 1 26 25 27 26 28 30 29 27 30 29 31 28 32 31 33 32 34
REMARK SMILES IDX 33 35
REMARK H PARENT 6 4 13 13
ROOT
ATOM      1  O   UNL     1       1.010   1.633   0.183  1.00  0.00    -0.450 OA
ENDROOT
BRANCH   1   2
ATOM      2  C   UNL     1       1.971   0.637   0.399  1.00  0.00     0.386 C 
BRANCH   2   3
ATOM      3  O   UNL     1       3.268   1.014   0.735  1.00  0.00    -0.466 OA
ATOM      4  H   UNL     1       3.510   1.992   0.838  1.00  0.00     0.298 HD
ENDBRANCH   2   3
BRANCH   2   5
ATOM      5  N   UNL     1       1.661  -0.619   0.256  1.00  0.00    -0.175 NA
BRANCH   5   6
ATOM      6  C   UNL     1       2.530  -1.733   0.512  1.00  0.00     0.116 A 
ATOM      7  C   UNL     1       3.271  -1.772   1.706  1.00  0.00     0.073 A 
ATOM      8  C   UNL     1       2.516  -2.891  -0.318  1.00  0.00     0.157 A 
ATOM      9  C   UNL     1       3.973  -2.917   2.065  1.00  0.00     0.141 A 
ATOM     10  N   UNL     1       3.192  -4.005   0.092  1.00  0.00    -0.342 N 
ATOM     11  C   UNL     1       3.916  -4.037   1.242  1.00  0.00     0.123 A 
ATOM     12  F   UNL     1       4.677  -2.954   3.223  1.00  0.00    -0.205 F 
ATOM     13  H   UNL     1       3.175  -4.866  -0.502  1.00  0.00     0.168 HD
BRANCH   8  14
ATOM     14  N   UNL     1       1.881  -2.953  -1.460  1.00  0.00    -0.229 NA
BRANCH  14  15
ATOM     15  C   UNL     1       1.243  -1.896  -2.190  1.00  0.00     0.062 A 
ATOM     16  C   UNL     1       1.991  -0.767  -2.630  1.00  0.00     0.006 A 
ATOM     17  C   UNL     1      -0.115  -2.025  -2.541  1.00  0.00     0.036 A 
ATOM     18  N   UNL     1       1.400   0.248  -3.331  1.00  0.00    -0.440 NA
ATOM     19  C   UNL     1      -0.688  -0.981  -3.248  1.00  0.00    -0.025 A 
ATOM     20  C   UNL     1       0.085   0.152  -3.630  1.00  0.00    -0.052 A 
ATOM     21  C   UNL     1      -1.957  -0.742  -3.707  1.00  0.00     0.003 A 
ATOM     22  N   UNL     1      -0.653   1.055  -4.292  1.00  0.00    -0.442 NA
ATOM     23  C   UNL     1      -1.896   0.505  -4.335  1.00  0.00    -0.022 A 
ENDBRANCH  14  15
ENDBRANCH   8  14
ENDBRANCH   5   6
ENDBRANCH   2   5
ENDBRANCH   1   2
BRANCH   1  24
ATOM     24  C   UNL     1      -0.385   1.374   0.013  1.00  0.00     0.243 C 
BRANCH  24  25
ATOM     25  C   UNL     1      -1.110   1.353   1.373  1.00  0.00     0.061 C 
ATOM     26  C   UNL     1      -2.637   1.324   1.202  1.00  0.00     0.016 C 
BRANCH  25  27
ATOM     27  C   UNL     1      -0.579   0.266   2.310  1.00  0.00     0.036 A 
ATOM     28  C   UNL     1       0.385   0.648   3.267  1.00  0.00     0.011 A 
ATOM     29  C   UNL     1      -0.980  -1.102   2.265  1.00  0.00     0.272 A 
ATOM     30  C   UNL     1       0.926  -0.280   4.157  1.00  0.00     0.001 A 
ATOM     31  C   UNL     1      -0.433  -2.016   3.179  1.00  0.00     0.086 A 
ATOM     32  C   UNL     1       0.516  -1.609   4.115  1.00  0.00     0.007 A 
BRANCH  29  33
ATOM     33  N   UNL     1      -1.944  -1.587   1.327  1.00  0.00     0.063 N 
ATOM     34  O   UNL     1      -1.659  -1.638   0.115  1.00  0.00    -0.258 OA
ATOM     35  O   UNL     1      -3.026  -2.303   1.785  1.00  0.00    -0.258 OA
ENDBRANCH  29  33
ENDBRANCH  25  27
ENDBRANCH  24  25
ENDBRANCH   1  24
TORSDOF 10


