REMARK SMILES C=c1ccc(=C(O)C(=O)c2cc([O-])c(C)cc2Nc2ccc3cc[nH]c3c2)cc1
REMARK SMILES IDX 10 1 11 2 12 3 13 4 14 5 15 6 16 7 17 8 8 9 9 10 6 11 5 12
REMARK SMILES IDX 2 13 3 14 29 15 4 16 28 17 1 18 7 19 18 21 19 23 20 24 27 25
REMARK SMILES IDX 21 26 26 27 22 28 25 29 23 30 24 31
REMARK H PARENT 7 20 18 22 25 32
ROOT
ATOM      1  C   UNL     1      -0.658   1.131   1.560  1.00  0.00     0.049 A 
ATOM      2  C   UNL     1      -0.148   2.318   2.106  1.00  0.00     0.006 A 
ATOM      3  C   UNL     1       0.195   2.391   3.458  1.00  0.00    -0.105 A 
ATOM      4  O   UNL     1       0.698   3.583   3.970  1.00  0.00    -0.872 OA
ATOM      5  C   UNL     1       0.024   1.274   4.290  1.00  0.00    -0.057 A 
ATOM      6  C   UNL     1       0.375   1.355   5.749  1.00  0.00     0.044 C 
ATOM      7  C   UNL     1      -0.496   0.087   3.752  1.00  0.00     0.029 A 
ATOM      8  C   UNL     1      -0.819  -0.003   2.391  1.00  0.00     0.050 A 
ENDROOT
BRANCH   1   9
ATOM      9  C   UNL     1      -1.091   1.117   0.149  1.00  0.00     0.229 C 
ATOM     10  O   UNL     1      -2.325   1.094  -0.104  1.00  0.00    -0.285 OA
BRANCH   9  11
ATOM     11  C   UNL     1      -0.087   1.209  -0.946  1.00  0.00     0.171 C 
BRANCH  11  12
ATOM     12  C   UNL     1      -0.242   0.599  -2.161  1.00  0.00     0.020 A 
ATOM     13  C   UNL     1      -0.468  -0.758  -4.652  1.00  0.00    -0.033 A 
ATOM     14  C   UNL     1      -1.360  -1.035  -3.610  1.00  0.00     0.008 A 
ATOM     15  C   UNL     1       0.524   0.212  -4.458  1.00  0.00     0.008 A 
ATOM     16  C   UNL     1      -1.255  -0.366  -2.388  1.00  0.00     0.013 A 
ATOM     17  C   UNL     1       0.634   0.882  -3.237  1.00  0.00     0.013 A 
ATOM     18  C   UNL     1      -0.561  -1.410  -5.816  1.00  0.00     0.017 C 
ENDBRANCH  11  12
BRANCH  11  19
ATOM     19  O   UNL     1       1.070   1.936  -0.637  1.00  0.00    -0.504 OA
ATOM     20  H   UNL     1       1.940   1.876  -1.148  1.00  0.00     0.293 HD
ENDBRANCH  11  19
ENDBRANCH   9  11
ENDBRANCH   1   9
BRANCH   8  21
ATOM     21  N   UNL     1      -1.330  -1.246   1.884  1.00  0.00    -0.355 N 
ATOM     22  H   UNL     1      -2.111  -1.699   2.411  1.00  0.00     0.167 HD
BRANCH  21  23
ATOM     23  C   UNL     1      -0.746  -1.965   0.784  1.00  0.00     0.041 A 
ATOM     24  C   UNL     1      -1.508  -2.965   0.127  1.00  0.00     0.027 A 
ATOM     25  C   UNL     1       0.574  -1.695   0.347  1.00  0.00     0.052 A 
ATOM     26  C   UNL     1      -0.990  -3.650  -0.987  1.00  0.00     0.012 A 
ATOM     27  C   UNL     1       1.052  -2.385  -0.766  1.00  0.00     0.047 A 
ATOM     28  C   UNL     1       0.294  -3.323  -1.411  1.00  0.00    -0.001 A 
ATOM     29  N   UNL     1       2.234  -2.221  -1.380  1.00  0.00    -0.361 N 
ATOM     30  C   UNL     1       1.028  -3.779  -2.485  1.00  0.00     0.028 A 
ATOM     31  C   UNL     1       2.224  -3.071  -2.433  1.00  0.00     0.083 A 
ATOM     32  H   UNL     1       2.998  -1.561  -1.115  1.00  0.00     0.166 HD
ENDBRANCH  21  23
ENDBRANCH   8  21
TORSDOF 6


