REMARK SMILES Cc1cc[nH+]c(-c2ccc3[n-]c([NH2+]c4cn5ccccc5n4)cc3c2)c1F
REMARK SMILES IDX 7 1 8 2 9 3 10 4 11 5 12 6 23 7 24 8 25 9 6 10 2 11 3 12
REMARK SMILES IDX 26 13 4 14 5 15 1 16 27 17 13 19 14 22 15 23 22 24 16 25
REMARK SMILES IDX 21 26 17 27 20 28 18 29 19 30
REMARK H PARENT 5 18 13 20 13 21
ROOT
ATOM      1  C   UNL     1      -0.573   2.311  -0.184  1.00  0.00     0.050 A 
ATOM      2  C   UNL     1      -1.817   1.674  -0.441  1.00  0.00     0.014 A 
ATOM      3  C   UNL     1      -1.864   0.334  -0.865  1.00  0.00    -0.014 A 
ATOM      4  C   UNL     1      -0.660  -0.347  -1.020  1.00  0.00    -0.125 A 
ATOM      5  N   UNL     1      -0.505  -1.628  -1.403  1.00  0.00    -0.610 NA
ATOM      6  C   UNL     1       0.839  -1.810  -1.397  1.00  0.00     0.037 A 
ATOM      7  C   UNL     1       1.528  -0.667  -0.999  1.00  0.00     0.050 A 
ATOM      8  C   UNL     1       0.542   0.259  -0.767  1.00  0.00    -0.035 A 
ATOM      9  C   UNL     1       0.628   1.583  -0.344  1.00  0.00     0.022 A 
ENDROOT
BRANCH   1  10
ATOM     10  C   UNL     1      -0.527   3.720   0.275  1.00  0.00     0.247 A 
ATOM     11  C   UNL     1      -1.235   6.037   0.096  1.00  0.00    -0.002 A 
ATOM     12  C   UNL     1      -0.391   6.354   1.167  1.00  0.00     0.077 A 
ATOM     13  C   UNL     1      -1.294   4.713  -0.364  1.00  0.00     0.198 A 
ATOM     14  C   UNL     1       0.361   5.347   1.771  1.00  0.00     0.307 A 
ATOM     15  N   UNL     1       0.282   4.066   1.321  1.00  0.00    -0.209 N 
ATOM     16  C   UNL     1      -2.022   7.115  -0.593  1.00  0.00     0.048 C 
ATOM     17  F   UNL     1      -2.058   4.407  -1.445  1.00  0.00    -0.199 F 
ATOM     18  H   UNL     1       0.849   3.337   1.809  1.00  0.00     0.453 HD
ENDBRANCH   1  10
BRANCH   6  19
ATOM     19  N   UNL     1       1.457  -3.071  -1.684  1.00  0.00    -0.282 N 
ATOM     20  H   UNL     1       2.408  -2.920  -2.094  1.00  0.00     0.358 HD
ATOM     21  H   UNL     1       0.873  -3.597  -2.374  1.00  0.00     0.358 HD
BRANCH  19  22
ATOM     22  C   UNL     1       1.561  -3.828  -0.472  1.00  0.00     0.246 A 
ATOM     23  C   UNL     1       2.618  -3.763   0.423  1.00  0.00     0.183 A 
ATOM     24  N   UNL     1       0.577  -4.637  -0.006  1.00  0.00    -0.177 NA
ATOM     25  N   UNL     1       2.291  -4.558   1.451  1.00  0.00    -0.301 N 
ATOM     26  C   UNL     1       1.077  -5.065   1.171  1.00  0.00     0.143 A 
ATOM     27  C   UNL     1       2.979  -4.840   2.587  1.00  0.00     0.093 A 
ATOM     28  C   UNL     1       0.445  -5.933   2.059  1.00  0.00     0.048 A 
ATOM     29  C   UNL     1       2.391  -5.710   3.516  1.00  0.00     0.018 A 
ATOM     30  C   UNL     1       1.120  -6.256   3.247  1.00  0.00     0.005 A 
ENDBRANCH  19  22
ENDBRANCH   6  19
TORSDOF 3


