MODEL 1
REMARK VINA RESULT:      -7.3      0.000      0.000
REMARK SMILES O=C(CC(F)(F)F)[N-]c1cc(F)c[n-]/c1=N\c1c[n-]c2nccc-2c1
REMARK SMILES IDX 8 1 9 2 15 3 14 4 13 5 10 6 11 7 12 8 16 9 17 10 22 11 21 12
REMARK SMILES IDX 23 13 20 14 24 15 19 16 25 17 18 18 2 19 1 20 3 21 4 22 5 23
REMARK SMILES IDX 6 24 7 25
REMARK H PARENT
ROOT
ATOM      1  N   UNL     1      45.017 131.330  21.132  1.00  0.00    -0.627 NA
ENDROOT
BRANCH   1   2
ATOM      2  C   UNL     1      43.980 131.706  20.216  1.00  0.00    -0.132 A 
ATOM      3  C   UNL     1      44.055 131.401  18.841  1.00  0.00    -0.074 A 
ATOM      4  N   UNL     1      43.024 131.759  18.021  1.00  0.00    -0.441 NA
ATOM      5  C   UNL     1      41.921 132.403  18.484  1.00  0.00     0.017 A 
ATOM      6  C   UNL     1      42.833 132.334  20.711  1.00  0.00     0.023 A 
ATOM      7  C   UNL     1      41.803 132.696  19.842  1.00  0.00     0.117 A 
ATOM      8  F   UNL     1      40.697 133.322  20.315  1.00  0.00    -0.207 F 
BRANCH   3   9
ATOM      9  N   UNL     1      45.071 130.727  18.381  1.00  0.00    -0.437 NA
BRANCH   9  10
ATOM     10  C   UNL     1      45.704 130.880  17.100  1.00  0.00    -0.045 A 
ATOM     11  C   UNL     1      47.851 130.079  13.223  1.00  0.00    -0.022 A 
ATOM     12  N   UNL     1      47.347 131.332  13.376  1.00  0.00    -0.442 NA
ATOM     13  C   UNL     1      47.605 129.257  14.326  1.00  0.00     0.003 A 
ATOM     14  C   UNL     1      46.780 131.312  14.591  1.00  0.00    -0.052 A 
ATOM     15  C   UNL     1      46.917 130.041  15.216  1.00  0.00    -0.027 A 
ATOM     16  N   UNL     1      46.109 132.326  15.184  1.00  0.00    -0.442 NA
ATOM     17  C   UNL     1      46.375 129.804  16.468  1.00  0.00     0.011 A 
ATOM     18  C   UNL     1      45.567 132.122  16.424  1.00  0.00    -0.019 A 
ENDBRANCH   9  10
ENDBRANCH   3   9
ENDBRANCH   1   2
BRANCH   1  19
ATOM     19  C   UNL     1      45.069 131.688  22.520  1.00  0.00     0.064 C 
ATOM     20  O   UNL     1      45.815 132.639  22.873  1.00  0.00    -0.320 OA
BRANCH  19  21
ATOM     21  C   UNL     1      44.361 130.882  23.578  1.00  0.00     0.170 C 
BRANCH  21  22
ATOM     22  C   UNL     1      43.950 129.511  23.044  1.00  0.00     0.394 C 
ATOM     23  F   UNL     1      43.853 128.603  24.084  1.00  0.00    -0.171 F 
ATOM     24  F   UNL     1      42.730 129.594  22.396  1.00  0.00    -0.171 F 
ATOM     25  F   UNL     1      44.903 129.063  22.147  1.00  0.00    -0.171 F 
ENDBRANCH  21  22
ENDBRANCH  19  21
ENDBRANCH   1  19
TORSDOF 6
ENDMDL
MODEL 2
REMARK VINA RESULT:      -6.8      4.394      7.724
REMARK SMILES O=C(CC(F)(F)F)[N-]c1cc(F)c[n-]/c1=N\c1c[n-]c2nccc-2c1
REMARK SMILES IDX 8 1 9 2 15 3 14 4 13 5 10 6 11 7 12 8 16 9 17 10 22 11 21 12
REMARK SMILES IDX 23 13 20 14 24 15 19 16 25 17 18 18 2 19 1 20 3 21 4 22 5 23
REMARK SMILES IDX 6 24 7 25
REMARK H PARENT
ROOT
ATOM      1  N   UNL     1      46.747 130.108  16.129  1.00  0.00    -0.627 NA
ENDROOT
BRANCH   1   2
ATOM      2  C   UNL     1      45.463 130.724  16.298  1.00  0.00    -0.132 A 
ATOM      3  C   UNL     1      44.964 131.067  17.572  1.00  0.00    -0.074 A 
ATOM      4  N   UNL     1      43.748 131.679  17.670  1.00  0.00    -0.441 NA
ATOM      5  C   UNL     1      42.995 131.970  16.577  1.00  0.00     0.017 A 
ATOM      6  C   UNL     1      44.715 131.054  15.164  1.00  0.00     0.023 A 
ATOM      7  C   UNL     1      43.470 131.668  15.301  1.00  0.00     0.117 A 
ATOM      8  F   UNL     1      42.732 131.973  14.205  1.00  0.00    -0.207 F 
BRANCH   3   9
ATOM      9  N   UNL     1      45.694 130.859  18.631  1.00  0.00    -0.437 NA
BRANCH   9  10
ATOM     10  C   UNL     1      45.230 130.660  19.977  1.00  0.00    -0.045 A 
ATOM     11  C   UNL     1      43.044 131.066  23.894  1.00  0.00    -0.022 A 
ATOM     12  N   UNL     1      43.815 129.954  23.755  1.00  0.00    -0.442 NA
ATOM     13  C   UNL     1      43.081 131.894  22.769  1.00  0.00     0.003 A 
ATOM     14  C   UNL     1      44.353 130.078  22.532  1.00  0.00    -0.052 A 
ATOM     15  C   UNL     1      43.922 131.270  21.885  1.00  0.00    -0.027 A 
ATOM     16  N   UNL     1      45.173 129.194  21.920  1.00  0.00    -0.442 NA
ATOM     17  C   UNL     1      44.344 131.572  20.601  1.00  0.00     0.011 A 
ATOM     18  C   UNL     1      45.610 129.469  20.652  1.00  0.00    -0.019 A 
ENDBRANCH   9  10
ENDBRANCH   3   9
ENDBRANCH   1   2
BRANCH   1  19
ATOM     19  C   UNL     1      47.194 129.432  14.946  1.00  0.00     0.064 C 
ATOM     20  O   UNL     1      46.821 128.246  14.747  1.00  0.00    -0.320 OA
BRANCH  19  21
ATOM     21  C   UNL     1      48.195 130.051  14.005  1.00  0.00     0.170 C 
BRANCH  21  22
ATOM     22  C   UNL     1      47.584 131.227  13.244  1.00  0.00     0.394 C 
ATOM     23  F   UNL     1      48.418 131.612  12.209  1.00  0.00    -0.171 F 
ATOM     24  F   UNL     1      46.349 130.874  12.728  1.00  0.00    -0.171 F 
ATOM     25  F   UNL     1      47.419 132.295  14.107  1.00  0.00    -0.171 F 
ENDBRANCH  21  22
ENDBRANCH  19  21
ENDBRANCH   1  19
TORSDOF 6
ENDMDL
MODEL 3
REMARK VINA RESULT:      -6.7      2.235      2.993
REMARK SMILES O=C(CC(F)(F)F)[N-]c1cc(F)c[n-]/c1=N\c1c[n-]c2nccc-2c1
REMARK SMILES IDX 8 1 9 2 15 3 14 4 13 5 10 6 11 7 12 8 16 9 17 10 22 11 21 12
REMARK SMILES IDX 23 13 20 14 24 15 19 16 25 17 18 18 2 19 1 20 3 21 4 22 5 23
REMARK SMILES IDX 6 24 7 25
REMARK H PARENT
ROOT
ATOM      1  N   UNL     1      45.237 129.212  22.119  1.00  0.00    -0.627 NA
ENDROOT
BRANCH   1   2
ATOM      2  C   UNL     1      44.370 130.337  21.924  1.00  0.00    -0.132 A 
ATOM      3  C   UNL     1      44.408 131.111  20.746  1.00  0.00    -0.074 A 
ATOM      4  N   UNL     1      43.539 132.153  20.602  1.00  0.00    -0.441 NA
ATOM      5  C   UNL     1      42.631 132.475  21.561  1.00  0.00     0.017 A 
ATOM      6  C   UNL     1      43.414 130.634  22.900  1.00  0.00     0.023 A 
ATOM      7  C   UNL     1      42.548 131.713  22.726  1.00  0.00     0.117 A 
ATOM      8  F   UNL     1      41.632 132.017  23.679  1.00  0.00    -0.207 F 
BRANCH   3   9
ATOM      9  N   UNL     1      45.224 130.786  19.783  1.00  0.00    -0.437 NA
BRANCH   9  10
ATOM     10  C   UNL     1      45.028 130.991  18.374  1.00  0.00    -0.045 A 
ATOM     11  C   UNL     1      45.515 130.952  13.897  1.00  0.00    -0.022 A 
ATOM     12  N   UNL     1      44.340 131.453  14.363  1.00  0.00    -0.442 NA
ATOM     13  C   UNL     1      46.371 130.536  14.921  1.00  0.00     0.003 A 
ATOM     14  C   UNL     1      44.451 131.363  15.697  1.00  0.00    -0.052 A 
ATOM     15  C   UNL     1      45.698 130.799  16.085  1.00  0.00    -0.027 A 
ATOM     16  N   UNL     1      43.514 131.708  16.608  1.00  0.00    -0.442 NA
ATOM     17  C   UNL     1      46.000 130.595  17.422  1.00  0.00     0.011 A 
ATOM     18  C   UNL     1      43.785 131.524  17.936  1.00  0.00    -0.019 A 
ENDBRANCH   9  10
ENDBRANCH   3   9
ENDBRANCH   1   2
BRANCH   1  19
ATOM     19  C   UNL     1      45.008 128.138  23.041  1.00  0.00     0.064 C 
ATOM     20  O   UNL     1      44.820 128.410  24.256  1.00  0.00    -0.320 OA
BRANCH  19  21
ATOM     21  C   UNL     1      45.114 126.693  22.623  1.00  0.00     0.170 C 
BRANCH  21  22
ATOM     22  C   UNL     1      43.828 125.931  22.942  1.00  0.00     0.394 C 
ATOM     23  F   UNL     1      42.831 126.813  23.319  1.00  0.00    -0.171 F 
ATOM     24  F   UNL     1      43.408 125.215  21.834  1.00  0.00    -0.171 F 
ATOM     25  F   UNL     1      44.063 125.050  23.981  1.00  0.00    -0.171 F 
ENDBRANCH  21  22
ENDBRANCH  19  21
ENDBRANCH   1  19
TORSDOF 6
ENDMDL
MODEL 4
REMARK VINA RESULT:      -6.5      1.411      1.871
REMARK SMILES O=C(CC(F)(F)F)[N-]c1cc(F)c[n-]/c1=N\c1c[n-]c2nccc-2c1
REMARK SMILES IDX 8 1 9 2 15 3 14 4 13 5 10 6 11 7 12 8 16 9 17 10 22 11 21 12
REMARK SMILES IDX 23 13 20 14 24 15 19 16 25 17 18 18 2 19 1 20 3 21 4 22 5 23
REMARK SMILES IDX 6 24 7 25
REMARK H PARENT
ROOT
ATOM      1  N   UNL     1      44.912 131.729  20.850  1.00  0.00    -0.627 NA
ENDROOT
BRANCH   1   2
ATOM      2  C   UNL     1      43.930 131.907  19.820  1.00  0.00    -0.132 A 
ATOM      3  C   UNL     1      44.166 131.505  18.489  1.00  0.00    -0.074 A 
ATOM      4  N   UNL     1      43.183 131.673  17.557  1.00  0.00    -0.441 NA
ATOM      5  C   UNL     1      41.977 132.216  17.867  1.00  0.00     0.017 A 
ATOM      6  C   UNL     1      42.679 132.432  20.160  1.00  0.00     0.023 A 
ATOM      7  C   UNL     1      41.701 132.600  19.180  1.00  0.00     0.117 A 
ATOM      8  F   UNL     1      40.493 133.126  19.501  1.00  0.00    -0.207 F 
BRANCH   3   9
ATOM      9  N   UNL     1      45.289 130.922  18.177  1.00  0.00    -0.437 NA
BRANCH   9  10
ATOM     10  C   UNL     1      45.774 130.625  16.857  1.00  0.00    -0.045 A 
ATOM     11  C   UNL     1      47.655 130.941  12.778  1.00  0.00    -0.022 A 
ATOM     12  N   UNL     1      47.293 129.690  13.171  1.00  0.00    -0.442 NA
ATOM     13  C   UNL     1      47.365 131.915  13.737  1.00  0.00     0.003 A 
ATOM     14  C   UNL     1      46.760 129.870  14.388  1.00  0.00    -0.052 A 
ATOM     15  C   UNL     1      46.785 131.239  14.778  1.00  0.00    -0.027 A 
ATOM     16  N   UNL     1      46.282 128.907  15.209  1.00  0.00    -0.442 NA
ATOM     17  C   UNL     1      46.305 131.633  16.016  1.00  0.00     0.011 A 
ATOM     18  C   UNL     1      45.796 129.268  16.436  1.00  0.00    -0.019 A 
ENDBRANCH   9  10
ENDBRANCH   3   9
ENDBRANCH   1   2
BRANCH   1  19
ATOM     19  C   UNL     1      44.903 130.688  21.835  1.00  0.00     0.064 C 
ATOM     20  O   UNL     1      45.228 129.522  21.489  1.00  0.00    -0.320 OA
BRANCH  19  21
ATOM     21  C   UNL     1      44.395 130.920  23.235  1.00  0.00     0.170 C 
BRANCH  21  22
ATOM     22  C   UNL     1      42.874 130.783  23.300  1.00  0.00     0.394 C 
ATOM     23  F   UNL     1      42.270 131.927  22.808  1.00  0.00    -0.171 F 
ATOM     24  F   UNL     1      42.459 129.692  22.557  1.00  0.00    -0.171 F 
ATOM     25  F   UNL     1      42.486 130.603  24.615  1.00  0.00    -0.171 F 
ENDBRANCH  21  22
ENDBRANCH  19  21
ENDBRANCH   1  19
TORSDOF 6
ENDMDL
MODEL 5
REMARK VINA RESULT:      -6.3      2.857      3.970
REMARK SMILES O=C(CC(F)(F)F)[N-]c1cc(F)c[n-]/c1=N\c1c[n-]c2nccc-2c1
REMARK SMILES IDX 8 1 9 2 15 3 14 4 13 5 10 6 11 7 12 8 16 9 17 10 22 11 21 12
REMARK SMILES IDX 23 13 20 14 24 15 19 16 25 17 18 18 2 19 1 20 3 21 4 22 5 23
REMARK SMILES IDX 6 24 7 25
REMARK H PARENT
ROOT
ATOM      1  N   UNL     1      45.523 128.437  22.059  1.00  0.00    -0.627 NA
ENDROOT
BRANCH   1   2
ATOM      2  C   UNL     1      44.648 129.557  22.246  1.00  0.00    -0.132 A 
ATOM      3  C   UNL     1      44.684 130.681  21.395  1.00  0.00    -0.074 A 
ATOM      4  N   UNL     1      43.806 131.705  21.603  1.00  0.00    -0.441 NA
ATOM      5  C   UNL     1      42.892 131.681  22.608  1.00  0.00     0.017 A 
ATOM      6  C   UNL     1      43.686 129.504  23.260  1.00  0.00     0.023 A 
ATOM      7  C   UNL     1      42.812 130.573  23.452  1.00  0.00     0.117 A 
ATOM      8  F   UNL     1      41.890 130.534  24.446  1.00  0.00    -0.207 F 
BRANCH   3   9
ATOM      9  N   UNL     1      45.505 130.702  20.383  1.00  0.00    -0.437 NA
BRANCH   9  10
ATOM     10  C   UNL     1      45.176 130.931  19.003  1.00  0.00    -0.045 A 
ATOM     11  C   UNL     1      45.168 130.875  14.500  1.00  0.00    -0.022 A 
ATOM     12  N   UNL     1      44.099 131.474  15.089  1.00  0.00    -0.442 NA
ATOM     13  C   UNL     1      46.091 130.381  15.426  1.00  0.00     0.003 A 
ATOM     14  C   UNL     1      44.346 131.367  16.403  1.00  0.00    -0.052 A 
ATOM     15  C   UNL     1      45.574 130.695  16.656  1.00  0.00    -0.027 A 
ATOM     16  N   UNL     1      43.546 131.787  17.410  1.00  0.00    -0.442 NA
ATOM     17  C   UNL     1      46.000 130.458  17.953  1.00  0.00     0.011 A 
ATOM     18  C   UNL     1      43.944 131.572  18.702  1.00  0.00    -0.019 A 
ENDBRANCH   9  10
ENDBRANCH   3   9
ENDBRANCH   1   2
BRANCH   1  19
ATOM     19  C   UNL     1      45.190 127.068  22.327  1.00  0.00     0.064 C 
ATOM     20  O   UNL     1      44.048 126.800  22.782  1.00  0.00    -0.320 OA
BRANCH  19  21
ATOM     21  C   UNL     1      46.207 125.962  22.204  1.00  0.00     0.170 C 
BRANCH  21  22
ATOM     22  C   UNL     1      45.698 124.671  22.843  1.00  0.00     0.394 C 
ATOM     23  F   UNL     1      46.676 123.694  22.790  1.00  0.00    -0.171 F 
ATOM     24  F   UNL     1      45.348 124.895  24.163  1.00  0.00    -0.171 F 
ATOM     25  F   UNL     1      44.584 124.227  22.154  1.00  0.00    -0.171 F 
ENDBRANCH  21  22
ENDBRANCH  19  21
ENDBRANCH   1  19
TORSDOF 6
ENDMDL
MODEL 6
REMARK VINA RESULT:      -6.2      1.268      1.435
REMARK SMILES O=C(CC(F)(F)F)[N-]c1cc(F)c[n-]/c1=N\c1c[n-]c2nccc-2c1
REMARK SMILES IDX 8 1 9 2 15 3 14 4 13 5 10 6 11 7 12 8 16 9 17 10 22 11 21 12
REMARK SMILES IDX 23 13 20 14 24 15 19 16 25 17 18 18 2 19 1 20 3 21 4 22 5 23
REMARK SMILES IDX 6 24 7 25
REMARK H PARENT
ROOT
ATOM      1  N   UNL     1      45.411 131.351  19.276  1.00  0.00    -0.627 NA
ENDROOT
BRANCH   1   2
ATOM      2  C   UNL     1      44.053 131.756  19.057  1.00  0.00    -0.132 A 
ATOM      3  C   UNL     1      43.304 131.287  17.958  1.00  0.00    -0.074 A 
ATOM      4  N   UNL     1      42.006 131.685  17.817  1.00  0.00    -0.441 NA
ATOM      5  C   UNL     1      41.405 132.522  18.703  1.00  0.00     0.017 A 
ATOM      6  C   UNL     1      43.434 132.587  19.996  1.00  0.00     0.023 A 
ATOM      7  C   UNL     1      42.109 132.983  19.815  1.00  0.00     0.117 A 
ATOM      8  F   UNL     1      41.511 133.804  20.713  1.00  0.00    -0.207 F 
BRANCH   3   9
ATOM      9  N   UNL     1      43.833 130.432  17.130  1.00  0.00    -0.437 NA
BRANCH   9  10
ATOM     10  C   UNL     1      44.888 130.680  16.185  1.00  0.00    -0.045 A 
ATOM     11  C   UNL     1      48.260 130.161  13.246  1.00  0.00    -0.022 A 
ATOM     12  N   UNL     1      47.769 131.422  13.370  1.00  0.00    -0.442 NA
ATOM     13  C   UNL     1      47.612 129.242  14.076  1.00  0.00     0.003 A 
ATOM     14  C   UNL     1      46.803 131.309  14.294  1.00  0.00    -0.052 A 
ATOM     15  C   UNL     1      46.673 129.970  14.759  1.00  0.00    -0.027 A 
ATOM     16  N   UNL     1      45.992 132.296  14.737  1.00  0.00    -0.442 NA
ATOM     17  C   UNL     1      45.712 129.635  15.699  1.00  0.00     0.011 A 
ATOM     18  C   UNL     1      45.036 131.996  15.670  1.00  0.00    -0.019 A 
ENDBRANCH   9  10
ENDBRANCH   3   9
ENDBRANCH   1   2
BRANCH   1  19
ATOM     19  C   UNL     1      45.941 130.854  20.512  1.00  0.00     0.064 C 
ATOM     20  O   UNL     1      47.004 131.356  20.962  1.00  0.00    -0.320 OA
BRANCH  19  21
ATOM     21  C   UNL     1      45.335 129.668  21.219  1.00  0.00     0.170 C 
BRANCH  21  22
ATOM     22  C   UNL     1      44.478 130.111  22.403  1.00  0.00     0.394 C 
ATOM     23  F   UNL     1      44.869 129.445  23.552  1.00  0.00    -0.171 F 
ATOM     24  F   UNL     1      44.602 131.475  22.603  1.00  0.00    -0.171 F 
ATOM     25  F   UNL     1      43.152 129.815  22.145  1.00  0.00    -0.171 F 
ENDBRANCH  21  22
ENDBRANCH  19  21
ENDBRANCH   1  19
TORSDOF 6
ENDMDL
MODEL 7
REMARK VINA RESULT:      -6.1      4.424      7.647
REMARK SMILES O=C(CC(F)(F)F)[N-]c1cc(F)c[n-]/c1=N\c1c[n-]c2nccc-2c1
REMARK SMILES IDX 8 1 9 2 15 3 14 4 13 5 10 6 11 7 12 8 16 9 17 10 22 11 21 12
REMARK SMILES IDX 23 13 20 14 24 15 19 16 25 17 18 18 2 19 1 20 3 21 4 22 5 23
REMARK SMILES IDX 6 24 7 25
REMARK H PARENT
ROOT
ATOM      1  N   UNL     1      46.811 130.149  16.142  1.00  0.00    -0.627 NA
ENDROOT
BRANCH   1   2
ATOM      2  C   UNL     1      45.522 130.739  16.355  1.00  0.00    -0.132 A 
ATOM      3  C   UNL     1      45.036 131.021  17.648  1.00  0.00    -0.074 A 
ATOM      4  N   UNL     1      43.813 131.610  17.789  1.00  0.00    -0.441 NA
ATOM      5  C   UNL     1      43.041 131.939  16.720  1.00  0.00     0.017 A 
ATOM      6  C   UNL     1      44.753 131.108  15.246  1.00  0.00     0.023 A 
ATOM      7  C   UNL     1      43.503 131.699  15.426  1.00  0.00     0.117 A 
ATOM      8  F   UNL     1      42.747 132.041  14.353  1.00  0.00    -0.207 F 
BRANCH   3   9
ATOM      9  N   UNL     1      45.782 130.777  18.689  1.00  0.00    -0.437 NA
BRANCH   9  10
ATOM     10  C   UNL     1      45.344 130.583  20.044  1.00  0.00    -0.045 A 
ATOM     11  C   UNL     1      44.441 128.784  24.073  1.00  0.00    -0.022 A 
ATOM     12  N   UNL     1      44.236 130.124  23.960  1.00  0.00    -0.442 NA
ATOM     13  C   UNL     1      44.901 128.205  22.887  1.00  0.00     0.003 A 
ATOM     14  C   UNL     1      44.562 130.400  22.688  1.00  0.00    -0.052 A 
ATOM     15  C   UNL     1      44.980 129.235  21.986  1.00  0.00    -0.027 A 
ATOM     16  N   UNL     1      44.555 131.618  22.101  1.00  0.00    -0.442 NA
ATOM     17  C   UNL     1      45.386 129.310  20.664  1.00  0.00     0.011 A 
ATOM     18  C   UNL     1      44.945 131.722  20.794  1.00  0.00    -0.019 A 
ENDBRANCH   9  10
ENDBRANCH   3   9
ENDBRANCH   1   2
BRANCH   1  19
ATOM     19  C   UNL     1      47.210 129.424  14.971  1.00  0.00     0.064 C 
ATOM     20  O   UNL     1      46.744 128.270  14.783  1.00  0.00    -0.320 OA
BRANCH  19  21
ATOM     21  C   UNL     1      48.263 129.950  14.030  1.00  0.00     0.170 C 
BRANCH  21  22
ATOM     22  C   UNL     1      47.657 130.904  13.001  1.00  0.00     0.394 C 
ATOM     23  F   UNL     1      48.127 130.602  11.735  1.00  0.00    -0.171 F 
ATOM     24  F   UNL     1      46.277 130.806  13.010  1.00  0.00    -0.171 F 
ATOM     25  F   UNL     1      48.015 132.202  13.313  1.00  0.00    -0.171 F 
ENDBRANCH  21  22
ENDBRANCH  19  21
ENDBRANCH   1  19
TORSDOF 6
ENDMDL
MODEL 8
REMARK VINA RESULT:      -5.9      1.315      1.526
REMARK SMILES O=C(CC(F)(F)F)[N-]c1cc(F)c[n-]/c1=N\c1c[n-]c2nccc-2c1
REMARK SMILES IDX 8 1 9 2 15 3 14 4 13 5 10 6 11 7 12 8 16 9 17 10 22 11 21 12
REMARK SMILES IDX 23 13 20 14 24 15 19 16 25 17 18 18 2 19 1 20 3 21 4 22 5 23
REMARK SMILES IDX 6 24 7 25
REMARK H PARENT
ROOT
ATOM      1  N   UNL     1      44.661 130.704  21.739  1.00  0.00    -0.627 NA
ENDROOT
BRANCH   1   2
ATOM      2  C   UNL     1      43.746 131.411  20.890  1.00  0.00    -0.132 A 
ATOM      3  C   UNL     1      43.866 131.391  19.485  1.00  0.00    -0.074 A 
ATOM      4  N   UNL     1      42.949 132.059  18.727  1.00  0.00    -0.441 NA
ATOM      5  C   UNL     1      41.916 132.748  19.281  1.00  0.00     0.017 A 
ATOM      6  C   UNL     1      42.666 132.085  21.470  1.00  0.00     0.023 A 
ATOM      7  C   UNL     1      41.753 132.766  20.666  1.00  0.00     0.117 A 
ATOM      8  F   UNL     1      40.715 133.437  21.225  1.00  0.00    -0.207 F 
BRANCH   3   9
ATOM      9  N   UNL     1      44.807 130.685  18.925  1.00  0.00    -0.437 NA
BRANCH   9  10
ATOM     10  C   UNL     1      45.259 130.768  17.563  1.00  0.00    -0.045 A 
ATOM     11  C   UNL     1      47.440 130.056  13.688  1.00  0.00    -0.022 A 
ATOM     12  N   UNL     1      46.395 130.924  13.632  1.00  0.00    -0.442 NA
ATOM     13  C   UNL     1      47.646 129.539  14.970  1.00  0.00     0.003 A 
ATOM     14  C   UNL     1      45.935 130.966  14.891  1.00  0.00    -0.052 A 
ATOM     15  C   UNL     1      46.685 130.120  15.755  1.00  0.00    -0.027 A 
ATOM     16  N   UNL     1      44.870 131.671  15.336  1.00  0.00    -0.442 NA
ATOM     17  C   UNL     1      46.353 130.001  17.094  1.00  0.00     0.011 A 
ATOM     18  C   UNL     1      44.522 131.577  16.656  1.00  0.00    -0.019 A 
ENDBRANCH   9  10
ENDBRANCH   3   9
ENDBRANCH   1   2
BRANCH   1  19
ATOM     19  C   UNL     1      44.342 130.144  23.020  1.00  0.00     0.064 C 
ATOM     20  O   UNL     1      43.728 130.855  23.857  1.00  0.00    -0.320 OA
BRANCH  19  21
ATOM     21  C   UNL     1      44.830 128.781  23.436  1.00  0.00     0.170 C 
BRANCH  21  22
ATOM     22  C   UNL     1      45.220 127.939  22.222  1.00  0.00     0.394 C 
ATOM     23  F   UNL     1      44.148 127.165  21.813  1.00  0.00    -0.171 F 
ATOM     24  F   UNL     1      45.616 128.758  21.178  1.00  0.00    -0.171 F 
ATOM     25  F   UNL     1      46.271 127.106  22.560  1.00  0.00    -0.171 F 
ENDBRANCH  21  22
ENDBRANCH  19  21
ENDBRANCH   1  19
TORSDOF 6
ENDMDL
MODEL 9
REMARK VINA RESULT:      -5.6      4.341      7.534
REMARK SMILES O=C(CC(F)(F)F)[N-]c1cc(F)c[n-]/c1=N\c1c[n-]c2nccc-2c1
REMARK SMILES IDX 8 1 9 2 15 3 14 4 13 5 10 6 11 7 12 8 16 9 17 10 22 11 21 12
REMARK SMILES IDX 23 13 20 14 24 15 19 16 25 17 18 18 2 19 1 20 3 21 4 22 5 23
REMARK SMILES IDX 6 24 7 25
REMARK H PARENT
ROOT
ATOM      1  N   UNL     1      45.947 129.214  15.315  1.00  0.00    -0.627 NA
ENDROOT
BRANCH   1   2
ATOM      2  C   UNL     1      44.926 130.215  15.429  1.00  0.00    -0.132 A 
ATOM      3  C   UNL     1      44.689 130.903  16.638  1.00  0.00    -0.074 A 
ATOM      4  N   UNL     1      43.723 131.866  16.680  1.00  0.00    -0.441 NA
ATOM      5  C   UNL     1      42.977 132.190  15.591  1.00  0.00     0.017 A 
ATOM      6  C   UNL     1      44.191 130.566  14.293  1.00  0.00     0.023 A 
ATOM      7  C   UNL     1      43.204 131.548  14.374  1.00  0.00     0.117 A 
ATOM      8  F   UNL     1      42.475 131.879  13.279  1.00  0.00    -0.207 F 
BRANCH   3   9
ATOM      9  N   UNL     1      45.434 130.659  17.679  1.00  0.00    -0.437 NA
BRANCH   9  10
ATOM     10  C   UNL     1      45.063 130.793  19.061  1.00  0.00    -0.045 A 
ATOM     11  C   UNL     1      42.867 131.799  22.862  1.00  0.00    -0.022 A 
ATOM     12  N   UNL     1      43.961 131.003  23.000  1.00  0.00    -0.442 NA
ATOM     13  C   UNL     1      42.627 132.165  21.535  1.00  0.00     0.003 A 
ATOM     14  C   UNL     1      44.428 130.867  21.750  1.00  0.00    -0.052 A 
ATOM     15  C   UNL     1      43.627 131.574  20.809  1.00  0.00    -0.027 A 
ATOM     16  N   UNL     1      45.493 130.130  21.363  1.00  0.00    -0.442 NA
ATOM     17  C   UNL     1      43.925 131.539  19.456  1.00  0.00     0.011 A 
ATOM     18  C   UNL     1      45.814 130.081  20.034  1.00  0.00    -0.019 A 
ENDBRANCH   9  10
ENDBRANCH   3   9
ENDBRANCH   1   2
BRANCH   1  19
ATOM     19  C   UNL     1      47.332 129.468  15.048  1.00  0.00     0.064 C 
ATOM     20  O   UNL     1      48.126 129.588  16.018  1.00  0.00    -0.320 OA
BRANCH  19  21
ATOM     21  C   UNL     1      47.841 129.722  13.652  1.00  0.00     0.170 C 
BRANCH  21  22
ATOM     22  C   UNL     1      47.517 131.145  13.197  1.00  0.00     0.394 C 
ATOM     23  F   UNL     1      46.426 131.138  12.346  1.00  0.00    -0.171 F 
ATOM     24  F   UNL     1      47.238 131.946  14.291  1.00  0.00    -0.171 F 
ATOM     25  F   UNL     1      48.606 131.670  12.525  1.00  0.00    -0.171 F 
ENDBRANCH  21  22
ENDBRANCH  19  21
ENDBRANCH   1  19
TORSDOF 6
ENDMDL


