MODEL 1
REMARK VINA RESULT:      -6.4      0.000      0.000
REMARK SMILES Cc1ccc(NC(=O)[N-]c2c(F)cc(F)cc2F)c(-c2ccc3c(c2)[N-]C(=O)C3)c1
REMARK SMILES IDX 6 1 7 2 8 3 5 5 2 6 3 7 30 8 4 9 19 10 1 11 20 12 21 13
REMARK SMILES IDX 25 14 22 15 24 16 23 17 26 18 29 19 27 20 28 21 9 22 10 23
REMARK SMILES IDX 11 24 17 25 13 26 16 27 14 28 12 29 18 30 15 31
REMARK H PARENT 6 4
ROOT
ATOM      1  N   UNL     1      46.337 132.683  21.605  1.00  0.00    -0.423 N 
ATOM      2  C   UNL     1      47.142 133.656  22.285  1.00  0.00     0.160 C 
ATOM      3  O   UNL     1      46.805 134.072  23.427  1.00  0.00    -0.298 OA
ATOM      4  H   UNL     1      46.465 132.579  20.573  1.00  0.00     0.029 HD
ENDROOT
BRANCH   1   5
ATOM      5  C   UNL     1      45.235 132.010  22.231  1.00  0.00    -0.033 A 
ATOM      6  C   UNL     1      43.165 130.633  23.551  1.00  0.00    -0.051 A 
ATOM      7  C   UNL     1      44.092 131.386  24.281  1.00  0.00     0.004 A 
ATOM      8  C   UNL     1      43.244 130.610  22.151  1.00  0.00     0.012 A 
ATOM      9  C   UNL     1      45.118 132.066  23.626  1.00  0.00     0.004 A 
ATOM     10  C   UNL     1      44.266 131.302  21.477  1.00  0.00    -0.015 A 
ATOM     11  C   UNL     1      42.041 129.930  24.254  1.00  0.00     0.044 C 
BRANCH  10  12
ATOM     12  C   UNL     1      44.262 131.319  19.995  1.00  0.00    -0.019 A 
ATOM     13  C   UNL     1      43.184 131.906  19.287  1.00  0.00     0.009 A 
ATOM     14  C   UNL     1      45.327 130.733  19.277  1.00  0.00    -0.007 A 
ATOM     15  C   UNL     1      43.177 131.929  17.884  1.00  0.00     0.003 A 
ATOM     16  C   UNL     1      45.294 130.768  17.884  1.00  0.00    -0.130 A 
ATOM     17  C   UNL     1      44.248 131.352  17.204  1.00  0.00    -0.057 A 
ATOM     18  N   UNL     1      46.293 130.254  17.020  1.00  0.00    -0.626 NA
ATOM     19  C   UNL     1      44.471 131.275  15.734  1.00  0.00     0.089 C 
ATOM     20  C   UNL     1      45.789 130.563  15.721  1.00  0.00     0.059 C 
ATOM     21  O   UNL     1      46.407 130.260  14.668  1.00  0.00    -0.320 OA
ENDBRANCH  10  12
ENDBRANCH   1   5
BRANCH   2  22
ATOM     22  N   UNL     1      48.287 134.203  21.623  1.00  0.00    -0.396 NA
BRANCH  22  23
ATOM     23  C   UNL     1      49.291 135.033  22.226  1.00  0.00     0.034 A 
ATOM     24  C   UNL     1      49.641 136.234  21.590  1.00  0.00     0.132 A 
ATOM     25  C   UNL     1      49.978 134.648  23.395  1.00  0.00     0.132 A 
ATOM     26  C   UNL     1      50.627 137.061  22.136  1.00  0.00     0.079 A 
ATOM     27  C   UNL     1      50.964 135.479  23.936  1.00  0.00     0.079 A 
ATOM     28  C   UNL     1      51.284 136.688  23.312  1.00  0.00     0.129 A 
ATOM     29  F   UNL     1      49.014 136.608  20.447  1.00  0.00    -0.207 F 
ATOM     30  F   UNL     1      49.745 133.449  23.983  1.00  0.00    -0.207 F 
ATOM     31  F   UNL     1      52.243 137.490  23.837  1.00  0.00    -0.207 F 
ENDBRANCH  22  23
ENDBRANCH   2  22
TORSDOF 4
ENDMDL
MODEL 2
REMARK VINA RESULT:      -6.0      1.045      1.439
REMARK SMILES Cc1ccc(NC(=O)[N-]c2c(F)cc(F)cc2F)c(-c2ccc3c(c2)[N-]C(=O)C3)c1
REMARK SMILES IDX 6 1 7 2 8 3 5 5 2 6 3 7 30 8 4 9 19 10 1 11 20 12 21 13
REMARK SMILES IDX 25 14 22 15 24 16 23 17 26 18 29 19 27 20 28 21 9 22 10 23
REMARK SMILES IDX 11 24 17 25 13 26 16 27 14 28 12 29 18 30 15 31
REMARK H PARENT 6 4
ROOT
ATOM      1  N   UNL     1      46.777 132.867  21.636  1.00  0.00    -0.423 N 
ATOM      2  C   UNL     1      47.502 133.951  22.233  1.00  0.00     0.160 C 
ATOM      3  O   UNL     1      47.030 134.556  23.234  1.00  0.00    -0.298 OA
ATOM      4  H   UNL     1      47.032 132.586  20.662  1.00  0.00     0.029 HD
ENDROOT
BRANCH   1   5
ATOM      5  C   UNL     1      45.596 132.303  22.225  1.00  0.00    -0.033 A 
ATOM      6  C   UNL     1      43.359 131.156  23.492  1.00  0.00    -0.051 A 
ATOM      7  C   UNL     1      44.198 132.031  24.193  1.00  0.00     0.004 A 
ATOM      8  C   UNL     1      43.613 130.893  22.138  1.00  0.00     0.012 A 
ATOM      9  C   UNL     1      45.307 132.597  23.564  1.00  0.00     0.004 A 
ATOM     10  C   UNL     1      44.720 131.468  21.489  1.00  0.00    -0.015 A 
ATOM     11  C   UNL     1      42.147 130.576  24.159  1.00  0.00     0.044 C 
BRANCH  10  12
ATOM     12  C   UNL     1      44.901 131.229  20.037  1.00  0.00    -0.019 A 
ATOM     13  C   UNL     1      45.997 130.461  19.568  1.00  0.00     0.009 A 
ATOM     14  C   UNL     1      43.991 131.779  19.109  1.00  0.00    -0.007 A 
ATOM     15  C   UNL     1      46.171 130.229  18.196  1.00  0.00     0.003 A 
ATOM     16  C   UNL     1      44.189 131.533  17.751  1.00  0.00    -0.130 A 
ATOM     17  C   UNL     1      45.250 130.776  17.304  1.00  0.00    -0.057 A 
ATOM     18  N   UNL     1      43.355 131.987  16.699  1.00  0.00    -0.626 NA
ATOM     19  C   UNL     1      45.215 130.650  15.822  1.00  0.00     0.089 C 
ATOM     20  C   UNL     1      43.981 131.449  15.535  1.00  0.00     0.059 C 
ATOM     21  O   UNL     1      43.527 131.637  14.376  1.00  0.00    -0.320 OA
ENDBRANCH  10  12
ENDBRANCH   1   5
BRANCH   2  22
ATOM     22  N   UNL     1      48.729 134.385  21.636  1.00  0.00    -0.396 NA
BRANCH  22  23
ATOM     23  C   UNL     1      49.630 135.362  22.180  1.00  0.00     0.034 A 
ATOM     24  C   UNL     1      49.752 136.599  21.529  1.00  0.00     0.132 A 
ATOM     25  C   UNL     1      50.439 135.091  23.302  1.00  0.00     0.132 A 
ATOM     26  C   UNL     1      50.633 137.569  22.017  1.00  0.00     0.079 A 
ATOM     27  C   UNL     1      51.318 136.066  23.784  1.00  0.00     0.079 A 
ATOM     28  C   UNL     1      51.411 137.306  23.148  1.00  0.00     0.129 A 
ATOM     29  F   UNL     1      49.006 136.868  20.429  1.00  0.00    -0.207 F 
ATOM     30  F   UNL     1      50.427 133.873  23.897  1.00  0.00    -0.207 F 
ATOM     31  F   UNL     1      52.267 138.247  23.616  1.00  0.00    -0.207 F 
ENDBRANCH  22  23
ENDBRANCH   2  22
TORSDOF 4
ENDMDL
MODEL 3
REMARK VINA RESULT:      -6.0      0.630      1.654
REMARK SMILES Cc1ccc(NC(=O)[N-]c2c(F)cc(F)cc2F)c(-c2ccc3c(c2)[N-]C(=O)C3)c1
REMARK SMILES IDX 6 1 7 2 8 3 5 5 2 6 3 7 30 8 4 9 19 10 1 11 20 12 21 13
REMARK SMILES IDX 25 14 22 15 24 16 23 17 26 18 29 19 27 20 28 21 9 22 10 23
REMARK SMILES IDX 11 24 17 25 13 26 16 27 14 28 12 29 18 30 15 31
REMARK H PARENT 6 4
ROOT
ATOM      1  N   UNL     1      46.445 133.165  21.445  1.00  0.00    -0.423 N 
ATOM      2  C   UNL     1      47.436 133.994  22.065  1.00  0.00     0.160 C 
ATOM      3  O   UNL     1      47.359 134.264  23.295  1.00  0.00    -0.298 OA
ATOM      4  H   UNL     1      46.362 133.199  20.403  1.00  0.00     0.029 HD
ENDROOT
BRANCH   1   5
ATOM      5  C   UNL     1      45.438 132.465  22.190  1.00  0.00    -0.033 A 
ATOM      6  C   UNL     1      43.564 131.049  23.742  1.00  0.00    -0.051 A 
ATOM      7  C   UNL     1      44.472 131.923  24.352  1.00  0.00     0.004 A 
ATOM      8  C   UNL     1      43.561 130.922  22.345  1.00  0.00     0.012 A 
ATOM      9  C   UNL     1      45.401 132.623  23.582  1.00  0.00     0.004 A 
ATOM     10  C   UNL     1      44.483 131.631  21.556  1.00  0.00    -0.015 A 
ATOM     11  C   UNL     1      42.542 130.324  24.568  1.00  0.00     0.044 C 
BRANCH  10  12
ATOM     12  C   UNL     1      44.389 131.530  20.080  1.00  0.00    -0.019 A 
ATOM     13  C   UNL     1      43.249 132.025  19.399  1.00  0.00     0.009 A 
ATOM     14  C   UNL     1      45.430 130.924  19.344  1.00  0.00    -0.007 A 
ATOM     15  C   UNL     1      43.157 131.936  18.002  1.00  0.00     0.003 A 
ATOM     16  C   UNL     1      45.311 130.848  17.956  1.00  0.00    -0.130 A 
ATOM     17  C   UNL     1      44.205 131.342  17.301  1.00  0.00    -0.057 A 
ATOM     18  N   UNL     1      46.275 130.299  17.074  1.00  0.00    -0.626 NA
ATOM     19  C   UNL     1      44.342 131.156  15.831  1.00  0.00     0.089 C 
ATOM     20  C   UNL     1      45.682 130.488  15.790  1.00  0.00     0.059 C 
ATOM     21  O   UNL     1      46.246 130.122  14.726  1.00  0.00    -0.320 OA
ENDBRANCH  10  12
ENDBRANCH   1   5
BRANCH   2  22
ATOM     22  N   UNL     1      48.469 134.573  21.260  1.00  0.00    -0.396 NA
BRANCH  22  23
ATOM     23  C   UNL     1      49.371 135.612  21.668  1.00  0.00     0.034 A 
ATOM     24  C   UNL     1      50.209 135.381  22.771  1.00  0.00     0.132 A 
ATOM     25  C   UNL     1      49.394 136.874  21.039  1.00  0.00     0.132 A 
ATOM     26  C   UNL     1      51.088 136.376  23.210  1.00  0.00     0.079 A 
ATOM     27  C   UNL     1      50.275 137.864  21.484  1.00  0.00     0.079 A 
ATOM     28  C   UNL     1      51.126 137.614  22.563  1.00  0.00     0.129 A 
ATOM     29  F   UNL     1      50.180 134.186  23.410  1.00  0.00    -0.207 F 
ATOM     30  F   UNL     1      48.530 137.173  20.038  1.00  0.00    -0.207 F 
ATOM     31  F   UNL     1      51.977 138.578  22.994  1.00  0.00    -0.207 F 
ENDBRANCH  22  23
ENDBRANCH   2  22
TORSDOF 4
ENDMDL
MODEL 4
REMARK VINA RESULT:      -5.3      6.991      9.284
REMARK SMILES Cc1ccc(NC(=O)[N-]c2c(F)cc(F)cc2F)c(-c2ccc3c(c2)[N-]C(=O)C3)c1
REMARK SMILES IDX 6 1 7 2 8 3 5 5 2 6 3 7 30 8 4 9 19 10 1 11 20 12 21 13
REMARK SMILES IDX 25 14 22 15 24 16 23 17 26 18 29 19 27 20 28 21 9 22 10 23
REMARK SMILES IDX 11 24 17 25 13 26 16 27 14 28 12 29 18 30 15 31
REMARK H PARENT 6 4
ROOT
ATOM      1  N   UNL     1      46.301 124.813  23.087  1.00  0.00    -0.423 N 
ATOM      2  C   UNL     1      47.393 124.066  23.638  1.00  0.00     0.160 C 
ATOM      3  O   UNL     1      47.177 122.991  24.263  1.00  0.00    -0.298 OA
ATOM      4  H   UNL     1      46.468 125.816  22.844  1.00  0.00     0.029 HD
ENDROOT
BRANCH   1   5
ATOM      5  C   UNL     1      44.955 124.315  23.053  1.00  0.00    -0.033 A 
ATOM      6  C   UNL     1      42.358 123.242  22.891  1.00  0.00    -0.051 A 
ATOM      7  C   UNL     1      43.461 122.400  23.074  1.00  0.00     0.004 A 
ATOM      8  C   UNL     1      42.550 124.630  22.839  1.00  0.00     0.012 A 
ATOM      9  C   UNL     1      44.748 122.933  23.152  1.00  0.00     0.004 A 
ATOM     10  C   UNL     1      43.841 125.181  22.930  1.00  0.00    -0.015 A 
ATOM     11  C   UNL     1      40.972 122.670  22.842  1.00  0.00     0.044 C 
BRANCH  10  12
ATOM     12  C   UNL     1      43.989 126.657  22.954  1.00  0.00    -0.019 A 
ATOM     13  C   UNL     1      45.021 127.285  22.215  1.00  0.00     0.009 A 
ATOM     14  C   UNL     1      43.110 127.444  23.729  1.00  0.00    -0.007 A 
ATOM     15  C   UNL     1      45.163 128.681  22.231  1.00  0.00     0.003 A 
ATOM     16  C   UNL     1      43.275 128.828  23.728  1.00  0.00    -0.130 A 
ATOM     17  C   UNL     1      44.274 129.433  22.996  1.00  0.00    -0.057 A 
ATOM     18  N   UNL     1      42.464 129.758  24.426  1.00  0.00    -0.626 NA
ATOM     19  C   UNL     1      44.214 130.912  23.151  1.00  0.00     0.089 C 
ATOM     20  C   UNL     1      43.037 131.016  24.073  1.00  0.00     0.059 C 
ATOM     21  O   UNL     1      42.585 132.108  24.504  1.00  0.00    -0.320 OA
ENDBRANCH  10  12
ENDBRANCH   1   5
BRANCH   2  22
ATOM     22  N   UNL     1      48.722 124.590  23.537  1.00  0.00    -0.396 NA
BRANCH  22  23
ATOM     23  C   UNL     1      49.557 124.547  22.370  1.00  0.00     0.034 A 
ATOM     24  C   UNL     1      49.238 123.641  21.347  1.00  0.00     0.132 A 
ATOM     25  C   UNL     1      50.719 125.337  22.253  1.00  0.00     0.132 A 
ATOM     26  C   UNL     1      50.037 123.556  20.204  1.00  0.00     0.079 A 
ATOM     27  C   UNL     1      51.515 125.246  21.106  1.00  0.00     0.079 A 
ATOM     28  C   UNL     1      51.172 124.363  20.080  1.00  0.00     0.129 A 
ATOM     29  F   UNL     1      48.141 122.849  21.455  1.00  0.00    -0.207 F 
ATOM     30  F   UNL     1      51.121 126.148  23.261  1.00  0.00    -0.207 F 
ATOM     31  F   UNL     1      51.948 124.276  18.971  1.00  0.00    -0.207 F 
ENDBRANCH  22  23
ENDBRANCH   2  22
TORSDOF 4
ENDMDL
MODEL 5
REMARK VINA RESULT:      -4.5      5.235      7.466
REMARK SMILES Cc1ccc(NC(=O)[N-]c2c(F)cc(F)cc2F)c(-c2ccc3c(c2)[N-]C(=O)C3)c1
REMARK SMILES IDX 6 1 7 2 8 3 5 5 2 6 3 7 30 8 4 9 19 10 1 11 20 12 21 13
REMARK SMILES IDX 25 14 22 15 24 16 23 17 26 18 29 19 27 20 28 21 9 22 10 23
REMARK SMILES IDX 11 24 17 25 13 26 16 27 14 28 12 29 18 30 15 31
REMARK H PARENT 6 4
ROOT
ATOM      1  N   UNL     1      44.457 131.013  19.536  1.00  0.00    -0.423 N 
ATOM      2  C   UNL     1      44.487 130.830  18.115  1.00  0.00     0.160 C 
ATOM      3  O   UNL     1      43.471 131.100  17.418  1.00  0.00    -0.298 OA
ATOM      4  H   UNL     1      45.179 130.517  20.108  1.00  0.00     0.029 HD
ENDROOT
BRANCH   1   5
ATOM      5  C   UNL     1      43.372 131.662  20.215  1.00  0.00    -0.033 A 
ATOM      6  C   UNL     1      41.291 133.059  21.497  1.00  0.00    -0.051 A 
ATOM      7  C   UNL     1      41.578 133.298  20.148  1.00  0.00     0.004 A 
ATOM      8  C   UNL     1      42.016 132.082  22.194  1.00  0.00     0.012 A 
ATOM      9  C   UNL     1      42.610 132.606  19.514  1.00  0.00     0.004 A 
ATOM     10  C   UNL     1      43.050 131.367  21.564  1.00  0.00    -0.015 A 
ATOM     11  C   UNL     1      40.158 133.779  22.167  1.00  0.00     0.044 C 
BRANCH  10  12
ATOM     12  C   UNL     1      43.734 130.286  22.313  1.00  0.00    -0.019 A 
ATOM     13  C   UNL     1      43.747 130.294  23.730  1.00  0.00     0.009 A 
ATOM     14  C   UNL     1      44.390 129.248  21.618  1.00  0.00    -0.007 A 
ATOM     15  C   UNL     1      44.388 129.271  24.444  1.00  0.00     0.003 A 
ATOM     16  C   UNL     1      45.020 128.244  22.353  1.00  0.00    -0.130 A 
ATOM     17  C   UNL     1      45.019 128.253  23.730  1.00  0.00    -0.057 A 
ATOM     18  N   UNL     1      45.695 127.123  21.810  1.00  0.00    -0.626 NA
ATOM     19  C   UNL     1      45.737 127.063  24.261  1.00  0.00     0.089 C 
ATOM     20  C   UNL     1      46.127 126.412  22.970  1.00  0.00     0.059 C 
ATOM     21  O   UNL     1      46.775 125.336  22.900  1.00  0.00    -0.320 OA
ENDBRANCH  10  12
ENDBRANCH   1   5
BRANCH   2  22
ATOM     22  N   UNL     1      45.655 130.268  17.506  1.00  0.00    -0.396 NA
BRANCH  22  23
ATOM     23  C   UNL     1      46.107 130.515  16.166  1.00  0.00     0.034 A 
ATOM     24  C   UNL     1      46.196 131.843  15.720  1.00  0.00     0.132 A 
ATOM     25  C   UNL     1      46.399 129.467  15.269  1.00  0.00     0.132 A 
ATOM     26  C   UNL     1      46.615 132.124  14.416  1.00  0.00     0.079 A 
ATOM     27  C   UNL     1      46.816 129.755  13.965  1.00  0.00     0.079 A 
ATOM     28  C   UNL     1      46.931 131.081  13.541  1.00  0.00     0.129 A 
ATOM     29  F   UNL     1      45.890 132.865  16.558  1.00  0.00    -0.207 F 
ATOM     30  F   UNL     1      46.226 128.171  15.625  1.00  0.00    -0.207 F 
ATOM     31  F   UNL     1      47.333 131.356  12.276  1.00  0.00    -0.207 F 
ENDBRANCH  22  23
ENDBRANCH   2  22
TORSDOF 4
ENDMDL
MODEL 6
REMARK VINA RESULT:      -4.3      5.220      7.486
REMARK SMILES Cc1ccc(NC(=O)[N-]c2c(F)cc(F)cc2F)c(-c2ccc3c(c2)[N-]C(=O)C3)c1
REMARK SMILES IDX 6 1 7 2 8 3 5 5 2 6 3 7 30 8 4 9 19 10 1 11 20 12 21 13
REMARK SMILES IDX 25 14 22 15 24 16 23 17 26 18 29 19 27 20 28 21 9 22 10 23
REMARK SMILES IDX 11 24 17 25 13 26 16 27 14 28 12 29 18 30 15 31
REMARK H PARENT 6 4
ROOT
ATOM      1  N   UNL     1      44.474 131.027  19.692  1.00  0.00    -0.423 N 
ATOM      2  C   UNL     1      44.604 131.151  18.270  1.00  0.00     0.160 C 
ATOM      3  O   UNL     1      43.679 131.673  17.590  1.00  0.00    -0.298 OA
ATOM      4  H   UNL     1      45.097 130.345  20.182  1.00  0.00     0.029 HD
ENDROOT
BRANCH   1   5
ATOM      5  C   UNL     1      43.402 131.629  20.431  1.00  0.00    -0.033 A 
ATOM      6  C   UNL     1      41.346 132.939  21.840  1.00  0.00    -0.051 A 
ATOM      7  C   UNL     1      41.616 133.274  20.508  1.00  0.00     0.004 A 
ATOM      8  C   UNL     1      42.075 131.910  22.453  1.00  0.00     0.012 A 
ATOM      9  C   UNL     1      42.636 132.626  19.811  1.00  0.00     0.004 A 
ATOM     10  C   UNL     1      43.097 131.239  21.759  1.00  0.00    -0.015 A 
ATOM     11  C   UNL     1      40.226 133.613  22.576  1.00  0.00     0.044 C 
BRANCH  10  12
ATOM     12  C   UNL     1      43.784 130.103  22.418  1.00  0.00    -0.019 A 
ATOM     13  C   UNL     1      43.611 129.868  23.805  1.00  0.00     0.009 A 
ATOM     14  C   UNL     1      44.629 129.256  21.670  1.00  0.00    -0.007 A 
ATOM     15  C   UNL     1      44.256 128.791  24.433  1.00  0.00     0.003 A 
ATOM     16  C   UNL     1      45.259 128.195  22.320  1.00  0.00    -0.130 A 
ATOM     17  C   UNL     1      45.076 127.966  23.666  1.00  0.00    -0.057 A 
ATOM     18  N   UNL     1      46.111 127.241  21.710  1.00  0.00    -0.626 NA
ATOM     19  C   UNL     1      45.838 126.764  24.100  1.00  0.00     0.089 C 
ATOM     20  C   UNL     1      46.458 126.378  22.792  1.00  0.00     0.059 C 
ATOM     21  O   UNL     1      47.218 125.386  22.647  1.00  0.00    -0.320 OA
ENDBRANCH  10  12
ENDBRANCH   1   5
BRANCH   2  22
ATOM     22  N   UNL     1      45.761 130.609  17.622  1.00  0.00    -0.396 NA
BRANCH  22  23
ATOM     23  C   UNL     1      46.090 130.747  16.232  1.00  0.00     0.034 A 
ATOM     24  C   UNL     1      46.337 129.588  15.481  1.00  0.00     0.132 A 
ATOM     25  C   UNL     1      46.236 132.009  15.620  1.00  0.00     0.132 A 
ATOM     26  C   UNL     1      46.679 129.683  14.128  1.00  0.00     0.079 A 
ATOM     27  C   UNL     1      46.579 132.096  14.267  1.00  0.00     0.079 A 
ATOM     28  C   UNL     1      46.794 130.936  13.520  1.00  0.00     0.129 A 
ATOM     29  F   UNL     1      46.233 128.365  16.059  1.00  0.00    -0.207 F 
ATOM     30  F   UNL     1      46.108 133.154  16.334  1.00  0.00    -0.207 F 
ATOM     31  F   UNL     1      47.129 131.025  12.209  1.00  0.00    -0.207 F 
ENDBRANCH  22  23
ENDBRANCH   2  22
TORSDOF 4
ENDMDL
MODEL 7
REMARK VINA RESULT:      -4.0      3.810      7.545
REMARK SMILES Cc1ccc(NC(=O)[N-]c2c(F)cc(F)cc2F)c(-c2ccc3c(c2)[N-]C(=O)C3)c1
REMARK SMILES IDX 6 1 7 2 8 3 5 5 2 6 3 7 30 8 4 9 19 10 1 11 20 12 21 13
REMARK SMILES IDX 25 14 22 15 24 16 23 17 26 18 29 19 27 20 28 21 9 22 10 23
REMARK SMILES IDX 11 24 17 25 13 26 16 27 14 28 12 29 18 30 15 31
REMARK H PARENT 6 4
ROOT
ATOM      1  N   UNL     1      45.244 131.456  20.310  1.00  0.00    -0.423 N 
ATOM      2  C   UNL     1      44.093 131.817  19.536  1.00  0.00     0.160 C 
ATOM      3  O   UNL     1      43.361 132.779  19.897  1.00  0.00    -0.298 OA
ATOM      4  H   UNL     1      45.651 130.504  20.166  1.00  0.00     0.029 HD
ENDROOT
BRANCH   1   5
ATOM      5  C   UNL     1      45.725 132.248  21.406  1.00  0.00    -0.033 A 
ATOM      6  C   UNL     1      46.802 133.781  23.508  1.00  0.00    -0.051 A 
ATOM      7  C   UNL     1      47.185 134.027  22.184  1.00  0.00     0.004 A 
ATOM      8  C   UNL     1      45.839 132.797  23.776  1.00  0.00     0.012 A 
ATOM      9  C   UNL     1      46.653 133.265  21.144  1.00  0.00     0.004 A 
ATOM     10  C   UNL     1      45.284 132.031  22.736  1.00  0.00    -0.015 A 
ATOM     11  C   UNL     1      47.349 134.624  24.622  1.00  0.00     0.044 C 
BRANCH  10  12
ATOM     12  C   UNL     1      44.209 131.061  23.055  1.00  0.00    -0.019 A 
ATOM     13  C   UNL     1      42.897 131.514  23.342  1.00  0.00     0.009 A 
ATOM     14  C   UNL     1      44.490 129.679  23.092  1.00  0.00    -0.007 A 
ATOM     15  C   UNL     1      41.875 130.600  23.640  1.00  0.00     0.003 A 
ATOM     16  C   UNL     1      43.457 128.793  23.393  1.00  0.00    -0.130 A 
ATOM     17  C   UNL     1      42.181 129.241  23.659  1.00  0.00    -0.057 A 
ATOM     18  N   UNL     1      43.566 127.381  23.443  1.00  0.00    -0.626 NA
ATOM     19  C   UNL     1      41.270 128.095  23.924  1.00  0.00     0.089 C 
ATOM     20  C   UNL     1      42.240 126.965  23.765  1.00  0.00     0.059 C 
ATOM     21  O   UNL     1      41.927 125.753  23.899  1.00  0.00    -0.320 OA
ENDBRANCH  10  12
ENDBRANCH   1   5
BRANCH   2  22
ATOM     22  N   UNL     1      43.743 131.029  18.393  1.00  0.00    -0.396 NA
BRANCH  22  23
ATOM     23  C   UNL     1      44.396 131.062  17.116  1.00  0.00     0.034 A 
ATOM     24  C   UNL     1      45.716 130.592  17.023  1.00  0.00     0.132 A 
ATOM     25  C   UNL     1      43.779 131.610  15.973  1.00  0.00     0.132 A 
ATOM     26  C   UNL     1      46.393 130.625  15.800  1.00  0.00     0.079 A 
ATOM     27  C   UNL     1      44.463 131.640  14.753  1.00  0.00     0.079 A 
ATOM     28  C   UNL     1      45.765 131.142  14.664  1.00  0.00     0.129 A 
ATOM     29  F   UNL     1      46.339 130.091  18.118  1.00  0.00    -0.207 F 
ATOM     30  F   UNL     1      42.546 132.168  16.041  1.00  0.00    -0.207 F 
ATOM     31  F   UNL     1      46.425 131.176  13.481  1.00  0.00    -0.207 F 
ENDBRANCH  22  23
ENDBRANCH   2  22
TORSDOF 4
ENDMDL
MODEL 8
REMARK VINA RESULT:      -3.8      6.438      8.844
REMARK SMILES Cc1ccc(NC(=O)[N-]c2c(F)cc(F)cc2F)c(-c2ccc3c(c2)[N-]C(=O)C3)c1
REMARK SMILES IDX 6 1 7 2 8 3 5 5 2 6 3 7 30 8 4 9 19 10 1 11 20 12 21 13
REMARK SMILES IDX 25 14 22 15 24 16 23 17 26 18 29 19 27 20 28 21 9 22 10 23
REMARK SMILES IDX 11 24 17 25 13 26 16 27 14 28 12 29 18 30 15 31
REMARK H PARENT 6 4
ROOT
ATOM      1  N   UNL     1      45.696 125.764  23.431  1.00  0.00    -0.423 N 
ATOM      2  C   UNL     1      46.696 124.742  23.531  1.00  0.00     0.160 C 
ATOM      3  O   UNL     1      46.402 123.609  24.002  1.00  0.00    -0.298 OA
ATOM      4  H   UNL     1      46.016 126.753  23.323  1.00  0.00     0.029 HD
ENDROOT
BRANCH   1   5
ATOM      5  C   UNL     1      44.304 125.519  23.684  1.00  0.00    -0.033 A 
ATOM      6  C   UNL     1      41.582 124.928  24.089  1.00  0.00    -0.051 A 
ATOM      7  C   UNL     1      42.545 123.915  24.168  1.00  0.00     0.004 A 
ATOM      8  C   UNL     1      41.988 126.250  23.855  1.00  0.00     0.012 A 
ATOM      9  C   UNL     1      43.894 124.209  23.966  1.00  0.00     0.004 A 
ATOM     10  C   UNL     1      43.345 126.562  23.662  1.00  0.00    -0.015 A 
ATOM     11  C   UNL     1      40.136 124.617  24.341  1.00  0.00     0.044 C 
BRANCH  10  12
ATOM     12  C   UNL     1      43.737 127.983  23.502  1.00  0.00    -0.019 A 
ATOM     13  C   UNL     1      43.764 128.850  24.622  1.00  0.00     0.009 A 
ATOM     14  C   UNL     1      44.071 128.486  22.226  1.00  0.00    -0.007 A 
ATOM     15  C   UNL     1      44.139 130.194  24.477  1.00  0.00     0.003 A 
ATOM     16  C   UNL     1      44.437 129.826  22.109  1.00  0.00    -0.130 A 
ATOM     17  C   UNL     1      44.473 130.659  23.206  1.00  0.00    -0.057 A 
ATOM     18  N   UNL     1      44.826 130.475  20.911  1.00  0.00    -0.626 NA
ATOM     19  C   UNL     1      44.917 132.023  22.811  1.00  0.00     0.089 C 
ATOM     20  C   UNL     1      45.115 131.804  21.343  1.00  0.00     0.059 C 
ATOM     21  O   UNL     1      45.501 132.702  20.550  1.00  0.00    -0.320 OA
ENDBRANCH  10  12
ENDBRANCH   1   5
BRANCH   2  22
ATOM     22  N   UNL     1      48.045 125.045  23.160  1.00  0.00    -0.396 NA
BRANCH  22  23
ATOM     23  C   UNL     1      48.788 124.418  22.104  1.00  0.00     0.034 A 
ATOM     24  C   UNL     1      50.181 124.589  22.067  1.00  0.00     0.132 A 
ATOM     25  C   UNL     1      48.157 123.695  21.071  1.00  0.00     0.132 A 
ATOM     26  C   UNL     1      50.937 124.010  21.044  1.00  0.00     0.079 A 
ATOM     27  C   UNL     1      48.920 123.119  20.050  1.00  0.00     0.079 A 
ATOM     28  C   UNL     1      50.309 123.270  20.040  1.00  0.00     0.129 A 
ATOM     29  F   UNL     1      50.805 125.308  23.034  1.00  0.00    -0.207 F 
ATOM     30  F   UNL     1      46.807 123.593  21.011  1.00  0.00    -0.207 F 
ATOM     31  F   UNL     1      51.044 122.713  19.046  1.00  0.00    -0.207 F 
ENDBRANCH  22  23
ENDBRANCH   2  22
TORSDOF 4
ENDMDL
MODEL 9
REMARK VINA RESULT:      -3.7      5.136      7.617
REMARK SMILES Cc1ccc(NC(=O)[N-]c2c(F)cc(F)cc2F)c(-c2ccc3c(c2)[N-]C(=O)C3)c1
REMARK SMILES IDX 6 1 7 2 8 3 5 5 2 6 3 7 30 8 4 9 19 10 1 11 20 12 21 13
REMARK SMILES IDX 25 14 22 15 24 16 23 17 26 18 29 19 27 20 28 21 9 22 10 23
REMARK SMILES IDX 11 24 17 25 13 26 16 27 14 28 12 29 18 30 15 31
REMARK H PARENT 6 4
ROOT
ATOM      1  N   UNL     1      44.041 130.575  19.822  1.00  0.00    -0.423 N 
ATOM      2  C   UNL     1      45.350 131.001  19.421  1.00  0.00     0.160 C 
ATOM      3  O   UNL     1      45.941 131.919  20.053  1.00  0.00    -0.298 OA
ATOM      4  H   UNL     1      43.466 130.044  19.129  1.00  0.00     0.029 HD
ENDROOT
BRANCH   1   5
ATOM      5  C   UNL     1      43.414 131.022  21.033  1.00  0.00    -0.033 A 
ATOM      6  C   UNL     1      42.233 132.030  23.381  1.00  0.00    -0.051 A 
ATOM      7  C   UNL     1      42.051 132.688  22.159  1.00  0.00     0.004 A 
ATOM      8  C   UNL     1      42.966 130.836  23.419  1.00  0.00     0.012 A 
ATOM      9  C   UNL     1      42.639 132.189  20.996  1.00  0.00     0.004 A 
ATOM     10  C   UNL     1      43.553 130.314  22.252  1.00  0.00    -0.015 A 
ATOM     11  C   UNL     1      41.571 132.549  24.624  1.00  0.00     0.044 C 
BRANCH  10  12
ATOM     12  C   UNL     1      44.248 129.006  22.324  1.00  0.00    -0.019 A 
ATOM     13  C   UNL     1      45.442 128.789  21.592  1.00  0.00     0.009 A 
ATOM     14  C   UNL     1      43.716 127.963  23.110  1.00  0.00    -0.007 A 
ATOM     15  C   UNL     1      46.107 127.555  21.659  1.00  0.00     0.003 A 
ATOM     16  C   UNL     1      44.396 126.747  23.158  1.00  0.00    -0.130 A 
ATOM     17  C   UNL     1      45.562 126.547  22.453  1.00  0.00    -0.057 A 
ATOM     18  N   UNL     1      44.011 125.614  23.918  1.00  0.00    -0.626 NA
ATOM     19  C   UNL     1      46.092 125.178  22.696  1.00  0.00     0.089 C 
ATOM     20  C   UNL     1      45.042 124.669  23.634  1.00  0.00     0.059 C 
ATOM     21  O   UNL     1      45.055 123.514  24.134  1.00  0.00    -0.320 OA
ENDBRANCH  10  12
ENDBRANCH   1   5
BRANCH   2  22
ATOM     22  N   UNL     1      45.946 130.427  18.253  1.00  0.00    -0.396 NA
BRANCH  22  23
ATOM     23  C   UNL     1      45.516 130.636  16.899  1.00  0.00     0.034 A 
ATOM     24  C   UNL     1      46.301 130.120  15.857  1.00  0.00     0.132 A 
ATOM     25  C   UNL     1      44.371 131.397  16.586  1.00  0.00     0.132 A 
ATOM     26  C   UNL     1      45.926 130.319  14.525  1.00  0.00     0.079 A 
ATOM     27  C   UNL     1      44.003 131.593  15.252  1.00  0.00     0.079 A 
ATOM     28  C   UNL     1      44.774 131.049  14.222  1.00  0.00     0.129 A 
ATOM     29  F   UNL     1      47.424 129.411  16.135  1.00  0.00    -0.207 F 
ATOM     30  F   UNL     1      43.644 132.000  17.558  1.00  0.00    -0.207 F 
ATOM     31  F   UNL     1      44.415 131.244  12.929  1.00  0.00    -0.207 F 
ENDBRANCH  22  23
ENDBRANCH   2  22
TORSDOF 4
ENDMDL


