MODEL 1
REMARK VINA RESULT:      -3.7      0.000      0.000
REMARK SMILES C=C[C@H]1C[C@](Nc2ccc3cc[nH]c3c2)(c2ccc(C(C)=O)cc2)[C@H](F)C[C@H]1O
REMARK SMILES IDX 3 1 4 2 5 3 25 4 26 5 27 6 28 7 2 8 1 9 29 10 6 12 7 14 8 15
REMARK SMILES IDX 15 16 9 17 14 18 10 19 13 20 11 21 12 22 16 24 17 25 24 26
REMARK SMILES IDX 18 27 23 28 19 29 20 30 21 31 22 32
REMARK H PARENT 29 11 6 13 13 23
ROOT
ATOM      1  C   UNL     1      46.569 124.110  23.672  1.00  0.00     0.043 C 
ATOM      2  C   UNL     1      45.078 124.247  24.060  1.00  0.00     0.046 C 
ATOM      3  C   UNL     1      44.352 125.463  23.389  1.00  0.00     0.095 C 
ATOM      4  C   UNL     1      44.550 125.340  21.846  1.00  0.00     0.199 C 
ATOM      5  F   UNL     1      43.855 124.241  21.360  1.00  0.00    -0.244 F 
ATOM      6  C   UNL     1      46.030 125.216  21.436  1.00  0.00     0.073 C 
ATOM      7  C   UNL     1      46.720 124.034  22.137  1.00  0.00     0.124 C 
ENDROOT
BRANCH   1   8
ATOM      8  C   UNL     1      47.431 125.192  24.293  1.00  0.00    -0.029 C 
ATOM      9  C   UNL     1      48.033 126.122  23.544  1.00  0.00     0.004 C 
ENDBRANCH   1   8
BRANCH   7  10
ATOM     10  O   UNL     1      48.080 123.993  21.791  1.00  0.00    -0.392 OA
ATOM     11  H   UNL     1      48.499 124.808  22.172  1.00  0.00     0.210 HD
ENDBRANCH   7  10
BRANCH   3  12
ATOM     12  N   UNL     1      44.948 126.734  23.864  1.00  0.00    -0.373 N 
ATOM     13  H   UNL     1      45.752 126.674  24.530  1.00  0.00     0.161 HD
BRANCH  12  14
ATOM     14  C   UNL     1      44.558 128.072  23.480  1.00  0.00     0.037 A 
ATOM     15  C   UNL     1      43.788 128.840  24.396  1.00  0.00     0.026 A 
ATOM     16  C   UNL     1      44.918 128.648  22.235  1.00  0.00     0.052 A 
ATOM     17  C   UNL     1      43.368 130.143  24.079  1.00  0.00     0.012 A 
ATOM     18  C   UNL     1      44.485 129.941  21.954  1.00  0.00     0.047 A 
ATOM     19  C   UNL     1      43.737 130.661  22.843  1.00  0.00    -0.001 A 
ATOM     20  N   UNL     1      44.715 130.653  20.838  1.00  0.00    -0.361 N 
ATOM     21  C   UNL     1      43.476 131.886  22.269  1.00  0.00     0.028 A 
ATOM     22  C   UNL     1      44.099 131.843  21.026  1.00  0.00     0.083 A 
ATOM     23  H   UNL     1      45.256 130.353  19.997  1.00  0.00     0.166 HD
ENDBRANCH  12  14
ENDBRANCH   3  12
BRANCH   3  24
ATOM     24  C   UNL     1      42.835 125.509  23.651  1.00  0.00    -0.020 A 
ATOM     25  C   UNL     1      42.026 124.474  23.139  1.00  0.00     0.007 A 
ATOM     26  C   UNL     1      42.207 126.522  24.409  1.00  0.00     0.007 A 
ATOM     27  C   UNL     1      40.646 124.459  23.356  1.00  0.00     0.012 A 
ATOM     28  C   UNL     1      40.827 126.505  24.624  1.00  0.00     0.012 A 
ATOM     29  C   UNL     1      40.027 125.476  24.100  1.00  0.00     0.017 A 
BRANCH  29  30
ATOM     30  C   UNL     1      38.558 125.478  24.338  1.00  0.00     0.159 C 
ATOM     31  C   UNL     1      37.782 124.208  24.524  1.00  0.00     0.093 C 
ATOM     32  O   UNL     1      37.933 126.572  24.387  1.00  0.00    -0.295 OA
ENDBRANCH  29  30
ENDBRANCH   3  24
TORSDOF 6
ENDMDL
MODEL 2
REMARK VINA RESULT:      -3.5      3.814      7.950
REMARK SMILES C=C[C@H]1C[C@](Nc2ccc3cc[nH]c3c2)(c2ccc(C(C)=O)cc2)[C@H](F)C[C@H]1O
REMARK SMILES IDX 3 1 4 2 5 3 25 4 26 5 27 6 28 7 2 8 1 9 29 10 6 12 7 14 8 15
REMARK SMILES IDX 15 16 9 17 14 18 10 19 13 20 11 21 12 22 16 24 17 25 24 26
REMARK SMILES IDX 18 27 23 28 19 29 20 30 21 31 22 32
REMARK H PARENT 29 11 6 13 13 23
ROOT
ATOM      1  C   UNL     1      43.870 132.591  23.116  1.00  0.00     0.043 C 
ATOM      2  C   UNL     1      44.326 132.571  21.638  1.00  0.00     0.046 C 
ATOM      3  C   UNL     1      44.383 131.138  21.007  1.00  0.00     0.095 C 
ATOM      4  C   UNL     1      42.981 130.480  21.199  1.00  0.00     0.199 C 
ATOM      5  F   UNL     1      42.033 131.136  20.426  1.00  0.00    -0.244 F 
ATOM      6  C   UNL     1      42.513 130.477  22.666  1.00  0.00     0.073 C 
ATOM      7  C   UNL     1      42.500 131.894  23.264  1.00  0.00     0.124 C 
ENDROOT
BRANCH   1   8
ATOM      8  C   UNL     1      44.920 132.029  24.054  1.00  0.00    -0.029 C 
ATOM      9  C   UNL     1      45.947 132.771  24.480  1.00  0.00     0.004 C 
ENDBRANCH   1   8
BRANCH   7  10
ATOM     10  O   UNL     1      42.132 131.844  24.619  1.00  0.00    -0.392 OA
ATOM     11  H   UNL     1      42.182 132.773  24.966  1.00  0.00     0.210 HD
ENDBRANCH   7  10
BRANCH   3  12
ATOM     12  N   UNL     1      45.411 130.322  21.694  1.00  0.00    -0.373 N 
ATOM     13  H   UNL     1      46.364 130.737  21.808  1.00  0.00     0.161 HD
BRANCH  12  14
ATOM     14  C   UNL     1      45.235 129.004  22.263  1.00  0.00     0.037 A 
ATOM     15  C   UNL     1      44.696 128.900  23.574  1.00  0.00     0.026 A 
ATOM     16  C   UNL     1      45.572 127.817  21.563  1.00  0.00     0.052 A 
ATOM     17  C   UNL     1      44.510 127.649  24.187  1.00  0.00     0.012 A 
ATOM     18  C   UNL     1      45.375 126.596  22.200  1.00  0.00     0.047 A 
ATOM     19  C   UNL     1      44.864 126.515  23.466  1.00  0.00    -0.001 A 
ATOM     20  N   UNL     1      45.634 125.371  21.713  1.00  0.00    -0.361 N 
ATOM     21  C   UNL     1      44.795 125.181  23.801  1.00  0.00     0.028 A 
ATOM     22  C   UNL     1      45.282 124.502  22.689  1.00  0.00     0.083 A 
ATOM     23  H   UNL     1      46.027 125.133  20.775  1.00  0.00     0.166 HD
ENDBRANCH  12  14
ENDBRANCH   3  12
BRANCH   3  24
ATOM     24  C   UNL     1      44.686 131.132  19.496  1.00  0.00    -0.020 A 
ATOM     25  C   UNL     1      45.638 130.219  18.999  1.00  0.00     0.007 A 
ATOM     26  C   UNL     1      44.034 131.975  18.569  1.00  0.00     0.007 A 
ATOM     27  C   UNL     1      45.944 130.162  17.637  1.00  0.00     0.012 A 
ATOM     28  C   UNL     1      44.342 131.916  17.208  1.00  0.00     0.012 A 
ATOM     29  C   UNL     1      45.301 131.012  16.722  1.00  0.00     0.017 A 
BRANCH  29  30
ATOM     30  C   UNL     1      45.616 130.968  15.269  1.00  0.00     0.159 C 
ATOM     31  C   UNL     1      46.393 129.839  14.659  1.00  0.00     0.093 C 
ATOM     32  O   UNL     1      45.226 131.900  14.514  1.00  0.00    -0.295 OA
ENDBRANCH  29  30
ENDBRANCH   3  24
TORSDOF 6
ENDMDL
MODEL 3
REMARK VINA RESULT:      -3.2      3.185      6.561
REMARK SMILES C=C[C@H]1C[C@](Nc2ccc3cc[nH]c3c2)(c2ccc(C(C)=O)cc2)[C@H](F)C[C@H]1O
REMARK SMILES IDX 3 1 4 2 5 3 25 4 26 5 27 6 28 7 2 8 1 9 29 10 6 12 7 14 8 15
REMARK SMILES IDX 15 16 9 17 14 18 10 19 13 20 11 21 12 22 16 24 17 25 24 26
REMARK SMILES IDX 18 27 23 28 19 29 20 30 21 31 22 32
REMARK H PARENT 29 11 6 13 13 23
ROOT
ATOM      1  C   UNL     1      42.207 130.954  22.033  1.00  0.00     0.043 C 
ATOM      2  C   UNL     1      42.896 129.586  21.811  1.00  0.00     0.046 C 
ATOM      3  C   UNL     1      44.331 129.485  22.433  1.00  0.00     0.095 C 
ATOM      4  C   UNL     1      44.217 129.849  23.947  1.00  0.00     0.199 C 
ATOM      5  F   UNL     1      43.503 128.870  24.623  1.00  0.00    -0.244 F 
ATOM      6  C   UNL     1      43.547 131.214  24.189  1.00  0.00     0.073 C 
ATOM      7  C   UNL     1      42.155 131.290  23.539  1.00  0.00     0.124 C 
ENDROOT
BRANCH   1   8
ATOM      8  C   UNL     1      42.834 132.059  21.206  1.00  0.00    -0.029 C 
ATOM      9  C   UNL     1      42.100 132.830  20.398  1.00  0.00     0.004 C 
ENDBRANCH   1   8
BRANCH   7  10
ATOM     10  O   UNL     1      41.604 132.569  23.725  1.00  0.00    -0.392 OA
ATOM     11  H   UNL     1      41.177 132.570  24.622  1.00  0.00     0.210 HD
ENDBRANCH   7  10
BRANCH   3  12
ATOM     12  N   UNL     1      45.242 130.441  21.762  1.00  0.00    -0.373 N 
ATOM     13  H   UNL     1      45.914 130.974  22.362  1.00  0.00     0.161 HD
BRANCH  12  14
ATOM     14  C   UNL     1      45.332 130.705  20.343  1.00  0.00     0.037 A 
ATOM     15  C   UNL     1      45.013 132.010  19.877  1.00  0.00     0.026 A 
ATOM     16  C   UNL     1      45.730 129.720  19.405  1.00  0.00     0.052 A 
ATOM     17  C   UNL     1      45.070 132.328  18.510  1.00  0.00     0.012 A 
ATOM     18  C   UNL     1      45.776 130.069  18.058  1.00  0.00     0.047 A 
ATOM     19  C   UNL     1      45.456 131.327  17.627  1.00  0.00    -0.001 A 
ATOM     20  N   UNL     1      46.119 129.284  17.023  1.00  0.00    -0.361 N 
ATOM     21  C   UNL     1      45.601 131.345  16.257  1.00  0.00     0.028 A 
ATOM     22  C   UNL     1      46.014 130.060  15.920  1.00  0.00     0.083 A 
ATOM     23  H   UNL     1      46.410 128.282  17.059  1.00  0.00     0.166 HD
ENDBRANCH  12  14
ENDBRANCH   3  12
BRANCH   3  24
ATOM     24  C   UNL     1      44.952 128.078  22.348  1.00  0.00    -0.020 A 
ATOM     25  C   UNL     1      44.133 126.958  22.597  1.00  0.00     0.007 A 
ATOM     26  C   UNL     1      46.301 127.843  22.001  1.00  0.00     0.007 A 
ATOM     27  C   UNL     1      44.640 125.659  22.524  1.00  0.00     0.012 A 
ATOM     28  C   UNL     1      46.806 126.543  21.928  1.00  0.00     0.012 A 
ATOM     29  C   UNL     1      45.986 125.433  22.190  1.00  0.00     0.017 A 
BRANCH  29  30
ATOM     30  C   UNL     1      46.545 124.057  22.110  1.00  0.00     0.159 C 
ATOM     31  C   UNL     1      45.672 122.858  21.880  1.00  0.00     0.093 C 
ATOM     32  O   UNL     1      47.786 123.876  22.237  1.00  0.00    -0.295 OA
ENDBRANCH  29  30
ENDBRANCH   3  24
TORSDOF 6
ENDMDL
MODEL 4
REMARK VINA RESULT:      -2.8      4.042      8.263
REMARK SMILES C=C[C@H]1C[C@](Nc2ccc3cc[nH]c3c2)(c2ccc(C(C)=O)cc2)[C@H](F)C[C@H]1O
REMARK SMILES IDX 3 1 4 2 5 3 25 4 26 5 27 6 28 7 2 8 1 9 29 10 6 12 7 14 8 15
REMARK SMILES IDX 15 16 9 17 14 18 10 19 13 20 11 21 12 22 16 24 17 25 24 26
REMARK SMILES IDX 18 27 23 28 19 29 20 30 21 31 22 32
REMARK H PARENT 29 11 6 13 13 23
ROOT
ATOM      1  C   UNL     1      43.991 132.647  22.246  1.00  0.00     0.043 C 
ATOM      2  C   UNL     1      44.607 132.482  20.836  1.00  0.00     0.046 C 
ATOM      3  C   UNL     1      44.652 131.000  20.328  1.00  0.00     0.095 C 
ATOM      4  C   UNL     1      43.201 130.429  20.407  1.00  0.00     0.199 C 
ATOM      5  F   UNL     1      42.385 131.063  19.481  1.00  0.00    -0.244 F 
ATOM      6  C   UNL     1      42.574 130.570  21.806  1.00  0.00     0.073 C 
ATOM      7  C   UNL     1      42.576 132.031  22.288  1.00  0.00     0.124 C 
ENDROOT
BRANCH   1   8
ATOM      8  C   UNL     1      44.896 132.114  23.339  1.00  0.00    -0.029 C 
ATOM      9  C   UNL     1      44.718 132.453  24.620  1.00  0.00     0.004 C 
ENDBRANCH   1   8
BRANCH   7  10
ATOM     10  O   UNL     1      42.057 132.112  23.590  1.00  0.00    -0.392 OA
ATOM     11  H   UNL     1      41.198 131.613  23.590  1.00  0.00     0.210 HD
ENDBRANCH   7  10
BRANCH   3  12
ATOM     12  N   UNL     1      45.548 130.195  21.191  1.00  0.00    -0.373 N 
ATOM     13  H   UNL     1      46.475 130.606  21.445  1.00  0.00     0.161 HD
BRANCH  12  14
ATOM     14  C   UNL     1      45.269 128.894  21.757  1.00  0.00     0.037 A 
ATOM     15  C   UNL     1      44.132 128.752  22.598  1.00  0.00     0.026 A 
ATOM     16  C   UNL     1      46.080 127.758  21.500  1.00  0.00     0.052 A 
ATOM     17  C   UNL     1      43.813 127.517  23.187  1.00  0.00     0.012 A 
ATOM     18  C   UNL     1      45.734 126.551  22.100  1.00  0.00     0.047 A 
ATOM     19  C   UNL     1      44.642 126.435  22.915  1.00  0.00    -0.001 A 
ATOM     20  N   UNL     1      46.371 125.373  21.988  1.00  0.00    -0.361 N 
ATOM     21  C   UNL     1      44.579 125.127  23.341  1.00  0.00     0.028 A 
ATOM     22  C   UNL     1      45.668 124.499  22.746  1.00  0.00     0.083 A 
ATOM     23  H   UNL     1      47.231 125.169  21.432  1.00  0.00     0.166 HD
ENDBRANCH  12  14
ENDBRANCH   3  12
BRANCH   3  24
ATOM     24  C   UNL     1      45.120 130.853  18.867  1.00  0.00    -0.020 A 
ATOM     25  C   UNL     1      44.863 131.904  17.964  1.00  0.00     0.007 A 
ATOM     26  C   UNL     1      45.826 129.728  18.387  1.00  0.00     0.007 A 
ATOM     27  C   UNL     1      45.275 131.829  16.631  1.00  0.00     0.012 A 
ATOM     28  C   UNL     1      46.236 129.655  17.054  1.00  0.00     0.012 A 
ATOM     29  C   UNL     1      45.966 130.701  16.157  1.00  0.00     0.017 A 
BRANCH  29  30
ATOM     30  C   UNL     1      46.408 130.602  14.740  1.00  0.00     0.159 C 
ATOM     31  C   UNL     1      47.518 129.686  14.317  1.00  0.00     0.093 C 
ATOM     32  O   UNL     1      45.842 131.302  13.856  1.00  0.00    -0.295 OA
ENDBRANCH  29  30
ENDBRANCH   3  24
TORSDOF 6
ENDMDL
MODEL 5
REMARK VINA RESULT:      -2.7      4.271      8.393
REMARK SMILES C=C[C@H]1C[C@](Nc2ccc3cc[nH]c3c2)(c2ccc(C(C)=O)cc2)[C@H](F)C[C@H]1O
REMARK SMILES IDX 3 1 4 2 5 3 25 4 26 5 27 6 28 7 2 8 1 9 29 10 6 12 7 14 8 15
REMARK SMILES IDX 15 16 9 17 14 18 10 19 13 20 11 21 12 22 16 24 17 25 24 26
REMARK SMILES IDX 18 27 23 28 19 29 20 30 21 31 22 32
REMARK H PARENT 29 11 6 13 13 23
ROOT
ATOM      1  C   UNL     1      43.683 129.455  24.256  1.00  0.00     0.043 C 
ATOM      2  C   UNL     1      44.858 130.425  23.985  1.00  0.00     0.046 C 
ATOM      3  C   UNL     1      44.738 131.211  22.634  1.00  0.00     0.095 C 
ATOM      4  C   UNL     1      43.359 131.942  22.633  1.00  0.00     0.199 C 
ATOM      5  F   UNL     1      43.347 132.944  23.592  1.00  0.00    -0.244 F 
ATOM      6  C   UNL     1      42.174 130.992  22.888  1.00  0.00     0.073 C 
ATOM      7  C   UNL     1      42.339 130.213  24.204  1.00  0.00     0.124 C 
ENDROOT
BRANCH   1   8
ATOM      8  C   UNL     1      43.710 128.243  23.345  1.00  0.00    -0.029 C 
ATOM      9  C   UNL     1      43.725 127.000  23.836  1.00  0.00     0.004 C 
ENDBRANCH   1   8
BRANCH   7  10
ATOM     10  O   UNL     1      41.274 129.312  24.369  1.00  0.00    -0.392 OA
ATOM     11  H   UNL     1      41.183 129.150  25.344  1.00  0.00     0.210 HD
ENDBRANCH   7  10
BRANCH   3  12
ATOM     12  N   UNL     1      44.800 130.269  21.492  1.00  0.00    -0.373 N 
ATOM     13  H   UNL     1      44.775 129.245  21.706  1.00  0.00     0.161 HD
BRANCH  12  14
ATOM     14  C   UNL     1      44.861 130.609  20.088  1.00  0.00     0.037 A 
ATOM     15  C   UNL     1      43.929 131.555  19.581  1.00  0.00     0.026 A 
ATOM     16  C   UNL     1      45.815 130.044  19.204  1.00  0.00     0.052 A 
ATOM     17  C   UNL     1      43.929 131.921  18.224  1.00  0.00     0.012 A 
ATOM     18  C   UNL     1      45.786 130.429  17.867  1.00  0.00     0.047 A 
ATOM     19  C   UNL     1      44.876 131.333  17.395  1.00  0.00    -0.001 A 
ATOM     20  N   UNL     1      46.595 130.007  16.880  1.00  0.00    -0.361 N 
ATOM     21  C   UNL     1      45.113 131.495  16.047  1.00  0.00     0.028 A 
ATOM     22  C   UNL     1      46.186 130.656  15.765  1.00  0.00     0.083 A 
ATOM     23  H   UNL     1      47.378 129.320  16.953  1.00  0.00     0.166 HD
ENDBRANCH  12  14
ENDBRANCH   3  12
BRANCH   3  24
ATOM     24  C   UNL     1      45.824 132.286  22.438  1.00  0.00    -0.020 A 
ATOM     25  C   UNL     1      45.992 133.270  23.433  1.00  0.00     0.007 A 
ATOM     26  C   UNL     1      46.689 132.322  21.322  1.00  0.00     0.007 A 
ATOM     27  C   UNL     1      46.968 134.263  23.312  1.00  0.00     0.012 A 
ATOM     28  C   UNL     1      47.664 133.316  21.203  1.00  0.00     0.012 A 
ATOM     29  C   UNL     1      47.817 134.300  22.194  1.00  0.00     0.017 A 
BRANCH  29  30
ATOM     30  C   UNL     1      48.859 135.352  22.046  1.00  0.00     0.159 C 
ATOM     31  C   UNL     1      48.710 136.486  21.076  1.00  0.00     0.093 C 
ATOM     32  O   UNL     1      49.903 135.302  22.751  1.00  0.00    -0.295 OA
ENDBRANCH  29  30
ENDBRANCH   3  24
TORSDOF 6
ENDMDL
MODEL 6
REMARK VINA RESULT:      -2.0      3.798      8.284
REMARK SMILES C=C[C@H]1C[C@](Nc2ccc3cc[nH]c3c2)(c2ccc(C(C)=O)cc2)[C@H](F)C[C@H]1O
REMARK SMILES IDX 3 1 4 2 5 3 25 4 26 5 27 6 28 7 2 8 1 9 29 10 6 12 7 14 8 15
REMARK SMILES IDX 15 16 9 17 14 18 10 19 13 20 11 21 12 22 16 24 17 25 24 26
REMARK SMILES IDX 18 27 23 28 19 29 20 30 21 31 22 32
REMARK H PARENT 29 11 6 13 13 23
ROOT
ATOM      1  C   UNL     1      43.589 132.719  22.348  1.00  0.00     0.043 C 
ATOM      2  C   UNL     1      44.239 132.641  20.946  1.00  0.00     0.046 C 
ATOM      3  C   UNL     1      44.484 131.180  20.435  1.00  0.00     0.095 C 
ATOM      4  C   UNL     1      43.120 130.424  20.494  1.00  0.00     0.199 C 
ATOM      5  F   UNL     1      42.239 130.950  19.558  1.00  0.00    -0.244 F 
ATOM      6  C   UNL     1      42.461 130.476  21.885  1.00  0.00     0.073 C 
ATOM      7  C   UNL     1      42.266 131.923  22.370  1.00  0.00     0.124 C 
ENDROOT
BRANCH   1   8
ATOM      8  C   UNL     1      44.542 132.304  23.452  1.00  0.00    -0.029 C 
ATOM      9  C   UNL     1      44.573 132.944  24.625  1.00  0.00     0.004 C 
ENDBRANCH   1   8
BRANCH   7  10
ATOM     10  O   UNL     1      41.724 131.930  23.666  1.00  0.00    -0.392 OA
ATOM     11  H   UNL     1      41.532 132.877  23.893  1.00  0.00     0.210 HD
ENDBRANCH   7  10
BRANCH   3  12
ATOM     12  N   UNL     1      45.466 130.495  21.308  1.00  0.00    -0.373 N 
ATOM     13  H   UNL     1      46.315 131.033  21.597  1.00  0.00     0.161 HD
BRANCH  12  14
ATOM     14  C   UNL     1      45.370 129.154  21.838  1.00  0.00     0.037 A 
ATOM     15  C   UNL     1      45.937 128.088  21.088  1.00  0.00     0.026 A 
ATOM     16  C   UNL     1      44.740 128.864  23.075  1.00  0.00     0.052 A 
ATOM     17  C   UNL     1      45.866 126.760  21.543  1.00  0.00     0.012 A 
ATOM     18  C   UNL     1      44.689 127.537  23.495  1.00  0.00     0.047 A 
ATOM     19  C   UNL     1      45.231 126.523  22.756  1.00  0.00    -0.001 A 
ATOM     20  N   UNL     1      44.137 127.061  24.624  1.00  0.00    -0.361 N 
ATOM     21  C   UNL     1      45.015 125.348  23.441  1.00  0.00     0.028 A 
ATOM     22  C   UNL     1      44.333 125.722  24.595  1.00  0.00     0.083 A 
ATOM     23  H   UNL     1      43.654 127.607  25.372  1.00  0.00     0.166 HD
ENDBRANCH  12  14
ENDBRANCH   3  12
BRANCH   3  24
ATOM     24  C   UNL     1      44.986 131.102  18.980  1.00  0.00    -0.020 A 
ATOM     25  C   UNL     1      45.736 129.977  18.581  1.00  0.00     0.007 A 
ATOM     26  C   UNL     1      44.707 132.087  18.008  1.00  0.00     0.007 A 
ATOM     27  C   UNL     1      46.207 129.849  17.272  1.00  0.00     0.012 A 
ATOM     28  C   UNL     1      45.180 131.957  16.700  1.00  0.00     0.012 A 
ATOM     29  C   UNL     1      45.937 130.839  16.313  1.00  0.00     0.017 A 
BRANCH  29  30
ATOM     30  C   UNL     1      46.434 130.721  14.916  1.00  0.00     0.159 C 
ATOM     31  C   UNL     1      45.505 130.754  13.738  1.00  0.00     0.093 C 
ATOM     32  O   UNL     1      47.669 130.590  14.699  1.00  0.00    -0.295 OA
ENDBRANCH  29  30
ENDBRANCH   3  24
TORSDOF 6
ENDMDL
MODEL 7
REMARK VINA RESULT:      -1.9      4.647      8.802
REMARK SMILES C=C[C@H]1C[C@](Nc2ccc3cc[nH]c3c2)(c2ccc(C(C)=O)cc2)[C@H](F)C[C@H]1O
REMARK SMILES IDX 3 1 4 2 5 3 25 4 26 5 27 6 28 7 2 8 1 9 29 10 6 12 7 14 8 15
REMARK SMILES IDX 15 16 9 17 14 18 10 19 13 20 11 21 12 22 16 24 17 25 24 26
REMARK SMILES IDX 18 27 23 28 19 29 20 30 21 31 22 32
REMARK H PARENT 29 11 6 13 13 23
ROOT
ATOM      1  C   UNL     1      44.225 133.042  20.822  1.00  0.00     0.043 C 
ATOM      2  C   UNL     1      44.933 132.778  19.472  1.00  0.00     0.046 C 
ATOM      3  C   UNL     1      45.032 131.262  19.088  1.00  0.00     0.095 C 
ATOM      4  C   UNL     1      43.588 130.670  19.121  1.00  0.00     0.199 C 
ATOM      5  F   UNL     1      42.825 131.213  18.097  1.00  0.00    -0.244 F 
ATOM      6  C   UNL     1      42.870 130.909  20.462  1.00  0.00     0.073 C 
ATOM      7  C   UNL     1      42.819 132.404  20.824  1.00  0.00     0.124 C 
ENDROOT
BRANCH   1   8
ATOM      8  C   UNL     1      45.065 132.615  22.010  1.00  0.00    -0.029 C 
ATOM      9  C   UNL     1      46.356 132.947  22.109  1.00  0.00     0.004 C 
ENDBRANCH   1   8
BRANCH   7  10
ATOM     10  O   UNL     1      42.216 132.576  22.081  1.00  0.00    -0.392 OA
ATOM     11  H   UNL     1      41.599 133.350  22.000  1.00  0.00     0.210 HD
ENDBRANCH   7  10
BRANCH   3  12
ATOM     12  N   UNL     1      45.883 130.546  20.068  1.00  0.00    -0.373 N 
ATOM     13  H   UNL     1      46.897 130.797  20.105  1.00  0.00     0.161 HD
BRANCH  12  14
ATOM     14  C   UNL     1      45.456 129.541  21.016  1.00  0.00     0.037 A 
ATOM     15  C   UNL     1      45.869 128.197  20.807  1.00  0.00     0.026 A 
ATOM     16  C   UNL     1      44.652 129.845  22.144  1.00  0.00     0.052 A 
ATOM     17  C   UNL     1      45.479 127.171  21.685  1.00  0.00     0.012 A 
ATOM     18  C   UNL     1      44.286 128.805  22.993  1.00  0.00     0.047 A 
ATOM     19  C   UNL     1      44.684 127.515  22.771  1.00  0.00    -0.001 A 
ATOM     20  N   UNL     1      43.531 128.886  24.102  1.00  0.00    -0.361 N 
ATOM     21  C   UNL     1      44.159 126.740  23.781  1.00  0.00     0.028 A 
ATOM     22  C   UNL     1      43.450 127.625  24.587  1.00  0.00     0.083 A 
ATOM     23  H   UNL     1      43.094 129.742  24.509  1.00  0.00     0.166 HD
ENDBRANCH  12  14
ENDBRANCH   3  12
BRANCH   3  24
ATOM     24  C   UNL     1      45.596 131.010  17.676  1.00  0.00    -0.020 A 
ATOM     25  C   UNL     1      45.496 132.034  16.713  1.00  0.00     0.007 A 
ATOM     26  C   UNL     1      46.242 129.811  17.301  1.00  0.00     0.007 A 
ATOM     27  C   UNL     1      45.999 131.864  15.421  1.00  0.00     0.012 A 
ATOM     28  C   UNL     1      46.744 129.643  16.008  1.00  0.00     0.012 A 
ATOM     29  C   UNL     1      46.629 130.664  15.050  1.00  0.00     0.017 A 
BRANCH  29  30
ATOM     30  C   UNL     1      47.168 130.464  13.677  1.00  0.00     0.159 C 
ATOM     31  C   UNL     1      48.346 129.575  13.410  1.00  0.00     0.093 C 
ATOM     32  O   UNL     1      46.628 131.051  12.701  1.00  0.00    -0.295 OA
ENDBRANCH  29  30
ENDBRANCH   3  24
TORSDOF 6
ENDMDL
MODEL 8
REMARK VINA RESULT:      -1.6      4.292      8.459
REMARK SMILES C=C[C@H]1C[C@](Nc2ccc3cc[nH]c3c2)(c2ccc(C(C)=O)cc2)[C@H](F)C[C@H]1O
REMARK SMILES IDX 3 1 4 2 5 3 25 4 26 5 27 6 28 7 2 8 1 9 29 10 6 12 7 14 8 15
REMARK SMILES IDX 15 16 9 17 14 18 10 19 13 20 11 21 12 22 16 24 17 25 24 26
REMARK SMILES IDX 18 27 23 28 19 29 20 30 21 31 22 32
REMARK H PARENT 29 11 6 13 13 23
ROOT
ATOM      1  C   UNL     1      43.606 129.749  24.463  1.00  0.00     0.043 C 
ATOM      2  C   UNL     1      44.809 130.694  24.235  1.00  0.00     0.046 C 
ATOM      3  C   UNL     1      44.814 131.394  22.832  1.00  0.00     0.095 C 
ATOM      4  C   UNL     1      43.448 132.129  22.665  1.00  0.00     0.199 C 
ATOM      5  F   UNL     1      43.363 133.191  23.555  1.00  0.00    -0.244 F 
ATOM      6  C   UNL     1      42.236 131.203  22.875  1.00  0.00     0.073 C 
ATOM      7  C   UNL     1      42.279 130.508  24.247  1.00  0.00     0.124 C 
ENDROOT
BRANCH   1   8
ATOM      8  C   UNL     1      43.699 128.482  23.636  1.00  0.00    -0.029 C 
ATOM      9  C   UNL     1      44.708 127.619  23.790  1.00  0.00     0.004 C 
ENDBRANCH   1   8
BRANCH   7  10
ATOM     10  O   UNL     1      41.195 129.624  24.375  1.00  0.00    -0.392 OA
ATOM     11  H   UNL     1      40.644 129.952  25.133  1.00  0.00     0.210 HD
ENDBRANCH   7  10
BRANCH   3  12
ATOM     12  N   UNL     1      44.965 130.381  21.761  1.00  0.00    -0.373 N 
ATOM     13  H   UNL     1      45.128 129.389  22.050  1.00  0.00     0.161 HD
BRANCH  12  14
ATOM     14  C   UNL     1      44.881 130.606  20.335  1.00  0.00     0.037 A 
ATOM     15  C   UNL     1      45.950 130.153  19.515  1.00  0.00     0.026 A 
ATOM     16  C   UNL     1      43.775 131.253  19.726  1.00  0.00     0.052 A 
ATOM     17  C   UNL     1      45.934 130.352  18.124  1.00  0.00     0.012 A 
ATOM     18  C   UNL     1      43.792 131.432  18.346  1.00  0.00     0.047 A 
ATOM     19  C   UNL     1      44.834 130.998  17.574  1.00  0.00    -0.001 A 
ATOM     20  N   UNL     1      42.851 132.021  17.589  1.00  0.00    -0.361 N 
ATOM     21  C   UNL     1      44.546 131.325  16.267  1.00  0.00     0.028 A 
ATOM     22  C   UNL     1      43.308 131.958  16.317  1.00  0.00     0.083 A 
ATOM     23  H   UNL     1      41.952 132.441  17.911  1.00  0.00     0.166 HD
ENDBRANCH  12  14
ENDBRANCH   3  12
BRANCH   3  24
ATOM     24  C   UNL     1      45.924 132.450  22.664  1.00  0.00    -0.020 A 
ATOM     25  C   UNL     1      46.252 133.270  23.762  1.00  0.00     0.007 A 
ATOM     26  C   UNL     1      46.658 132.622  21.470  1.00  0.00     0.007 A 
ATOM     27  C   UNL     1      47.256 134.237  23.669  1.00  0.00     0.012 A 
ATOM     28  C   UNL     1      47.661 133.589  21.379  1.00  0.00     0.012 A 
ATOM     29  C   UNL     1      47.974 134.411  22.475  1.00  0.00     0.017 A 
BRANCH  29  30
ATOM     30  C   UNL     1      49.045 135.438  22.356  1.00  0.00     0.159 C 
ATOM     31  C   UNL     1      49.059 136.443  21.243  1.00  0.00     0.093 C 
ATOM     32  O   UNL     1      49.972 135.476  23.209  1.00  0.00    -0.295 OA
ENDBRANCH  29  30
ENDBRANCH   3  24
TORSDOF 6
ENDMDL
MODEL 9
REMARK VINA RESULT:      -1.4      4.482      8.822
REMARK SMILES C=C[C@H]1C[C@](Nc2ccc3cc[nH]c3c2)(c2ccc(C(C)=O)cc2)[C@H](F)C[C@H]1O
REMARK SMILES IDX 3 1 4 2 5 3 25 4 26 5 27 6 28 7 2 8 1 9 29 10 6 12 7 14 8 15
REMARK SMILES IDX 15 16 9 17 14 18 10 19 13 20 11 21 12 22 16 24 17 25 24 26
REMARK SMILES IDX 18 27 23 28 19 29 20 30 21 31 22 32
REMARK H PARENT 29 11 6 13 13 23
ROOT
ATOM      1  C   UNL     1      44.102 133.075  20.666  1.00  0.00     0.043 C 
ATOM      2  C   UNL     1      44.863 132.763  19.356  1.00  0.00     0.046 C 
ATOM      3  C   UNL     1      45.007 131.233  19.048  1.00  0.00     0.095 C 
ATOM      4  C   UNL     1      43.575 130.612  19.058  1.00  0.00     0.199 C 
ATOM      5  F   UNL     1      42.838 131.090  17.984  1.00  0.00    -0.244 F 
ATOM      6  C   UNL     1      42.804 130.898  20.360  1.00  0.00     0.073 C 
ATOM      7  C   UNL     1      42.710 132.406  20.649  1.00  0.00     0.124 C 
ENDROOT
BRANCH   1   8
ATOM      8  C   UNL     1      44.906 132.722  21.902  1.00  0.00    -0.029 C 
ATOM      9  C   UNL     1      46.193 133.065  22.018  1.00  0.00     0.004 C 
ENDBRANCH   1   8
BRANCH   7  10
ATOM     10  O   UNL     1      42.058 132.625  21.874  1.00  0.00    -0.392 OA
ATOM     11  H   UNL     1      42.706 132.393  22.590  1.00  0.00     0.210 HD
ENDBRANCH   7  10
BRANCH   3  12
ATOM     12  N   UNL     1      45.835 130.582  20.090  1.00  0.00    -0.373 N 
ATOM     13  H   UNL     1      46.842 130.859  20.152  1.00  0.00     0.161 HD
BRANCH  12  14
ATOM     14  C   UNL     1      45.396 129.612  21.068  1.00  0.00     0.037 A 
ATOM     15  C   UNL     1      44.617 130.065  22.167  1.00  0.00     0.026 A 
ATOM     16  C   UNL     1      45.705 128.231  20.968  1.00  0.00     0.052 A 
ATOM     17  C   UNL     1      44.168 129.174  23.157  1.00  0.00     0.012 A 
ATOM     18  C   UNL     1      45.244 127.377  21.966  1.00  0.00     0.047 A 
ATOM     19  C   UNL     1      44.504 127.832  23.022  1.00  0.00    -0.001 A 
ATOM     20  N   UNL     1      45.434 126.050  22.055  1.00  0.00    -0.361 N 
ATOM     21  C   UNL     1      44.210 126.749  23.820  1.00  0.00     0.028 A 
ATOM     22  C   UNL     1      44.804 125.661  23.187  1.00  0.00     0.083 A 
ATOM     23  H   UNL     1      45.959 125.440  21.390  1.00  0.00     0.166 HD
ENDBRANCH  12  14
ENDBRANCH   3  12
BRANCH   3  24
ATOM     24  C   UNL     1      45.626 130.927  17.671  1.00  0.00    -0.020 A 
ATOM     25  C   UNL     1      45.577 131.918  16.670  1.00  0.00     0.007 A 
ATOM     26  C   UNL     1      46.274 129.710  17.363  1.00  0.00     0.007 A 
ATOM     27  C   UNL     1      46.132 131.699  15.406  1.00  0.00     0.012 A 
ATOM     28  C   UNL     1      46.827 129.493  16.099  1.00  0.00     0.012 A 
ATOM     29  C   UNL     1      46.764 130.482  15.103  1.00  0.00     0.017 A 
BRANCH  29  30
ATOM     30  C   UNL     1      47.357 130.229  13.762  1.00  0.00     0.159 C 
ATOM     31  C   UNL     1      47.183 131.190  12.624  1.00  0.00     0.093 C 
ATOM     32  O   UNL     1      48.029 129.181  13.562  1.00  0.00    -0.295 OA
ENDBRANCH  29  30
ENDBRANCH   3  24
TORSDOF 6
ENDMDL


