MODEL 1
REMARK VINA RESULT:      -8.5      0.000      0.000
REMARK SMILES CC(=O)N(N)c1cc(C)cc(-n2[nH+]c3ccccc3[nH+]2)c1[O-]
REMARK SMILES IDX 6 1 7 2 8 3 9 4 10 5 11 6 21 7 22 8 4 9 2 10 1 11 3 12 5 13
REMARK SMILES IDX 12 16 13 17 20 18 14 19 19 20 15 21 18 22 16 23 17 24
REMARK H PARENT 5 14 5 15 13 25 20 26
ROOT
ATOM      1  C   UNL     1      43.872 131.144  21.791  1.00  0.00     0.055 A 
ATOM      2  C   UNL     1      42.723 131.944  21.768  1.00  0.00     0.030 A 
ATOM      3  C   UNL     1      42.295 132.539  20.574  1.00  0.00    -0.047 A 
ATOM      4  C   UNL     1      41.039 133.358  20.546  1.00  0.00     0.044 C 
ATOM      5  C   UNL     1      43.017 132.313  19.392  1.00  0.00     0.041 A 
ATOM      6  C   UNL     1      44.179 131.524  19.403  1.00  0.00     0.163 A 
ATOM      7  C   UNL     1      44.598 130.929  20.608  1.00  0.00    -0.046 A 
ATOM      8  O   UNL     1      45.708 130.090  20.630  1.00  0.00    -0.869 OA
ENDROOT
BRANCH   1   9
ATOM      9  N   UNL     1      44.296 130.540  23.024  1.00  0.00    -0.249 N 
BRANCH   9  10
ATOM     10  C   UNL     1      44.090 129.139  23.277  1.00  0.00     0.238 C 
ATOM     11  C   UNL     1      42.712 128.567  23.430  1.00  0.00     0.116 C 
ATOM     12  O   UNL     1      45.085 128.373  23.384  1.00  0.00    -0.273 OA
ENDBRANCH   9  10
BRANCH   9  13
ATOM     13  N   UNL     1      44.834 131.346  24.041  1.00  0.00    -0.241 NA
ATOM     14  H   UNL     1      45.349 132.137  23.592  1.00  0.00     0.144 HD
ATOM     15  H   UNL     1      44.034 131.755  24.577  1.00  0.00     0.144 HD
ENDBRANCH   9  13
ENDBRANCH   1   9
BRANCH   6  16
ATOM     16  N   UNL     1      44.912 131.319  18.183  1.00  0.00     0.079 N 
ATOM     17  N   UNL     1      44.996 132.207  17.193  1.00  0.00    -0.062 N 
ATOM     18  N   UNL     1      45.563 130.196  17.882  1.00  0.00    -0.062 N 
ATOM     19  C   UNL     1      45.734 131.628  16.233  1.00  0.00     0.306 A 
ATOM     20  C   UNL     1      46.087 130.383  16.660  1.00  0.00     0.306 A 
ATOM     21  C   UNL     1      46.109 132.120  14.987  1.00  0.00     0.089 A 
ATOM     22  C   UNL     1      46.853 129.521  15.883  1.00  0.00     0.089 A 
ATOM     23  C   UNL     1      46.888 131.277  14.169  1.00  0.00     0.007 A 
ATOM     24  C   UNL     1      47.259 129.984  14.615  1.00  0.00     0.007 A 
ATOM     25  H   UNL     1      44.538 133.146  17.163  1.00  0.00     0.495 HD
ATOM     26  H   UNL     1      45.652 129.351  18.491  1.00  0.00     0.495 HD
ENDBRANCH   6  16
TORSDOF 4
ENDMDL
MODEL 2
REMARK VINA RESULT:      -8.3      1.177      1.360
REMARK SMILES CC(=O)N(N)c1cc(C)cc(-n2[nH+]c3ccccc3[nH+]2)c1[O-]
REMARK SMILES IDX 6 1 7 2 8 3 9 4 10 5 11 6 21 7 22 8 4 9 2 10 1 11 3 12 5 13
REMARK SMILES IDX 12 16 13 17 20 18 14 19 19 20 15 21 18 22 16 23 17 24
REMARK H PARENT 5 14 5 15 13 25 20 26
ROOT
ATOM      1  C   UNL     1      44.241 131.300  20.541  1.00  0.00     0.055 A 
ATOM      2  C   UNL     1      42.967 131.851  20.359  1.00  0.00     0.030 A 
ATOM      3  C   UNL     1      42.501 132.155  19.073  1.00  0.00    -0.047 A 
ATOM      4  C   UNL     1      41.118 132.704  18.881  1.00  0.00     0.044 C 
ATOM      5  C   UNL     1      43.314 131.885  17.963  1.00  0.00     0.041 A 
ATOM      6  C   UNL     1      44.599 131.345  18.130  1.00  0.00     0.163 A 
ATOM      7  C   UNL     1      45.056 131.041  19.427  1.00  0.00    -0.046 A 
ATOM      8  O   UNL     1      46.299 130.444  19.613  1.00  0.00    -0.869 OA
ENDROOT
BRANCH   1   9
ATOM      9  N   UNL     1      44.703 130.993  21.866  1.00  0.00    -0.249 N 
BRANCH   9  10
ATOM     10  C   UNL     1      44.289 129.791  22.540  1.00  0.00     0.238 C 
ATOM     11  C   UNL     1      43.021 129.741  23.340  1.00  0.00     0.116 C 
ATOM     12  O   UNL     1      45.008 128.758  22.470  1.00  0.00    -0.273 OA
ENDBRANCH   9  10
BRANCH   9  13
ATOM     13  N   UNL     1      45.495 131.925  22.558  1.00  0.00    -0.241 NA
ATOM     14  H   UNL     1      45.181 131.942  23.556  1.00  0.00     0.144 HD
ATOM     15  H   UNL     1      46.480 131.575  22.543  1.00  0.00     0.144 HD
ENDBRANCH   9  13
ENDBRANCH   1   9
BRANCH   6  16
ATOM     16  N   UNL     1      45.423 131.092  16.978  1.00  0.00     0.079 N 
ATOM     17  N   UNL     1      45.683 131.986  16.025  1.00  0.00    -0.062 N 
ATOM     18  N   UNL     1      45.989 129.916  16.709  1.00  0.00    -0.062 N 
ATOM     19  C   UNL     1      46.450 131.355  15.121  1.00  0.00     0.306 A 
ATOM     20  C   UNL     1      46.641 130.074  15.545  1.00  0.00     0.306 A 
ATOM     21  C   UNL     1      46.987 131.831  13.930  1.00  0.00     0.089 A 
ATOM     22  C   UNL     1      47.392 129.156  14.819  1.00  0.00     0.089 A 
ATOM     23  C   UNL     1      47.756 130.931  13.164  1.00  0.00     0.007 A 
ATOM     24  C   UNL     1      47.958 129.600  13.607  1.00  0.00     0.007 A 
ATOM     25  H   UNL     1      45.321 132.965  15.978  1.00  0.00     0.495 HD
ATOM     26  H   UNL     1      45.939 129.056  17.299  1.00  0.00     0.495 HD
ENDBRANCH   6  16
TORSDOF 4
ENDMDL
MODEL 3
REMARK VINA RESULT:      -8.2      0.435      1.309
REMARK SMILES CC(=O)N(N)c1cc(C)cc(-n2[nH+]c3ccccc3[nH+]2)c1[O-]
REMARK SMILES IDX 6 1 7 2 8 3 9 4 10 5 11 6 21 7 22 8 4 9 2 10 1 11 3 12 5 13
REMARK SMILES IDX 12 16 13 17 20 18 14 19 19 20 15 21 18 22 16 23 17 24
REMARK H PARENT 5 14 5 15 13 25 20 26
ROOT
ATOM      1  C   UNL     1      44.048 131.138  21.421  1.00  0.00     0.055 A 
ATOM      2  C   UNL     1      42.890 131.926  21.402  1.00  0.00     0.030 A 
ATOM      3  C   UNL     1      42.434 132.490  20.204  1.00  0.00    -0.047 A 
ATOM      4  C   UNL     1      41.170 133.297  20.182  1.00  0.00     0.044 C 
ATOM      5  C   UNL     1      43.135 132.243  19.014  1.00  0.00     0.041 A 
ATOM      6  C   UNL     1      44.304 131.465  19.020  1.00  0.00     0.163 A 
ATOM      7  C   UNL     1      44.752 130.901  20.230  1.00  0.00    -0.046 A 
ATOM      8  O   UNL     1      45.870 130.073  20.249  1.00  0.00    -0.869 OA
ENDROOT
BRANCH   1   9
ATOM      9  N   UNL     1      44.501 130.566  22.659  1.00  0.00    -0.249 N 
BRANCH   9  10
ATOM     10  C   UNL     1      44.312 129.170  22.949  1.00  0.00     0.238 C 
ATOM     11  C   UNL     1      43.077 128.675  23.641  1.00  0.00     0.116 C 
ATOM     12  O   UNL     1      45.205 128.340  22.627  1.00  0.00    -0.273 OA
ENDBRANCH   9  10
BRANCH   9  13
ATOM     13  N   UNL     1      45.051 131.400  23.647  1.00  0.00    -0.241 NA
ATOM     14  H   UNL     1      45.738 132.041  23.187  1.00  0.00     0.144 HD
ATOM     15  H   UNL     1      44.277 131.991  24.029  1.00  0.00     0.144 HD
ENDBRANCH   9  13
ENDBRANCH   1   9
BRANCH   6  16
ATOM     16  N   UNL     1      45.016 131.239  17.791  1.00  0.00     0.079 N 
ATOM     17  N   UNL     1      45.608 130.092  17.460  1.00  0.00    -0.062 N 
ATOM     18  N   UNL     1      45.202 132.168  16.854  1.00  0.00    -0.062 N 
ATOM     19  C   UNL     1      46.184 130.300  16.265  1.00  0.00     0.306 A 
ATOM     20  C   UNL     1      45.931 131.586  15.888  1.00  0.00     0.306 A 
ATOM     21  C   UNL     1      46.937 129.431  15.481  1.00  0.00     0.089 A 
ATOM     22  C   UNL     1      46.403 132.115  14.692  1.00  0.00     0.089 A 
ATOM     23  C   UNL     1      47.432 129.930  14.260  1.00  0.00     0.007 A 
ATOM     24  C   UNL     1      47.166 131.265  13.867  1.00  0.00     0.007 A 
ATOM     25  H   UNL     1      45.648 129.225  18.041  1.00  0.00     0.495 HD
ATOM     26  H   UNL     1      44.836 133.147  16.873  1.00  0.00     0.495 HD
ENDBRANCH   6  16
TORSDOF 4
ENDMDL
MODEL 4
REMARK VINA RESULT:      -8.2      1.319      1.983
REMARK SMILES CC(=O)N(N)c1cc(C)cc(-n2[nH+]c3ccccc3[nH+]2)c1[O-]
REMARK SMILES IDX 6 1 7 2 8 3 9 4 10 5 11 6 21 7 22 8 4 9 2 10 1 11 3 12 5 13
REMARK SMILES IDX 12 16 13 17 20 18 14 19 19 20 15 21 18 22 16 23 17 24
REMARK H PARENT 5 14 5 15 13 25 20 26
ROOT
ATOM      1  C   UNL     1      44.323 131.323  20.368  1.00  0.00     0.055 A 
ATOM      2  C   UNL     1      43.030 131.835  20.199  1.00  0.00     0.030 A 
ATOM      3  C   UNL     1      42.524 132.077  18.915  1.00  0.00    -0.047 A 
ATOM      4  C   UNL     1      41.124 132.584  18.739  1.00  0.00     0.044 C 
ATOM      5  C   UNL     1      43.315 131.783  17.795  1.00  0.00     0.041 A 
ATOM      6  C   UNL     1      44.617 131.281  17.949  1.00  0.00     0.163 A 
ATOM      7  C   UNL     1      45.115 131.040  19.244  1.00  0.00    -0.046 A 
ATOM      8  O   UNL     1      46.377 130.482  19.420  1.00  0.00    -0.869 OA
ENDROOT
BRANCH   1   9
ATOM      9  N   UNL     1      44.826 131.080  21.692  1.00  0.00    -0.249 N 
BRANCH   9  10
ATOM     10  C   UNL     1      44.384 129.949  22.462  1.00  0.00     0.238 C 
ATOM     11  C   UNL     1      43.184 130.034  23.358  1.00  0.00     0.116 C 
ATOM     12  O   UNL     1      45.020 128.863  22.395  1.00  0.00    -0.273 OA
ENDBRANCH   9  10
BRANCH   9  13
ATOM     13  N   UNL     1      45.691 132.014  22.286  1.00  0.00    -0.241 NA
ATOM     14  H   UNL     1      45.429 132.105  23.295  1.00  0.00     0.144 HD
ATOM     15  H   UNL     1      46.659 131.618  22.247  1.00  0.00     0.144 HD
ENDBRANCH   9  13
ENDBRANCH   1   9
BRANCH   6  16
ATOM     16  N   UNL     1      45.417 131.003  16.786  1.00  0.00     0.079 N 
ATOM     17  N   UNL     1      46.022 129.841  16.545  1.00  0.00    -0.062 N 
ATOM     18  N   UNL     1      45.680 131.894  15.831  1.00  0.00    -0.062 N 
ATOM     19  C   UNL     1      46.687 129.999  15.389  1.00  0.00     0.306 A 
ATOM     20  C   UNL     1      46.474 131.270  14.946  1.00  0.00     0.306 A 
ATOM     21  C   UNL     1      47.488 129.095  14.699  1.00  0.00     0.089 A 
ATOM     22  C   UNL     1      47.037 131.749  13.769  1.00  0.00     0.089 A 
ATOM     23  C   UNL     1      48.078 129.543  13.499  1.00  0.00     0.007 A 
ATOM     24  C   UNL     1      47.852 130.863  13.035  1.00  0.00     0.007 A 
ATOM     25  H   UNL     1      46.011 128.997  17.161  1.00  0.00     0.495 HD
ATOM     26  H   UNL     1      45.322 132.874  15.785  1.00  0.00     0.495 HD
ENDBRANCH   6  16
TORSDOF 4
ENDMDL
MODEL 5
REMARK VINA RESULT:      -8.0      1.066      1.150
REMARK SMILES CC(=O)N(N)c1cc(C)cc(-n2[nH+]c3ccccc3[nH+]2)c1[O-]
REMARK SMILES IDX 6 1 7 2 8 3 9 4 10 5 11 6 21 7 22 8 4 9 2 10 1 11 3 12 5 13
REMARK SMILES IDX 12 16 13 17 20 18 14 19 19 20 15 21 18 22 16 23 17 24
REMARK H PARENT 5 14 5 15 13 25 20 26
ROOT
ATOM      1  C   UNL     1      44.000 130.871  21.435  1.00  0.00     0.055 A 
ATOM      2  C   UNL     1      42.898 131.735  21.445  1.00  0.00     0.030 A 
ATOM      3  C   UNL     1      42.523 132.421  20.283  1.00  0.00    -0.047 A 
ATOM      4  C   UNL     1      41.316 133.311  20.287  1.00  0.00     0.044 C 
ATOM      5  C   UNL     1      43.248 132.221  19.099  1.00  0.00     0.041 A 
ATOM      6  C   UNL     1      44.363 131.368  19.077  1.00  0.00     0.163 A 
ATOM      7  C   UNL     1      44.730 130.682  20.251  1.00  0.00    -0.046 A 
ATOM      8  O   UNL     1      45.791 129.781  20.237  1.00  0.00    -0.869 OA
ENDROOT
BRANCH   1   9
ATOM      9  N   UNL     1      44.371 130.174  22.636  1.00  0.00    -0.249 N 
BRANCH   9  10
ATOM     10  C   UNL     1      44.001 130.675  23.933  1.00  0.00     0.238 C 
ATOM     11  C   UNL     1      42.754 130.209  24.624  1.00  0.00     0.116 C 
ATOM     12  O   UNL     1      44.732 131.530  24.502  1.00  0.00    -0.273 OA
ENDBRANCH   9  10
BRANCH   9  13
ATOM     13  N   UNL     1      45.192 129.037  22.552  1.00  0.00    -0.241 NA
ATOM     14  H   UNL     1      45.675 128.916  23.472  1.00  0.00     0.144 HD
ATOM     15  H   UNL     1      44.570 128.208  22.411  1.00  0.00     0.144 HD
ENDBRANCH   9  13
ENDBRANCH   1   9
BRANCH   6  16
ATOM     16  N   UNL     1      45.103 131.191  17.856  1.00  0.00     0.079 N 
ATOM     17  N   UNL     1      45.181 132.098  16.882  1.00  0.00    -0.062 N 
ATOM     18  N   UNL     1      45.764 130.079  17.537  1.00  0.00    -0.062 N 
ATOM     19  C   UNL     1      45.927 131.542  15.914  1.00  0.00     0.306 A 
ATOM     20  C   UNL     1      46.290 130.293  16.320  1.00  0.00     0.306 A 
ATOM     21  C   UNL     1      46.302 132.060  14.679  1.00  0.00     0.089 A 
ATOM     22  C   UNL     1      47.066 129.451  15.531  1.00  0.00     0.089 A 
ATOM     23  C   UNL     1      47.091 131.238  13.848  1.00  0.00     0.007 A 
ATOM     24  C   UNL     1      47.472 129.941  14.272  1.00  0.00     0.007 A 
ATOM     25  H   UNL     1      44.715 133.033  16.867  1.00  0.00     0.495 HD
ATOM     26  H   UNL     1      45.858 129.225  18.131  1.00  0.00     0.495 HD
ENDBRANCH   6  16
TORSDOF 4
ENDMDL
MODEL 6
REMARK VINA RESULT:      -7.8      0.741      1.439
REMARK SMILES CC(=O)N(N)c1cc(C)cc(-n2[nH+]c3ccccc3[nH+]2)c1[O-]
REMARK SMILES IDX 6 1 7 2 8 3 9 4 10 5 11 6 21 7 22 8 4 9 2 10 1 11 3 12 5 13
REMARK SMILES IDX 12 16 13 17 20 18 14 19 19 20 15 21 18 22 16 23 17 24
REMARK H PARENT 5 14 5 15 13 25 20 26
ROOT
ATOM      1  C   UNL     1      43.691 131.132  21.916  1.00  0.00     0.055 A 
ATOM      2  C   UNL     1      42.595 132.003  21.956  1.00  0.00     0.030 A 
ATOM      3  C   UNL     1      42.142 132.629  20.788  1.00  0.00    -0.047 A 
ATOM      4  C   UNL     1      40.941 133.527  20.829  1.00  0.00     0.044 C 
ATOM      5  C   UNL     1      42.783 132.363  19.569  1.00  0.00     0.041 A 
ATOM      6  C   UNL     1      43.890 131.501  19.515  1.00  0.00     0.163 A 
ATOM      7  C   UNL     1      44.335 130.876  20.695  1.00  0.00    -0.046 A 
ATOM      8  O   UNL     1      45.390 129.968  20.656  1.00  0.00    -0.869 OA
ENDROOT
BRANCH   1   9
ATOM      9  N   UNL     1      44.141 130.497  23.123  1.00  0.00    -0.249 N 
BRANCH   9  10
ATOM     10  C   UNL     1      43.871 129.108  23.381  1.00  0.00     0.238 C 
ATOM     11  C   UNL     1      44.980 128.111  23.541  1.00  0.00     0.116 C 
ATOM     12  O   UNL     1      42.677 128.711  23.467  1.00  0.00    -0.273 OA
ENDBRANCH   9  10
BRANCH   9  13
ATOM     13  N   UNL     1      44.773 131.265  24.116  1.00  0.00    -0.241 NA
ATOM     14  H   UNL     1      45.645 131.672  23.706  1.00  0.00     0.144 HD
ATOM     15  H   UNL     1      44.137 132.059  24.354  1.00  0.00     0.144 HD
ENDBRANCH   9  13
ENDBRANCH   1   9
BRANCH   6  16
ATOM     16  N   UNL     1      44.543 131.256  18.257  1.00  0.00     0.079 N 
ATOM     17  N   UNL     1      45.573 130.429  18.088  1.00  0.00    -0.062 N 
ATOM     18  N   UNL     1      44.216 131.863  17.116  1.00  0.00    -0.062 N 
ATOM     19  C   UNL     1      45.907 130.508  16.790  1.00  0.00     0.306 A 
ATOM     20  C   UNL     1      45.066 131.395  16.187  1.00  0.00     0.306 A 
ATOM     21  C   UNL     1      46.921 129.857  16.096  1.00  0.00     0.089 A 
ATOM     22  C   UNL     1      45.158 131.705  14.835  1.00  0.00     0.089 A 
ATOM     23  C   UNL     1      47.049 130.143  14.722  1.00  0.00     0.007 A 
ATOM     24  C   UNL     1      46.171 131.062  14.094  1.00  0.00     0.007 A 
ATOM     25  H   UNL     1      46.046 129.869  18.832  1.00  0.00     0.495 HD
ATOM     26  H   UNL     1      43.443 132.552  16.982  1.00  0.00     0.495 HD
ENDBRANCH   6  16
TORSDOF 4
ENDMDL
MODEL 7
REMARK VINA RESULT:      -7.8      1.096      1.809
REMARK SMILES CC(=O)N(N)c1cc(C)cc(-n2[nH+]c3ccccc3[nH+]2)c1[O-]
REMARK SMILES IDX 6 1 7 2 8 3 9 4 10 5 11 6 21 7 22 8 4 9 2 10 1 11 3 12 5 13
REMARK SMILES IDX 12 16 13 17 20 18 14 19 19 20 15 21 18 22 16 23 17 24
REMARK H PARENT 5 14 5 15 13 25 20 26
ROOT
ATOM      1  C   UNL     1      43.941 130.947  21.429  1.00  0.00     0.055 A 
ATOM      2  C   UNL     1      42.827 131.794  21.450  1.00  0.00     0.030 A 
ATOM      3  C   UNL     1      42.411 132.451  20.284  1.00  0.00    -0.047 A 
ATOM      4  C   UNL     1      41.191 133.322  20.302  1.00  0.00     0.044 C 
ATOM      5  C   UNL     1      43.110 132.237  19.086  1.00  0.00     0.041 A 
ATOM      6  C   UNL     1      44.236 131.400  19.053  1.00  0.00     0.163 A 
ATOM      7  C   UNL     1      44.643 130.744  20.230  1.00  0.00    -0.046 A 
ATOM      8  O   UNL     1      45.717 129.859  20.207  1.00  0.00    -0.869 OA
ENDROOT
BRANCH   1   9
ATOM      9  N   UNL     1      44.353 130.280  22.634  1.00  0.00    -0.249 N 
BRANCH   9  10
ATOM     10  C   UNL     1      43.993 130.792  23.929  1.00  0.00     0.238 C 
ATOM     11  C   UNL     1      44.679 131.990  24.515  1.00  0.00     0.116 C 
ATOM     12  O   UNL     1      43.088 130.219  24.595  1.00  0.00    -0.273 OA
ENDBRANCH   9  10
BRANCH   9  13
ATOM     13  N   UNL     1      45.204 129.165  22.553  1.00  0.00    -0.241 NA
ATOM     14  H   UNL     1      45.662 129.037  23.484  1.00  0.00     0.144 HD
ATOM     15  H   UNL     1      44.607 128.324  22.378  1.00  0.00     0.144 HD
ENDBRANCH   9  13
ENDBRANCH   1   9
BRANCH   6  16
ATOM     16  N   UNL     1      44.947 131.209  17.817  1.00  0.00     0.079 N 
ATOM     17  N   UNL     1      45.537 130.072  17.451  1.00  0.00    -0.062 N 
ATOM     18  N   UNL     1      45.134 132.166  16.908  1.00  0.00    -0.062 N 
ATOM     19  C   UNL     1      46.112 130.315  16.263  1.00  0.00     0.306 A 
ATOM     20  C   UNL     1      45.861 131.611  15.925  1.00  0.00     0.306 A 
ATOM     21  C   UNL     1      46.863 129.468  15.453  1.00  0.00     0.089 A 
ATOM     22  C   UNL     1      46.333 132.176  14.745  1.00  0.00     0.089 A 
ATOM     23  C   UNL     1      47.358 130.002  14.247  1.00  0.00     0.007 A 
ATOM     24  C   UNL     1      47.094 131.349  13.894  1.00  0.00     0.007 A 
ATOM     25  H   UNL     1      45.575 129.188  18.006  1.00  0.00     0.495 HD
ATOM     26  H   UNL     1      44.770 133.144  16.957  1.00  0.00     0.495 HD
ENDBRANCH   6  16
TORSDOF 4
ENDMDL
MODEL 8
REMARK VINA RESULT:      -6.9      2.606      7.135
REMARK SMILES CC(=O)N(N)c1cc(C)cc(-n2[nH+]c3ccccc3[nH+]2)c1[O-]
REMARK SMILES IDX 6 1 7 2 8 3 9 4 10 5 11 6 21 7 22 8 4 9 2 10 1 11 3 12 5 13
REMARK SMILES IDX 12 16 13 17 20 18 14 19 19 20 15 21 18 22 16 23 17 24
REMARK H PARENT 5 14 5 15 13 25 20 26
ROOT
ATOM      1  C   UNL     1      45.749 130.203  15.059  1.00  0.00     0.055 A 
ATOM      2  C   UNL     1      44.857 130.786  14.150  1.00  0.00     0.030 A 
ATOM      3  C   UNL     1      43.770 131.543  14.608  1.00  0.00    -0.047 A 
ATOM      4  C   UNL     1      42.843 132.201  13.630  1.00  0.00     0.044 C 
ATOM      5  C   UNL     1      43.592 131.730  15.987  1.00  0.00     0.041 A 
ATOM      6  C   UNL     1      44.471 131.141  16.909  1.00  0.00     0.163 A 
ATOM      7  C   UNL     1      45.561 130.385  16.438  1.00  0.00    -0.046 A 
ATOM      8  O   UNL     1      46.482 129.847  17.331  1.00  0.00    -0.869 OA
ENDROOT
BRANCH   1   9
ATOM      9  N   UNL     1      46.859 129.431  14.573  1.00  0.00    -0.249 N 
BRANCH   9  10
ATOM     10  C   UNL     1      47.818 129.996  13.661  1.00  0.00     0.238 C 
ATOM     11  C   UNL     1      47.635 131.368  13.084  1.00  0.00     0.116 C 
ATOM     12  O   UNL     1      48.833 129.325  13.329  1.00  0.00    -0.273 OA
ENDBRANCH   9  10
BRANCH   9  13
ATOM     13  N   UNL     1      46.961 128.072  14.913  1.00  0.00    -0.241 NA
ATOM     14  H   UNL     1      47.022 128.001  15.955  1.00  0.00     0.144 HD
ATOM     15  H   UNL     1      46.072 127.605  14.618  1.00  0.00     0.144 HD
ENDBRANCH   9  13
ENDBRANCH   1   9
BRANCH   6  16
ATOM     16  N   UNL     1      44.258 131.333  18.319  1.00  0.00     0.079 N 
ATOM     17  N   UNL     1      45.157 131.059  19.263  1.00  0.00    -0.062 N 
ATOM     18  N   UNL     1      43.116 131.771  18.849  1.00  0.00    -0.062 N 
ATOM     19  C   UNL     1      44.566 131.341  20.435  1.00  0.00     0.306 A 
ATOM     20  C   UNL     1      43.302 131.784  20.179  1.00  0.00     0.306 A 
ATOM     21  C   UNL     1      45.062 131.220  21.729  1.00  0.00     0.089 A 
ATOM     22  C   UNL     1      42.425 132.152  21.193  1.00  0.00     0.089 A 
ATOM     23  C   UNL     1      44.203 131.585  22.786  1.00  0.00     0.007 A 
ATOM     24  C   UNL     1      42.891 132.050  22.519  1.00  0.00     0.007 A 
ATOM     25  H   UNL     1      46.112 130.662  19.113  1.00  0.00     0.495 HD
ATOM     26  H   UNL     1      42.260 132.057  18.323  1.00  0.00     0.495 HD
ENDBRANCH   6  16
TORSDOF 4
ENDMDL
MODEL 9
REMARK VINA RESULT:      -6.6      2.696      3.615
REMARK SMILES CC(=O)N(N)c1cc(C)cc(-n2[nH+]c3ccccc3[nH+]2)c1[O-]
REMARK SMILES IDX 6 1 7 2 8 3 9 4 10 5 11 6 21 7 22 8 4 9 2 10 1 11 3 12 5 13
REMARK SMILES IDX 12 16 13 17 20 18 14 19 19 20 15 21 18 22 16 23 17 24
REMARK H PARENT 5 14 5 15 13 25 20 26
ROOT
ATOM      1  C   UNL     1      43.462 131.682  19.483  1.00  0.00     0.055 A 
ATOM      2  C   UNL     1      43.984 131.022  20.603  1.00  0.00     0.030 A 
ATOM      3  C   UNL     1      45.154 130.258  20.496  1.00  0.00    -0.047 A 
ATOM      4  C   UNL     1      45.732 129.590  21.708  1.00  0.00     0.044 C 
ATOM      5  C   UNL     1      45.814 130.174  19.261  1.00  0.00     0.041 A 
ATOM      6  C   UNL     1      45.296 130.821  18.127  1.00  0.00     0.163 A 
ATOM      7  C   UNL     1      44.120 131.587  18.246  1.00  0.00    -0.046 A 
ATOM      8  O   UNL     1      43.625 132.289  17.152  1.00  0.00    -0.869 OA
ENDROOT
BRANCH   1   9
ATOM      9  N   UNL     1      42.262 132.461  19.609  1.00  0.00    -0.249 N 
BRANCH   9  10
ATOM     10  C   UNL     1      41.741 132.824  20.900  1.00  0.00     0.238 C 
ATOM     11  C   UNL     1      42.288 132.224  22.161  1.00  0.00     0.116 C 
ATOM     12  O   UNL     1      40.798 133.656  20.979  1.00  0.00    -0.273 OA
ENDBRANCH   9  10
BRANCH   9  13
ATOM     13  N   UNL     1      41.528 132.796  18.459  1.00  0.00    -0.241 NA
ATOM     14  H   UNL     1      40.730 133.406  18.748  1.00  0.00     0.144 HD
ATOM     15  H   UNL     1      42.151 133.364  17.840  1.00  0.00     0.144 HD
ENDBRANCH   9  13
ENDBRANCH   1   9
BRANCH   6  16
ATOM     16  N   UNL     1      45.980 130.706  16.867  1.00  0.00     0.079 N 
ATOM     17  N   UNL     1      45.997 131.651  15.928  1.00  0.00    -0.062 N 
ATOM     18  N   UNL     1      46.645 129.620  16.475  1.00  0.00    -0.062 N 
ATOM     19  C   UNL     1      46.706 131.148  14.905  1.00  0.00     0.306 A 
ATOM     20  C   UNL     1      47.109 129.891  15.244  1.00  0.00     0.306 A 
ATOM     21  C   UNL     1      47.014 131.721  13.675  1.00  0.00     0.089 A 
ATOM     22  C   UNL     1      47.862 129.096  14.386  1.00  0.00     0.089 A 
ATOM     23  C   UNL     1      47.777 130.947  12.777  1.00  0.00     0.007 A 
ATOM     24  C   UNL     1      48.200 129.642  13.131  1.00  0.00     0.007 A 
ATOM     25  H   UNL     1      45.514 132.577  15.972  1.00  0.00     0.495 HD
ATOM     26  H   UNL     1      46.782 128.745  17.028  1.00  0.00     0.495 HD
ENDBRANCH   6  16
TORSDOF 4
ENDMDL


