REMARK SMILES Nc1cc(F)c[nH]/c1=N\c1cnc2[nH]ccc2c1
REMARK SMILES IDX 8 1 2 2 3 3 4 4 5 5 6 6 7 7 9 9 10 10 11 11 12 12 13 13
REMARK SMILES IDX 18 14 17 15 14 16 16 17 15 18 1 20
REMARK H PARENT 7 8 14 19 1 21 1 22
ROOT
ATOM      1  C   UNL     1       1.293   1.758  -0.346  1.00  0.00     0.154 A 
ATOM      2  C   UNL     1       1.413   3.165  -0.311  1.00  0.00     0.078 A 
ATOM      3  C   UNL     1       2.448   3.778  -1.027  1.00  0.00     0.070 A 
ATOM      4  C   UNL     1       3.352   3.005  -1.751  1.00  0.00     0.141 A 
ATOM      5  F   UNL     1       4.357   3.595  -2.444  1.00  0.00    -0.205 F 
ATOM      6  C   UNL     1       3.221   1.618  -1.746  1.00  0.00     0.123 A 
ATOM      7  N   UNL     1       2.214   1.024  -1.049  1.00  0.00    -0.342 N 
ATOM      8  H   UNL     1       2.197  -0.019  -1.042  1.00  0.00     0.168 HD
ENDROOT
BRANCH   1   9
ATOM      9  N   UNL     1       0.329   1.187   0.323  1.00  0.00    -0.227 NA
BRANCH   9  10
ATOM     10  C   UNL     1      -0.024  -0.204   0.329  1.00  0.00     0.085 A 
ATOM     11  C   UNL     1      -0.283  -0.847   1.563  1.00  0.00     0.142 A 
ATOM     12  N   UNL     1      -0.681  -2.155   1.600  1.00  0.00    -0.236 NA
ATOM     13  C   UNL     1      -0.843  -2.826   0.433  1.00  0.00     0.137 A 
ATOM     14  C   UNL     1      -0.234  -0.912  -0.876  1.00  0.00     0.042 A 
ATOM     15  C   UNL     1      -0.635  -2.239  -0.779  1.00  0.00     0.021 A 
ATOM     16  N   UNL     1      -1.237  -4.101   0.300  1.00  0.00    -0.346 N 
ATOM     17  C   UNL     1      -0.910  -3.184  -1.743  1.00  0.00     0.030 A 
ATOM     18  C   UNL     1      -1.279  -4.326  -1.034  1.00  0.00     0.085 A 
ATOM     19  H   UNL     1      -1.468  -4.777   1.062  1.00  0.00     0.167 HD
ENDBRANCH   9  10
ENDBRANCH   1   9
BRANCH   2  20
ATOM     20  N   UNL     1       0.490   3.975   0.430  1.00  0.00    -0.396 N 
ATOM     21  H   UNL     1      -0.297   3.554   0.972  1.00  0.00     0.156 HD
ATOM     22  H   UNL     1       0.589   5.014   0.444  1.00  0.00     0.156 HD
ENDBRANCH   2  20
TORSDOF 3


