MODEL 1
REMARK VINA RESULT:      -8.4      0.000      0.000
REMARK SMILES [NH-]C(=O)c1ccc(C2CC2)c(F)c1CCC(=O)c1ccccc1
REMARK SMILES IDX 4 1 5 2 6 3 7 4 11 5 12 6 13 7 2 8 3 9 1 10 14 12 15 13
REMARK SMILES IDX 16 14 17 15 18 16 19 17 23 18 20 19 22 20 21 21 8 22 9 23
REMARK SMILES IDX 10 24
REMARK H PARENT 1 11
ROOT
ATOM      1  C   UNL     1      43.035 131.657  20.581  1.00  0.00     0.005 A 
ATOM      2  C   UNL     1      42.417 131.099  21.710  1.00  0.00     0.011 A 
ATOM      3  C   UNL     1      43.102 130.206  22.532  1.00  0.00     0.008 A 
ATOM      4  C   UNL     1      44.415 129.832  22.230  1.00  0.00    -0.009 A 
ATOM      5  C   UNL     1      45.052 130.388  21.110  1.00  0.00     0.130 A 
ATOM      6  F   UNL     1      46.335 130.037  20.830  1.00  0.00    -0.206 F 
ATOM      7  C   UNL     1      44.367 131.279  20.257  1.00  0.00    -0.002 A 
ENDROOT
BRANCH   1   8
ATOM      8  C   UNL     1      42.257 132.628  19.786  1.00  0.00     0.080 C 
ATOM      9  O   UNL     1      41.602 133.535  20.368  1.00  0.00    -0.315 OA
BRANCH   8  10
ATOM     10  N   UNL     1      42.311 132.607  18.361  1.00  0.00    -0.664 NA
ATOM     11  H   UNL     1      43.182 132.874  17.853  1.00  0.00    -0.121 HD
ENDBRANCH   8  10
ENDBRANCH   1   8
BRANCH   7  12
ATOM     12  C   UNL     1      45.036 131.688  18.957  1.00  0.00     0.047 C 
BRANCH  12  13
ATOM     13  C   UNL     1      45.017 130.559  17.913  1.00  0.00     0.086 C 
BRANCH  13  14
ATOM     14  C   UNL     1      44.909 131.094  16.505  1.00  0.00     0.163 C 
ATOM     15  O   UNL     1      43.887 131.771  16.209  1.00  0.00    -0.294 OA
BRANCH  14  16
ATOM     16  C   UNL     1      45.906 130.785  15.441  1.00  0.00     0.017 A 
ATOM     17  C   UNL     1      46.436 129.483  15.346  1.00  0.00     0.012 A 
ATOM     18  C   UNL     1      46.356 131.764  14.531  1.00  0.00     0.012 A 
ATOM     19  C   UNL     1      47.409 129.179  14.389  1.00  0.00     0.001 A 
ATOM     20  C   UNL     1      47.328 131.453  13.576  1.00  0.00     0.001 A 
ATOM     21  C   UNL     1      47.858 130.163  13.508  1.00  0.00     0.000 A 
ENDBRANCH  14  16
ENDBRANCH  13  14
ENDBRANCH  12  13
ENDBRANCH   7  12
BRANCH   4  22
ATOM     22  C   UNL     1      45.160 128.897  23.148  1.00  0.00     0.022 C 
ATOM     23  C   UNL     1      44.290 127.943  23.956  1.00  0.00     0.009 C 
ATOM     24  C   UNL     1      45.080 127.424  22.770  1.00  0.00     0.009 C 
ENDBRANCH   4  22
TORSDOF 7
ENDMDL
MODEL 2
REMARK VINA RESULT:      -8.2      1.594      1.986
REMARK SMILES [NH-]C(=O)c1ccc(C2CC2)c(F)c1CCC(=O)c1ccccc1
REMARK SMILES IDX 4 1 5 2 6 3 7 4 11 5 12 6 13 7 2 8 3 9 1 10 14 12 15 13
REMARK SMILES IDX 16 14 17 15 18 16 19 17 23 18 20 19 22 20 21 21 8 22 9 23
REMARK SMILES IDX 10 24
REMARK H PARENT 1 11
ROOT
ATOM      1  C   UNL     1      43.262 131.780  19.002  1.00  0.00     0.005 A 
ATOM      2  C   UNL     1      42.420 131.704  20.122  1.00  0.00     0.011 A 
ATOM      3  C   UNL     1      42.935 131.413  21.384  1.00  0.00     0.008 A 
ATOM      4  C   UNL     1      44.301 131.170  21.552  1.00  0.00    -0.009 A 
ATOM      5  C   UNL     1      45.160 131.251  20.444  1.00  0.00     0.130 A 
ATOM      6  F   UNL     1      46.491 131.033  20.614  1.00  0.00    -0.206 F 
ATOM      7  C   UNL     1      44.653 131.525  19.156  1.00  0.00    -0.002 A 
ENDROOT
BRANCH   1   8
ATOM      8  C   UNL     1      42.647 132.135  17.707  1.00  0.00     0.080 C 
ATOM      9  O   UNL     1      43.164 131.726  16.633  1.00  0.00    -0.315 OA
BRANCH   8  10
ATOM     10  N   UNL     1      41.420 132.860  17.663  1.00  0.00    -0.664 NA
ATOM     11  H   UNL     1      41.090 133.408  18.488  1.00  0.00    -0.121 HD
ENDBRANCH   8  10
ENDBRANCH   1   8
BRANCH   7  12
ATOM     12  C   UNL     1      45.595 131.402  17.971  1.00  0.00     0.047 C 
BRANCH  12  13
ATOM     13  C   UNL     1      45.966 129.940  17.674  1.00  0.00     0.086 C 
BRANCH  13  14
ATOM     14  C   UNL     1      45.671 129.562  16.243  1.00  0.00     0.163 C 
ATOM     15  O   UNL     1      44.705 128.779  16.028  1.00  0.00    -0.294 OA
BRANCH  14  16
ATOM     16  C   UNL     1      46.516 130.002  15.096  1.00  0.00     0.017 A 
ATOM     17  C   UNL     1      47.431 129.097  14.524  1.00  0.00     0.012 A 
ATOM     18  C   UNL     1      46.444 131.310  14.573  1.00  0.00     0.012 A 
ATOM     19  C   UNL     1      48.270 129.498  13.480  1.00  0.00     0.001 A 
ATOM     20  C   UNL     1      47.286 131.704  13.528  1.00  0.00     0.001 A 
ATOM     21  C   UNL     1      48.201 130.801  12.986  1.00  0.00     0.000 A 
ENDBRANCH  14  16
ENDBRANCH  13  14
ENDBRANCH  12  13
ENDBRANCH   7  12
BRANCH   4  22
ATOM     22  C   UNL     1      44.853 130.897  22.928  1.00  0.00     0.022 C 
ATOM     23  C   UNL     1      44.280 131.760  24.045  1.00  0.00     0.009 C 
ATOM     24  C   UNL     1      43.855 130.310  23.917  1.00  0.00     0.009 C 
ENDBRANCH   4  22
TORSDOF 7
ENDMDL
MODEL 3
REMARK VINA RESULT:      -7.4      1.054      1.070
REMARK SMILES [NH-]C(=O)c1ccc(C2CC2)c(F)c1CCC(=O)c1ccccc1
REMARK SMILES IDX 4 1 5 2 6 3 7 4 11 5 12 6 13 7 2 8 3 9 1 10 14 12 15 13
REMARK SMILES IDX 16 14 17 15 18 16 19 17 23 18 20 19 22 20 21 21 8 22 9 23
REMARK SMILES IDX 10 24
REMARK H PARENT 1 11
ROOT
ATOM      1  C   UNL     1      43.228 131.305  21.302  1.00  0.00     0.005 A 
ATOM      2  C   UNL     1      42.669 130.600  22.379  1.00  0.00     0.011 A 
ATOM      3  C   UNL     1      43.341 129.522  22.952  1.00  0.00     0.008 A 
ATOM      4  C   UNL     1      44.579 129.110  22.448  1.00  0.00    -0.009 A 
ATOM      5  C   UNL     1      45.157 129.812  21.378  1.00  0.00     0.130 A 
ATOM      6  F   UNL     1      46.369 129.421  20.902  1.00  0.00    -0.206 F 
ATOM      7  C   UNL     1      44.481 130.893  20.773  1.00  0.00    -0.002 A 
ENDROOT
BRANCH   1   8
ATOM      8  C   UNL     1      42.473 132.461  20.779  1.00  0.00     0.080 C 
ATOM      9  O   UNL     1      42.766 132.944  19.652  1.00  0.00    -0.315 OA
BRANCH   8  10
ATOM     10  N   UNL     1      41.356 132.982  21.495  1.00  0.00    -0.664 NA
ATOM     11  H   UNL     1      41.463 133.795  22.141  1.00  0.00    -0.121 HD
ENDBRANCH   8  10
ENDBRANCH   1   8
BRANCH   7  12
ATOM     12  C   UNL     1      45.060 131.480  19.498  1.00  0.00     0.047 C 
BRANCH  12  13
ATOM     13  C   UNL     1      45.122 130.448  18.359  1.00  0.00     0.086 C 
BRANCH  13  14
ATOM     14  C   UNL     1      44.887 131.083  17.010  1.00  0.00     0.163 C 
ATOM     15  O   UNL     1      43.885 131.839  16.881  1.00  0.00    -0.294 OA
BRANCH  14  16
ATOM     16  C   UNL     1      45.730 130.789  15.816  1.00  0.00     0.017 A 
ATOM     17  C   UNL     1      46.802 129.882  15.932  1.00  0.00     0.012 A 
ATOM     18  C   UNL     1      45.503 131.408  14.569  1.00  0.00     0.012 A 
ATOM     19  C   UNL     1      47.638 129.625  14.842  1.00  0.00     0.001 A 
ATOM     20  C   UNL     1      46.343 131.145  13.483  1.00  0.00     0.001 A 
ATOM     21  C   UNL     1      47.412 130.259  13.620  1.00  0.00     0.000 A 
ENDBRANCH  14  16
ENDBRANCH  13  14
ENDBRANCH  12  13
ENDBRANCH   7  12
BRANCH   4  22
ATOM     22  C   UNL     1      45.316 127.970  23.102  1.00  0.00     0.022 C 
ATOM     23  C   UNL     1      44.470 126.743  23.423  1.00  0.00     0.009 C 
ATOM     24  C   UNL     1      45.436 126.710  22.253  1.00  0.00     0.009 C 
ENDBRANCH   4  22
TORSDOF 7
ENDMDL
MODEL 4
REMARK VINA RESULT:      -7.4      1.150      1.539
REMARK SMILES [NH-]C(=O)c1ccc(C2CC2)c(F)c1CCC(=O)c1ccccc1
REMARK SMILES IDX 4 1 5 2 6 3 7 4 11 5 12 6 13 7 2 8 3 9 1 10 14 12 15 13
REMARK SMILES IDX 16 14 17 15 18 16 19 17 23 18 20 19 22 20 21 21 8 22 9 23
REMARK SMILES IDX 10 24
REMARK H PARENT 1 11
ROOT
ATOM      1  C   UNL     1      42.783 131.748  20.790  1.00  0.00     0.005 A 
ATOM      2  C   UNL     1      42.191 131.038  21.846  1.00  0.00     0.011 A 
ATOM      3  C   UNL     1      42.927 130.119  22.590  1.00  0.00     0.008 A 
ATOM      4  C   UNL     1      44.268 129.870  22.282  1.00  0.00    -0.009 A 
ATOM      5  C   UNL     1      44.879 130.579  21.235  1.00  0.00     0.130 A 
ATOM      6  F   UNL     1      46.189 130.349  20.950  1.00  0.00    -0.206 F 
ATOM      7  C   UNL     1      44.143 131.499  20.459  1.00  0.00    -0.002 A 
ENDROOT
BRANCH   1   8
ATOM      8  C   UNL     1      41.948 132.735  20.077  1.00  0.00     0.080 C 
ATOM      9  O   UNL     1      41.898 132.723  18.818  1.00  0.00    -0.315 OA
BRANCH   8  10
ATOM     10  N   UNL     1      41.124 133.645  20.803  1.00  0.00    -0.664 NA
ATOM     11  H   UNL     1      41.526 134.505  21.235  1.00  0.00    -0.121 HD
ENDBRANCH   8  10
ENDBRANCH   1   8
BRANCH   7  12
ATOM     12  C   UNL     1      44.800 132.081  19.220  1.00  0.00     0.047 C 
BRANCH  12  13
ATOM     13  C   UNL     1      44.420 131.311  17.945  1.00  0.00     0.086 C 
BRANCH  13  14
ATOM     14  C   UNL     1      45.548 130.433  17.458  1.00  0.00     0.163 C 
ATOM     15  O   UNL     1      46.031 129.594  18.267  1.00  0.00    -0.294 OA
BRANCH  14  16
ATOM     16  C   UNL     1      46.165 130.576  16.109  1.00  0.00     0.017 A 
ATOM     17  C   UNL     1      46.140 131.829  15.466  1.00  0.00     0.012 A 
ATOM     18  C   UNL     1      46.758 129.486  15.439  1.00  0.00     0.012 A 
ATOM     19  C   UNL     1      46.667 131.980  14.180  1.00  0.00     0.001 A 
ATOM     20  C   UNL     1      47.284 129.644  14.153  1.00  0.00     0.001 A 
ATOM     21  C   UNL     1      47.234 130.888  13.522  1.00  0.00     0.000 A 
ENDBRANCH  14  16
ENDBRANCH  13  14
ENDBRANCH  12  13
ENDBRANCH   7  12
BRANCH   4  22
ATOM     22  C   UNL     1      45.067 128.905  23.119  1.00  0.00     0.022 C 
ATOM     23  C   UNL     1      44.288 127.713  23.665  1.00  0.00     0.009 C 
ATOM     24  C   UNL     1      45.251 127.522  22.508  1.00  0.00     0.009 C 
ENDBRANCH   4  22
TORSDOF 7
ENDMDL
MODEL 5
REMARK VINA RESULT:      -7.2      1.854      7.158
REMARK SMILES [NH-]C(=O)c1ccc(C2CC2)c(F)c1CCC(=O)c1ccccc1
REMARK SMILES IDX 4 1 5 2 6 3 7 4 11 5 12 6 13 7 2 8 3 9 1 10 14 12 15 13
REMARK SMILES IDX 16 14 17 15 18 16 19 17 23 18 20 19 22 20 21 21 8 22 9 23
REMARK SMILES IDX 10 24
REMARK H PARENT 1 11
ROOT
ATOM      1  C   UNL     1      44.020 131.535  17.439  1.00  0.00     0.005 A 
ATOM      2  C   UNL     1      43.480 131.698  16.154  1.00  0.00     0.011 A 
ATOM      3  C   UNL     1      44.178 131.271  15.027  1.00  0.00     0.008 A 
ATOM      4  C   UNL     1      45.444 130.691  15.155  1.00  0.00    -0.009 A 
ATOM      5  C   UNL     1      45.995 130.511  16.435  1.00  0.00     0.130 A 
ATOM      6  F   UNL     1      47.217 129.929  16.558  1.00  0.00    -0.206 F 
ATOM      7  C   UNL     1      45.310 130.955  17.585  1.00  0.00    -0.002 A 
ENDROOT
BRANCH   1   8
ATOM      8  C   UNL     1      43.199 131.974  18.585  1.00  0.00     0.080 C 
ATOM      9  O   UNL     1      42.088 131.423  18.810  1.00  0.00    -0.315 OA
BRANCH   8  10
ATOM     10  N   UNL     1      43.692 132.954  19.496  1.00  0.00    -0.664 NA
ATOM     11  H   UNL     1      43.076 133.357  20.236  1.00  0.00    -0.121 HD
ENDBRANCH   8  10
ENDBRANCH   1   8
BRANCH   7  12
ATOM     12  C   UNL     1      46.040 130.916  18.916  1.00  0.00     0.047 C 
BRANCH  12  13
ATOM     13  C   UNL     1      45.321 130.030  19.947  1.00  0.00     0.086 C 
BRANCH  13  14
ATOM     14  C   UNL     1      45.106 130.750  21.257  1.00  0.00     0.163 C 
ATOM     15  O   UNL     1      45.765 131.806  21.463  1.00  0.00    -0.294 OA
BRANCH  14  16
ATOM     16  C   UNL     1      44.224 130.223  22.337  1.00  0.00     0.017 A 
ATOM     17  C   UNL     1      43.221 131.052  22.877  1.00  0.00     0.012 A 
ATOM     18  C   UNL     1      44.374 128.920  22.856  1.00  0.00     0.012 A 
ATOM     19  C   UNL     1      42.412 130.601  23.924  1.00  0.00     0.001 A 
ATOM     20  C   UNL     1      43.561 128.476  23.903  1.00  0.00     0.001 A 
ATOM     21  C   UNL     1      42.585 129.316  24.440  1.00  0.00     0.000 A 
ENDBRANCH  14  16
ENDBRANCH  13  14
ENDBRANCH  12  13
ENDBRANCH   7  12
BRANCH   4  22
ATOM     22  C   UNL     1      46.173 130.196  13.933  1.00  0.00     0.022 C 
ATOM     23  C   UNL     1      47.266 131.117  13.406  1.00  0.00     0.009 C 
ATOM     24  C   UNL     1      47.640 129.851  14.153  1.00  0.00     0.009 C 
ENDBRANCH   4  22
TORSDOF 7
ENDMDL
MODEL 6
REMARK VINA RESULT:      -7.2      1.570      6.903
REMARK SMILES [NH-]C(=O)c1ccc(C2CC2)c(F)c1CCC(=O)c1ccccc1
REMARK SMILES IDX 4 1 5 2 6 3 7 4 11 5 12 6 13 7 2 8 3 9 1 10 14 12 15 13
REMARK SMILES IDX 16 14 17 15 18 16 19 17 23 18 20 19 22 20 21 21 8 22 9 23
REMARK SMILES IDX 10 24
REMARK H PARENT 1 11
ROOT
ATOM      1  C   UNL     1      43.525 131.664  18.156  1.00  0.00     0.005 A 
ATOM      2  C   UNL     1      43.351 131.700  16.764  1.00  0.00     0.011 A 
ATOM      3  C   UNL     1      44.380 131.318  15.906  1.00  0.00     0.008 A 
ATOM      4  C   UNL     1      45.616 130.911  16.419  1.00  0.00    -0.009 A 
ATOM      5  C   UNL     1      45.804 130.860  17.809  1.00  0.00     0.130 A 
ATOM      6  F   UNL     1      47.000 130.446  18.305  1.00  0.00    -0.206 F 
ATOM      7  C   UNL     1      44.779 131.262  18.692  1.00  0.00    -0.002 A 
ENDROOT
BRANCH   1   8
ATOM      8  C   UNL     1      42.373 132.043  18.998  1.00  0.00     0.080 C 
ATOM      9  O   UNL     1      42.204 131.488  20.118  1.00  0.00    -0.315 OA
BRANCH   8  10
ATOM     10  N   UNL     1      41.499 133.097  18.599  1.00  0.00    -0.664 NA
ATOM     11  H   UNL     1      41.846 133.890  18.015  1.00  0.00    -0.121 HD
ENDBRANCH   8  10
ENDBRANCH   1   8
BRANCH   7  12
ATOM     12  C   UNL     1      45.108 131.376  20.170  1.00  0.00     0.047 C 
BRANCH  12  13
ATOM     13  C   UNL     1      45.305 130.000  20.829  1.00  0.00     0.086 C 
BRANCH  13  14
ATOM     14  C   UNL     1      44.668 129.933  22.196  1.00  0.00     0.163 C 
ATOM     15  O   UNL     1      44.407 131.021  22.778  1.00  0.00    -0.294 OA
BRANCH  14  16
ATOM     16  C   UNL     1      44.418 128.650  22.913  1.00  0.00     0.017 A 
ATOM     17  C   UNL     1      45.104 127.487  22.511  1.00  0.00     0.012 A 
ATOM     18  C   UNL     1      43.496 128.555  23.976  1.00  0.00     0.012 A 
ATOM     19  C   UNL     1      44.853 126.261  23.133  1.00  0.00     0.001 A 
ATOM     20  C   UNL     1      43.251 127.326  24.595  1.00  0.00     0.001 A 
ATOM     21  C   UNL     1      43.924 126.179  24.171  1.00  0.00     0.000 A 
ENDBRANCH  14  16
ENDBRANCH  13  14
ENDBRANCH  12  13
ENDBRANCH   7  12
BRANCH   4  22
ATOM     22  C   UNL     1      46.708 130.461  15.483  1.00  0.00     0.022 C 
ATOM     23  C   UNL     1      46.367 129.258  14.611  1.00  0.00     0.009 C 
ATOM     24  C   UNL     1      46.404 130.647  14.002  1.00  0.00     0.009 C 
ENDBRANCH   4  22
TORSDOF 7
ENDMDL
MODEL 7
REMARK VINA RESULT:      -7.1      1.569      7.033
REMARK SMILES [NH-]C(=O)c1ccc(C2CC2)c(F)c1CCC(=O)c1ccccc1
REMARK SMILES IDX 4 1 5 2 6 3 7 4 11 5 12 6 13 7 2 8 3 9 1 10 14 12 15 13
REMARK SMILES IDX 16 14 17 15 18 16 19 17 23 18 20 19 22 20 21 21 8 22 9 23
REMARK SMILES IDX 10 24
REMARK H PARENT 1 11
ROOT
ATOM      1  C   UNL     1      43.385 131.760  18.327  1.00  0.00     0.005 A 
ATOM      2  C   UNL     1      43.236 131.707  16.932  1.00  0.00     0.011 A 
ATOM      3  C   UNL     1      44.283 131.283  16.117  1.00  0.00     0.008 A 
ATOM      4  C   UNL     1      45.514 130.923  16.676  1.00  0.00    -0.009 A 
ATOM      5  C   UNL     1      45.678 130.960  18.070  1.00  0.00     0.130 A 
ATOM      6  F   UNL     1      46.869 130.591  18.611  1.00  0.00    -0.206 F 
ATOM      7  C   UNL     1      44.633 131.405  18.908  1.00  0.00    -0.002 A 
ENDROOT
BRANCH   1   8
ATOM      8  C   UNL     1      42.215 132.178  19.124  1.00  0.00     0.080 C 
ATOM      9  O   UNL     1      42.296 133.187  19.876  1.00  0.00    -0.315 OA
BRANCH   8  10
ATOM     10  N   UNL     1      40.965 131.507  18.983  1.00  0.00    -0.664 NA
ATOM     11  H   UNL     1      40.646 130.812  19.693  1.00  0.00    -0.121 HD
ENDBRANCH   8  10
ENDBRANCH   1   8
BRANCH   7  12
ATOM     12  C   UNL     1      44.935 131.615  20.382  1.00  0.00     0.047 C 
BRANCH  12  13
ATOM     13  C   UNL     1      45.050 130.286  21.146  1.00  0.00     0.086 C 
BRANCH  13  14
ATOM     14  C   UNL     1      44.307 130.324  22.459  1.00  0.00     0.163 C 
ATOM     15  O   UNL     1      44.230 131.431  23.060  1.00  0.00    -0.294 OA
BRANCH  14  16
ATOM     16  C   UNL     1      43.743 129.107  23.109  1.00  0.00     0.017 A 
ATOM     17  C   UNL     1      42.397 129.104  23.525  1.00  0.00     0.012 A 
ATOM     18  C   UNL     1      44.523 127.955  23.343  1.00  0.00     0.012 A 
ATOM     19  C   UNL     1      41.856 127.994  24.180  1.00  0.00     0.001 A 
ATOM     20  C   UNL     1      43.975 126.848  23.998  1.00  0.00     0.001 A 
ATOM     21  C   UNL     1      42.646 126.869  24.421  1.00  0.00     0.000 A 
ENDBRANCH  14  16
ENDBRANCH  13  14
ENDBRANCH  12  13
ENDBRANCH   7  12
BRANCH   4  22
ATOM     22  C   UNL     1      46.627 130.427  15.788  1.00  0.00     0.022 C 
ATOM     23  C   UNL     1      46.185 129.829  14.458  1.00  0.00     0.009 C 
ATOM     24  C   UNL     1      46.816 131.208  14.495  1.00  0.00     0.009 C 
ENDBRANCH   4  22
TORSDOF 7
ENDMDL
MODEL 8
REMARK VINA RESULT:      -7.0      2.255      3.540
REMARK SMILES [NH-]C(=O)c1ccc(C2CC2)c(F)c1CCC(=O)c1ccccc1
REMARK SMILES IDX 4 1 5 2 6 3 7 4 11 5 12 6 13 7 2 8 3 9 1 10 14 12 15 13
REMARK SMILES IDX 16 14 17 15 18 16 19 17 23 18 20 19 22 20 21 21 8 22 9 23
REMARK SMILES IDX 10 24
REMARK H PARENT 1 11
ROOT
ATOM      1  C   UNL     1      43.424 129.843  23.657  1.00  0.00     0.005 A 
ATOM      2  C   UNL     1      42.758 128.864  24.410  1.00  0.00     0.011 A 
ATOM      3  C   UNL     1      43.071 127.514  24.262  1.00  0.00     0.008 A 
ATOM      4  C   UNL     1      44.043 127.109  23.342  1.00  0.00    -0.009 A 
ATOM      5  C   UNL     1      44.726 128.077  22.588  1.00  0.00     0.130 A 
ATOM      6  F   UNL     1      45.684 127.682  21.707  1.00  0.00    -0.206 F 
ATOM      7  C   UNL     1      44.408 129.446  22.711  1.00  0.00    -0.002 A 
ENDROOT
BRANCH   1   8
ATOM      8  C   UNL     1      43.066 131.254  23.903  1.00  0.00     0.080 C 
ATOM      9  O   UNL     1      43.857 132.002  24.539  1.00  0.00    -0.315 OA
BRANCH   8  10
ATOM     10  N   UNL     1      41.873 131.805  23.349  1.00  0.00    -0.664 NA
ATOM     11  H   UNL     1      41.915 132.545  22.614  1.00  0.00    -0.121 HD
ENDBRANCH   8  10
ENDBRANCH   1   8
BRANCH   7  12
ATOM     12  C   UNL     1      45.035 130.421  21.730  1.00  0.00     0.047 C 
BRANCH  12  13
ATOM     13  C   UNL     1      44.074 130.797  20.590  1.00  0.00     0.086 C 
BRANCH  13  14
ATOM     14  C   UNL     1      44.751 131.639  19.536  1.00  0.00     0.163 C 
ATOM     15  O   UNL     1      45.136 132.795  19.865  1.00  0.00    -0.294 OA
BRANCH  14  16
ATOM     16  C   UNL     1      44.903 131.201  18.119  1.00  0.00     0.017 A 
ATOM     17  C   UNL     1      44.034 131.718  17.138  1.00  0.00     0.012 A 
ATOM     18  C   UNL     1      45.881 130.264  17.728  1.00  0.00     0.012 A 
ATOM     19  C   UNL     1      44.122 131.287  15.811  1.00  0.00     0.001 A 
ATOM     20  C   UNL     1      45.964 129.838  16.399  1.00  0.00     0.001 A 
ATOM     21  C   UNL     1      45.083 130.345  15.442  1.00  0.00     0.000 A 
ENDBRANCH  14  16
ENDBRANCH  13  14
ENDBRANCH  12  13
ENDBRANCH   7  12
BRANCH   4  22
ATOM     22  C   UNL     1      44.403 125.651  23.219  1.00  0.00     0.022 C 
ATOM     23  C   UNL     1      45.490 125.164  24.169  1.00  0.00     0.009 C 
ATOM     24  C   UNL     1      44.041 124.795  24.426  1.00  0.00     0.009 C 
ENDBRANCH   4  22
TORSDOF 7
ENDMDL
MODEL 9
REMARK VINA RESULT:      -6.8      1.900      2.773
REMARK SMILES [NH-]C(=O)c1ccc(C2CC2)c(F)c1CCC(=O)c1ccccc1
REMARK SMILES IDX 4 1 5 2 6 3 7 4 11 5 12 6 13 7 2 8 3 9 1 10 14 12 15 13
REMARK SMILES IDX 16 14 17 15 18 16 19 17 23 18 20 19 22 20 21 21 8 22 9 23
REMARK SMILES IDX 10 24
REMARK H PARENT 1 11
ROOT
ATOM      1  C   UNL     1      43.572 130.092  22.733  1.00  0.00     0.005 A 
ATOM      2  C   UNL     1      42.855 129.140  23.474  1.00  0.00     0.011 A 
ATOM      3  C   UNL     1      43.292 127.820  23.554  1.00  0.00     0.008 A 
ATOM      4  C   UNL     1      44.447 127.414  22.877  1.00  0.00    -0.009 A 
ATOM      5  C   UNL     1      45.182 128.356  22.139  1.00  0.00     0.130 A 
ATOM      6  F   UNL     1      46.314 127.963  21.498  1.00  0.00    -0.206 F 
ATOM      7  C   UNL     1      44.743 129.693  22.032  1.00  0.00    -0.002 A 
ENDROOT
BRANCH   1   8
ATOM      8  C   UNL     1      43.067 131.479  22.733  1.00  0.00     0.080 C 
ATOM      9  O   UNL     1      42.720 132.021  21.649  1.00  0.00    -0.315 OA
BRANCH   8  10
ATOM     10  N   UNL     1      42.881 132.183  23.959  1.00  0.00    -0.664 NA
ATOM     11  H   UNL     1      41.946 132.564  24.224  1.00  0.00    -0.121 HD
ENDBRANCH   8  10
ENDBRANCH   1   8
BRANCH   7  12
ATOM     12  C   UNL     1      45.465 130.611  21.062  1.00  0.00     0.047 C 
BRANCH  12  13
ATOM     13  C   UNL     1      45.558 130.007  19.651  1.00  0.00     0.086 C 
BRANCH  13  14
ATOM     14  C   UNL     1      45.127 130.989  18.588  1.00  0.00     0.163 C 
ATOM     15  O   UNL     1      44.222 131.817  18.883  1.00  0.00    -0.294 OA
BRANCH  14  16
ATOM     16  C   UNL     1      45.659 130.964  17.196  1.00  0.00     0.017 A 
ATOM     17  C   UNL     1      45.495 132.094  16.371  1.00  0.00     0.012 A 
ATOM     18  C   UNL     1      46.309 129.831  16.664  1.00  0.00     0.012 A 
ATOM     19  C   UNL     1      45.940 132.080  15.046  1.00  0.00     0.001 A 
ATOM     20  C   UNL     1      46.753 129.824  15.339  1.00  0.00     0.001 A 
ATOM     21  C   UNL     1      46.565 130.944  14.529  1.00  0.00     0.000 A 
ENDBRANCH  14  16
ENDBRANCH  13  14
ENDBRANCH  12  13
ENDBRANCH   7  12
BRANCH   4  22
ATOM     22  C   UNL     1      44.934 125.994  23.004  1.00  0.00     0.022 C 
ATOM     23  C   UNL     1      46.443 125.829  23.136  1.00  0.00     0.009 C 
ATOM     24  C   UNL     1      45.553 125.643  24.350  1.00  0.00     0.009 C 
ENDBRANCH   4  22
TORSDOF 7
ENDMDL


