REMARK SMILES Cc1ccc(N[C@H]2CCC[C@H]([NH3+])[C@@]2(O)F)cc1
REMARK SMILES IDX 7 1 8 2 9 3 10 4 11 5 13 6 15 7 6 8 5 10 2 11 3 12 17 13
REMARK SMILES IDX 4 14 16 15 1 16 14 17 12 19
REMARK H PARENT 6 9 14 18 12 20 12 21 12 22
ROOT
ATOM      1  C   UNL     1      -0.108  -0.387   1.146  1.00  0.00     0.150 C 
ATOM      2  C   UNL     1      -0.954   0.572   2.004  1.00  0.00     0.031 C 
ATOM      3  C   UNL     1      -0.294   0.836   3.360  1.00  0.00     0.009 C 
ATOM      4  C   UNL     1      -0.049  -0.474   4.119  1.00  0.00     0.071 C 
ATOM      5  C   UNL     1       0.779  -1.485   3.294  1.00  0.00     0.248 C 
ATOM      6  C   UNL     1       0.141  -1.723   1.896  1.00  0.00     0.279 C 
ATOM      7  F   UNL     1      -1.076  -2.370   2.086  1.00  0.00    -0.203 F 
ENDROOT
BRANCH   1   8
ATOM      8  N   UNL     1      -0.802  -0.639  -0.124  1.00  0.00    -0.376 N 
ATOM      9  H   UNL     1      -1.823  -0.863  -0.079  1.00  0.00     0.161 HD
BRANCH   8  10
ATOM     10  C   UNL     1      -0.180  -0.607  -1.424  1.00  0.00     0.034 A 
ATOM     11  C   UNL     1       0.961  -0.550  -4.003  1.00  0.00    -0.051 A 
ATOM     12  C   UNL     1      -0.429  -0.477  -3.842  1.00  0.00     0.005 A 
ATOM     13  C   UNL     1       1.777  -0.687  -2.871  1.00  0.00     0.005 A 
ATOM     14  C   UNL     1      -0.993  -0.503  -2.563  1.00  0.00     0.026 A 
ATOM     15  C   UNL     1       1.215  -0.712  -1.591  1.00  0.00     0.026 A 
ATOM     16  C   UNL     1       1.564  -0.564  -5.376  1.00  0.00     0.044 C 
ENDBRANCH   8  10
ENDBRANCH   1   8
BRANCH   6  17
ATOM     17  O   UNL     1       0.987  -2.553   1.139  1.00  0.00    -0.356 OA
ATOM     18  H   UNL     1       0.438  -2.956   0.417  1.00  0.00     0.214 HD
ENDBRANCH   6  17
BRANCH   5  19
ATOM     19  N   UNL     1       2.190  -1.074   3.206  1.00  0.00    -0.350 N 
ATOM     20  H   UNL     1       2.577  -0.933   4.168  1.00  0.00     0.344 HD
ATOM     21  H   UNL     1       2.304  -0.188   2.668  1.00  0.00     0.344 HD
ATOM     22  H   UNL     1       2.756  -1.825   2.748  1.00  0.00     0.344 HD
ENDBRANCH   5  19
TORSDOF 4


