REMARK SMILES CC1=CCC=C[C@H]1C(=O)Oc1cc(F)c([NH2+]c2ccc3cc[nH]c3c2)c(-c2ccc(C(N)=O)cc2)c1O
REMARK SMILES IDX 11 1 12 2 13 3 14 4 15 5 26 6 36 7 10 8 8 9 9 10 7 11 2 12
REMARK SMILES IDX 3 13 4 14 6 15 5 16 1 17 37 18 27 20 28 21 35 22 29 23 34 24
REMARK SMILES IDX 30 25 31 26 32 27 33 28 16 31 17 34 18 35 25 36 19 37 24 38
REMARK SMILES IDX 20 39 23 40 21 41 22 42
REMARK H PARENT 37 19 32 29 32 30 16 32 16 33 23 43
ROOT
ATOM      1  C   UNL     1      -2.382  -0.663  -1.095  1.00  0.00     0.176 A 
ATOM      2  C   UNL     1      -2.311  -0.604  -2.494  1.00  0.00     0.097 A 
ATOM      3  C   UNL     1      -1.102  -0.333  -3.133  1.00  0.00     0.188 A 
ATOM      4  F   UNL     1      -1.085  -0.270  -4.490  1.00  0.00    -0.200 F 
ATOM      5  C   UNL     1       0.077  -0.129  -2.388  1.00  0.00     0.182 A 
ATOM      6  C   UNL     1       0.013  -0.206  -0.970  1.00  0.00     0.092 A 
ATOM      7  C   UNL     1      -1.220  -0.482  -0.335  1.00  0.00     0.172 A 
ENDROOT
BRANCH   1   8
ATOM      8  O   UNL     1      -3.577  -0.948  -0.416  1.00  0.00    -0.422 OA
BRANCH   8   9
ATOM      9  C   UNL     1      -4.876  -0.711  -0.888  1.00  0.00     0.322 C 
ATOM     10  O   UNL     1      -5.085   0.074  -1.854  1.00  0.00    -0.251 OA
BRANCH   9  11
ATOM     11  C   UNL     1      -6.045  -1.325  -0.174  1.00  0.00     0.147 C 
ATOM     12  C   UNL     1      -5.708  -2.741   0.270  1.00  0.00    -0.059 C 
ATOM     13  C   UNL     1      -5.282  -2.982   1.526  1.00  0.00    -0.023 C 
ATOM     14  C   UNL     1      -5.100  -1.867   2.524  1.00  0.00     0.054 C 
ATOM     15  C   UNL     1      -6.439  -0.448   0.990  1.00  0.00    -0.012 C 
ATOM     16  C   UNL     1      -6.014  -0.705   2.237  1.00  0.00    -0.026 C 
ATOM     17  C   UNL     1      -5.778  -3.873  -0.717  1.00  0.00     0.040 C 
ENDBRANCH   9  11
ENDBRANCH   8   9
ENDBRANCH   1   8
BRANCH   7  18
ATOM     18  O   UNL     1      -1.318  -0.590   1.056  1.00  0.00    -0.504 OA
ATOM     19  H   UNL     1      -0.522  -0.511   1.676  1.00  0.00     0.293 HD
ENDBRANCH   7  18
BRANCH   6  20
ATOM     20  C   UNL     1       1.217   0.035  -0.149  1.00  0.00    -0.008 A 
ATOM     21  C   UNL     1       1.382   1.263   0.507  1.00  0.00     0.010 A 
ATOM     22  C   UNL     1       2.197  -0.957  -0.018  1.00  0.00     0.010 A 
ATOM     23  C   UNL     1       2.524   1.503   1.274  1.00  0.00     0.014 A 
ATOM     24  C   UNL     1       3.342  -0.717   0.748  1.00  0.00     0.014 A 
ATOM     25  C   UNL     1       3.515   0.514   1.409  1.00  0.00     0.039 A 
BRANCH  25  26
ATOM     26  C   UNL     1       4.725   0.787   2.221  1.00  0.00     0.248 C 
ATOM     27  N   UNL     1       5.484  -0.273   2.809  1.00  0.00    -0.366 N 
ATOM     28  O   UNL     1       5.091   1.978   2.417  1.00  0.00    -0.270 OA
ATOM     29  H   UNL     1       5.148  -1.261   2.792  1.00  0.00     0.159 HD
ATOM     30  H   UNL     1       6.350  -0.053   3.350  1.00  0.00     0.159 HD
ENDBRANCH  25  26
ENDBRANCH   6  20
BRANCH   5  31
ATOM     31  N   UNL     1       1.322   0.163  -3.073  1.00  0.00    -0.278 N 
ATOM     32  H   UNL     1       1.237   0.012  -4.104  1.00  0.00     0.358 HD
ATOM     33  H   UNL     1       2.056  -0.504  -2.741  1.00  0.00     0.358 HD
BRANCH  31  34
ATOM     34  C   UNL     1       1.729   1.532  -2.861  1.00  0.00     0.136 A 
ATOM     35  C   UNL     1       3.009   1.822  -2.313  1.00  0.00     0.069 A 
ATOM     36  C   UNL     1       0.869   2.600  -3.219  1.00  0.00     0.094 A 
ATOM     37  C   UNL     1       3.413   3.149  -2.087  1.00  0.00     0.016 A 
ATOM     38  C   UNL     1       1.301   3.902  -2.977  1.00  0.00     0.051 A 
ATOM     39  C   UNL     1       2.526   4.165  -2.428  1.00  0.00    -0.000 A 
ATOM     40  N   UNL     1       0.630   5.042  -3.217  1.00  0.00    -0.361 N 
ATOM     41  C   UNL     1       2.643   5.532  -2.316  1.00  0.00     0.028 A 
ATOM     42  C   UNL     1       1.447   6.042  -2.815  1.00  0.00     0.083 A 
ATOM     43  H   UNL     1      -0.317   5.141  -3.643  1.00  0.00     0.166 HD
ENDBRANCH  31  34
ENDBRANCH   5  31
TORSDOF 8


