MODEL 1
REMARK VINA RESULT:      -7.9      0.000      0.000
REMARK SMILES C#C[C@@H]1CNC(=[NH2+])[C@@H](Nc2cc(C)c3c(n[nH+]n3C)c2O)C1
REMARK SMILES IDX 9 1 8 3 3 4 4 5 22 6 5 7 6 8 2 10 1 11 7 12 10 15 11 16
REMARK SMILES IDX 20 17 12 18 15 19 14 20 16 21 18 22 17 23 13 24 19 25 21 27
REMARK H PARENT 9 2 5 9 7 13 7 14 17 26 21 28
ROOT
ATOM      1  N   UNL     1      45.404 131.152  17.925  1.00  0.00    -0.368 N 
ATOM      2  H   UNL     1      45.923 130.270  17.711  1.00  0.00     0.161 HD
ENDROOT
BRANCH   1   3
ATOM      3  C   UNL     1      45.101 132.036  16.789  1.00  0.00     0.195 C 
ATOM      4  C   UNL     1      46.033 130.886  14.683  1.00  0.00     0.108 C 
ATOM      5  C   UNL     1      44.685 131.053  13.976  1.00  0.00     0.250 C 
ATOM      6  C   UNL     1      46.223 131.998  15.727  1.00  0.00     0.058 C 
ATOM      7  N   UNL     1      43.594 131.094  14.946  1.00  0.00    -0.276 N 
ATOM      8  C   UNL     1      43.730 131.745  16.219  1.00  0.00     0.263 C 
ATOM      9  H   UNL     1      42.650 130.771  14.633  1.00  0.00     0.304 HD
BRANCH   4  10
ATOM     10  C   UNL     1      47.125 130.927  13.698  1.00  0.00    -0.099 C 
ATOM     11  C   UNL     1      48.020 130.964  12.892  1.00  0.00     0.004 C 
ENDBRANCH   4  10
BRANCH   8  12
ATOM     12  N   UNL     1      42.672 132.012  16.922  1.00  0.00    -0.289 N 
ATOM     13  H   UNL     1      42.320 132.992  17.012  1.00  0.00     0.301 HD
ATOM     14  H   UNL     1      42.147 131.256  17.415  1.00  0.00     0.301 HD
ENDBRANCH   8  12
ENDBRANCH   1   3
BRANCH   1  15
ATOM     15  C   UNL     1      44.749 131.233  19.201  1.00  0.00     0.080 A 
ATOM     16  C   UNL     1      43.617 132.070  19.381  1.00  0.00     0.035 A 
ATOM     17  C   UNL     1      45.251 130.488  20.287  1.00  0.00     0.173 A 
ATOM     18  C   UNL     1      42.948 132.143  20.624  1.00  0.00    -0.017 A 
ATOM     19  C   UNL     1      44.582 130.584  21.505  1.00  0.00     0.206 A 
ATOM     20  C   UNL     1      43.476 131.371  21.676  1.00  0.00     0.140 A 
ATOM     21  N   UNL     1      44.868 129.958  22.661  1.00  0.00     0.029 NA
ATOM     22  N   UNL     1      43.086 131.220  22.962  1.00  0.00    -0.132 N 
ATOM     23  N   UNL     1      43.940 130.367  23.520  1.00  0.00    -0.016 N 
ATOM     24  C   UNL     1      41.748 133.032  20.777  1.00  0.00     0.047 C 
ATOM     25  C   UNL     1      41.954 131.813  23.666  1.00  0.00     0.226 C 
ATOM     26  H   UNL     1      43.892 130.047  24.512  1.00  0.00     0.526 HD
BRANCH  17  27
ATOM     27  O   UNL     1      46.372 129.672  20.136  1.00  0.00    -0.504 OA
ATOM     28  H   UNL     1      47.170 129.961  19.582  1.00  0.00     0.293 HD
ENDBRANCH  17  27
ENDBRANCH   1  15
TORSDOF 5
ENDMDL
MODEL 2
REMARK VINA RESULT:      -6.8      2.425      7.355
REMARK SMILES C#C[C@@H]1CNC(=[NH2+])[C@@H](Nc2cc(C)c3c(n[nH+]n3C)c2O)C1
REMARK SMILES IDX 9 1 8 3 3 4 4 5 22 6 5 7 6 8 2 10 1 11 7 12 10 15 11 16
REMARK SMILES IDX 20 17 12 18 15 19 14 20 16 21 18 22 17 23 13 24 19 25 21 27
REMARK H PARENT 9 2 5 9 7 13 7 14 17 26 21 28
ROOT
ATOM      1  N   UNL     1      42.344 132.218  22.871  1.00  0.00    -0.368 N 
ATOM      2  H   UNL     1      41.444 132.747  22.850  1.00  0.00     0.161 HD
ENDROOT
BRANCH   1   3
ATOM      3  C   UNL     1      42.663 131.498  24.114  1.00  0.00     0.195 C 
ATOM      4  C   UNL     1      42.851 129.005  23.501  1.00  0.00     0.108 C 
ATOM      5  C   UNL     1      44.213 128.921  24.197  1.00  0.00     0.250 C 
ATOM      6  C   UNL     1      41.995 130.105  24.149  1.00  0.00     0.058 C 
ATOM      7  N   UNL     1      44.881 130.219  24.187  1.00  0.00    -0.276 N 
ATOM      8  C   UNL     1      44.157 131.449  24.351  1.00  0.00     0.263 C 
ATOM      9  H   UNL     1      45.926 130.232  24.212  1.00  0.00     0.304 HD
BRANCH   4  10
ATOM     10  C   UNL     1      42.161 127.709  23.591  1.00  0.00    -0.099 C 
ATOM     11  C   UNL     1      41.592 126.649  23.665  1.00  0.00     0.004 C 
ENDBRANCH   4  10
BRANCH   8  12
ATOM     12  N   UNL     1      44.800 132.543  24.625  1.00  0.00    -0.289 N 
ATOM     13  H   UNL     1      45.344 132.638  25.511  1.00  0.00     0.301 HD
ATOM     14  H   UNL     1      44.788 133.355  23.967  1.00  0.00     0.301 HD
ENDBRANCH   8  12
ENDBRANCH   1   3
BRANCH   1  15
ATOM     15  C   UNL     1      42.981 131.959  21.610  1.00  0.00     0.080 A 
ATOM     16  C   UNL     1      44.280 131.391  21.559  1.00  0.00     0.035 A 
ATOM     17  C   UNL     1      42.314 132.295  20.414  1.00  0.00     0.173 A 
ATOM     18  C   UNL     1      44.910 131.110  20.325  1.00  0.00    -0.017 A 
ATOM     19  C   UNL     1      42.959 132.019  19.211  1.00  0.00     0.206 A 
ATOM     20  C   UNL     1      44.201 131.448  19.157  1.00  0.00     0.140 A 
ATOM     21  N   UNL     1      42.511 132.234  17.961  1.00  0.00     0.029 NA
ATOM     22  N   UNL     1      44.512 131.318  17.847  1.00  0.00    -0.132 N 
ATOM     23  N   UNL     1      43.479 131.796  17.162  1.00  0.00    -0.016 N 
ATOM     24  C   UNL     1      46.282 130.499  20.307  1.00  0.00     0.047 C 
ATOM     25  C   UNL     1      45.707 130.752  17.228  1.00  0.00     0.226 C 
ATOM     26  H   UNL     1      43.423 131.825  16.120  1.00  0.00     0.526 HD
BRANCH  17  27
ATOM     27  O   UNL     1      41.043 132.870  20.443  1.00  0.00    -0.504 OA
ATOM     28  H   UNL     1      40.539 133.089  19.592  1.00  0.00     0.293 HD
ENDBRANCH  17  27
ENDBRANCH   1  15
TORSDOF 5
ENDMDL
MODEL 3
REMARK VINA RESULT:      -6.6      2.068      3.024
REMARK SMILES C#C[C@@H]1CNC(=[NH2+])[C@@H](Nc2cc(C)c3c(n[nH+]n3C)c2O)C1
REMARK SMILES IDX 9 1 8 3 3 4 4 5 22 6 5 7 6 8 2 10 1 11 7 12 10 15 11 16
REMARK SMILES IDX 20 17 12 18 15 19 14 20 16 21 18 22 17 23 13 24 19 25 21 27
REMARK H PARENT 9 2 5 9 7 13 7 14 17 26 21 28
ROOT
ATOM      1  N   UNL     1      44.429 131.837  16.054  1.00  0.00    -0.368 N 
ATOM      2  H   UNL     1      44.721 132.758  15.657  1.00  0.00     0.161 HD
ENDROOT
BRANCH   1   3
ATOM      3  C   UNL     1      44.585 130.661  15.185  1.00  0.00     0.195 C 
ATOM      4  C   UNL     1      46.924 130.828  14.121  1.00  0.00     0.108 C 
ATOM      5  C   UNL     1      47.240 129.394  14.554  1.00  0.00     0.250 C 
ATOM      6  C   UNL     1      45.408 130.995  13.921  1.00  0.00     0.058 C 
ATOM      7  N   UNL     1      46.482 129.035  15.750  1.00  0.00    -0.276 N 
ATOM      8  C   UNL     1      45.131 129.479  15.956  1.00  0.00     0.263 C 
ATOM      9  H   UNL     1      46.889 128.315  16.389  1.00  0.00     0.304 HD
BRANCH   4  10
ATOM     10  C   UNL     1      47.635 131.144  12.872  1.00  0.00    -0.099 C 
ATOM     11  C   UNL     1      48.218 131.404  11.851  1.00  0.00     0.004 C 
ENDBRANCH   4  10
BRANCH   8  12
ATOM     12  N   UNL     1      44.400 128.913  16.868  1.00  0.00    -0.289 N 
ATOM     13  H   UNL     1      43.418 128.620  16.664  1.00  0.00     0.301 HD
ATOM     14  H   UNL     1      44.775 128.738  17.827  1.00  0.00     0.301 HD
ENDBRANCH   8  12
ENDBRANCH   1   3
BRANCH   1  15
ATOM     15  C   UNL     1      44.252 131.764  17.477  1.00  0.00     0.080 A 
ATOM     16  C   UNL     1      45.310 131.330  18.317  1.00  0.00     0.035 A 
ATOM     17  C   UNL     1      43.005 132.106  18.040  1.00  0.00     0.173 A 
ATOM     18  C   UNL     1      45.158 131.274  19.721  1.00  0.00    -0.017 A 
ATOM     19  C   UNL     1      42.875 132.033  19.425  1.00  0.00     0.206 A 
ATOM     20  C   UNL     1      43.901 131.640  20.240  1.00  0.00     0.140 A 
ATOM     21  N   UNL     1      41.796 132.326  20.173  1.00  0.00     0.029 NA
ATOM     22  N   UNL     1      43.433 131.693  21.507  1.00  0.00    -0.132 N 
ATOM     23  N   UNL     1      42.173 132.109  21.429  1.00  0.00    -0.016 N 
ATOM     24  C   UNL     1      46.302 130.821  20.581  1.00  0.00     0.047 C 
ATOM     25  C   UNL     1      44.115 131.398  22.763  1.00  0.00     0.226 C 
ATOM     26  H   UNL     1      41.546 132.255  22.252  1.00  0.00     0.526 HD
BRANCH  17  27
ATOM     27  O   UNL     1      41.946 132.518  17.231  1.00  0.00    -0.504 OA
ATOM     28  H   UNL     1      41.959 132.382  16.227  1.00  0.00     0.293 HD
ENDBRANCH  17  27
ENDBRANCH   1  15
TORSDOF 5
ENDMDL
MODEL 4
REMARK VINA RESULT:      -6.5      1.945      6.900
REMARK SMILES C#C[C@@H]1CNC(=[NH2+])[C@@H](Nc2cc(C)c3c(n[nH+]n3C)c2O)C1
REMARK SMILES IDX 9 1 8 3 3 4 4 5 22 6 5 7 6 8 2 10 1 11 7 12 10 15 11 16
REMARK SMILES IDX 20 17 12 18 15 19 14 20 16 21 18 22 17 23 13 24 19 25 21 27
REMARK H PARENT 9 2 5 9 7 13 7 14 17 26 21 28
ROOT
ATOM      1  N   UNL     1      43.966 132.001  20.041  1.00  0.00    -0.368 N 
ATOM      2  H   UNL     1      44.237 132.959  20.360  1.00  0.00     0.161 HD
ENDROOT
BRANCH   1   3
ATOM      3  C   UNL     1      42.870 131.344  20.770  1.00  0.00     0.195 C 
ATOM      4  C   UNL     1      43.782 130.751  23.104  1.00  0.00     0.108 C 
ATOM      5  C   UNL     1      42.576 131.425  23.764  1.00  0.00     0.250 C 
ATOM      6  C   UNL     1      43.398 130.235  21.707  1.00  0.00     0.058 C 
ATOM      7  N   UNL     1      42.044 132.484  22.910  1.00  0.00    -0.276 N 
ATOM      8  C   UNL     1      41.999 132.359  21.479  1.00  0.00     0.263 C 
ATOM      9  H   UNL     1      41.548 133.281  23.371  1.00  0.00     0.304 HD
BRANCH   4  10
ATOM     10  C   UNL     1      44.254 129.637  23.941  1.00  0.00    -0.099 C 
ATOM     11  C   UNL     1      44.642 128.724  24.624  1.00  0.00     0.004 C 
ENDBRANCH   4  10
BRANCH   8  12
ATOM     12  N   UNL     1      41.267 133.175  20.784  1.00  0.00    -0.289 N 
ATOM     13  H   UNL     1      41.016 132.960  19.793  1.00  0.00     0.301 HD
ATOM     14  H   UNL     1      40.912 134.067  21.197  1.00  0.00     0.301 HD
ENDBRANCH   8  12
ENDBRANCH   1   3
BRANCH   1  15
ATOM     15  C   UNL     1      44.428 131.586  18.746  1.00  0.00     0.080 A 
ATOM     16  C   UNL     1      43.706 131.934  17.575  1.00  0.00     0.035 A 
ATOM     17  C   UNL     1      45.598 130.807  18.644  1.00  0.00     0.173 A 
ATOM     18  C   UNL     1      44.161 131.552  16.292  1.00  0.00    -0.017 A 
ATOM     19  C   UNL     1      46.021 130.433  17.371  1.00  0.00     0.206 A 
ATOM     20  C   UNL     1      45.342 130.788  16.237  1.00  0.00     0.140 A 
ATOM     21  N   UNL     1      47.107 129.713  17.035  1.00  0.00     0.029 NA
ATOM     22  N   UNL     1      46.029 130.270  15.195  1.00  0.00    -0.132 N 
ATOM     23  N   UNL     1      47.079 129.636  15.708  1.00  0.00    -0.016 N 
ATOM     24  C   UNL     1      43.379 131.946  15.072  1.00  0.00     0.047 C 
ATOM     25  C   UNL     1      45.758 130.365  13.763  1.00  0.00     0.226 C 
ATOM     26  H   UNL     1      47.802 129.137  15.145  1.00  0.00     0.526 HD
BRANCH  17  27
ATOM     27  O   UNL     1      46.313 130.439  19.784  1.00  0.00    -0.504 OA
ATOM     28  H   UNL     1      46.763 131.128  20.375  1.00  0.00     0.293 HD
ENDBRANCH  17  27
ENDBRANCH   1  15
TORSDOF 5
ENDMDL
MODEL 5
REMARK VINA RESULT:      -6.4      2.107      7.284
REMARK SMILES C#C[C@@H]1CNC(=[NH2+])[C@@H](Nc2cc(C)c3c(n[nH+]n3C)c2O)C1
REMARK SMILES IDX 9 1 8 3 3 4 4 5 22 6 5 7 6 8 2 10 1 11 7 12 10 15 11 16
REMARK SMILES IDX 20 17 12 18 15 19 14 20 16 21 18 22 17 23 13 24 19 25 21 27
REMARK H PARENT 9 2 5 9 7 13 7 14 17 26 21 28
ROOT
ATOM      1  N   UNL     1      44.199 131.658  20.214  1.00  0.00    -0.368 N 
ATOM      2  H   UNL     1      44.636 132.500  20.651  1.00  0.00     0.161 HD
ENDROOT
BRANCH   1   3
ATOM      3  C   UNL     1      43.102 131.019  20.956  1.00  0.00     0.195 C 
ATOM      4  C   UNL     1      44.071 130.279  23.224  1.00  0.00     0.108 C 
ATOM      5  C   UNL     1      42.922 130.977  23.959  1.00  0.00     0.250 C 
ATOM      6  C   UNL     1      43.612 129.845  21.822  1.00  0.00     0.058 C 
ATOM      7  N   UNL     1      42.409 132.096  23.174  1.00  0.00    -0.276 N 
ATOM      8  C   UNL     1      42.305 132.038  21.742  1.00  0.00     0.263 C 
ATOM      9  H   UNL     1      41.969 132.892  23.688  1.00  0.00     0.304 HD
BRANCH   4  10
ATOM     10  C   UNL     1      44.521 129.109  23.992  1.00  0.00    -0.099 C 
ATOM     11  C   UNL     1      44.892 128.151  24.623  1.00  0.00     0.004 C 
ENDBRANCH   4  10
BRANCH   8  12
ATOM     12  N   UNL     1      41.587 132.916  21.112  1.00  0.00    -0.289 N 
ATOM     13  H   UNL     1      40.768 133.371  21.574  1.00  0.00     0.301 HD
ATOM     14  H   UNL     1      41.809 133.190  20.129  1.00  0.00     0.301 HD
ENDBRANCH   8  12
ENDBRANCH   1   3
BRANCH   1  15
ATOM     15  C   UNL     1      44.460 131.434  18.819  1.00  0.00     0.080 A 
ATOM     16  C   UNL     1      45.643 130.770  18.402  1.00  0.00     0.035 A 
ATOM     17  C   UNL     1      43.540 131.901  17.858  1.00  0.00     0.173 A 
ATOM     18  C   UNL     1      45.902 130.523  17.035  1.00  0.00    -0.017 A 
ATOM     19  C   UNL     1      43.823 131.655  16.516  1.00  0.00     0.206 A 
ATOM     20  C   UNL     1      44.950 130.993  16.111  1.00  0.00     0.140 A 
ATOM     21  N   UNL     1      43.089 131.988  15.439  1.00  0.00     0.029 NA
ATOM     22  N   UNL     1      44.897 130.926  14.762  1.00  0.00    -0.132 N 
ATOM     23  N   UNL     1      43.771 131.529  14.395  1.00  0.00    -0.016 N 
ATOM     24  C   UNL     1      47.159 129.807  16.629  1.00  0.00     0.047 C 
ATOM     25  C   UNL     1      45.832 130.310  13.825  1.00  0.00     0.226 C 
ATOM     26  H   UNL     1      43.450 131.632  13.407  1.00  0.00     0.526 HD
BRANCH  17  27
ATOM     27  O   UNL     1      42.381 132.571  18.246  1.00  0.00    -0.504 OA
ATOM     28  H   UNL     1      41.475 132.337  17.857  1.00  0.00     0.293 HD
ENDBRANCH  17  27
ENDBRANCH   1  15
TORSDOF 5
ENDMDL
MODEL 6
REMARK VINA RESULT:      -6.1      1.451      2.249
REMARK SMILES C#C[C@@H]1CNC(=[NH2+])[C@@H](Nc2cc(C)c3c(n[nH+]n3C)c2O)C1
REMARK SMILES IDX 9 1 8 3 3 4 4 5 22 6 5 7 6 8 2 10 1 11 7 12 10 15 11 16
REMARK SMILES IDX 20 17 12 18 15 19 14 20 16 21 18 22 17 23 13 24 19 25 21 27
REMARK H PARENT 9 2 5 9 7 13 7 14 17 26 21 28
ROOT
ATOM      1  N   UNL     1      45.820 131.598  18.334  1.00  0.00    -0.368 N 
ATOM      2  H   UNL     1      46.811 131.295  18.202  1.00  0.00     0.161 HD
ENDROOT
BRANCH   1   3
ATOM      3  C   UNL     1      45.109 132.079  17.140  1.00  0.00     0.195 C 
ATOM      4  C   UNL     1      46.168 130.891  15.116  1.00  0.00     0.108 C 
ATOM      5  C   UNL     1      44.783 130.456  14.627  1.00  0.00     0.250 C 
ATOM      6  C   UNL     1      46.056 132.194  15.924  1.00  0.00     0.058 C 
ATOM      7  N   UNL     1      43.853 130.335  15.747  1.00  0.00    -0.276 N 
ATOM      8  C   UNL     1      43.879 131.242  16.860  1.00  0.00     0.263 C 
ATOM      9  H   UNL     1      43.059 129.662  15.651  1.00  0.00     0.304 HD
BRANCH   4  10
ATOM     10  C   UNL     1      47.067 131.085  13.968  1.00  0.00    -0.099 C 
ATOM     11  C   UNL     1      47.803 131.241  13.027  1.00  0.00     0.004 C 
ENDBRANCH   4  10
BRANCH   8  12
ATOM     12  N   UNL     1      42.873 131.285  17.679  1.00  0.00    -0.289 N 
ATOM     13  H   UNL     1      42.015 131.834  17.446  1.00  0.00     0.301 HD
ATOM     14  H   UNL     1      42.896 130.774  18.590  1.00  0.00     0.301 HD
ENDBRANCH   8  12
ENDBRANCH   1   3
BRANCH   1  15
ATOM     15  C   UNL     1      45.166 131.190  19.546  1.00  0.00     0.080 A 
ATOM     16  C   UNL     1      45.512 129.968  20.179  1.00  0.00     0.035 A 
ATOM     17  C   UNL     1      44.156 132.005  20.097  1.00  0.00     0.173 A 
ATOM     18  C   UNL     1      44.893 129.564  21.384  1.00  0.00    -0.017 A 
ATOM     19  C   UNL     1      43.553 131.582  21.279  1.00  0.00     0.206 A 
ATOM     20  C   UNL     1      43.902 130.416  21.906  1.00  0.00     0.140 A 
ATOM     21  N   UNL     1      42.590 132.199  21.987  1.00  0.00     0.029 NA
ATOM     22  N   UNL     1      43.131 130.326  23.013  1.00  0.00    -0.132 N 
ATOM     23  N   UNL     1      42.361 131.409  23.031  1.00  0.00    -0.016 N 
ATOM     24  C   UNL     1      45.291 128.270  22.032  1.00  0.00     0.047 C 
ATOM     25  C   UNL     1      43.108 129.295  24.047  1.00  0.00     0.226 C 
ATOM     26  H   UNL     1      41.661 131.624  23.774  1.00  0.00     0.526 HD
BRANCH  17  27
ATOM     27  O   UNL     1      43.789 133.202  19.482  1.00  0.00    -0.504 OA
ATOM     28  H   UNL     1      44.410 133.683  18.842  1.00  0.00     0.293 HD
ENDBRANCH  17  27
ENDBRANCH   1  15
TORSDOF 5
ENDMDL
MODEL 7
REMARK VINA RESULT:      -6.1      1.619      2.115
REMARK SMILES C#C[C@@H]1CNC(=[NH2+])[C@@H](Nc2cc(C)c3c(n[nH+]n3C)c2O)C1
REMARK SMILES IDX 9 1 8 3 3 4 4 5 22 6 5 7 6 8 2 10 1 11 7 12 10 15 11 16
REMARK SMILES IDX 20 17 12 18 15 19 14 20 16 21 18 22 17 23 13 24 19 25 21 27
REMARK H PARENT 9 2 5 9 7 13 7 14 17 26 21 28
ROOT
ATOM      1  N   UNL     1      44.741 131.854  16.143  1.00  0.00    -0.368 N 
ATOM      2  H   UNL     1      45.224 132.729  15.838  1.00  0.00     0.161 HD
ENDROOT
BRANCH   1   3
ATOM      3  C   UNL     1      44.720 130.738  15.185  1.00  0.00     0.195 C 
ATOM      4  C   UNL     1      47.006 130.731  14.002  1.00  0.00     0.108 C 
ATOM      5  C   UNL     1      47.180 129.241  14.314  1.00  0.00     0.250 C 
ATOM      6  C   UNL     1      45.512 131.077  13.902  1.00  0.00     0.058 C 
ATOM      7  N   UNL     1      46.446 128.876  15.522  1.00  0.00    -0.276 N 
ATOM      8  C   UNL     1      45.166 129.448  15.838  1.00  0.00     0.263 C 
ATOM      9  H   UNL     1      46.800 128.069  16.084  1.00  0.00     0.304 HD
BRANCH   4  10
ATOM     10  C   UNL     1      47.686 131.062  12.741  1.00  0.00    -0.099 C 
ATOM     11  C   UNL     1      48.244 131.335  11.708  1.00  0.00     0.004 C 
ENDBRANCH   4  10
BRANCH   8  12
ATOM     12  N   UNL     1      44.421 128.897  16.748  1.00  0.00    -0.289 N 
ATOM     13  H   UNL     1      43.411 129.147  16.839  1.00  0.00     0.301 HD
ATOM     14  H   UNL     1      44.814 128.191  17.410  1.00  0.00     0.301 HD
ENDBRANCH   8  12
ENDBRANCH   1   3
BRANCH   1  15
ATOM     15  C   UNL     1      44.473 131.710  17.547  1.00  0.00     0.080 A 
ATOM     16  C   UNL     1      43.261 132.193  18.105  1.00  0.00     0.035 A 
ATOM     17  C   UNL     1      45.436 131.102  18.378  1.00  0.00     0.173 A 
ATOM     18  C   UNL     1      42.973 132.038  19.480  1.00  0.00    -0.017 A 
ATOM     19  C   UNL     1      45.135 130.971  19.732  1.00  0.00     0.206 A 
ATOM     20  C   UNL     1      43.956 131.413  20.270  1.00  0.00     0.140 A 
ATOM     21  N   UNL     1      45.886 130.414  20.699  1.00  0.00     0.029 NA
ATOM     22  N   UNL     1      43.997 131.119  21.589  1.00  0.00    -0.132 N 
ATOM     23  N   UNL     1      45.164 130.522  21.809  1.00  0.00    -0.016 N 
ATOM     24  C   UNL     1      41.676 132.552  20.036  1.00  0.00     0.047 C 
ATOM     25  C   UNL     1      42.995 131.352  22.624  1.00  0.00     0.226 C 
ATOM     26  H   UNL     1      45.482 130.171  22.740  1.00  0.00     0.526 HD
BRANCH  17  27
ATOM     27  O   UNL     1      46.641 130.637  17.853  1.00  0.00    -0.504 OA
ATOM     28  H   UNL     1      46.675 129.849  17.217  1.00  0.00     0.293 HD
ENDBRANCH  17  27
ENDBRANCH   1  15
TORSDOF 5
ENDMDL
MODEL 8
REMARK VINA RESULT:      -5.7      2.039      3.279
REMARK SMILES C#C[C@@H]1CNC(=[NH2+])[C@@H](Nc2cc(C)c3c(n[nH+]n3C)c2O)C1
REMARK SMILES IDX 9 1 8 3 3 4 4 5 22 6 5 7 6 8 2 10 1 11 7 12 10 15 11 16
REMARK SMILES IDX 20 17 12 18 15 19 14 20 16 21 18 22 17 23 13 24 19 25 21 27
REMARK H PARENT 9 2 5 9 7 13 7 14 17 26 21 28
ROOT
ATOM      1  N   UNL     1      46.295 130.707  17.704  1.00  0.00    -0.368 N 
ATOM      2  H   UNL     1      47.273 131.065  17.793  1.00  0.00     0.161 HD
ENDROOT
BRANCH   1   3
ATOM      3  C   UNL     1      46.008 129.845  16.547  1.00  0.00     0.195 C 
ATOM      4  C   UNL     1      44.889 131.335  14.771  1.00  0.00     0.108 C 
ATOM      5  C   UNL     1      45.882 130.846  13.713  1.00  0.00     0.250 C 
ATOM      6  C   UNL     1      44.692 130.255  15.847  1.00  0.00     0.058 C 
ATOM      7  N   UNL     1      47.143 130.447  14.332  1.00  0.00    -0.276 N 
ATOM      8  C   UNL     1      47.190 129.782  15.604  1.00  0.00     0.263 C 
ATOM      9  H   UNL     1      48.013 130.516  13.756  1.00  0.00     0.304 HD
BRANCH   4  10
ATOM     10  C   UNL     1      43.600 131.657  14.139  1.00  0.00    -0.099 C 
ATOM     11  C   UNL     1      42.546 131.923  13.620  1.00  0.00     0.004 C 
ENDBRANCH   4  10
BRANCH   8  12
ATOM     12  N   UNL     1      48.282 129.190  15.981  1.00  0.00    -0.289 N 
ATOM     13  H   UNL     1      48.262 128.217  16.361  1.00  0.00     0.301 HD
ATOM     14  H   UNL     1      49.207 129.672  15.916  1.00  0.00     0.301 HD
ENDBRANCH   8  12
ENDBRANCH   1   3
BRANCH   1  15
ATOM     15  C   UNL     1      45.457 130.792  18.867  1.00  0.00     0.080 A 
ATOM     16  C   UNL     1      45.681 129.944  19.983  1.00  0.00     0.035 A 
ATOM     17  C   UNL     1      44.390 131.713  18.888  1.00  0.00     0.173 A 
ATOM     18  C   UNL     1      44.879 130.032  21.144  1.00  0.00    -0.017 A 
ATOM     19  C   UNL     1      43.607 131.774  20.038  1.00  0.00     0.206 A 
ATOM     20  C   UNL     1      43.835 130.976  21.126  1.00  0.00     0.140 A 
ATOM     21  N   UNL     1      42.559 132.580  20.286  1.00  0.00     0.029 NA
ATOM     22  N   UNL     1      42.904 131.304  22.050  1.00  0.00    -0.132 N 
ATOM     23  N   UNL     1      42.160 132.267  21.515  1.00  0.00    -0.016 N 
ATOM     24  C   UNL     1      45.150 129.127  22.311  1.00  0.00     0.047 C 
ATOM     25  C   UNL     1      42.705 130.776  23.396  1.00  0.00     0.226 C 
ATOM     26  H   UNL     1      41.358 132.731  21.996  1.00  0.00     0.526 HD
BRANCH  17  27
ATOM     27  O   UNL     1      44.143 132.543  17.795  1.00  0.00    -0.504 OA
ATOM     28  H   UNL     1      43.488 132.283  17.067  1.00  0.00     0.293 HD
ENDBRANCH  17  27
ENDBRANCH   1  15
TORSDOF 5
ENDMDL
MODEL 9
REMARK VINA RESULT:      -5.6      1.362      2.289
REMARK SMILES C#C[C@@H]1CNC(=[NH2+])[C@@H](Nc2cc(C)c3c(n[nH+]n3C)c2O)C1
REMARK SMILES IDX 9 1 8 3 3 4 4 5 22 6 5 7 6 8 2 10 1 11 7 12 10 15 11 16
REMARK SMILES IDX 20 17 12 18 15 19 14 20 16 21 18 22 17 23 13 24 19 25 21 27
REMARK H PARENT 9 2 5 9 7 13 7 14 17 26 21 28
ROOT
ATOM      1  N   UNL     1      45.604 131.299  17.917  1.00  0.00    -0.368 N 
ATOM      2  H   UNL     1      46.503 131.830  17.881  1.00  0.00     0.161 HD
ENDROOT
BRANCH   1   3
ATOM      3  C   UNL     1      45.393 130.280  16.879  1.00  0.00     0.195 C 
ATOM      4  C   UNL     1      44.557 131.517  14.782  1.00  0.00     0.108 C 
ATOM      5  C   UNL     1      45.628 130.829  13.930  1.00  0.00     0.250 C 
ATOM      6  C   UNL     1      44.185 130.628  15.979  1.00  0.00     0.058 C 
ATOM      7  N   UNL     1      46.791 130.482  14.742  1.00  0.00    -0.276 N 
ATOM      8  C   UNL     1      46.663 130.022  16.097  1.00  0.00     0.263 C 
ATOM      9  H   UNL     1      47.720 130.425  14.267  1.00  0.00     0.304 HD
BRANCH   4  10
ATOM     10  C   UNL     1      43.364 131.787  13.965  1.00  0.00    -0.099 C 
ATOM     11  C   UNL     1      42.388 132.009  13.294  1.00  0.00     0.004 C 
ENDBRANCH   4  10
BRANCH   8  12
ATOM     12  N   UNL     1      47.673 129.454  16.682  1.00  0.00    -0.289 N 
ATOM     13  H   UNL     1      47.759 128.413  16.715  1.00  0.00     0.301 HD
ATOM     14  H   UNL     1      48.425 130.022  17.134  1.00  0.00     0.301 HD
ENDBRANCH   8  12
ENDBRANCH   1   3
BRANCH   1  15
ATOM     15  C   UNL     1      44.854 131.365  19.140  1.00  0.00     0.080 A 
ATOM     16  C   UNL     1      43.686 132.167  19.230  1.00  0.00     0.035 A 
ATOM     17  C   UNL     1      45.297 130.641  20.266  1.00  0.00     0.173 A 
ATOM     18  C   UNL     1      42.925 132.223  20.420  1.00  0.00    -0.017 A 
ATOM     19  C   UNL     1      44.537 130.721  21.430  1.00  0.00     0.206 A 
ATOM     20  C   UNL     1      43.397 131.473  21.514  1.00  0.00     0.140 A 
ATOM     21  N   UNL     1      44.756 130.109  22.608  1.00  0.00     0.029 NA
ATOM     22  N   UNL     1      42.918 131.314  22.768  1.00  0.00    -0.132 N 
ATOM     23  N   UNL     1      43.754 130.492  23.393  1.00  0.00    -0.016 N 
ATOM     24  C   UNL     1      41.689 133.074  20.478  1.00  0.00     0.047 C 
ATOM     25  C   UNL     1      41.718 131.875  23.383  1.00  0.00     0.226 C 
ATOM     26  H   UNL     1      43.643 130.174  24.382  1.00  0.00     0.526 HD
BRANCH  17  27
ATOM     27  O   UNL     1      46.452 129.861  20.204  1.00  0.00    -0.504 OA
ATOM     28  H   UNL     1      46.531 128.988  20.711  1.00  0.00     0.293 HD
ENDBRANCH  17  27
ENDBRANCH   1  15
TORSDOF 5
ENDMDL


