REMARK SMILES C=Cc1cccc(-c2ccc3c(c2)[C@H](/N=C(\O)[N-]c2cc(F)cc(OC)c2)CC3)c1
REMARK SMILES IDX 16 1 17 2 15 4 14 5 12 6 28 7 13 8 11 9 29 10 8 11 10 12
REMARK SMILES IDX 9 13 7 14 6 15 30 16 5 17 3 18 4 19 2 20 1 21 18 22 19 23
REMARK SMILES IDX 20 24 27 25 21 26 24 27 23 28 22 29 25 30 26 31
REMARK H PARENT 17 3
ROOT
ATOM      1  C   UNL     1       3.023  -2.287   1.716  1.00  0.00     0.094 C 
ENDROOT
BRANCH   1   2
ATOM      2  O   UNL     1       3.792  -2.626   2.827  1.00  0.00    -0.516 OA
ATOM      3  H   UNL     1       4.602  -3.226   2.732  1.00  0.00     0.292 HD
ENDBRANCH   1   2
BRANCH   1   4
ATOM      4  N   UNL     1       1.994  -1.505   1.844  1.00  0.00    -0.427 NA
BRANCH   4   5
ATOM      5  C   UNL     1       1.527  -0.935   3.104  1.00  0.00     0.024 C 
ATOM      6  C   UNL     1       0.379  -0.038   2.828  1.00  0.00    -0.042 A 
ATOM      7  C   UNL     1       0.930  -2.019   4.037  1.00  0.00     0.012 C 
ATOM      8  C   UNL     1       0.391   1.102   2.020  1.00  0.00     0.013 A 
ATOM      9  C   UNL     1      -0.778  -0.478   3.417  1.00  0.00    -0.045 A 
ATOM     10  C   UNL     1      -0.577  -1.726   4.185  1.00  0.00     0.036 C 
ATOM     11  C   UNL     1      -0.812   1.809   1.809  1.00  0.00    -0.018 A 
ATOM     12  C   UNL     1      -1.982   0.203   3.236  1.00  0.00     0.004 A 
ATOM     13  C   UNL     1      -1.997   1.352   2.432  1.00  0.00     0.009 A 
BRANCH  11  14
ATOM     14  C   UNL     1      -0.836   3.001   0.926  1.00  0.00    -0.018 A 
ATOM     15  C   UNL     1      -1.580   4.138   1.283  1.00  0.00     0.009 A 
ATOM     16  C   UNL     1      -0.121   3.003  -0.287  1.00  0.00     0.016 A 
ATOM     17  C   UNL     1      -1.610   5.253   0.444  1.00  0.00     0.001 A 
ATOM     18  C   UNL     1      -0.136   4.132  -1.133  1.00  0.00    -0.026 A 
ATOM     19  C   UNL     1      -0.896   5.250  -0.757  1.00  0.00     0.008 A 
BRANCH  18  20
ATOM     20  C   UNL     1       0.592   4.173  -2.426  1.00  0.00     0.000 C 
ATOM     21  C   UNL     1       1.583   3.344  -2.757  1.00  0.00     0.009 C 
ENDBRANCH  18  20
ENDBRANCH  11  14
ENDBRANCH   4   5
ENDBRANCH   1   4
BRANCH   1  22
ATOM     22  N   UNL     1       3.398  -2.787   0.424  1.00  0.00    -0.405 NA
BRANCH  22  23
ATOM     23  C   UNL     1       2.634  -2.691  -0.791  1.00  0.00    -0.033 A 
ATOM     24  C   UNL     1       3.314  -2.721  -2.014  1.00  0.00     0.043 A 
ATOM     25  C   UNL     1       1.227  -2.612  -0.788  1.00  0.00     0.050 A 
ATOM     26  C   UNL     1       2.610  -2.622  -3.217  1.00  0.00     0.127 A 
ATOM     27  C   UNL     1       0.516  -2.489  -1.998  1.00  0.00     0.122 A 
ATOM     28  C   UNL     1       1.219  -2.497  -3.208  1.00  0.00     0.085 A 
ATOM     29  F   UNL     1       3.280  -2.641  -4.396  1.00  0.00    -0.207 F 
BRANCH  27  30
ATOM     30  O   UNL     1      -0.880  -2.353  -2.038  1.00  0.00    -0.497 OA
ATOM     31  C   UNL     1      -1.713  -2.266  -0.884  1.00  0.00     0.278 C 
ENDBRANCH  27  30
ENDBRANCH  22  23
ENDBRANCH   1  22
TORSDOF 8


