REMARK SMILES Fc1ccc2[nH+]c(-c3ccc4[nH]ccc4c3)ncc2c1
REMARK SMILES IDX 1 1 2 2 3 3 4 4 5 5 6 6 7 7 17 8 18 9 19 10 20 11 8 13 9 14
REMARK SMILES IDX 16 15 10 16 15 17 11 18 14 19 12 20 13 21
REMARK H PARENT 6 12 12 22
ROOT
ATOM      1  F   UNL     1      -7.219  -2.945  -0.472  1.00  0.00    -0.207 F 
ATOM      2  C   UNL     1      -6.015  -2.384  -0.743  1.00  0.00     0.124 A 
ATOM      3  C   UNL     1      -5.903  -1.426  -1.755  1.00  0.00     0.043 A 
ATOM      4  C   UNL     1      -4.664  -0.843  -2.039  1.00  0.00     0.055 A 
ATOM      5  C   UNL     1      -3.524  -1.216  -1.308  1.00  0.00     0.136 A 
ATOM      6  N   UNL     1      -2.309  -0.654  -1.575  1.00  0.00    -0.236 N 
ATOM      7  C   UNL     1      -1.193  -1.014  -0.865  1.00  0.00     0.328 A 
ATOM      8  N   UNL     1      -1.311  -1.949   0.120  1.00  0.00    -0.048 NA
ATOM      9  C   UNL     1      -2.497  -2.534   0.421  1.00  0.00     0.267 A 
ATOM     10  C   UNL     1      -3.642  -2.182  -0.289  1.00  0.00     0.068 A 
ATOM     11  C   UNL     1      -4.887  -2.763  -0.008  1.00  0.00     0.055 A 
ATOM     12  H   UNL     1      -2.260   0.055  -2.335  1.00  0.00     0.312 HD
ENDROOT
BRANCH   7  13
ATOM     13  C   UNL     1       0.157  -0.418  -1.131  1.00  0.00     0.069 A 
ATOM     14  C   UNL     1       0.378   0.566  -2.142  1.00  0.00     0.019 A 
ATOM     15  C   UNL     1       1.264  -0.846  -0.350  1.00  0.00     0.027 A 
ATOM     16  C   UNL     1       1.659   1.104  -2.364  1.00  0.00     0.027 A 
ATOM     17  C   UNL     1       2.514  -0.290  -0.601  1.00  0.00     0.000 A 
ATOM     18  C   UNL     1       2.707   0.650  -1.572  1.00  0.00     0.045 A 
ATOM     19  C   UNL     1       3.734  -0.521  -0.003  1.00  0.00     0.028 A 
ATOM     20  N   UNL     1       3.993   1.032  -1.622  1.00  0.00    -0.361 N 
ATOM     21  C   UNL     1       4.627   0.318  -0.663  1.00  0.00     0.083 A 
ATOM     22  H   UNL     1       4.421   1.734  -2.266  1.00  0.00     0.166 HD
ENDBRANCH   7  13
TORSDOF 1


