MODEL 1
REMARK VINA RESULT:      -3.5      0.000      0.000
REMARK SMILES CC(C)[C@@H]([NH3+])C(=O)N(c1ccc2cc[nH]c2c1)c1cccc2cnoc12
REMARK SMILES IDX 6 1 7 2 4 3 2 4 1 5 3 6 5 7 8 11 9 12 10 13 17 14 11 15
REMARK SMILES IDX 16 16 12 17 15 18 13 19 14 20 18 22 19 23 26 24 20 25 25 26
REMARK SMILES IDX 22 27 21 28 24 29 23 30
REMARK H PARENT 5 8 5 9 5 10 15 21
ROOT
ATOM      1  C   UNL     1      45.822 132.260  21.789  1.00  0.00     0.290 C 
ATOM      2  O   UNL     1      45.323 132.709  22.858  1.00  0.00    -0.267 OA
ENDROOT
BRANCH   1   3
ATOM      3  C   UNL     1      47.038 132.960  21.202  1.00  0.00     0.274 C 
BRANCH   3   4
ATOM      4  C   UNL     1      47.513 134.105  22.150  1.00  0.00     0.051 C 
ATOM      5  C   UNL     1      48.773 133.715  22.939  1.00  0.00     0.014 C 
ATOM      6  C   UNL     1      47.797 135.393  21.358  1.00  0.00     0.014 C 
ENDBRANCH   3   4
BRANCH   3   7
ATOM      7  N   UNL     1      48.100 131.973  20.956  1.00  0.00    -0.347 N 
ATOM      8  H   UNL     1      47.777 131.017  21.230  1.00  0.00     0.345 HD
ATOM      9  H   UNL     1      48.382 131.972  19.948  1.00  0.00     0.345 HD
ATOM     10  H   UNL     1      48.938 132.194  21.544  1.00  0.00     0.345 HD
ENDBRANCH   3   7
ENDBRANCH   1   3
BRANCH   1  11
ATOM     11  N   UNL     1      45.194 131.138  21.128  1.00  0.00    -0.272 N 
BRANCH  11  12
ATOM     12  C   UNL     1      45.059 131.116  19.694  1.00  0.00     0.051 A 
ATOM     13  C   UNL     1      43.971 131.780  19.074  1.00  0.00     0.027 A 
ATOM     14  C   UNL     1      45.998 130.416  18.905  1.00  0.00     0.053 A 
ATOM     15  C   UNL     1      43.820 131.758  17.676  1.00  0.00     0.012 A 
ATOM     16  C   UNL     1      45.819 130.415  17.523  1.00  0.00     0.047 A 
ATOM     17  C   UNL     1      44.769 131.063  16.931  1.00  0.00    -0.000 A 
ATOM     18  N   UNL     1      46.592 129.817  16.601  1.00  0.00    -0.361 N 
ATOM     19  C   UNL     1      44.877 130.869  15.572  1.00  0.00     0.028 A 
ATOM     20  C   UNL     1      46.020 130.094  15.406  1.00  0.00     0.083 A 
ATOM     21  H   UNL     1      47.456 129.256  16.767  1.00  0.00     0.166 HD
ENDBRANCH  11  12
BRANCH  11  22
ATOM     22  C   UNL     1      44.726 130.008  21.898  1.00  0.00     0.095 A 
ATOM     23  C   UNL     1      45.379 128.751  21.844  1.00  0.00     0.031 A 
ATOM     24  C   UNL     1      43.616 130.105  22.746  1.00  0.00     0.190 A 
ATOM     25  C   UNL     1      44.915 127.662  22.617  1.00  0.00     0.003 A 
ATOM     26  O   UNL     1      42.834 131.134  22.971  1.00  0.00    -0.354 OA
ATOM     27  C   UNL     1      43.175 129.049  23.490  1.00  0.00     0.044 A 
ATOM     28  C   UNL     1      43.795 127.805  23.456  1.00  0.00     0.014 A 
ATOM     29  N   UNL     1      41.901 130.816  23.830  1.00  0.00    -0.087 NA
ATOM     30  C   UNL     1      42.082 129.519  24.176  1.00  0.00     0.166 A 
ENDBRANCH  11  22
ENDBRANCH   1  11
TORSDOF 6
ENDMDL
MODEL 2
REMARK VINA RESULT:      -3.3      1.250      1.416
REMARK SMILES CC(C)[C@@H]([NH3+])C(=O)N(c1ccc2cc[nH]c2c1)c1cccc2cnoc12
REMARK SMILES IDX 6 1 7 2 4 3 2 4 1 5 3 6 5 7 8 11 9 12 10 13 17 14 11 15
REMARK SMILES IDX 16 16 12 17 15 18 13 19 14 20 18 22 19 23 26 24 20 25 25 26
REMARK SMILES IDX 22 27 21 28 24 29 23 30
REMARK H PARENT 5 8 5 9 5 10 15 21
ROOT
ATOM      1  C   UNL     1      46.734 132.039  20.960  1.00  0.00     0.290 C 
ATOM      2  O   UNL     1      47.902 131.607  20.751  1.00  0.00    -0.267 OA
ENDROOT
BRANCH   1   3
ATOM      3  C   UNL     1      46.566 133.371  21.674  1.00  0.00     0.274 C 
BRANCH   3   4
ATOM      4  C   UNL     1      47.896 133.777  22.382  1.00  0.00     0.051 C 
ATOM      5  C   UNL     1      48.565 134.986  21.708  1.00  0.00     0.014 C 
ATOM      6  C   UNL     1      47.652 134.104  23.866  1.00  0.00     0.014 C 
ENDBRANCH   3   4
BRANCH   3   7
ATOM      7  N   UNL     1      46.122 134.391  20.711  1.00  0.00    -0.347 N 
ATOM      8  H   UNL     1      46.905 135.049  20.494  1.00  0.00     0.345 HD
ATOM      9  H   UNL     1      45.782 133.946  19.827  1.00  0.00     0.345 HD
ATOM     10  H   UNL     1      45.348 134.962  21.125  1.00  0.00     0.345 HD
ENDBRANCH   3   7
ENDBRANCH   1   3
BRANCH   1  11
ATOM     11  N   UNL     1      45.598 131.234  20.569  1.00  0.00    -0.272 N 
BRANCH  11  12
ATOM     12  C   UNL     1      45.070 131.314  19.232  1.00  0.00     0.051 A 
ATOM     13  C   UNL     1      43.746 131.776  19.019  1.00  0.00     0.027 A 
ATOM     14  C   UNL     1      45.860 130.913  18.132  1.00  0.00     0.053 A 
ATOM     15  C   UNL     1      43.214 131.849  17.720  1.00  0.00     0.012 A 
ATOM     16  C   UNL     1      45.301 130.999  16.859  1.00  0.00     0.047 A 
ATOM     17  C   UNL     1      44.025 131.451  16.661  1.00  0.00    -0.000 A 
ATOM     18  N   UNL     1      45.879 130.673  15.691  1.00  0.00    -0.361 N 
ATOM     19  C   UNL     1      43.778 131.412  15.307  1.00  0.00     0.028 A 
ATOM     20  C   UNL     1      44.951 130.925  14.738  1.00  0.00     0.083 A 
ATOM     21  H   UNL     1      46.844 130.303  15.543  1.00  0.00     0.166 HD
ENDBRANCH  11  12
BRANCH  11  22
ATOM     22  C   UNL     1      45.002 130.312  21.510  1.00  0.00     0.095 A 
ATOM     23  C   UNL     1      45.423 128.961  21.593  1.00  0.00     0.031 A 
ATOM     24  C   UNL     1      43.992 130.713  22.393  1.00  0.00     0.190 A 
ATOM     25  C   UNL     1      44.839 128.079  22.531  1.00  0.00     0.003 A 
ATOM     26  O   UNL     1      43.419 131.886  22.516  1.00  0.00    -0.354 OA
ATOM     27  C   UNL     1      43.434 129.855  23.296  1.00  0.00     0.044 A 
ATOM     28  C   UNL     1      43.827 128.526  23.400  1.00  0.00     0.014 A 
ATOM     29  N   UNL     1      42.512 131.851  23.458  1.00  0.00    -0.087 NA
ATOM     30  C   UNL     1      42.493 130.597  23.967  1.00  0.00     0.166 A 
ENDBRANCH  11  22
ENDBRANCH   1  11
TORSDOF 6
ENDMDL
MODEL 3
REMARK VINA RESULT:      -3.2      1.224      1.894
REMARK SMILES CC(C)[C@@H]([NH3+])C(=O)N(c1ccc2cc[nH]c2c1)c1cccc2cnoc12
REMARK SMILES IDX 6 1 7 2 4 3 2 4 1 5 3 6 5 7 8 11 9 12 10 13 17 14 11 15
REMARK SMILES IDX 16 16 12 17 15 18 13 19 14 20 18 22 19 23 26 24 20 25 25 26
REMARK SMILES IDX 22 27 21 28 24 29 23 30
REMARK H PARENT 5 8 5 9 5 10 15 21
ROOT
ATOM      1  C   UNL     1      45.743 132.343  21.967  1.00  0.00     0.290 C 
ATOM      2  O   UNL     1      45.421 132.748  23.118  1.00  0.00    -0.267 OA
ENDROOT
BRANCH   1   3
ATOM      3  C   UNL     1      46.925 132.996  21.268  1.00  0.00     0.274 C 
BRANCH   3   4
ATOM      4  C   UNL     1      47.509 134.142  22.150  1.00  0.00     0.051 C 
ATOM      5  C   UNL     1      48.944 133.842  22.614  1.00  0.00     0.014 C 
ATOM      6  C   UNL     1      47.500 135.481  21.391  1.00  0.00     0.014 C 
ENDBRANCH   3   4
BRANCH   3   7
ATOM      7  N   UNL     1      47.935 131.973  20.955  1.00  0.00    -0.347 N 
ATOM      8  H   UNL     1      47.927 131.756  19.932  1.00  0.00     0.345 HD
ATOM      9  H   UNL     1      48.890 132.294  21.237  1.00  0.00     0.345 HD
ATOM     10  H   UNL     1      47.712 131.083  21.459  1.00  0.00     0.345 HD
ENDBRANCH   3   7
ENDBRANCH   1   3
BRANCH   1  11
ATOM     11  N   UNL     1      44.948 131.319  21.326  1.00  0.00    -0.272 N 
BRANCH  11  12
ATOM     12  C   UNL     1      44.883 131.234  19.890  1.00  0.00     0.051 A 
ATOM     13  C   UNL     1      43.839 131.887  19.188  1.00  0.00     0.027 A 
ATOM     14  C   UNL     1      45.847 130.485  19.180  1.00  0.00     0.053 A 
ATOM     15  C   UNL     1      43.756 131.804  17.787  1.00  0.00     0.012 A 
ATOM     16  C   UNL     1      45.736 130.424  17.792  1.00  0.00     0.047 A 
ATOM     17  C   UNL     1      44.728 131.061  17.121  1.00  0.00    -0.000 A 
ATOM     18  N   UNL     1      46.542 129.774  16.937  1.00  0.00    -0.361 N 
ATOM     19  C   UNL     1      44.899 130.806  15.779  1.00  0.00     0.028 A 
ATOM     20  C   UNL     1      46.034 130.005  15.704  1.00  0.00     0.083 A 
ATOM     21  H   UNL     1      47.387 129.207  17.170  1.00  0.00     0.166 HD
ENDBRANCH  11  12
BRANCH  11  22
ATOM     22  C   UNL     1      44.238 130.343  22.123  1.00  0.00     0.095 A 
ATOM     23  C   UNL     1      43.040 130.672  22.805  1.00  0.00     0.031 A 
ATOM     24  C   UNL     1      44.691 129.024  22.247  1.00  0.00     0.190 A 
ATOM     25  C   UNL     1      42.352 129.700  23.566  1.00  0.00     0.003 A 
ATOM     26  O   UNL     1      45.763 128.467  21.736  1.00  0.00    -0.354 OA
ATOM     27  C   UNL     1      44.021 128.092  22.983  1.00  0.00     0.044 A 
ATOM     28  C   UNL     1      42.844 128.386  23.662  1.00  0.00     0.014 A 
ATOM     29  N   UNL     1      45.834 127.210  22.092  1.00  0.00    -0.087 NA
ATOM     30  C   UNL     1      44.762 126.941  22.873  1.00  0.00     0.166 A 
ENDBRANCH  11  22
ENDBRANCH   1  11
TORSDOF 6
ENDMDL
MODEL 4
REMARK VINA RESULT:      -2.7      1.517      2.181
REMARK SMILES CC(C)[C@@H]([NH3+])C(=O)N(c1ccc2cc[nH]c2c1)c1cccc2cnoc12
REMARK SMILES IDX 6 1 7 2 4 3 2 4 1 5 3 6 5 7 8 11 9 12 10 13 17 14 11 15
REMARK SMILES IDX 16 16 12 17 15 18 13 19 14 20 18 22 19 23 26 24 20 25 25 26
REMARK SMILES IDX 22 27 21 28 24 29 23 30
REMARK H PARENT 5 8 5 9 5 10 15 21
ROOT
ATOM      1  C   UNL     1      45.777 132.850  21.441  1.00  0.00     0.290 C 
ATOM      2  O   UNL     1      46.092 133.786  20.656  1.00  0.00    -0.267 OA
ENDROOT
BRANCH   1   3
ATOM      3  C   UNL     1      46.379 132.837  22.838  1.00  0.00     0.274 C 
BRANCH   3   4
ATOM      4  C   UNL     1      47.327 134.061  23.030  1.00  0.00     0.051 C 
ATOM      5  C   UNL     1      47.528 134.409  24.514  1.00  0.00     0.014 C 
ATOM      6  C   UNL     1      48.700 133.799  22.388  1.00  0.00     0.014 C 
ENDBRANCH   3   4
BRANCH   3   7
ATOM      7  N   UNL     1      45.298 132.815  23.837  1.00  0.00    -0.347 N 
ATOM      8  H   UNL     1      45.069 133.789  24.144  1.00  0.00     0.345 HD
ATOM      9  H   UNL     1      44.441 132.359  23.449  1.00  0.00     0.345 HD
ATOM     10  H   UNL     1      45.608 132.291  24.689  1.00  0.00     0.345 HD
ENDBRANCH   3   7
ENDBRANCH   1   3
BRANCH   1  11
ATOM     11  N   UNL     1      44.906 131.794  20.976  1.00  0.00    -0.272 N 
BRANCH  11  12
ATOM     12  C   UNL     1      44.829 131.473  19.575  1.00  0.00     0.051 A 
ATOM     13  C   UNL     1      43.699 131.870  18.816  1.00  0.00     0.027 A 
ATOM     14  C   UNL     1      45.869 130.744  18.957  1.00  0.00     0.053 A 
ATOM     15  C   UNL     1      43.605 131.553  17.450  1.00  0.00     0.012 A 
ATOM     16  C   UNL     1      45.745 130.448  17.601  1.00  0.00     0.047 A 
ATOM     17  C   UNL     1      44.653 130.839  16.875  1.00  0.00    -0.000 A 
ATOM     18  N   UNL     1      46.614 129.774  16.830  1.00  0.00    -0.361 N 
ATOM     19  C   UNL     1      44.834 130.395  15.584  1.00  0.00     0.028 A 
ATOM     20  C   UNL     1      46.061 129.739  15.595  1.00  0.00     0.083 A 
ATOM     21  H   UNL     1      47.528 129.360  17.119  1.00  0.00     0.166 HD
ENDBRANCH  11  12
BRANCH  11  22
ATOM     22  C   UNL     1      44.127 131.024  21.920  1.00  0.00     0.095 A 
ATOM     23  C   UNL     1      42.995 131.573  22.572  1.00  0.00     0.031 A 
ATOM     24  C   UNL     1      44.445 129.694  22.224  1.00  0.00     0.190 A 
ATOM     25  C   UNL     1      42.237 130.798  23.480  1.00  0.00     0.003 A 
ATOM     26  O   UNL     1      45.434 128.958  21.777  1.00  0.00    -0.354 OA
ATOM     27  C   UNL     1      43.708 128.953  23.101  1.00  0.00     0.044 A 
ATOM     28  C   UNL     1      42.594 129.465  23.755  1.00  0.00     0.014 A 
ATOM     29  N   UNL     1      45.388 127.764  22.309  1.00  0.00    -0.087 NA
ATOM     30  C   UNL     1      44.322 127.725  23.143  1.00  0.00     0.166 A 
ENDBRANCH  11  22
ENDBRANCH   1  11
TORSDOF 6
ENDMDL
MODEL 5
REMARK VINA RESULT:      -2.3      1.730      2.553
REMARK SMILES CC(C)[C@@H]([NH3+])C(=O)N(c1ccc2cc[nH]c2c1)c1cccc2cnoc12
REMARK SMILES IDX 6 1 7 2 4 3 2 4 1 5 3 6 5 7 8 11 9 12 10 13 17 14 11 15
REMARK SMILES IDX 16 16 12 17 15 18 13 19 14 20 18 22 19 23 26 24 20 25 25 26
REMARK SMILES IDX 22 27 21 28 24 29 23 30
REMARK H PARENT 5 8 5 9 5 10 15 21
ROOT
ATOM      1  C   UNL     1      46.035 133.058  21.200  1.00  0.00     0.290 C 
ATOM      2  O   UNL     1      46.042 134.102  20.491  1.00  0.00    -0.267 OA
ENDROOT
BRANCH   1   3
ATOM      3  C   UNL     1      46.961 132.988  22.404  1.00  0.00     0.274 C 
BRANCH   3   4
ATOM      4  C   UNL     1      48.303 133.723  22.099  1.00  0.00     0.051 C 
ATOM      5  C   UNL     1      48.085 135.204  21.748  1.00  0.00     0.014 C 
ATOM      6  C   UNL     1      49.267 133.629  23.295  1.00  0.00     0.014 C 
ENDBRANCH   3   4
BRANCH   3   7
ATOM      7  N   UNL     1      46.280 133.554  23.579  1.00  0.00    -0.347 N 
ATOM      8  H   UNL     1      46.614 134.529  23.758  1.00  0.00     0.345 HD
ATOM      9  H   UNL     1      45.242 133.559  23.442  1.00  0.00     0.345 HD
ATOM     10  H   UNL     1      46.508 132.991  24.432  1.00  0.00     0.345 HD
ENDBRANCH   3   7
ENDBRANCH   1   3
BRANCH   1  11
ATOM     11  N   UNL     1      45.197 131.944  20.816  1.00  0.00    -0.272 N 
BRANCH  11  12
ATOM     12  C   UNL     1      45.186 131.471  19.456  1.00  0.00     0.051 A 
ATOM     13  C   UNL     1      46.078 130.445  19.054  1.00  0.00     0.027 A 
ATOM     14  C   UNL     1      44.300 132.041  18.515  1.00  0.00     0.053 A 
ATOM     15  C   UNL     1      46.085 129.981  17.727  1.00  0.00     0.012 A 
ATOM     16  C   UNL     1      44.333 131.557  17.209  1.00  0.00     0.047 A 
ATOM     17  C   UNL     1      45.194 130.563  16.830  1.00  0.00    -0.000 A 
ATOM     18  N   UNL     1      43.580 131.958  16.171  1.00  0.00    -0.361 N 
ATOM     19  C   UNL     1      44.980 130.320  15.492  1.00  0.00     0.028 A 
ATOM     20  C   UNL     1      43.971 131.203  15.119  1.00  0.00     0.083 A 
ATOM     21  H   UNL     1      42.843 132.698  16.172  1.00  0.00     0.166 HD
ENDBRANCH  11  12
BRANCH  11  22
ATOM     22  C   UNL     1      44.387 131.268  21.805  1.00  0.00     0.095 A 
ATOM     23  C   UNL     1      43.336 131.933  22.483  1.00  0.00     0.031 A 
ATOM     24  C   UNL     1      44.592 129.921  22.128  1.00  0.00     0.190 A 
ATOM     25  C   UNL     1      42.544 131.251  23.436  1.00  0.00     0.003 A 
ATOM     26  O   UNL     1      45.491 129.087  21.663  1.00  0.00    -0.354 OA
ATOM     27  C   UNL     1      43.823 129.269  23.047  1.00  0.00     0.044 A 
ATOM     28  C   UNL     1      42.786 129.896  23.728  1.00  0.00     0.014 A 
ATOM     29  N   UNL     1      45.355 127.914  22.224  1.00  0.00    -0.087 NA
ATOM     30  C   UNL     1      44.321 127.990  23.096  1.00  0.00     0.166 A 
ENDBRANCH  11  22
ENDBRANCH   1  11
TORSDOF 6
ENDMDL
MODEL 6
REMARK VINA RESULT:      -2.2      1.506      1.996
REMARK SMILES CC(C)[C@@H]([NH3+])C(=O)N(c1ccc2cc[nH]c2c1)c1cccc2cnoc12
REMARK SMILES IDX 6 1 7 2 4 3 2 4 1 5 3 6 5 7 8 11 9 12 10 13 17 14 11 15
REMARK SMILES IDX 16 16 12 17 15 18 13 19 14 20 18 22 19 23 26 24 20 25 25 26
REMARK SMILES IDX 22 27 21 28 24 29 23 30
REMARK H PARENT 5 8 5 9 5 10 15 21
ROOT
ATOM      1  C   UNL     1      46.895 131.934  20.818  1.00  0.00     0.290 C 
ATOM      2  O   UNL     1      48.111 131.632  20.665  1.00  0.00    -0.267 OA
ENDROOT
BRANCH   1   3
ATOM      3  C   UNL     1      46.551 133.234  21.530  1.00  0.00     0.274 C 
BRANCH   3   4
ATOM      4  C   UNL     1      47.852 133.957  21.996  1.00  0.00     0.051 C 
ATOM      5  C   UNL     1      47.983 135.362  21.387  1.00  0.00     0.014 C 
ATOM      6  C   UNL     1      47.900 134.070  23.530  1.00  0.00     0.014 C 
ENDBRANCH   3   4
BRANCH   3   7
ATOM      7  N   UNL     1      45.740 134.080  20.640  1.00  0.00    -0.347 N 
ATOM      8  H   UNL     1      44.896 133.557  20.313  1.00  0.00     0.345 HD
ATOM      9  H   UNL     1      45.442 134.956  21.129  1.00  0.00     0.345 HD
ATOM     10  H   UNL     1      46.292 134.335  19.788  1.00  0.00     0.345 HD
ENDBRANCH   3   7
ENDBRANCH   1   3
BRANCH   1  11
ATOM     11  N   UNL     1      45.872 131.017  20.369  1.00  0.00    -0.272 N 
BRANCH  11  12
ATOM     12  C   UNL     1      45.594 130.861  18.965  1.00  0.00     0.051 A 
ATOM     13  C   UNL     1      46.331 129.926  18.195  1.00  0.00     0.027 A 
ATOM     14  C   UNL     1      44.601 131.652  18.347  1.00  0.00     0.053 A 
ATOM     15  C   UNL     1      46.078 129.771  16.821  1.00  0.00     0.012 A 
ATOM     16  C   UNL     1      44.375 131.472  16.984  1.00  0.00     0.047 A 
ATOM     17  C   UNL     1      45.088 130.564  16.248  1.00  0.00    -0.000 A 
ATOM     18  N   UNL     1      43.483 132.116  16.212  1.00  0.00    -0.361 N 
ATOM     19  C   UNL     1      44.630 130.632  14.952  1.00  0.00     0.028 A 
ATOM     20  C   UNL     1      43.635 131.605  14.968  1.00  0.00     0.083 A 
ATOM     21  H   UNL     1      42.810 132.857  16.507  1.00  0.00     0.166 HD
ENDBRANCH  11  12
BRANCH  11  22
ATOM     22  C   UNL     1      45.140 130.217  21.326  1.00  0.00     0.095 A 
ATOM     23  C   UNL     1      45.494 128.873  21.596  1.00  0.00     0.031 A 
ATOM     24  C   UNL     1      44.056 130.739  22.044  1.00  0.00     0.190 A 
ATOM     25  C   UNL     1      44.776 128.112  22.547  1.00  0.00     0.003 A 
ATOM     26  O   UNL     1      43.521 131.935  21.980  1.00  0.00    -0.354 OA
ATOM     27  C   UNL     1      43.369 129.999  22.961  1.00  0.00     0.044 A 
ATOM     28  C   UNL     1      43.694 128.678  23.245  1.00  0.00     0.014 A 
ATOM     29  N   UNL     1      42.516 132.027  22.811  1.00  0.00    -0.087 NA
ATOM     30  C   UNL     1      42.391 130.835  23.442  1.00  0.00     0.166 A 
ENDBRANCH  11  22
ENDBRANCH   1  11
TORSDOF 6
ENDMDL
MODEL 7
REMARK VINA RESULT:      -2.2      1.593      2.184
REMARK SMILES CC(C)[C@@H]([NH3+])C(=O)N(c1ccc2cc[nH]c2c1)c1cccc2cnoc12
REMARK SMILES IDX 6 1 7 2 4 3 2 4 1 5 3 6 5 7 8 11 9 12 10 13 17 14 11 15
REMARK SMILES IDX 16 16 12 17 15 18 13 19 14 20 18 22 19 23 26 24 20 25 25 26
REMARK SMILES IDX 22 27 21 28 24 29 23 30
REMARK H PARENT 5 8 5 9 5 10 15 21
ROOT
ATOM      1  C   UNL     1      46.603 132.637  21.374  1.00  0.00     0.290 C 
ATOM      2  O   UNL     1      47.745 132.102  21.339  1.00  0.00    -0.267 OA
ENDROOT
BRANCH   1   3
ATOM      3  C   UNL     1      46.484 134.068  21.876  1.00  0.00     0.274 C 
BRANCH   3   4
ATOM      4  C   UNL     1      47.158 134.208  23.276  1.00  0.00     0.051 C 
ATOM      5  C   UNL     1      46.490 133.312  24.332  1.00  0.00     0.014 C 
ATOM      6  C   UNL     1      48.656 133.863  23.203  1.00  0.00     0.014 C 
ENDBRANCH   3   4
BRANCH   3   7
ATOM      7  N   UNL     1      47.074 134.984  20.888  1.00  0.00    -0.347 N 
ATOM      8  H   UNL     1      46.461 135.822  20.760  1.00  0.00     0.345 HD
ATOM      9  H   UNL     1      48.028 135.291  21.187  1.00  0.00     0.345 HD
ATOM     10  H   UNL     1      47.143 134.510  19.957  1.00  0.00     0.345 HD
ENDBRANCH   3   7
ENDBRANCH   1   3
BRANCH   1  11
ATOM     11  N   UNL     1      45.442 131.862  20.996  1.00  0.00    -0.272 N 
BRANCH  11  12
ATOM     12  C   UNL     1      45.187 131.554  19.613  1.00  0.00     0.051 A 
ATOM     13  C   UNL     1      44.005 132.023  18.988  1.00  0.00     0.027 A 
ATOM     14  C   UNL     1      46.104 130.766  18.881  1.00  0.00     0.053 A 
ATOM     15  C   UNL     1      43.737 131.721  17.641  1.00  0.00     0.012 A 
ATOM     16  C   UNL     1      45.809 130.486  17.549  1.00  0.00     0.047 A 
ATOM     17  C   UNL     1      44.667 130.948  16.951  1.00  0.00    -0.000 A 
ATOM     18  N   UNL     1      46.542 129.765  16.685  1.00  0.00    -0.361 N 
ATOM     19  C   UNL     1      44.673 130.500  15.649  1.00  0.00     0.028 A 
ATOM     20  C   UNL     1      45.851 129.771  15.521  1.00  0.00     0.083 A 
ATOM     21  H   UNL     1      47.455 129.295  16.869  1.00  0.00     0.166 HD
ENDBRANCH  11  12
BRANCH  11  22
ATOM     22  C   UNL     1      44.543 131.357  22.009  1.00  0.00     0.095 A 
ATOM     23  C   UNL     1      43.609 132.201  22.660  1.00  0.00     0.031 A 
ATOM     24  C   UNL     1      44.540 130.007  22.383  1.00  0.00     0.190 A 
ATOM     25  C   UNL     1      42.727 131.685  23.637  1.00  0.00     0.003 A 
ATOM     26  O   UNL     1      45.298 129.028  21.952  1.00  0.00    -0.354 OA
ATOM     27  C   UNL     1      43.685 129.517  23.326  1.00  0.00     0.044 A 
ATOM     28  C   UNL     1      42.759 130.321  23.981  1.00  0.00     0.014 A 
ATOM     29  N   UNL     1      44.986 127.912  22.557  1.00  0.00    -0.087 NA
ATOM     30  C   UNL     1      43.981 128.180  23.424  1.00  0.00     0.166 A 
ENDBRANCH  11  22
ENDBRANCH   1  11
TORSDOF 6
ENDMDL
MODEL 8
REMARK VINA RESULT:      -2.1      1.897      5.376
REMARK SMILES CC(C)[C@@H]([NH3+])C(=O)N(c1ccc2cc[nH]c2c1)c1cccc2cnoc12
REMARK SMILES IDX 6 1 7 2 4 3 2 4 1 5 3 6 5 7 8 11 9 12 10 13 17 14 11 15
REMARK SMILES IDX 16 16 12 17 15 18 13 19 14 20 18 22 19 23 26 24 20 25 25 26
REMARK SMILES IDX 22 27 21 28 24 29 23 30
REMARK H PARENT 5 8 5 9 5 10 15 21
ROOT
ATOM      1  C   UNL     1      45.720 132.439  21.520  1.00  0.00     0.290 C 
ATOM      2  O   UNL     1      46.273 133.123  20.614  1.00  0.00    -0.267 OA
ENDROOT
BRANCH   1   3
ATOM      3  C   UNL     1      46.185 132.620  22.957  1.00  0.00     0.274 C 
BRANCH   3   4
ATOM      4  C   UNL     1      47.004 133.940  23.098  1.00  0.00     0.051 C 
ATOM      5  C   UNL     1      47.106 134.403  24.561  1.00  0.00     0.014 C 
ATOM      6  C   UNL     1      48.423 133.772  22.527  1.00  0.00     0.014 C 
ENDBRANCH   3   4
BRANCH   3   7
ATOM      7  N   UNL     1      45.020 132.595  23.855  1.00  0.00    -0.347 N 
ATOM      8  H   UNL     1      44.138 132.509  23.301  1.00  0.00     0.345 HD
ATOM      9  H   UNL     1      45.089 131.801  24.532  1.00  0.00     0.345 HD
ATOM     10  H   UNL     1      44.961 133.495  24.388  1.00  0.00     0.345 HD
ENDBRANCH   3   7
ENDBRANCH   1   3
BRANCH   1  11
ATOM     11  N   UNL     1      44.711 131.468  21.161  1.00  0.00    -0.272 N 
BRANCH  11  12
ATOM     12  C   UNL     1      44.556 130.257  21.924  1.00  0.00     0.051 A 
ATOM     13  C   UNL     1      43.658 130.218  23.020  1.00  0.00     0.027 A 
ATOM     14  C   UNL     1      45.314 129.111  21.595  1.00  0.00     0.053 A 
ATOM     15  C   UNL     1      43.505 129.046  23.780  1.00  0.00     0.012 A 
ATOM     16  C   UNL     1      45.137 127.965  22.369  1.00  0.00     0.047 A 
ATOM     17  C   UNL     1      44.264 127.935  23.422  1.00  0.00    -0.000 A 
ATOM     18  N   UNL     1      45.752 126.780  22.224  1.00  0.00    -0.361 N 
ATOM     19  C   UNL     1      44.325 126.675  23.973  1.00  0.00     0.028 A 
ATOM     20  C   UNL     1      45.258 125.987  23.203  1.00  0.00     0.083 A 
ATOM     21  H   UNL     1      46.464 126.520  21.506  1.00  0.00     0.166 HD
ENDBRANCH  11  12
BRANCH  11  22
ATOM     22  C   UNL     1      43.820 131.721  20.051  1.00  0.00     0.095 A 
ATOM     23  C   UNL     1      42.513 132.232  20.249  1.00  0.00     0.031 A 
ATOM     24  C   UNL     1      44.211 131.489  18.726  1.00  0.00     0.190 A 
ATOM     25  C   UNL     1      41.662 132.488  19.149  1.00  0.00     0.003 A 
ATOM     26  O   UNL     1      45.346 131.015  18.270  1.00  0.00    -0.354 OA
ATOM     27  C   UNL     1      43.384 131.740  17.670  1.00  0.00     0.044 A 
ATOM     28  C   UNL     1      42.098 132.240  17.835  1.00  0.00     0.014 A 
ATOM     29  N   UNL     1      45.316 130.944  16.965  1.00  0.00    -0.087 NA
ATOM     30  C   UNL     1      44.104 131.388  16.555  1.00  0.00     0.166 A 
ENDBRANCH  11  22
ENDBRANCH   1  11
TORSDOF 6
ENDMDL
MODEL 9
REMARK VINA RESULT:      -1.7      2.471      3.292
REMARK SMILES CC(C)[C@@H]([NH3+])C(=O)N(c1ccc2cc[nH]c2c1)c1cccc2cnoc12
REMARK SMILES IDX 6 1 7 2 4 3 2 4 1 5 3 6 5 7 8 11 9 12 10 13 17 14 11 15
REMARK SMILES IDX 16 16 12 17 15 18 13 19 14 20 18 22 19 23 26 24 20 25 25 26
REMARK SMILES IDX 22 27 21 28 24 29 23 30
REMARK H PARENT 5 8 5 9 5 10 15 21
ROOT
ATOM      1  C   UNL     1      44.447 130.988  23.259  1.00  0.00     0.290 C 
ATOM      2  O   UNL     1      45.102 130.760  24.313  1.00  0.00    -0.267 OA
ENDROOT
BRANCH   1   3
ATOM      3  C   UNL     1      43.515 132.189  23.225  1.00  0.00     0.274 C 
BRANCH   3   4
ATOM      4  C   UNL     1      42.027 131.719  23.216  1.00  0.00     0.051 C 
ATOM      5  C   UNL     1      41.525 131.361  24.624  1.00  0.00     0.014 C 
ATOM      6  C   UNL     1      41.111 132.803  22.619  1.00  0.00     0.014 C 
ENDBRANCH   3   4
BRANCH   3   7
ATOM      7  N   UNL     1      43.807 133.069  24.368  1.00  0.00    -0.347 N 
ATOM      8  H   UNL     1      43.208 132.811  25.186  1.00  0.00     0.345 HD
ATOM      9  H   UNL     1      44.815 133.005  24.638  1.00  0.00     0.345 HD
ATOM     10  H   UNL     1      43.580 134.061  24.124  1.00  0.00     0.345 HD
ENDBRANCH   3   7
ENDBRANCH   1   3
BRANCH   1  11
ATOM     11  N   UNL     1      44.556 130.075  22.143  1.00  0.00    -0.272 N 
BRANCH  11  12
ATOM     12  C   UNL     1      44.583 130.571  20.792  1.00  0.00     0.051 A 
ATOM     13  C   UNL     1      43.643 131.547  20.375  1.00  0.00     0.027 A 
ATOM     14  C   UNL     1      45.533 130.072  19.873  1.00  0.00     0.053 A 
ATOM     15  C   UNL     1      43.651 132.032  19.055  1.00  0.00     0.012 A 
ATOM     16  C   UNL     1      45.514 130.575  18.574  1.00  0.00     0.047 A 
ATOM     17  C   UNL     1      44.606 131.521  18.180  1.00  0.00    -0.000 A 
ATOM     18  N   UNL     1      46.324 130.239  17.556  1.00  0.00    -0.361 N 
ATOM     19  C   UNL     1      44.849 131.800  16.854  1.00  0.00     0.028 A 
ATOM     20  C   UNL     1      45.922 130.987  16.503  1.00  0.00     0.083 A 
ATOM     21  H   UNL     1      47.104 129.546  17.571  1.00  0.00     0.166 HD
ENDBRANCH  11  12
BRANCH  11  22
ATOM     22  C   UNL     1      44.674 128.653  22.376  1.00  0.00     0.095 A 
ATOM     23  C   UNL     1      45.767 127.907  21.869  1.00  0.00     0.031 A 
ATOM     24  C   UNL     1      43.724 127.949  23.125  1.00  0.00     0.190 A 
ATOM     25  C   UNL     1      45.874 126.519  22.121  1.00  0.00     0.003 A 
ATOM     26  O   UNL     1      42.626 128.389  23.691  1.00  0.00    -0.354 OA
ATOM     27  C   UNL     1      43.834 126.610  23.364  1.00  0.00     0.044 A 
ATOM     28  C   UNL     1      44.895 125.853  22.880  1.00  0.00     0.014 A 
ATOM     29  N   UNL     1      42.004 127.411  24.297  1.00  0.00    -0.087 NA
ATOM     30  C   UNL     1      42.731 126.283  24.114  1.00  0.00     0.166 A 
ENDBRANCH  11  22
ENDBRANCH   1  11
TORSDOF 6
ENDMDL


