REMARK SMILES Nc1cc(F)c(-c2cnc3c(c2)C(=O)[N-]C3)cc1C=O
REMARK SMILES IDX 2 1 3 2 4 3 5 4 6 5 17 6 18 7 1 8 19 11 20 12 7 13 8 14
REMARK SMILES IDX 12 15 9 16 11 17 10 18 13 19 16 20 15 21 14 22
REMARK H PARENT 1 9 1 10
ROOT
ATOM      1  C   UNL     1      -2.415  -1.644   0.654  1.00  0.00     0.045 A 
ATOM      2  C   UNL     1      -1.943  -1.284  -0.617  1.00  0.00     0.066 A 
ATOM      3  C   UNL     1      -0.923  -0.343  -0.763  1.00  0.00     0.133 A 
ATOM      4  F   UNL     1      -0.464  -0.063  -2.010  1.00  0.00    -0.206 F 
ATOM      5  C   UNL     1      -0.350   0.261   0.368  1.00  0.00     0.020 A 
ATOM      6  C   UNL     1      -0.828  -0.085   1.643  1.00  0.00     0.025 A 
ATOM      7  C   UNL     1      -1.871  -1.013   1.801  1.00  0.00     0.038 A 
ENDROOT
BRANCH   1   8
ATOM      8  N   UNL     1      -3.394  -2.688   0.749  1.00  0.00    -0.398 N 
ATOM      9  H   UNL     1      -3.882  -3.033  -0.108  1.00  0.00     0.156 HD
ATOM     10  H   UNL     1      -3.534  -3.237   1.624  1.00  0.00     0.156 HD
ENDBRANCH   1   8
BRANCH   7  11
ATOM     11  C   UNL     1      -2.373  -1.248   3.173  1.00  0.00     0.262 C 
ATOM     12  O   UNL     1      -3.552  -1.630   3.391  1.00  0.00    -0.298 OA
ENDBRANCH   7  11
BRANCH   5  13
ATOM     13  C   UNL     1       0.739   1.259   0.233  1.00  0.00     0.004 A 
ATOM     14  C   UNL     1       1.890   1.184   1.059  1.00  0.00     0.120 A 
ATOM     15  C   UNL     1       0.642   2.309  -0.706  1.00  0.00     0.022 A 
ATOM     16  N   UNL     1       2.893   2.104   0.944  1.00  0.00    -0.262 NA
ATOM     17  C   UNL     1       1.694   3.215  -0.778  1.00  0.00     0.020 A 
ATOM     18  C   UNL     1       2.789   3.104   0.034  1.00  0.00     0.032 A 
ATOM     19  C   UNL     1       1.901   4.377  -1.601  1.00  0.00     0.084 C 
ATOM     20  C   UNL     1       3.777   4.199  -0.225  1.00  0.00    -0.059 C 
ATOM     21  N   UNL     1       3.149   4.990  -1.290  1.00  0.00    -0.644 NA
ATOM     22  O   UNL     1       1.107   4.809  -2.477  1.00  0.00    -0.315 OA
ENDBRANCH   5  13
TORSDOF 3


