REMARK SMILES C=Cc1cccc([C@H]2C=C[C@@H]3C(=C2)C(=O)NC[C@@H]3/N=c2\[n-]cc(F)cc2N)c1
REMARK SMILES IDX 8 1 9 2 10 3 11 4 12 5 13 6 14 7 15 8 16 9 17 11 18 12 7 13
REMARK SMILES IDX 3 14 4 15 28 16 5 17 6 18 2 19 1 20 19 21 20 22 21 23 26 24
REMARK SMILES IDX 22 25 25 26 23 27 24 28 27 29
REMARK H PARENT 16 10 27 30 27 31
ROOT
ATOM      1  C   UNL     1      -1.718   1.630  -0.114  1.00  0.00     0.065 C 
ATOM      2  C   UNL     1      -2.164   0.201  -0.317  1.00  0.00    -0.018 C 
ATOM      3  C   UNL     1      -2.034  -0.734   0.631  1.00  0.00    -0.022 C 
ATOM      4  C   UNL     1      -1.465  -0.430   1.996  1.00  0.00     0.051 C 
ATOM      5  C   UNL     1      -0.714   0.885   2.059  1.00  0.00     0.021 C 
ATOM      6  C   UNL     1      -0.854   1.823   1.108  1.00  0.00    -0.005 C 
ATOM      7  C   UNL     1       0.172   1.108   3.225  1.00  0.00     0.247 C 
ATOM      8  O   UNL     1       0.674   2.243   3.449  1.00  0.00    -0.270 OA
ATOM      9  N   UNL     1       0.490   0.012   4.092  1.00  0.00    -0.352 N 
ATOM     10  H   UNL     1       1.101   0.185   4.921  1.00  0.00     0.163 HD
ATOM     11  C   UNL     1      -0.143  -1.302   3.953  1.00  0.00     0.119 C 
ATOM     12  C   UNL     1      -0.557  -1.579   2.497  1.00  0.00     0.021 C 
ENDROOT
BRANCH   1  13
ATOM     13  C   UNL     1      -0.970   2.108  -1.338  1.00  0.00    -0.037 A 
ATOM     14  C   UNL     1       0.902   1.893  -2.902  1.00  0.00    -0.026 A 
ATOM     15  C   UNL     1       0.450   3.038  -3.575  1.00  0.00     0.008 A 
ATOM     16  C   UNL     1       0.193   1.442  -1.770  1.00  0.00     0.012 A 
ATOM     17  C   UNL     1      -0.701   3.704  -3.148  1.00  0.00     0.001 A 
ATOM     18  C   UNL     1      -1.410   3.243  -2.038  1.00  0.00     0.005 A 
BRANCH  14  19
ATOM     19  C   UNL     1       2.131   1.221  -3.387  1.00  0.00     0.000 C 
ATOM     20  C   UNL     1       2.428  -0.054  -3.133  1.00  0.00     0.009 C 
ENDBRANCH  14  19
ENDBRANCH   1  13
BRANCH  12  21
ATOM     21  N   UNL     1       0.653  -1.687   1.672  1.00  0.00    -0.458 NA
BRANCH  21  22
ATOM     22  C   UNL     1       0.797  -2.434   0.616  1.00  0.00    -0.038 A 
ATOM     23  N   UNL     1      -0.213  -3.251   0.199  1.00  0.00    -0.439 NA
ATOM     24  C   UNL     1       2.009  -2.409  -0.103  1.00  0.00     0.033 A 
ATOM     25  C   UNL     1      -0.096  -4.046  -0.896  1.00  0.00     0.018 A 
ATOM     26  C   UNL     1       2.144  -3.230  -1.231  1.00  0.00     0.064 A 
ATOM     27  C   UNL     1       1.089  -4.050  -1.631  1.00  0.00     0.121 A 
ATOM     28  F   UNL     1       1.213  -4.841  -2.725  1.00  0.00    -0.207 F 
BRANCH  24  29
ATOM     29  N   UNL     1       3.091  -1.553   0.286  1.00  0.00    -0.399 N 
ATOM     30  H   UNL     1       3.979  -1.536  -0.263  1.00  0.00     0.156 HD
ATOM     31  H   UNL     1       3.016  -0.919   1.113  1.00  0.00     0.156 HD
ENDBRANCH  24  29
ENDBRANCH  21  22
ENDBRANCH  12  21
TORSDOF 5


