REMARK SMILES Cc1ccc(-c2ccc(O)cc2)c2c[nH][nH+]c12
REMARK SMILES IDX 6 1 7 2 8 3 9 4 11 5 12 6 5 7 2 8 3 9 17 10 4 11 16 12 13 13
REMARK SMILES IDX 15 14 14 15 1 16 10 19
REMARK H PARENT 16 17 15 18 10 20
ROOT
ATOM      1  C   UNL     1      -0.390  -0.187  -0.275  1.00  0.00    -0.017 A 
ATOM      2  C   UNL     1       0.011  -0.291  -1.618  1.00  0.00     0.012 A 
ATOM      3  C   UNL     1      -0.353  -1.406  -2.380  1.00  0.00     0.047 A 
ATOM      4  C   UNL     1      -1.126  -2.424  -1.813  1.00  0.00     0.115 A 
ATOM      5  C   UNL     1      -1.538  -2.322  -0.478  1.00  0.00     0.047 A 
ATOM      6  C   UNL     1      -1.175  -1.209   0.286  1.00  0.00     0.012 A 
ENDROOT
BRANCH   1   7
ATOM      7  C   UNL     1      -0.011   1.000   0.527  1.00  0.00    -0.003 A 
ATOM      8  C   UNL     1       0.707   3.295   2.075  1.00  0.00     0.024 A 
ATOM      9  C   UNL     1       0.171   3.439   0.778  1.00  0.00     0.011 A 
ATOM     10  C   UNL     1       0.877   1.994   2.556  1.00  0.00     0.239 A 
ATOM     11  C   UNL     1      -0.182   2.305   0.013  1.00  0.00     0.010 A 
ATOM     12  N   UNL     1       1.402   1.600   3.730  1.00  0.00    -0.126 N 
ATOM     13  C   UNL     1       0.532   0.892   1.815  1.00  0.00     0.078 A 
ATOM     14  N   UNL     1       1.406   0.274   3.748  1.00  0.00    -0.174 N 
ATOM     15  C   UNL     1       0.886  -0.197   2.592  1.00  0.00     0.163 A 
ATOM     16  C   UNL     1       1.103   4.489   2.893  1.00  0.00     0.052 C 
ATOM     17  H   UNL     1       1.765   2.206   4.499  1.00  0.00     0.488 HD
ATOM     18  H   UNL     1       1.771  -0.305   4.537  1.00  0.00     0.238 HD
ENDBRANCH   1   7
BRANCH   4  19
ATOM     19  O   UNL     1      -1.481  -3.528  -2.584  1.00  0.00    -0.508 OA
ATOM     20  H   UNL     1      -2.041  -4.282  -2.203  1.00  0.00     0.293 HD
ENDBRANCH   4  19
TORSDOF 2


