MODEL 1
REMARK VINA RESULT:      -5.6      0.000      0.000
REMARK SMILES Cc1cc(-c2cccc3[nH+]coc23)cc(O/C(S)=[NH+]/c2ccc(-n3cccn3)cc2)c1F
REMARK SMILES IDX 17 1 18 2 16 4 15 5 14 6 31 7 4 8 2 9 3 10 32 11 1 12 5 13
REMARK SMILES IDX 6 14 13 15 7 16 9 17 12 18 8 19 10 20 11 21 19 23 20 25
REMARK SMILES IDX 21 26 30 27 22 28 29 29 23 30 24 31 28 32 25 33 27 34 26 35
REMARK H PARENT 18 3 10 22 19 24
ROOT
ATOM      1  C   UNL     1      43.742 131.746  19.894  1.00  0.00     0.407 C 
ENDROOT
BRANCH   1   2
ATOM      2  S   UNL     1      42.991 133.348  20.212  1.00  0.00    -0.031 SA
ATOM      3  H   UNL     1      43.498 133.387  21.525  1.00  0.00     0.118 HD
ENDBRANCH   1   2
BRANCH   1   4
ATOM      4  O   UNL     1      44.609 131.239  20.873  1.00  0.00    -0.397 OA
BRANCH   4   5
ATOM      5  C   UNL     1      44.304 130.198  21.763  1.00  0.00     0.171 A 
ATOM      6  C   UNL     1      44.986 128.969  21.726  1.00  0.00     0.059 A 
ATOM      7  C   UNL     1      43.266 130.383  22.683  1.00  0.00     0.168 A 
ATOM      8  C   UNL     1      44.662 127.942  22.627  1.00  0.00    -0.010 A 
ATOM      9  C   UNL     1      42.921 129.361  23.582  1.00  0.00    -0.011 A 
ATOM     10  C   UNL     1      43.633 128.152  23.561  1.00  0.00     0.015 A 
ATOM     11  F   UNL     1      42.601 131.566  22.708  1.00  0.00    -0.203 F 
ATOM     12  C   UNL     1      41.829 129.581  24.589  1.00  0.00     0.048 C 
BRANCH   8  13
ATOM     13  C   UNL     1      45.403 126.656  22.603  1.00  0.00     0.032 A 
ATOM     14  C   UNL     1      46.711 126.569  22.065  1.00  0.00     0.013 A 
ATOM     15  C   UNL     1      44.848 125.471  23.104  1.00  0.00     0.212 A 
ATOM     16  C   UNL     1      47.402 125.336  22.040  1.00  0.00     0.008 A 
ATOM     17  C   UNL     1      45.521 124.285  23.076  1.00  0.00     0.249 A 
ATOM     18  O   UNL     1      43.681 125.276  23.669  1.00  0.00    -0.403 OA
ATOM     19  C   UNL     1      46.805 124.171  22.551  1.00  0.00     0.083 A 
ATOM     20  N   UNL     1      44.758 123.331  23.627  1.00  0.00    -0.176 N 
ATOM     21  C   UNL     1      43.629 123.990  23.981  1.00  0.00     0.521 A 
ATOM     22  H   UNL     1      44.981 122.320  23.761  1.00  0.00     0.457 HD
ENDBRANCH   8  13
ENDBRANCH   4   5
ENDBRANCH   1   4
BRANCH   1  23
ATOM     23  N   UNL     1      43.507 131.075  18.796  1.00  0.00    -0.167 N 
ATOM     24  H   UNL     1      42.569 130.641  18.651  1.00  0.00     0.458 HD
BRANCH  23  25
ATOM     25  C   UNL     1      44.444 130.941  17.717  1.00  0.00     0.207 A 
ATOM     26  C   UNL     1      44.405 131.850  16.655  1.00  0.00     0.081 A 
ATOM     27  C   UNL     1      45.344 129.867  17.673  1.00  0.00     0.081 A 
ATOM     28  C   UNL     1      45.283 131.715  15.576  1.00  0.00     0.035 A 
ATOM     29  C   UNL     1      46.224 129.729  16.595  1.00  0.00     0.035 A 
ATOM     30  C   UNL     1      46.206 130.652  15.533  1.00  0.00     0.065 A 
BRANCH  30  31
ATOM     31  N   UNL     1      47.124 130.498  14.430  1.00  0.00    -0.241 N 
ATOM     32  N   UNL     1      48.058 129.559  14.381  1.00  0.00    -0.177 NA
ATOM     33  C   UNL     1      47.180 131.238  13.301  1.00  0.00     0.115 A 
ATOM     34  C   UNL     1      48.725 129.696  13.220  1.00  0.00     0.135 A 
ATOM     35  C   UNL     1      48.196 130.751  12.507  1.00  0.00     0.042 A 
ENDBRANCH  30  31
ENDBRANCH  23  25
ENDBRANCH   1  23
TORSDOF 7
ENDMDL
MODEL 2
REMARK VINA RESULT:      -3.4      4.721      8.010
REMARK SMILES Cc1cc(-c2cccc3[nH+]coc23)cc(O/C(S)=[NH+]/c2ccc(-n3cccn3)cc2)c1F
REMARK SMILES IDX 17 1 18 2 16 4 15 5 14 6 31 7 4 8 2 9 3 10 32 11 1 12 5 13
REMARK SMILES IDX 6 14 13 15 7 16 9 17 12 18 8 19 10 20 11 21 19 23 20 25
REMARK SMILES IDX 21 26 30 27 22 28 29 29 23 30 24 31 28 32 25 33 27 34 26 35
REMARK H PARENT 18 3 10 22 19 24
ROOT
ATOM      1  C   UNL     1      44.844 131.393  22.923  1.00  0.00     0.407 C 
ENDROOT
BRANCH   1   2
ATOM      2  S   UNL     1      44.100 130.224  24.068  1.00  0.00    -0.031 SA
ATOM      3  H   UNL     1      45.355 129.829  24.567  1.00  0.00     0.118 HD
ENDBRANCH   1   2
BRANCH   1   4
ATOM      4  O   UNL     1      45.214 130.907  21.661  1.00  0.00    -0.397 OA
BRANCH   4   5
ATOM      5  C   UNL     1      44.588 131.240  20.449  1.00  0.00     0.171 A 
ATOM      6  C   UNL     1      45.273 131.184  19.223  1.00  0.00     0.059 A 
ATOM      7  C   UNL     1      43.259 131.677  20.478  1.00  0.00     0.168 A 
ATOM      8  C   UNL     1      44.625 131.524  18.024  1.00  0.00    -0.010 A 
ATOM      9  C   UNL     1      42.601 132.032  19.289  1.00  0.00    -0.011 A 
ATOM     10  C   UNL     1      43.282 131.937  18.067  1.00  0.00     0.015 A 
ATOM     11  F   UNL     1      42.604 131.742  21.665  1.00  0.00    -0.203 F 
ATOM     12  C   UNL     1      41.164 132.467  19.325  1.00  0.00     0.048 C 
BRANCH   8  13
ATOM     13  C   UNL     1      45.343 131.436  16.728  1.00  0.00     0.032 A 
ATOM     14  C   UNL     1      45.854 132.592  16.088  1.00  0.00     0.013 A 
ATOM     15  C   UNL     1      45.545 130.213  16.074  1.00  0.00     0.212 A 
ATOM     16  C   UNL     1      46.529 132.494  14.849  1.00  0.00     0.008 A 
ATOM     17  C   UNL     1      46.197 130.127  14.879  1.00  0.00     0.249 A 
ATOM     18  O   UNL     1      45.200 129.005  16.449  1.00  0.00    -0.403 OA
ATOM     19  C   UNL     1      46.707 131.246  14.228  1.00  0.00     0.083 A 
ATOM     20  N   UNL     1      46.252 128.843  14.498  1.00  0.00    -0.176 N 
ATOM     21  C   UNL     1      45.623 128.185  15.501  1.00  0.00     0.521 A 
ATOM     22  H   UNL     1      46.684 128.441  13.636  1.00  0.00     0.457 HD
ENDBRANCH   8  13
ENDBRANCH   4   5
ENDBRANCH   1   4
BRANCH   1  23
ATOM     23  N   UNL     1      45.047 132.645  23.242  1.00  0.00    -0.167 N 
ATOM     24  H   UNL     1      44.248 133.222  23.588  1.00  0.00     0.458 HD
BRANCH  23  25
ATOM     25  C   UNL     1      46.331 133.285  23.219  1.00  0.00     0.207 A 
ATOM     26  C   UNL     1      47.023 133.396  22.008  1.00  0.00     0.081 A 
ATOM     27  C   UNL     1      46.937 133.729  24.402  1.00  0.00     0.081 A 
ATOM     28  C   UNL     1      48.291 133.983  21.969  1.00  0.00     0.035 A 
ATOM     29  C   UNL     1      48.205 134.317  24.367  1.00  0.00     0.035 A 
ATOM     30  C   UNL     1      48.899 134.451  23.150  1.00  0.00     0.065 A 
BRANCH  30  31
ATOM     31  N   UNL     1      50.206 135.063  23.131  1.00  0.00    -0.241 N 
ATOM     32  N   UNL     1      50.541 136.047  22.308  1.00  0.00    -0.177 NA
ATOM     33  C   UNL     1      51.262 134.765  23.918  1.00  0.00     0.115 A 
ATOM     34  C   UNL     1      51.820 136.383  22.560  1.00  0.00     0.135 A 
ATOM     35  C   UNL     1      52.311 135.591  23.577  1.00  0.00     0.042 A 
ENDBRANCH  30  31
ENDBRANCH  23  25
ENDBRANCH   1  23
TORSDOF 7
ENDMDL


