REMARK SMILES S/C(=N\c1ccccc1Cl)N1CCC[C@H](Cc2cc3ccccc3[nH]2)C1
REMARK SMILES IDX 11 1 12 2 13 3 14 4 15 5 26 6 2 7 1 8 3 10 4 11 5 12 9 13
REMARK SMILES IDX 6 14 8 15 7 16 10 17 16 18 17 19 18 20 25 21 19 22 24 23
REMARK SMILES IDX 20 24 23 25 21 26 22 27
REMARK H PARENT 1 9 25 28
ROOT
ATOM      1  N   UNL     1      -1.729  -1.269  -1.778  1.00  0.00    -0.351 N 
ATOM      2  C   UNL     1      -2.892  -2.141  -1.994  1.00  0.00     0.118 C 
ATOM      3  C   UNL     1      -2.900  -3.280  -0.965  1.00  0.00     0.022 C 
ATOM      4  C   UNL     1      -1.534  -3.987  -0.881  1.00  0.00     0.007 C 
ATOM      5  C   UNL     1      -0.363  -3.000  -0.677  1.00  0.00     0.014 C 
ATOM      6  C   UNL     1      -0.412  -1.920  -1.773  1.00  0.00     0.122 C 
ENDROOT
BRANCH   1   7
ATOM      7  C   UNL     1      -1.862   0.149  -1.534  1.00  0.00     0.161 C 
BRANCH   7   8
ATOM      8  S   UNL     1      -3.303   1.040  -2.156  1.00  0.00    -0.106 SA
ATOM      9  H   UNL     1      -2.681   1.280  -3.395  1.00  0.00     0.111 HD
ENDBRANCH   7   8
BRANCH   7  10
ATOM     10  N   UNL     1      -0.882   0.783  -0.954  1.00  0.00    -0.224 NA
BRANCH  10  11
ATOM     11  C   UNL     1      -0.827   2.167  -0.581  1.00  0.00     0.085 A 
ATOM     12  C   UNL     1      -1.875   2.768   0.138  1.00  0.00     0.030 A 
ATOM     13  C   UNL     1       0.354   2.894  -0.810  1.00  0.00     0.066 A 
ATOM     14  C   UNL     1      -1.766   4.093   0.568  1.00  0.00     0.002 A 
ATOM     15  C   UNL     1       0.458   4.220  -0.375  1.00  0.00     0.023 A 
ATOM     16  C   UNL     1      -0.603   4.820   0.307  1.00  0.00     0.002 A 
ATOM     17  Cl  UNL     1       1.716   2.155  -1.643  1.00  0.00    -0.082 Cl
ENDBRANCH  10  11
ENDBRANCH   7  10
ENDBRANCH   1   7
BRANCH   5  18
ATOM     18  C   UNL     1      -0.368  -2.410   0.757  1.00  0.00     0.059 C 
BRANCH  18  19
ATOM     19  C   UNL     1       0.749  -1.435   1.005  1.00  0.00     0.016 A 
ATOM     20  C   UNL     1       2.100  -1.653   0.733  1.00  0.00     0.031 A 
ATOM     21  N   UNL     1       0.555  -0.206   1.542  1.00  0.00    -0.358 N 
ATOM     22  C   UNL     1       2.728  -0.482   1.100  1.00  0.00    -0.000 A 
ATOM     23  C   UNL     1       1.768   0.368   1.584  1.00  0.00     0.046 A 
ATOM     24  C   UNL     1       4.067  -0.107   1.020  1.00  0.00     0.010 A 
ATOM     25  C   UNL     1       2.079   1.654   2.021  1.00  0.00     0.026 A 
ATOM     26  C   UNL     1       4.413   1.186   1.454  1.00  0.00     0.001 A 
ATOM     27  C   UNL     1       3.423   2.063   1.951  1.00  0.00     0.002 A 
ATOM     28  H   UNL     1      -0.351   0.217   1.842  1.00  0.00     0.166 HD
ENDBRANCH  18  19
ENDBRANCH   5  18
TORSDOF 6


