REMARK SMILES c1nc2cc(-c3ncc([C@H]4CO4)c[nH+]3)c[nH+]c2o1
REMARK SMILES IDX 1 1 2 2 3 3 4 4 5 5 15 6 16 7 17 8 18 9 6 11 7 12 14 13 8 14
REMARK SMILES IDX 13 15 9 16 10 18 11 19 12 20
REMARK H PARENT 16 10 14 17
ROOT
ATOM      1  C   UNL     1      -0.601   4.375   2.596  1.00  0.00     0.316 A 
ATOM      2  N   UNL     1      -0.160   3.117   2.875  1.00  0.00    -0.209 NA
ATOM      3  C   UNL     1      -0.648   2.414   1.839  1.00  0.00     0.180 A 
ATOM      4  C   UNL     1      -0.516   1.058   1.571  1.00  0.00     0.062 A 
ATOM      5  C   UNL     1      -1.132   0.559   0.396  1.00  0.00     0.134 A 
ATOM      6  C   UNL     1      -1.833   1.467  -0.448  1.00  0.00     0.326 A 
ATOM      7  N   UNL     1      -1.926   2.794  -0.127  1.00  0.00    -0.177 N 
ATOM      8  C   UNL     1      -1.332   3.232   1.008  1.00  0.00     0.399 A 
ATOM      9  O   UNL     1      -1.305   4.449   1.476  1.00  0.00    -0.391 OA
ATOM     10  H   UNL     1      -2.445   3.456  -0.746  1.00  0.00     0.457 HD
ENDROOT
BRANCH   5  11
ATOM     11  C   UNL     1      -1.034  -0.875   0.026  1.00  0.00     0.334 A 
ATOM     12  N   UNL     1      -1.108  -1.231  -1.286  1.00  0.00    -0.049 NA
ATOM     13  N   UNL     1      -0.888  -1.846   0.976  1.00  0.00    -0.243 N 
ATOM     14  C   UNL     1      -1.021  -2.529  -1.674  1.00  0.00     0.264 A 
ATOM     15  C   UNL     1      -0.796  -3.157   0.626  1.00  0.00     0.208 A 
ATOM     16  C   UNL     1      -0.843  -3.531  -0.719  1.00  0.00     0.066 A 
ATOM     17  H   UNL     1      -0.875  -1.607   1.992  1.00  0.00     0.312 HD
BRANCH  16  18
ATOM     18  C   UNL     1      -0.782  -4.974  -1.124  1.00  0.00     0.181 C 
ATOM     19  C   UNL     1       0.383  -5.371  -1.947  1.00  0.00     0.198 C 
ATOM     20  O   UNL     1       0.334  -5.626  -0.563  1.00  0.00    -0.368 OA
ENDBRANCH  16  18
ENDBRANCH   5  11
TORSDOF 2


