MODEL 1
REMARK VINA RESULT:      -9.9      0.000      0.000
REMARK SMILES C=Cc1cc(-c2ccc(C(C)=O)c3[nH]ncc23)ccc1[O-]
REMARK SMILES IDX 6 1 7 2 8 3 9 4 13 5 14 6 15 7 16 8 17 9 5 11 3 12 4 13
REMARK SMILES IDX 20 14 19 15 18 16 21 17 2 18 1 19 10 20 11 21 12 22
REMARK H PARENT 14 10
ROOT
ATOM      1  C   UNL     1      44.933 131.014  18.592  1.00  0.00    -0.007 A 
ATOM      2  C   UNL     1      45.844 130.460  19.515  1.00  0.00     0.010 A 
ATOM      3  C   UNL     1      45.574 130.479  20.900  1.00  0.00     0.015 A 
ATOM      4  C   UNL     1      44.379 131.043  21.405  1.00  0.00     0.043 A 
ATOM      5  C   UNL     1      43.488 131.583  20.460  1.00  0.00     0.076 A 
ATOM      6  N   UNL     1      42.298 132.183  20.659  1.00  0.00    -0.277 N 
ATOM      7  N   UNL     1      41.794 132.530  19.481  1.00  0.00    -0.183 NA
ATOM      8  C   UNL     1      42.664 132.159  18.515  1.00  0.00     0.144 A 
ATOM      9  C   UNL     1      43.758 131.567  19.115  1.00  0.00     0.028 A 
ATOM     10  H   UNL     1      41.823 132.375  21.566  1.00  0.00     0.190 HD
ENDROOT
BRANCH   1  11
ATOM     11  C   UNL     1      45.229 131.005  17.141  1.00  0.00    -0.017 A 
ATOM     12  C   UNL     1      46.527 130.144  15.251  1.00  0.00    -0.034 A 
ATOM     13  C   UNL     1      46.224 130.155  16.628  1.00  0.00     0.016 A 
ATOM     14  C   UNL     1      45.802 130.992  14.390  1.00  0.00    -0.102 A 
ATOM     15  C   UNL     1      44.819 131.844  14.901  1.00  0.00    -0.007 A 
ATOM     16  C   UNL     1      44.538 131.857  16.267  1.00  0.00     0.008 A 
ATOM     17  O   UNL     1      46.060 131.003  13.023  1.00  0.00    -0.872 OA
BRANCH  12  18
ATOM     18  C   UNL     1      47.560 129.239  14.686  1.00  0.00    -0.001 C 
ATOM     19  C   UNL     1      48.365 129.573  13.676  1.00  0.00     0.009 C 
ENDBRANCH  12  18
ENDBRANCH   1  11
BRANCH   4  20
ATOM     20  C   UNL     1      44.090 131.029  22.862  1.00  0.00     0.161 C 
ATOM     21  C   UNL     1      44.257 129.783  23.678  1.00  0.00     0.093 C 
ATOM     22  O   UNL     1      43.642 132.061  23.430  1.00  0.00    -0.294 OA
ENDBRANCH   4  20
TORSDOF 3
ENDMDL
MODEL 2
REMARK VINA RESULT:      -8.7      0.954      2.001
REMARK SMILES C=Cc1cc(-c2ccc(C(C)=O)c3[nH]ncc23)ccc1[O-]
REMARK SMILES IDX 6 1 7 2 8 3 9 4 13 5 14 6 15 7 16 8 17 9 5 11 3 12 4 13
REMARK SMILES IDX 20 14 19 15 18 16 21 17 2 18 1 19 10 20 11 21 12 22
REMARK H PARENT 14 10
ROOT
ATOM      1  C   UNL     1      44.817 130.996  19.019  1.00  0.00    -0.007 A 
ATOM      2  C   UNL     1      45.625 130.552  20.087  1.00  0.00     0.010 A 
ATOM      3  C   UNL     1      45.223 130.739  21.427  1.00  0.00     0.015 A 
ATOM      4  C   UNL     1      43.993 131.366  21.741  1.00  0.00     0.043 A 
ATOM      5  C   UNL     1      43.208 131.792  20.655  1.00  0.00     0.076 A 
ATOM      6  N   UNL     1      42.014 132.418  20.663  1.00  0.00    -0.277 N 
ATOM      7  N   UNL     1      41.633 132.622  19.408  1.00  0.00    -0.183 NA
ATOM      8  C   UNL     1      42.586 132.134  18.584  1.00  0.00     0.144 A 
ATOM      9  C   UNL     1      43.606 131.613  19.355  1.00  0.00     0.028 A 
ATOM     10  H   UNL     1      41.457 132.720  21.490  1.00  0.00     0.190 HD
ENDROOT
BRANCH   1  11
ATOM     11  C   UNL     1      45.253 130.811  17.616  1.00  0.00    -0.017 A 
ATOM     12  C   UNL     1      44.921 131.222  15.225  1.00  0.00    -0.034 A 
ATOM     13  C   UNL     1      44.526 131.399  16.567  1.00  0.00     0.016 A 
ATOM     14  C   UNL     1      46.070 130.455  14.951  1.00  0.00    -0.102 A 
ATOM     15  C   UNL     1      46.788 129.862  15.993  1.00  0.00    -0.007 A 
ATOM     16  C   UNL     1      46.380 130.032  17.316  1.00  0.00     0.008 A 
ATOM     17  O   UNL     1      46.502 130.265  13.642  1.00  0.00    -0.872 OA
BRANCH  12  18
ATOM     18  C   UNL     1      44.178 131.851  14.103  1.00  0.00    -0.001 C 
ATOM     19  C   UNL     1      42.925 131.534  13.774  1.00  0.00     0.009 C 
ENDBRANCH  12  18
ENDBRANCH   1  11
BRANCH   4  20
ATOM     20  C   UNL     1      43.564 131.529  23.154  1.00  0.00     0.161 C 
ATOM     21  C   UNL     1      44.237 130.780  24.263  1.00  0.00     0.093 C 
ATOM     22  O   UNL     1      42.581 132.265  23.437  1.00  0.00    -0.294 OA
ENDBRANCH   4  20
TORSDOF 3
ENDMDL
MODEL 3
REMARK VINA RESULT:      -8.4      2.166      6.813
REMARK SMILES C=Cc1cc(-c2ccc(C(C)=O)c3[nH]ncc23)ccc1[O-]
REMARK SMILES IDX 6 1 7 2 8 3 9 4 13 5 14 6 15 7 16 8 17 9 5 11 3 12 4 13
REMARK SMILES IDX 20 14 19 15 18 16 21 17 2 18 1 19 10 20 11 21 12 22
REMARK H PARENT 14 10
ROOT
ATOM      1  C   UNL     1      44.918 131.066  17.481  1.00  0.00    -0.007 A 
ATOM      2  C   UNL     1      46.186 130.467  17.630  1.00  0.00     0.010 A 
ATOM      3  C   UNL     1      46.950 130.097  16.502  1.00  0.00     0.015 A 
ATOM      4  C   UNL     1      46.475 130.326  15.189  1.00  0.00     0.043 A 
ATOM      5  C   UNL     1      45.210 130.930  15.073  1.00  0.00     0.076 A 
ATOM      6  N   UNL     1      44.521 131.250  13.960  1.00  0.00    -0.277 N 
ATOM      7  N   UNL     1      43.373 131.814  14.319  1.00  0.00    -0.183 NA
ATOM      8  C   UNL     1      43.317 131.853  15.669  1.00  0.00     0.144 A 
ATOM      9  C   UNL     1      44.469 131.282  16.172  1.00  0.00     0.028 A 
ATOM     10  H   UNL     1      44.796 131.090  12.969  1.00  0.00     0.190 HD
ENDROOT
BRANCH   1  11
ATOM     11  C   UNL     1      44.114 131.436  18.667  1.00  0.00    -0.017 A 
ATOM     12  C   UNL     1      43.840 131.508  21.100  1.00  0.00    -0.034 A 
ATOM     13  C   UNL     1      44.599 131.173  19.960  1.00  0.00     0.016 A 
ATOM     14  C   UNL     1      42.587 132.128  20.923  1.00  0.00    -0.102 A 
ATOM     15  C   UNL     1      42.100 132.382  19.638  1.00  0.00    -0.007 A 
ATOM     16  C   UNL     1      42.853 132.033  18.517  1.00  0.00     0.008 A 
ATOM     17  O   UNL     1      41.811 132.487  22.021  1.00  0.00    -0.872 OA
BRANCH  12  18
ATOM     18  C   UNL     1      44.342 131.256  22.475  1.00  0.00    -0.001 C 
ATOM     19  C   UNL     1      44.184 130.101  23.123  1.00  0.00     0.009 C 
ENDBRANCH  12  18
ENDBRANCH   1  11
BRANCH   4  20
ATOM     20  C   UNL     1      47.302 129.963  14.009  1.00  0.00     0.161 C 
ATOM     21  C   UNL     1      47.553 130.941  12.903  1.00  0.00     0.093 C 
ATOM     22  O   UNL     1      47.764 128.796  13.894  1.00  0.00    -0.294 OA
ENDBRANCH   4  20
TORSDOF 3
ENDMDL
MODEL 4
REMARK VINA RESULT:      -7.2      1.864      6.883
REMARK SMILES C=Cc1cc(-c2ccc(C(C)=O)c3[nH]ncc23)ccc1[O-]
REMARK SMILES IDX 6 1 7 2 8 3 9 4 13 5 14 6 15 7 16 8 17 9 5 11 3 12 4 13
REMARK SMILES IDX 20 14 19 15 18 16 21 17 2 18 1 19 10 20 11 21 12 22
REMARK H PARENT 14 10
ROOT
ATOM      1  C   UNL     1      45.498 130.698  17.722  1.00  0.00    -0.007 A 
ATOM      2  C   UNL     1      46.760 130.117  17.480  1.00  0.00     0.010 A 
ATOM      3  C   UNL     1      47.255 129.979  16.166  1.00  0.00     0.015 A 
ATOM      4  C   UNL     1      46.507 130.428  15.052  1.00  0.00     0.043 A 
ATOM      5  C   UNL     1      45.255 131.008  15.325  1.00  0.00     0.076 A 
ATOM      6  N   UNL     1      44.343 131.504  14.466  1.00  0.00    -0.277 N 
ATOM      7  N   UNL     1      43.309 131.962  15.162  1.00  0.00    -0.183 NA
ATOM      8  C   UNL     1      43.550 131.755  16.476  1.00  0.00     0.144 A 
ATOM      9  C   UNL     1      44.777 131.134  16.604  1.00  0.00     0.028 A 
ATOM     10  H   UNL     1      44.394 131.533  13.426  1.00  0.00     0.190 HD
ENDROOT
BRANCH   1  11
ATOM     11  C   UNL     1      44.978 130.825  19.102  1.00  0.00    -0.017 A 
ATOM     12  C   UNL     1      43.330 131.739  20.667  1.00  0.00    -0.034 A 
ATOM     13  C   UNL     1      43.831 131.597  19.357  1.00  0.00     0.016 A 
ATOM     14  C   UNL     1      43.992 131.078  21.721  1.00  0.00    -0.102 A 
ATOM     15  C   UNL     1      45.137 130.318  21.470  1.00  0.00    -0.007 A 
ATOM     16  C   UNL     1      45.632 130.197  20.172  1.00  0.00     0.008 A 
ATOM     17  O   UNL     1      43.524 131.181  23.028  1.00  0.00    -0.872 OA
BRANCH  12  18
ATOM     18  C   UNL     1      42.109 132.533  20.956  1.00  0.00    -0.001 C 
ATOM     19  C   UNL     1      41.456 133.249  20.039  1.00  0.00     0.009 C 
ENDBRANCH  12  18
ENDBRANCH   1  11
BRANCH   4  20
ATOM     20  C   UNL     1      47.052 130.307  13.674  1.00  0.00     0.161 C 
ATOM     21  C   UNL     1      48.266 129.478  13.387  1.00  0.00     0.093 C 
ATOM     22  O   UNL     1      46.527 130.951  12.727  1.00  0.00    -0.294 OA
ENDBRANCH   4  20
TORSDOF 3
ENDMDL
MODEL 5
REMARK VINA RESULT:      -7.2      2.523      7.023
REMARK SMILES C=Cc1cc(-c2ccc(C(C)=O)c3[nH]ncc23)ccc1[O-]
REMARK SMILES IDX 6 1 7 2 8 3 9 4 13 5 14 6 15 7 16 8 17 9 5 11 3 12 4 13
REMARK SMILES IDX 20 14 19 15 18 16 21 17 2 18 1 19 10 20 11 21 12 22
REMARK H PARENT 14 10
ROOT
ATOM      1  C   UNL     1      45.124 131.397  16.675  1.00  0.00    -0.007 A 
ATOM      2  C   UNL     1      45.841 132.438  16.048  1.00  0.00     0.010 A 
ATOM      3  C   UNL     1      46.668 132.180  14.934  1.00  0.00     0.015 A 
ATOM      4  C   UNL     1      46.795 130.873  14.405  1.00  0.00     0.043 A 
ATOM      5  C   UNL     1      46.064 129.858  15.048  1.00  0.00     0.076 A 
ATOM      6  N   UNL     1      46.008 128.542  14.765  1.00  0.00    -0.277 N 
ATOM      7  N   UNL     1      45.182 127.957  15.624  1.00  0.00    -0.183 NA
ATOM      8  C   UNL     1      44.707 128.897  16.471  1.00  0.00     0.144 A 
ATOM      9  C   UNL     1      45.266 130.114  16.134  1.00  0.00     0.028 A 
ATOM     10  H   UNL     1      46.518 128.027  14.017  1.00  0.00     0.190 HD
ENDROOT
BRANCH   1  11
ATOM     11  C   UNL     1      44.271 131.672  17.854  1.00  0.00    -0.017 A 
ATOM     12  C   UNL     1      44.000 131.814  20.283  1.00  0.00    -0.034 A 
ATOM     13  C   UNL     1      44.803 131.568  19.151  1.00  0.00     0.016 A 
ATOM     14  C   UNL     1      42.653 132.183  20.094  1.00  0.00    -0.102 A 
ATOM     15  C   UNL     1      42.122 132.278  18.805  1.00  0.00    -0.007 A 
ATOM     16  C   UNL     1      42.921 132.018  17.692  1.00  0.00     0.008 A 
ATOM     17  O   UNL     1      41.829 132.447  21.184  1.00  0.00    -0.872 OA
BRANCH  12  18
ATOM     18  C   UNL     1      44.547 131.729  21.662  1.00  0.00    -0.001 C 
ATOM     19  C   UNL     1      44.303 130.717  22.495  1.00  0.00     0.009 C 
ENDBRANCH  12  18
ENDBRANCH   1  11
BRANCH   4  20
ATOM     20  C   UNL     1      47.643 130.618  13.211  1.00  0.00     0.161 C 
ATOM     21  C   UNL     1      48.692 129.549  13.215  1.00  0.00     0.093 C 
ATOM     22  O   UNL     1      47.529 131.343  12.187  1.00  0.00    -0.294 OA
ENDBRANCH   4  20
TORSDOF 3
ENDMDL
MODEL 6
REMARK VINA RESULT:      -7.1      1.535      2.229
REMARK SMILES C=Cc1cc(-c2ccc(C(C)=O)c3[nH]ncc23)ccc1[O-]
REMARK SMILES IDX 6 1 7 2 8 3 9 4 13 5 14 6 15 7 16 8 17 9 5 11 3 12 4 13
REMARK SMILES IDX 20 14 19 15 18 16 21 17 2 18 1 19 10 20 11 21 12 22
REMARK H PARENT 14 10
ROOT
ATOM      1  C   UNL     1      44.071 131.478  18.052  1.00  0.00    -0.007 A 
ATOM      2  C   UNL     1      42.732 131.880  18.238  1.00  0.00     0.010 A 
ATOM      3  C   UNL     1      42.196 132.036  19.534  1.00  0.00     0.015 A 
ATOM      4  C   UNL     1      42.985 131.805  20.686  1.00  0.00     0.043 A 
ATOM      5  C   UNL     1      44.318 131.411  20.468  1.00  0.00     0.076 A 
ATOM      6  N   UNL     1      45.276 131.120  21.370  1.00  0.00    -0.277 N 
ATOM      7  N   UNL     1      46.390 130.805  20.720  1.00  0.00    -0.183 NA
ATOM      8  C   UNL     1      46.150 130.886  19.392  1.00  0.00     0.144 A 
ATOM      9  C   UNL     1      44.832 131.255  19.206  1.00  0.00     0.028 A 
ATOM     10  H   UNL     1      45.197 131.117  22.408  1.00  0.00     0.190 HD
ENDROOT
BRANCH   1  11
ATOM     11  C   UNL     1      44.624 131.300  16.690  1.00  0.00    -0.017 A 
ATOM     12  C   UNL     1      46.392 130.467  15.215  1.00  0.00    -0.034 A 
ATOM     13  C   UNL     1      45.847 130.633  16.505  1.00  0.00     0.016 A 
ATOM     14  C   UNL     1      45.681 130.969  14.108  1.00  0.00    -0.102 A 
ATOM     15  C   UNL     1      44.469 131.640  14.292  1.00  0.00    -0.007 A 
ATOM     16  C   UNL     1      43.946 131.812  15.574  1.00  0.00     0.008 A 
ATOM     17  O   UNL     1      46.176 130.816  12.816  1.00  0.00    -0.872 OA
BRANCH  12  18
ATOM     18  C   UNL     1      47.673 129.748  14.995  1.00  0.00    -0.001 C 
ATOM     19  C   UNL     1      48.150 129.434  13.790  1.00  0.00     0.009 C 
ENDBRANCH  12  18
ENDBRANCH   1  11
BRANCH   4  20
ATOM     20  C   UNL     1      42.419 132.004  22.045  1.00  0.00     0.161 C 
ATOM     21  C   UNL     1      42.891 131.191  23.212  1.00  0.00     0.093 C 
ATOM     22  O   UNL     1      41.485 132.829  22.228  1.00  0.00    -0.294 OA
ENDBRANCH   4  20
TORSDOF 3
ENDMDL


