REMARK SMILES NNc1ccccc1-c1[nH]c2ccccc2[nH+]1
REMARK SMILES IDX 3 1 4 2 5 3 6 4 7 5 8 6 2 7 1 9 9 12 10 13 17 14 11 15 16 16
REMARK SMILES IDX 12 17 15 18 13 19 14 20
REMARK H PARENT 2 8 1 10 1 11 10 21 17 22
ROOT
ATOM      1  C   UNL     1      -2.245   0.179   0.013  1.00  0.00     0.064 A 
ATOM      2  C   UNL     1      -3.567  -0.244   0.254  1.00  0.00     0.028 A 
ATOM      3  C   UNL     1      -3.836  -1.558   0.643  1.00  0.00     0.002 A 
ATOM      4  C   UNL     1      -2.795  -2.470   0.795  1.00  0.00     0.001 A 
ATOM      5  C   UNL     1      -1.477  -2.068   0.577  1.00  0.00     0.019 A 
ATOM      6  C   UNL     1      -1.184  -0.745   0.204  1.00  0.00     0.088 A 
ENDROOT
BRANCH   1   7
ATOM      7  N   UNL     1      -1.986   1.510  -0.484  1.00  0.00    -0.323 N 
ATOM      8  H   UNL     1      -1.068   1.735  -0.923  1.00  0.00     0.181 HD
BRANCH   7   9
ATOM      9  N   UNL     1      -2.933   2.546  -0.415  1.00  0.00    -0.250 NA
ATOM     10  H   UNL     1      -3.271   2.612   0.572  1.00  0.00     0.143 HD
ATOM     11  H   UNL     1      -3.738   2.292  -1.032  1.00  0.00     0.143 HD
ENDBRANCH   7   9
ENDBRANCH   1   7
BRANCH   6  12
ATOM     12  C   UNL     1       0.236  -0.354   0.066  1.00  0.00     0.287 A 
ATOM     13  N   UNL     1       0.763   0.777   0.602  1.00  0.00    -0.236 N 
ATOM     14  N   UNL     1       1.169  -1.129  -0.545  1.00  0.00    -0.236 N 
ATOM     15  C   UNL     1       2.068   0.707   0.296  1.00  0.00     0.172 A 
ATOM     16  C   UNL     1       2.313  -0.443  -0.397  1.00  0.00     0.172 A 
ATOM     17  C   UNL     1       3.081   1.609   0.611  1.00  0.00     0.056 A 
ATOM     18  C   UNL     1       3.590  -0.784  -0.835  1.00  0.00     0.056 A 
ATOM     19  C   UNL     1       4.386   1.298   0.182  1.00  0.00     0.005 A 
ATOM     20  C   UNL     1       4.639   0.107  -0.538  1.00  0.00     0.005 A 
ATOM     21  H   UNL     1       0.277   1.518   1.155  1.00  0.00     0.312 HD
ATOM     22  H   UNL     1       1.032  -2.049  -1.022  1.00  0.00     0.312 HD
ENDBRANCH   6  12
TORSDOF 3


