REMARK SMILES C=C1CC[C@@H](Nc2cccc(/N=C(O)/C(C)=C/C)c2O)C[C@H]1F
REMARK SMILES IDX 12 1 13 2 14 3 15 5 16 6 17 7 18 8 11 9 10 10 19 11 9 12
REMARK SMILES IDX 7 13 8 14 20 15 6 17 5 19 4 20 21 21 3 22 22 23 2 24 23 25
REMARK SMILES IDX 1 26
REMARK H PARENT 14 4 20 16 6 18
ROOT
ATOM      1  N   UNL     1      -2.216  -0.569  -0.124  1.00  0.00    -0.210 NA
ENDROOT
BRANCH   1   2
ATOM      2  C   UNL     1      -2.164  -1.800  -0.542  1.00  0.00     0.214 C 
BRANCH   2   3
ATOM      3  O   UNL     1      -1.591  -2.095  -1.783  1.00  0.00    -0.493 OA
ATOM      4  H   UNL     1      -1.623  -3.021  -2.188  1.00  0.00     0.295 HD
ENDBRANCH   2   3
BRANCH   2   5
ATOM      5  C   UNL     1      -2.757  -2.875   0.294  1.00  0.00     0.007 C 
ATOM      6  C   UNL     1      -3.900  -2.537   1.220  1.00  0.00     0.050 C 
BRANCH   5   7
ATOM      7  C   UNL     1      -2.210  -4.106   0.286  1.00  0.00    -0.022 C 
ATOM      8  C   UNL     1      -2.710  -5.238   1.133  1.00  0.00     0.036 C 
ENDBRANCH   5   7
ENDBRANCH   2   5
ENDBRANCH   1   2
BRANCH   1   9
ATOM      9  C   UNL     1      -1.649   0.558  -0.808  1.00  0.00     0.111 A 
ATOM     10  C   UNL     1      -2.441   1.695  -0.988  1.00  0.00     0.032 A 
ATOM     11  C   UNL     1      -0.297   0.573  -1.216  1.00  0.00     0.164 A 
ATOM     12  C   UNL     1      -1.925   2.820  -1.628  1.00  0.00     0.005 A 
ATOM     13  C   UNL     1       0.223   1.706  -1.888  1.00  0.00     0.079 A 
ATOM     14  C   UNL     1      -0.608   2.824  -2.087  1.00  0.00     0.030 A 
BRANCH  11  15
ATOM     15  O   UNL     1       0.514  -0.520  -0.899  1.00  0.00    -0.504 OA
ATOM     16  H   UNL     1       1.512  -0.541  -1.063  1.00  0.00     0.293 HD
ENDBRANCH  11  15
BRANCH  13  17
ATOM     17  N   UNL     1       1.575   1.702  -2.388  1.00  0.00    -0.379 N 
ATOM     18  H   UNL     1       1.956   0.798  -2.747  1.00  0.00     0.160 HD
BRANCH  17  19
ATOM     19  C   UNL     1       2.422   2.903  -2.470  1.00  0.00     0.082 C 
ATOM     20  C   UNL     1       3.796   2.575  -3.093  1.00  0.00     0.029 C 
ATOM     21  C   UNL     1       2.609   3.560  -1.085  1.00  0.00     0.067 C 
ATOM     22  C   UNL     1       4.659   1.688  -2.186  1.00  0.00     0.035 C 
ATOM     23  C   UNL     1       3.444   2.699  -0.125  1.00  0.00     0.194 C 
ATOM     24  C   UNL     1       4.725   2.250  -0.786  1.00  0.00    -0.043 C 
ATOM     25  F   UNL     1       2.719   1.589   0.271  1.00  0.00    -0.243 F 
ATOM     26  C   UNL     1       5.868   2.194  -0.085  1.00  0.00     0.011 C 
ENDBRANCH  17  19
ENDBRANCH  13  17
ENDBRANCH   1   9
TORSDOF 8


