REMARK SMILES C=C[C@@H]1C[NH2+][C@H](c2ccc3ncnn3c2)N(C(=O)OCCCCCC)C1
REMARK SMILES IDX 20 1 19 2 17 3 18 4 16 5 3 6 4 7 26 8 5 9 6 10 2 13 1 14
REMARK SMILES IDX 7 15 8 16 15 17 9 18 14 19 10 20 13 21 11 22 12 23 21 24
REMARK SMILES IDX 22 25 23 26 24 27 25 28
REMARK H PARENT 5 11 5 12
ROOT
ATOM      1  C   UNL     1       0.543   2.578   2.282  1.00  0.00     0.235 C 
ENDROOT
BRANCH   1   2
ATOM      2  O   UNL     1      -0.293   1.972   1.301  1.00  0.00    -0.449 OA
BRANCH   2   3
ATOM      3  C   UNL     1      -1.438   1.243   1.637  1.00  0.00     0.414 C 
ATOM      4  O   UNL     1      -1.826   1.199   2.837  1.00  0.00    -0.224 OA
BRANCH   3   5
ATOM      5  N   UNL     1      -2.158   0.526   0.613  1.00  0.00    -0.253 N 
ATOM      6  C   UNL     1      -4.491   0.112  -0.131  1.00  0.00     0.086 C 
ATOM      7  C   UNL     1      -3.886   0.377  -1.535  1.00  0.00     0.272 C 
ATOM      8  C   UNL     1      -3.404  -0.188   0.925  1.00  0.00     0.143 C 
ATOM      9  N   UNL     1      -2.550  -0.218  -1.672  1.00  0.00    -0.322 N 
ATOM     10  C   UNL     1      -1.597   0.433  -0.751  1.00  0.00     0.323 C 
ATOM     11  H   UNL     1      -2.223  -0.079  -2.658  1.00  0.00     0.348 HD
ATOM     12  H   UNL     1      -2.605  -1.248  -1.488  1.00  0.00     0.348 HD
BRANCH   6  13
ATOM     13  C   UNL     1      -5.502  -1.014  -0.170  1.00  0.00    -0.024 C 
ATOM     14  C   UNL     1      -6.356  -1.219   0.837  1.00  0.00     0.004 C 
ENDBRANCH   6  13
BRANCH  10  15
ATOM     15  C   UNL     1      -0.277  -0.315  -0.765  1.00  0.00     0.050 A 
ATOM     16  C   UNL     1       0.700   0.006  -1.739  1.00  0.00     0.017 A 
ATOM     17  C   UNL     1      -0.016  -1.379   0.128  1.00  0.00     0.127 A 
ATOM     18  C   UNL     1       1.918  -0.691  -1.792  1.00  0.00     0.050 A 
ATOM     19  N   UNL     1       1.180  -2.011   0.038  1.00  0.00    -0.221 N 
ATOM     20  C   UNL     1       2.117  -1.706  -0.863  1.00  0.00     0.155 A 
ATOM     21  N   UNL     1       1.623  -2.992   0.797  1.00  0.00    -0.155 NA
ATOM     22  N   UNL     1       3.213  -2.473  -0.730  1.00  0.00    -0.215 NA
ATOM     23  C   UNL     1       2.861  -3.263   0.319  1.00  0.00     0.247 A 
ENDBRANCH  10  15
ENDBRANCH   3   5
ENDBRANCH   2   3
ENDBRANCH   1   2
BRANCH   1  24
ATOM     24  C   UNL     1       1.725   3.292   1.618  1.00  0.00     0.042 C 
BRANCH  24  25
ATOM     25  C   UNL     1       2.500   2.421   0.612  1.00  0.00     0.003 C 
BRANCH  25  26
ATOM     26  C   UNL     1       3.017   1.083   1.169  1.00  0.00    -0.000 C 
BRANCH  26  27
ATOM     27  C   UNL     1       4.006   1.256   2.328  1.00  0.00    -0.003 C 
ATOM     28  C   UNL     1       4.587  -0.090   2.753  1.00  0.00     0.004 C 
ENDBRANCH  26  27
ENDBRANCH  25  26
ENDBRANCH  24  25
ENDBRANCH   1  24
TORSDOF 9


