REMARK SMILES C/C=C/C(=O)N1Cc2[nH+]cc(-c3ccc4[nH]ccc4c3)cc2C1=O
REMARK SMILES IDX 4 1 5 2 3 3 2 4 1 5 6 6 23 7 7 8 22 9 8 10 21 11 9 12 11 13
REMARK SMILES IDX 10 14 24 15 12 17 13 18 20 19 14 20 19 21 15 22 18 23 16 24
REMARK SMILES IDX 17 25
REMARK H PARENT 9 16 16 26
ROOT
ATOM      1  C   UNL     1      -0.290  -0.121   4.588  1.00  0.00     0.253 C 
ATOM      2  O   UNL     1       0.728  -0.443   5.260  1.00  0.00    -0.269 OA
ENDROOT
BRANCH   1   3
ATOM      3  C   UNL     1      -1.551   0.216   5.283  1.00  0.00     0.067 C 
BRANCH   3   4
ATOM      4  C   UNL     1      -1.661   0.193   6.615  1.00  0.00    -0.025 C 
ATOM      5  C   UNL     1      -2.952   0.539   7.285  1.00  0.00     0.036 C 
ENDBRANCH   3   4
ENDBRANCH   1   3
BRANCH   1   6
ATOM      6  N   UNL     1      -0.211  -0.085   3.153  1.00  0.00    -0.264 N 
ATOM      7  C   UNL     1       0.946  -0.388   2.370  1.00  0.00     0.267 C 
ATOM      8  C   UNL     1      -1.307   0.269   2.238  1.00  0.00     0.238 C 
ATOM      9  C   UNL     1       0.638  -0.241   0.971  1.00  0.00     0.110 A 
ATOM     10  C   UNL     1      -0.676   0.141   0.883  1.00  0.00     0.212 A 
ATOM     11  C   UNL     1       1.416  -0.424  -0.166  1.00  0.00     0.035 A 
ATOM     12  N   UNL     1      -1.267   0.356  -0.320  1.00  0.00    -0.212 N 
ATOM     13  C   UNL     1       0.815  -0.205  -1.424  1.00  0.00     0.046 A 
ATOM     14  C   UNL     1      -0.548   0.190  -1.470  1.00  0.00     0.315 A 
ATOM     15  O   UNL     1       2.063  -0.731   2.842  1.00  0.00    -0.268 OA
ATOM     16  H   UNL     1      -2.268   0.649  -0.367  1.00  0.00     0.453 HD
BRANCH  13  17
ATOM     17  C   UNL     1       1.594  -0.386  -2.675  1.00  0.00    -0.012 A 
ATOM     18  C   UNL     1       2.951   0.035  -2.744  1.00  0.00     0.011 A 
ATOM     19  C   UNL     1       0.994  -0.980  -3.811  1.00  0.00     0.019 A 
ATOM     20  C   UNL     1       3.699  -0.133  -3.924  1.00  0.00     0.027 A 
ATOM     21  C   UNL     1       1.765  -1.129  -4.961  1.00  0.00    -0.000 A 
ATOM     22  C   UNL     1       3.069  -0.721  -5.016  1.00  0.00     0.045 A 
ATOM     23  C   UNL     1       1.449  -1.668  -6.189  1.00  0.00     0.028 A 
ATOM     24  N   UNL     1       3.598  -0.974  -6.225  1.00  0.00    -0.361 N 
ATOM     25  C   UNL     1       2.610  -1.553  -6.946  1.00  0.00     0.083 A 
ATOM     26  H   UNL     1       4.570  -0.768  -6.546  1.00  0.00     0.166 HD
ENDBRANCH  13  17
ENDBRANCH   1   6
TORSDOF 4


