REMARK SMILES c1cc2cc(CN3CC[C@H]4CCC[C@H]43)ccc2[nH]1
REMARK SMILES IDX 1 1 2 2 3 3 4 4 5 5 15 6 16 7 17 8 18 9 6 11 7 12 8 13 14 14
REMARK SMILES IDX 9 15 13 16 10 17 12 18 11 19
REMARK H PARENT 18 10
ROOT
ATOM      1  C   UNL     1       0.033  -6.182  -3.107  1.00  0.00     0.083 A 
ATOM      2  C   UNL     1      -0.355  -4.959  -3.646  1.00  0.00     0.028 A 
ATOM      3  C   UNL     1       0.118  -4.011  -2.765  1.00  0.00    -0.000 A 
ATOM      4  C   UNL     1       0.024  -2.623  -2.790  1.00  0.00     0.015 A 
ATOM      5  C   UNL     1       0.610  -1.898  -1.729  1.00  0.00    -0.033 A 
ATOM      6  C   UNL     1       1.271  -2.592  -0.682  1.00  0.00     0.007 A 
ATOM      7  C   UNL     1       1.348  -3.997  -0.690  1.00  0.00     0.027 A 
ATOM      8  C   UNL     1       0.757  -4.676  -1.753  1.00  0.00     0.045 A 
ATOM      9  N   UNL     1       0.712  -6.003  -1.951  1.00  0.00    -0.361 N 
ATOM     10  H   UNL     1       1.115  -6.748  -1.339  1.00  0.00     0.166 HD
ENDROOT
BRANCH   5  11
ATOM     11  C   UNL     1       0.508  -0.395  -1.704  1.00  0.00     0.120 C 
BRANCH  11  12
ATOM     12  N   UNL     1      -0.905   0.024  -1.592  1.00  0.00    -0.296 NA
ATOM     13  C   UNL     1      -1.055   1.472  -1.811  1.00  0.00     0.085 C 
ATOM     14  C   UNL     1      -1.470  -0.272  -0.255  1.00  0.00     0.060 C 
ATOM     15  C   UNL     1      -1.256   2.124  -0.460  1.00  0.00     0.021 C 
ATOM     16  C   UNL     1      -2.740  -1.103  -0.405  1.00  0.00     0.019 C 
ATOM     17  C   UNL     1      -1.890   1.042   0.397  1.00  0.00     0.007 C 
ATOM     18  C   UNL     1      -3.877  -0.102  -0.470  1.00  0.00     0.002 C 
ATOM     19  C   UNL     1      -3.428   1.071   0.386  1.00  0.00     0.005 C 
ENDBRANCH  11  12
ENDBRANCH   5  11
TORSDOF 2


