REMARK SMILES CC(=O)N1CNC[C@H](F)[C@H]1c1cc2ccc(F)cc2[nH]1
REMARK SMILES IDX 4 1 5 2 6 3 7 4 8 5 9 6 10 7 2 9 1 10 3 11 11 12 12 13 20 14
REMARK SMILES IDX 13 15 19 16 14 17 18 18 15 19 16 20 17 22
REMARK H PARENT 6 8 20 21
ROOT
ATOM      1  N   UNL     1      -0.213  -2.139   1.103  1.00  0.00    -0.319 N 
ATOM      2  C   UNL     1       0.192  -2.715   2.396  1.00  0.00     0.205 C 
ATOM      3  N   UNL     1       1.443  -2.115   2.871  1.00  0.00    -0.297 NA
ATOM      4  C   UNL     1       1.294  -0.664   2.987  1.00  0.00     0.123 C 
ATOM      5  C   UNL     1       1.078  -0.067   1.602  1.00  0.00     0.209 C 
ATOM      6  F   UNL     1       0.941   1.308   1.710  1.00  0.00    -0.243 F 
ATOM      7  C   UNL     1      -0.176  -0.667   0.940  1.00  0.00     0.168 C 
ATOM      8  H   UNL     1       1.635  -2.494   3.828  1.00  0.00     0.124 HD
ENDROOT
BRANCH   1   9
ATOM      9  C   UNL     1      -1.054  -2.966   0.269  1.00  0.00     0.221 C 
ATOM     10  C   UNL     1      -2.355  -2.467  -0.285  1.00  0.00     0.114 C 
ATOM     11  O   UNL     1      -0.690  -4.140  -0.009  1.00  0.00    -0.275 OA
ENDBRANCH   1   9
BRANCH   7  12
ATOM     12  C   UNL     1      -0.183  -0.269  -0.515  1.00  0.00     0.042 A 
ATOM     13  C   UNL     1      -0.987   0.727  -1.067  1.00  0.00     0.034 A 
ATOM     14  N   UNL     1       0.632  -0.812  -1.452  1.00  0.00    -0.356 N 
ATOM     15  C   UNL     1      -0.639   0.764  -2.399  1.00  0.00    -0.000 A 
ATOM     16  C   UNL     1       0.340  -0.176  -2.597  1.00  0.00     0.049 A 
ATOM     17  C   UNL     1      -1.115   1.560  -3.439  1.00  0.00     0.013 A 
ATOM     18  C   UNL     1       0.910  -0.386  -3.852  1.00  0.00     0.065 A 
ATOM     19  C   UNL     1      -0.559   1.371  -4.717  1.00  0.00     0.040 A 
ATOM     20  C   UNL     1       0.450   0.402  -4.924  1.00  0.00     0.125 A 
ATOM     21  H   UNL     1       1.340  -1.567  -1.312  1.00  0.00     0.166 HD
ATOM     22  F   UNL     1       0.977   0.231  -6.161  1.00  0.00    -0.207 F 
ENDBRANCH   7  12
TORSDOF 2


