REMARK SMILES [N-]=[N+]=Nc1nccc2ccc(-c3cccc([C@H]4CO4)c3)cc12
REMARK SMILES IDX 6 1 5 2 4 3 22 4 21 5 11 6 10 7 9 8 8 9 7 10 3 11 2 12 1 13
REMARK SMILES IDX 12 14 13 15 20 16 14 17 16 18 15 19 17 20 19 21 18 22
REMARK H PARENT
ROOT
ATOM      1  C   UNL     1       0.705  -4.900  -1.021  1.00  0.00     0.112 A 
ATOM      2  N   UNL     1       1.225  -3.913  -1.796  1.00  0.00    -0.254 NA
ATOM      3  C   UNL     1       0.942  -2.597  -1.584  1.00  0.00     0.134 A 
ATOM      4  C   UNL     1       0.082  -2.230  -0.528  1.00  0.00     0.010 A 
ATOM      5  C   UNL     1      -0.242  -0.885  -0.268  1.00  0.00     0.019 A 
ATOM      6  C   UNL     1      -1.104  -0.546   0.792  1.00  0.00    -0.018 A 
ATOM      7  C   UNL     1      -1.642  -1.570   1.590  1.00  0.00     0.009 A 
ATOM      8  C   UNL     1      -1.327  -2.907   1.341  1.00  0.00     0.009 A 
ATOM      9  C   UNL     1      -0.469  -3.246   0.287  1.00  0.00    -0.015 A 
ATOM     10  C   UNL     1      -0.151  -4.586   0.034  1.00  0.00     0.029 A 
ENDROOT
BRANCH   3  11
ATOM     11  N   UNL     1       1.522  -1.600  -2.434  1.00  0.00    -0.040 NA
BRANCH  11  12
ATOM     12  N   UNL     1       2.275  -1.903  -3.359  1.00  0.00     0.007 N 
ATOM     13  N   UNL     1       3.027  -2.206  -4.284  1.00  0.00    -0.003 NA
ENDBRANCH  11  12
ENDBRANCH   3  11
BRANCH   6  14
ATOM     14  C   UNL     1      -1.441   0.875   1.064  1.00  0.00    -0.018 A 
ATOM     15  C   UNL     1      -2.758   1.246   1.390  1.00  0.00     0.009 A 
ATOM     16  C   UNL     1      -0.449   1.871   0.996  1.00  0.00     0.015 A 
ATOM     17  C   UNL     1      -3.076   2.584   1.636  1.00  0.00     0.001 A 
ATOM     18  C   UNL     1      -0.764   3.212   1.262  1.00  0.00    -0.016 A 
ATOM     19  C   UNL     1      -2.086   3.565   1.566  1.00  0.00     0.006 A 
BRANCH  18  20
ATOM     20  C   UNL     1       0.291   4.273   1.159  1.00  0.00     0.174 C 
ATOM     21  O   UNL     1       1.430   3.954   1.926  1.00  0.00    -0.368 OA
ATOM     22  C   UNL     1       0.615   4.994   2.412  1.00  0.00     0.198 C 
ENDBRANCH  18  20
ENDBRANCH   6  14
TORSDOF 4


