MODEL 1
REMARK VINA RESULT:       0.5      0.000      0.000
REMARK SMILES CC1=CCC=C[C@H]1C(=O)Oc1cc(F)c([NH2+]c2ccc3cc[nH]c3c2)c(-c2ccc(C(N)=O)cc2)c1O
REMARK SMILES IDX 11 1 12 2 13 3 14 4 15 5 26 6 36 7 10 8 8 9 9 10 7 11 2 12
REMARK SMILES IDX 3 13 4 14 6 15 5 16 1 17 37 18 27 20 28 21 35 22 29 23 34 24
REMARK SMILES IDX 30 25 31 26 32 27 33 28 16 31 17 34 18 35 25 36 19 37 24 38
REMARK SMILES IDX 20 39 23 40 21 41 22 42
REMARK H PARENT 37 19 32 29 32 30 16 32 16 33 23 43
ROOT
ATOM      1  C   UNL     1      47.054 133.541  22.794  1.00  0.00     0.176 A 
ATOM      2  C   UNL     1      47.044 133.954  21.454  1.00  0.00     0.097 A 
ATOM      3  C   UNL     1      46.068 133.486  20.574  1.00  0.00     0.188 A 
ATOM      4  F   UNL     1      46.108 133.900  19.281  1.00  0.00    -0.200 F 
ATOM      5  C   UNL     1      45.063 132.602  21.016  1.00  0.00     0.182 A 
ATOM      6  C   UNL     1      45.060 132.196  22.379  1.00  0.00     0.092 A 
ATOM      7  C   UNL     1      46.055 132.678  23.260  1.00  0.00     0.172 A 
ENDROOT
BRANCH   1   8
ATOM      8  O   UNL     1      48.010 134.002  23.713  1.00  0.00    -0.422 OA
BRANCH   8   9
ATOM      9  C   UNL     1      49.096 134.843  23.429  1.00  0.00     0.322 C 
ATOM     10  O   UNL     1      49.170 135.463  22.333  1.00  0.00    -0.251 OA
BRANCH   9  11
ATOM     11  C   UNL     1      50.234 134.933  24.403  1.00  0.00     0.147 C 
ATOM     12  C   UNL     1      51.252 133.835  24.128  1.00  0.00    -0.059 C 
ATOM     13  C   UNL     1      52.348 134.088  23.385  1.00  0.00    -0.023 C 
ATOM     14  C   UNL     1      52.595 135.447  22.781  1.00  0.00     0.054 C 
ATOM     15  C   UNL     1      50.853 136.308  24.326  1.00  0.00    -0.012 C 
ATOM     16  C   UNL     1      51.949 136.543  23.588  1.00  0.00    -0.026 C 
ATOM     17  C   UNL     1      51.001 132.439  24.625  1.00  0.00     0.040 C 
ENDBRANCH   9  11
ENDBRANCH   8   9
ENDBRANCH   1   8
BRANCH   7  18
ATOM     18  O   UNL     1      46.069 132.321  24.612  1.00  0.00    -0.504 OA
ATOM     19  H   UNL     1      46.120 131.362  24.932  1.00  0.00     0.293 HD
ENDBRANCH   7  18
BRANCH   6  20
ATOM     20  C   UNL     1      44.045 131.244  22.876  1.00  0.00    -0.008 A 
ATOM     21  C   UNL     1      42.797 131.715  23.308  1.00  0.00     0.010 A 
ATOM     22  C   UNL     1      44.320 129.871  22.919  1.00  0.00     0.010 A 
ATOM     23  C   UNL     1      41.838 130.822  23.793  1.00  0.00     0.014 A 
ATOM     24  C   UNL     1      43.362 128.977  23.406  1.00  0.00     0.014 A 
ATOM     25  C   UNL     1      42.106 129.442  23.842  1.00  0.00     0.039 A 
BRANCH  25  26
ATOM     26  C   UNL     1      41.081 128.509  24.365  1.00  0.00     0.248 C 
ATOM     27  N   UNL     1      39.741 128.939  24.620  1.00  0.00    -0.366 N 
ATOM     28  O   UNL     1      41.391 127.311  24.610  1.00  0.00    -0.270 OA
ATOM     29  H   UNL     1      39.470 129.946  24.565  1.00  0.00     0.159 HD
ATOM     30  H   UNL     1      39.031 128.252  24.960  1.00  0.00     0.159 HD
ENDBRANCH  25  26
ENDBRANCH   6  20
BRANCH   5  31
ATOM     31  N   UNL     1      44.065 132.118  20.081  1.00  0.00    -0.278 N 
ATOM     32  H   UNL     1      43.418 132.883  19.782  1.00  0.00     0.358 HD
ATOM     33  H   UNL     1      43.470 131.404  20.560  1.00  0.00     0.358 HD
BRANCH  31  34
ATOM     34  C   UNL     1      44.679 131.572  18.894  1.00  0.00     0.136 A 
ATOM     35  C   UNL     1      45.697 130.585  19.004  1.00  0.00     0.069 A 
ATOM     36  C   UNL     1      44.258 131.994  17.609  1.00  0.00     0.094 A 
ATOM     37  C   UNL     1      46.314 130.055  17.858  1.00  0.00     0.016 A 
ATOM     38  C   UNL     1      44.895 131.450  16.496  1.00  0.00     0.051 A 
ATOM     39  C   UNL     1      45.888 130.518  16.618  1.00  0.00    -0.000 A 
ATOM     40  N   UNL     1      44.663 131.736  15.203  1.00  0.00    -0.361 N 
ATOM     41  C   UNL     1      46.307 130.192  15.347  1.00  0.00     0.028 A 
ATOM     42  C   UNL     1      45.524 130.969  14.496  1.00  0.00     0.083 A 
ATOM     43  H   UNL     1      43.954 132.397  14.818  1.00  0.00     0.166 HD
ENDBRANCH  31  34
ENDBRANCH   5  31
TORSDOF 8
ENDMDL
MODEL 2
REMARK VINA RESULT:       1.0      5.741      9.267
REMARK SMILES CC1=CCC=C[C@H]1C(=O)Oc1cc(F)c([NH2+]c2ccc3cc[nH]c3c2)c(-c2ccc(C(N)=O)cc2)c1O
REMARK SMILES IDX 11 1 12 2 13 3 14 4 15 5 26 6 36 7 10 8 8 9 9 10 7 11 2 12
REMARK SMILES IDX 3 13 4 14 6 15 5 16 1 17 37 18 27 20 28 21 35 22 29 23 34 24
REMARK SMILES IDX 30 25 31 26 32 27 33 28 16 31 17 34 18 35 25 36 19 37 24 38
REMARK SMILES IDX 20 39 23 40 21 41 22 42
REMARK H PARENT 37 19 32 29 32 30 16 32 16 33 23 43
ROOT
ATOM      1  C   UNL     1      46.210 124.355  21.994  1.00  0.00     0.176 A 
ATOM      2  C   UNL     1      45.526 123.533  22.902  1.00  0.00     0.097 A 
ATOM      3  C   UNL     1      44.557 124.066  23.751  1.00  0.00     0.188 A 
ATOM      4  F   UNL     1      43.932 123.234  24.624  1.00  0.00    -0.200 F 
ATOM      5  C   UNL     1      44.232 125.437  23.703  1.00  0.00     0.182 A 
ATOM      6  C   UNL     1      44.910 126.269  22.772  1.00  0.00     0.092 A 
ATOM      7  C   UNL     1      45.891 125.716  21.917  1.00  0.00     0.172 A 
ENDROOT
BRANCH   1   8
ATOM      8  O   UNL     1      47.181 123.853  21.113  1.00  0.00    -0.422 OA
BRANCH   8   9
ATOM      9  C   UNL     1      48.530 124.233  21.062  1.00  0.00     0.322 C 
ATOM     10  O   UNL     1      48.947 125.037  20.184  1.00  0.00    -0.251 OA
BRANCH   9  11
ATOM     11  C   UNL     1      49.511 123.602  22.006  1.00  0.00     0.147 C 
ATOM     12  C   UNL     1      50.915 123.652  21.420  1.00  0.00    -0.059 C 
ATOM     13  C   UNL     1      51.768 124.635  21.769  1.00  0.00    -0.023 C 
ATOM     14  C   UNL     1      51.363 125.727  22.726  1.00  0.00     0.054 C 
ATOM     15  C   UNL     1      49.435 124.293  23.346  1.00  0.00    -0.012 C 
ATOM     16  C   UNL     1      50.297 125.265  23.684  1.00  0.00    -0.026 C 
ATOM     17  C   UNL     1      51.332 122.643  20.386  1.00  0.00     0.040 C 
ENDBRANCH   9  11
ENDBRANCH   8   9
ENDBRANCH   1   8
BRANCH   7  18
ATOM     18  O   UNL     1      46.561 126.498  20.971  1.00  0.00    -0.504 OA
ATOM     19  H   UNL     1      46.631 127.506  21.033  1.00  0.00     0.293 HD
ENDBRANCH   7  18
BRANCH   6  20
ATOM     20  C   UNL     1      44.625 127.718  22.713  1.00  0.00    -0.008 A 
ATOM     21  C   UNL     1      45.220 128.507  21.719  1.00  0.00     0.010 A 
ATOM     22  C   UNL     1      43.761 128.310  23.642  1.00  0.00     0.010 A 
ATOM     23  C   UNL     1      44.967 129.879  21.664  1.00  0.00     0.014 A 
ATOM     24  C   UNL     1      43.508 129.684  23.590  1.00  0.00     0.014 A 
ATOM     25  C   UNL     1      44.103 130.484  22.595  1.00  0.00     0.039 A 
BRANCH  25  26
ATOM     26  C   UNL     1      43.849 131.943  22.529  1.00  0.00     0.248 C 
ATOM     27  N   UNL     1      42.687 132.470  21.883  1.00  0.00    -0.366 N 
ATOM     28  O   UNL     1      44.680 132.746  23.035  1.00  0.00    -0.270 OA
ATOM     29  H   UNL     1      42.043 131.860  21.333  1.00  0.00     0.159 HD
ATOM     30  H   UNL     1      42.518 133.500  21.879  1.00  0.00     0.159 HD
ENDBRANCH  25  26
ENDBRANCH   6  20
BRANCH   5  31
ATOM     31  N   UNL     1      43.228 125.972  24.604  1.00  0.00    -0.278 N 
ATOM     32  H   UNL     1      43.180 127.014  24.548  1.00  0.00     0.358 HD
ATOM     33  H   UNL     1      43.501 125.746  25.588  1.00  0.00     0.358 HD
BRANCH  31  34
ATOM     34  C   UNL     1      41.917 125.453  24.296  1.00  0.00     0.136 A 
ATOM     35  C   UNL     1      40.785 126.314  24.307  1.00  0.00     0.069 A 
ATOM     36  C   UNL     1      41.747 124.087  23.955  1.00  0.00     0.094 A 
ATOM     37  C   UNL     1      39.500 125.820  24.024  1.00  0.00     0.016 A 
ATOM     38  C   UNL     1      40.459 123.632  23.684  1.00  0.00     0.051 A 
ATOM     39  C   UNL     1      39.376 124.468  23.721  1.00  0.00    -0.000 A 
ATOM     40  N   UNL     1      40.085 122.379  23.371  1.00  0.00    -0.361 N 
ATOM     41  C   UNL     1      38.264 123.716  23.415  1.00  0.00     0.028 A 
ATOM     42  C   UNL     1      38.744 122.425  23.205  1.00  0.00     0.083 A 
ATOM     43  H   UNL     1      40.701 121.545  23.259  1.00  0.00     0.166 HD
ENDBRANCH  31  34
ENDBRANCH   5  31
TORSDOF 8
ENDMDL
MODEL 3
REMARK VINA RESULT:       1.3      3.027      8.343
REMARK SMILES CC1=CCC=C[C@H]1C(=O)Oc1cc(F)c([NH2+]c2ccc3cc[nH]c3c2)c(-c2ccc(C(N)=O)cc2)c1O
REMARK SMILES IDX 11 1 12 2 13 3 14 4 15 5 26 6 36 7 10 8 8 9 9 10 7 11 2 12
REMARK SMILES IDX 3 13 4 14 6 15 5 16 1 17 37 18 27 20 28 21 35 22 29 23 34 24
REMARK SMILES IDX 30 25 31 26 32 27 33 28 16 31 17 34 18 35 25 36 19 37 24 38
REMARK SMILES IDX 20 39 23 40 21 41 22 42
REMARK H PARENT 37 19 32 29 32 30 16 32 16 33 23 43
ROOT
ATOM      1  C   UNL     1      43.788 131.844  17.646  1.00  0.00     0.176 A 
ATOM      2  C   UNL     1      42.667 131.324  18.309  1.00  0.00     0.097 A 
ATOM      3  C   UNL     1      42.613 131.300  19.702  1.00  0.00     0.188 A 
ATOM      4  F   UNL     1      41.513 130.772  20.300  1.00  0.00    -0.200 F 
ATOM      5  C   UNL     1      43.676 131.813  20.473  1.00  0.00     0.182 A 
ATOM      6  C   UNL     1      44.806 132.357  19.805  1.00  0.00     0.092 A 
ATOM      7  C   UNL     1      44.847 132.375  18.392  1.00  0.00     0.172 A 
ENDROOT
BRANCH   1   8
ATOM      8  O   UNL     1      43.872 131.899  16.246  1.00  0.00    -0.422 OA
BRANCH   8   9
ATOM      9  C   UNL     1      45.040 131.775  15.481  1.00  0.00     0.322 C 
ATOM     10  O   UNL     1      45.970 132.624  15.568  1.00  0.00    -0.251 OA
BRANCH   9  11
ATOM     11  C   UNL     1      45.148 130.668  14.472  1.00  0.00     0.147 C 
ATOM     12  C   UNL     1      46.590 130.514  14.009  1.00  0.00    -0.059 C 
ATOM     13  C   UNL     1      47.394 129.588  14.569  1.00  0.00    -0.023 C 
ATOM     14  C   UNL     1      46.910 128.694  15.681  1.00  0.00     0.054 C 
ATOM     15  C   UNL     1      44.608 129.391  15.069  1.00  0.00    -0.012 C 
ATOM     16  C   UNL     1      45.422 128.474  15.615  1.00  0.00    -0.026 C 
ATOM     17  C   UNL     1      47.148 131.449  12.972  1.00  0.00     0.040 C 
ENDBRANCH   9  11
ENDBRANCH   8   9
ENDBRANCH   1   8
BRANCH   7  18
ATOM     18  O   UNL     1      45.931 132.925  17.699  1.00  0.00    -0.504 OA
ATOM     19  H   UNL     1      46.826 133.116  18.130  1.00  0.00     0.293 HD
ENDBRANCH   7  18
BRANCH   6  20
ATOM     20  C   UNL     1      45.957 132.873  20.573  1.00  0.00    -0.008 A 
ATOM     21  C   UNL     1      46.025 134.235  20.902  1.00  0.00     0.010 A 
ATOM     22  C   UNL     1      46.983 132.011  20.980  1.00  0.00     0.010 A 
ATOM     23  C   UNL     1      47.116 134.732  21.617  1.00  0.00     0.014 A 
ATOM     24  C   UNL     1      48.078 132.509  21.694  1.00  0.00     0.014 A 
ATOM     25  C   UNL     1      48.153 133.875  22.027  1.00  0.00     0.039 A 
BRANCH  25  26
ATOM     26  C   UNL     1      49.309 134.420  22.779  1.00  0.00     0.248 C 
ATOM     27  N   UNL     1      49.751 135.767  22.593  1.00  0.00    -0.366 N 
ATOM     28  O   UNL     1      49.932 133.682  23.590  1.00  0.00    -0.270 OA
ATOM     29  H   UNL     1      49.359 136.373  21.839  1.00  0.00     0.159 HD
ATOM     30  H   UNL     1      50.549 136.134  23.159  1.00  0.00     0.159 HD
ENDBRANCH  25  26
ENDBRANCH   6  20
BRANCH   5  31
ATOM     31  N   UNL     1      43.604 131.767  21.921  1.00  0.00    -0.278 N 
ATOM     32  H   UNL     1      42.712 132.184  22.274  1.00  0.00     0.358 HD
ATOM     33  H   UNL     1      44.375 132.353  22.317  1.00  0.00     0.358 HD
BRANCH  31  34
ATOM     34  C   UNL     1      43.679 130.410  22.408  1.00  0.00     0.136 A 
ATOM     35  C   UNL     1      44.797 129.593  22.084  1.00  0.00     0.069 A 
ATOM     36  C   UNL     1      42.652 129.886  23.233  1.00  0.00     0.094 A 
ATOM     37  C   UNL     1      44.876 128.266  22.538  1.00  0.00     0.016 A 
ATOM     38  C   UNL     1      42.763 128.565  23.661  1.00  0.00     0.051 A 
ATOM     39  C   UNL     1      43.833 127.784  23.323  1.00  0.00    -0.000 A 
ATOM     40  N   UNL     1      41.891 127.878  24.420  1.00  0.00    -0.361 N 
ATOM     41  C   UNL     1      43.638 126.547  23.893  1.00  0.00     0.028 A 
ATOM     42  C   UNL     1      42.422 126.643  24.566  1.00  0.00     0.083 A 
ATOM     43  H   UNL     1      40.998 128.227  24.831  1.00  0.00     0.166 HD
ENDBRANCH  31  34
ENDBRANCH   5  31
TORSDOF 8
ENDMDL
MODEL 4
REMARK VINA RESULT:       2.0      5.383      7.661
REMARK SMILES CC1=CCC=C[C@H]1C(=O)Oc1cc(F)c([NH2+]c2ccc3cc[nH]c3c2)c(-c2ccc(C(N)=O)cc2)c1O
REMARK SMILES IDX 11 1 12 2 13 3 14 4 15 5 26 6 36 7 10 8 8 9 9 10 7 11 2 12
REMARK SMILES IDX 3 13 4 14 6 15 5 16 1 17 37 18 27 20 28 21 35 22 29 23 34 24
REMARK SMILES IDX 30 25 31 26 32 27 33 28 16 31 17 34 18 35 25 36 19 37 24 38
REMARK SMILES IDX 20 39 23 40 21 41 22 42
REMARK H PARENT 37 19 32 29 32 30 16 32 16 33 23 43
ROOT
ATOM      1  C   UNL     1      47.574 125.154  22.750  1.00  0.00     0.176 A 
ATOM      2  C   UNL     1      47.703 126.418  22.158  1.00  0.00     0.097 A 
ATOM      3  C   UNL     1      46.576 127.132  21.755  1.00  0.00     0.188 A 
ATOM      4  F   UNL     1      46.752 128.346  21.170  1.00  0.00    -0.200 F 
ATOM      5  C   UNL     1      45.282 126.608  21.950  1.00  0.00     0.182 A 
ATOM      6  C   UNL     1      45.146 125.334  22.567  1.00  0.00     0.092 A 
ATOM      7  C   UNL     1      46.298 124.621  22.971  1.00  0.00     0.172 A 
ENDROOT
BRANCH   1   8
ATOM      8  O   UNL     1      48.683 124.411  23.183  1.00  0.00    -0.422 OA
BRANCH   8   9
ATOM      9  C   UNL     1      50.017 124.843  23.194  1.00  0.00     0.322 C 
ATOM     10  O   UNL     1      50.840 124.394  24.040  1.00  0.00    -0.251 OA
BRANCH   9  11
ATOM     11  C   UNL     1      50.452 125.925  22.249  1.00  0.00     0.147 C 
ATOM     12  C   UNL     1      51.373 126.907  22.959  1.00  0.00    -0.059 C 
ATOM     13  C   UNL     1      52.712 126.786  22.857  1.00  0.00    -0.023 C 
ATOM     14  C   UNL     1      53.344 125.670  22.065  1.00  0.00     0.054 C 
ATOM     15  C   UNL     1      51.112 125.303  21.043  1.00  0.00    -0.012 C 
ATOM     16  C   UNL     1      52.447 125.196  20.952  1.00  0.00    -0.026 C 
ATOM     17  C   UNL     1      50.792 127.977  23.841  1.00  0.00     0.040 C 
ENDBRANCH   9  11
ENDBRANCH   8   9
ENDBRANCH   1   8
BRANCH   7  18
ATOM     18  O   UNL     1      46.203 123.377  23.603  1.00  0.00    -0.504 OA
ATOM     19  H   UNL     1      46.583 123.192  24.523  1.00  0.00     0.293 HD
ENDBRANCH   7  18
BRANCH   6  20
ATOM     20  C   UNL     1      43.811 124.732  22.759  1.00  0.00    -0.008 A 
ATOM     21  C   UNL     1      43.287 124.590  24.052  1.00  0.00     0.010 A 
ATOM     22  C   UNL     1      43.061 124.302  21.657  1.00  0.00     0.010 A 
ATOM     23  C   UNL     1      42.032 124.009  24.242  1.00  0.00     0.014 A 
ATOM     24  C   UNL     1      41.805 123.718  21.847  1.00  0.00     0.014 A 
ATOM     25  C   UNL     1      41.273 123.571  23.142  1.00  0.00     0.039 A 
BRANCH  25  26
ATOM     26  C   UNL     1      39.945 122.950  23.362  1.00  0.00     0.248 C 
ATOM     27  N   UNL     1      39.202 122.375  22.283  1.00  0.00    -0.366 N 
ATOM     28  O   UNL     1      39.443 122.938  24.519  1.00  0.00    -0.270 OA
ATOM     29  H   UNL     1      39.508 122.481  21.291  1.00  0.00     0.159 HD
ATOM     30  H   UNL     1      38.283 121.916  22.472  1.00  0.00     0.159 HD
ENDBRANCH  25  26
ENDBRANCH   6  20
BRANCH   5  31
ATOM     31  N   UNL     1      44.124 127.363  21.513  1.00  0.00    -0.278 N 
ATOM     32  H   UNL     1      43.233 126.908  21.814  1.00  0.00     0.358 HD
ATOM     33  H   UNL     1      44.103 127.378  20.467  1.00  0.00     0.358 HD
BRANCH  31  34
ATOM     34  C   UNL     1      44.137 128.703  22.051  1.00  0.00     0.136 A 
ATOM     35  C   UNL     1      45.095 129.649  21.593  1.00  0.00     0.069 A 
ATOM     36  C   UNL     1      43.182 129.096  23.022  1.00  0.00     0.094 A 
ATOM     37  C   UNL     1      45.130 130.952  22.119  1.00  0.00     0.016 A 
ATOM     38  C   UNL     1      43.250 130.393  23.523  1.00  0.00     0.051 A 
ATOM     39  C   UNL     1      44.191 131.286  23.090  1.00  0.00    -0.000 A 
ATOM     40  N   UNL     1      42.461 130.948  24.460  1.00  0.00    -0.361 N 
ATOM     41  C   UNL     1      43.992 132.462  23.778  1.00  0.00     0.028 A 
ATOM     42  C   UNL     1      42.911 132.213  24.619  1.00  0.00     0.083 A 
ATOM     43  H   UNL     1      41.655 130.504  24.952  1.00  0.00     0.166 HD
ENDBRANCH  31  34
ENDBRANCH   5  31
TORSDOF 8
ENDMDL
MODEL 5
REMARK VINA RESULT:       3.1      2.357      5.650
REMARK SMILES CC1=CCC=C[C@H]1C(=O)Oc1cc(F)c([NH2+]c2ccc3cc[nH]c3c2)c(-c2ccc(C(N)=O)cc2)c1O
REMARK SMILES IDX 11 1 12 2 13 3 14 4 15 5 26 6 36 7 10 8 8 9 9 10 7 11 2 12
REMARK SMILES IDX 3 13 4 14 6 15 5 16 1 17 37 18 27 20 28 21 35 22 29 23 34 24
REMARK SMILES IDX 30 25 31 26 32 27 33 28 16 31 17 34 18 35 25 36 19 37 24 38
REMARK SMILES IDX 20 39 23 40 21 41 22 42
REMARK H PARENT 37 19 32 29 32 30 16 32 16 33 23 43
ROOT
ATOM      1  C   UNL     1      47.649 133.962  22.513  1.00  0.00     0.176 A 
ATOM      2  C   UNL     1      46.792 133.860  23.619  1.00  0.00     0.097 A 
ATOM      3  C   UNL     1      45.597 133.148  23.528  1.00  0.00     0.188 A 
ATOM      4  F   UNL     1      44.791 133.090  24.620  1.00  0.00    -0.200 F 
ATOM      5  C   UNL     1      45.232 132.503  22.329  1.00  0.00     0.182 A 
ATOM      6  C   UNL     1      46.106 132.589  21.212  1.00  0.00     0.092 A 
ATOM      7  C   UNL     1      47.316 133.314  21.318  1.00  0.00     0.172 A 
ENDROOT
BRANCH   1   8
ATOM      8  O   UNL     1      48.867 134.657  22.570  1.00  0.00    -0.422 OA
BRANCH   8   9
ATOM      9  C   UNL     1      49.989 134.302  23.332  1.00  0.00     0.322 C 
ATOM     10  O   UNL     1      49.864 133.828  24.495  1.00  0.00    -0.251 OA
BRANCH   9  11
ATOM     11  C   UNL     1      51.364 134.579  22.796  1.00  0.00     0.147 C 
ATOM     12  C   UNL     1      51.409 135.953  22.142  1.00  0.00    -0.059 C 
ATOM     13  C   UNL     1      51.858 137.023  22.828  1.00  0.00    -0.023 C 
ATOM     14  C   UNL     1      52.306 136.909  24.262  1.00  0.00     0.054 C 
ATOM     15  C   UNL     1      52.373 134.453  23.912  1.00  0.00    -0.012 C 
ATOM     16  C   UNL     1      52.818 135.529  24.580  1.00  0.00    -0.026 C 
ATOM     17  C   UNL     1      50.880 136.136  20.747  1.00  0.00     0.040 C 
ENDBRANCH   9  11
ENDBRANCH   8   9
ENDBRANCH   1   8
BRANCH   7  18
ATOM     18  O   UNL     1      48.213 133.400  20.249  1.00  0.00    -0.504 OA
ATOM     19  H   UNL     1      48.574 134.278  19.897  1.00  0.00     0.293 HD
ENDBRANCH   7  18
BRANCH   6  20
ATOM     20  C   UNL     1      45.747 131.956  19.926  1.00  0.00    -0.008 A 
ATOM     21  C   UNL     1      46.452 130.829  19.480  1.00  0.00     0.010 A 
ATOM     22  C   UNL     1      44.704 132.473  19.148  1.00  0.00     0.010 A 
ATOM     23  C   UNL     1      46.126 130.234  18.259  1.00  0.00     0.014 A 
ATOM     24  C   UNL     1      44.379 131.880  17.924  1.00  0.00     0.014 A 
ATOM     25  C   UNL     1      45.082 130.748  17.469  1.00  0.00     0.039 A 
BRANCH  25  26
ATOM     26  C   UNL     1      44.754 130.109  16.172  1.00  0.00     0.248 C 
ATOM     27  N   UNL     1      44.139 130.846  15.112  1.00  0.00    -0.366 N 
ATOM     28  O   UNL     1      45.004 128.885  15.997  1.00  0.00    -0.270 OA
ATOM     29  H   UNL     1      43.789 131.819  15.253  1.00  0.00     0.159 HD
ATOM     30  H   UNL     1      43.948 130.378  14.198  1.00  0.00     0.159 HD
ENDBRANCH  25  26
ENDBRANCH   6  20
BRANCH   5  31
ATOM     31  N   UNL     1      43.978 131.777  22.253  1.00  0.00    -0.278 N 
ATOM     32  H   UNL     1      43.574 131.809  21.290  1.00  0.00     0.358 HD
ATOM     33  H   UNL     1      43.279 132.242  22.877  1.00  0.00     0.358 HD
BRANCH  31  34
ATOM     34  C   UNL     1      44.153 130.389  22.611  1.00  0.00     0.136 A 
ATOM     35  C   UNL     1      45.280 129.663  22.135  1.00  0.00     0.069 A 
ATOM     36  C   UNL     1      43.219 129.743  23.458  1.00  0.00     0.094 A 
ATOM     37  C   UNL     1      45.455 128.308  22.462  1.00  0.00     0.016 A 
ATOM     38  C   UNL     1      43.422 128.398  23.758  1.00  0.00     0.051 A 
ATOM     39  C   UNL     1      44.499 127.707  23.274  1.00  0.00    -0.000 A 
ATOM     40  N   UNL     1      42.645 127.604  24.515  1.00  0.00    -0.361 N 
ATOM     41  C   UNL     1      44.406 126.416  23.745  1.00  0.00     0.028 A 
ATOM     42  C   UNL     1      43.242 126.391  24.510  1.00  0.00     0.083 A 
ATOM     43  H   UNL     1      41.771 127.869  25.019  1.00  0.00     0.166 HD
ENDBRANCH  31  34
ENDBRANCH   5  31
TORSDOF 8
ENDMDL


