REMARK SMILES C=Cc1cc(-c2ccc3[nH]ccc3c2)c(C=C)c(F)c1Cl
REMARK SMILES IDX 3 1 4 2 5 3 15 4 18 5 19 6 20 7 21 8 2 9 1 10 6 11 7 12
REMARK SMILES IDX 14 13 8 14 13 15 9 16 12 17 10 18 11 19 16 21 17 22
REMARK H PARENT 10 20
ROOT
ATOM      1  C   UNL     1       1.398   2.202  -1.992  1.00  0.00    -0.004 A 
ATOM      2  C   UNL     1       0.893   1.568  -0.842  1.00  0.00     0.019 A 
ATOM      3  C   UNL     1       0.706   0.178  -0.799  1.00  0.00    -0.007 A 
ATOM      4  C   UNL     1       1.005  -0.601  -1.945  1.00  0.00     0.019 A 
ATOM      5  C   UNL     1       1.552   0.026  -3.077  1.00  0.00     0.150 A 
ATOM      6  F   UNL     1       1.864  -0.711  -4.175  1.00  0.00    -0.205 F 
ATOM      7  C   UNL     1       1.749   1.413  -3.105  1.00  0.00     0.084 A 
ATOM      8  Cl  UNL     1       2.397   2.134  -4.579  1.00  0.00    -0.080 Cl
ENDROOT
BRANCH   1   9
ATOM      9  C   UNL     1       1.613   3.672  -2.015  1.00  0.00     0.002 C 
ATOM     10  C   UNL     1       0.873   4.532  -1.315  1.00  0.00     0.009 C 
ENDBRANCH   1   9
BRANCH   3  11
ATOM     11  C   UNL     1       0.267  -0.430   0.481  1.00  0.00    -0.017 A 
ATOM     12  C   UNL     1       1.047  -1.444   1.097  1.00  0.00     0.011 A 
ATOM     13  C   UNL     1      -0.918   0.019   1.106  1.00  0.00     0.019 A 
ATOM     14  C   UNL     1       0.642  -2.021   2.314  1.00  0.00     0.027 A 
ATOM     15  C   UNL     1      -1.287  -0.574   2.311  1.00  0.00    -0.000 A 
ATOM     16  C   UNL     1      -0.537  -1.559   2.893  1.00  0.00     0.045 A 
ATOM     17  C   UNL     1      -2.375  -0.348   3.125  1.00  0.00     0.028 A 
ATOM     18  N   UNL     1      -1.097  -1.969   4.043  1.00  0.00    -0.361 N 
ATOM     19  C   UNL     1      -2.222  -1.232   4.189  1.00  0.00     0.083 A 
ATOM     20  H   UNL     1      -0.742  -2.705   4.692  1.00  0.00     0.166 HD
ENDBRANCH   3  11
BRANCH   4  21
ATOM     21  C   UNL     1       0.761  -2.062  -2.011  1.00  0.00     0.004 C 
ATOM     22  C   UNL     1      -0.382  -2.620  -1.615  1.00  0.00     0.009 C 
ENDBRANCH   4  21
TORSDOF 3


