MODEL 1
REMARK VINA RESULT:      -7.1      0.000      0.000
REMARK SMILES [H]/N=c1\[nH]cccc1Nc1ccc2c(n[nH+]n2C)c1C=C
REMARK SMILES IDX 9 1 8 3 3 4 4 5 7 6 5 7 6 8 2 10 1 11 10 12 11 13 19 14
REMARK SMILES IDX 12 15 14 16 13 17 15 18 17 19 16 20 18 21 20 23 21 24
REMARK H PARENT 9 2 4 9 16 22
ROOT
ATOM      1  N   UNL     1      44.115 131.504  21.846  1.00  0.00    -0.352 N 
ATOM      2  H   UNL     1      44.017 132.474  22.224  1.00  0.00     0.167 HD
ENDROOT
BRANCH   1   3
ATOM      3  C   UNL     1      43.749 130.395  22.691  1.00  0.00     0.081 A 
ATOM      4  C   UNL     1      42.612 130.472  23.521  1.00  0.00     0.146 A 
ATOM      5  N   UNL     1      42.269 129.407  24.308  1.00  0.00    -0.345 N 
ATOM      6  C   UNL     1      44.496 129.204  22.685  1.00  0.00     0.031 A 
ATOM      7  C   UNL     1      42.998 128.259  24.313  1.00  0.00     0.084 A 
ATOM      8  C   UNL     1      44.123 128.138  23.500  1.00  0.00     0.020 A 
ATOM      9  H   UNL     1      41.430 129.463  24.929  1.00  0.00     0.167 HD
BRANCH   4  10
ATOM     10  N   UNL     1      41.899 131.555  23.548  1.00  0.00    -0.283 NA
ATOM     11  H   UNL     1      41.873 132.185  24.380  1.00  0.00     0.189 HD
ENDBRANCH   4  10
ENDBRANCH   1   3
BRANCH   1  12
ATOM     12  C   UNL     1      44.447 131.372  20.454  1.00  0.00     0.048 A 
ATOM     13  C   UNL     1      45.732 130.879  20.110  1.00  0.00     0.029 A 
ATOM     14  C   UNL     1      43.510 131.707  19.431  1.00  0.00     0.032 A 
ATOM     15  C   UNL     1      46.120 130.743  18.767  1.00  0.00     0.037 A 
ATOM     16  C   UNL     1      43.943 131.552  18.105  1.00  0.00     0.171 A 
ATOM     17  C   UNL     1      45.192 131.100  17.796  1.00  0.00     0.133 A 
ATOM     18  N   UNL     1      43.249 131.715  16.959  1.00  0.00     0.026 NA
ATOM     19  N   UNL     1      45.274 131.013  16.459  1.00  0.00    -0.132 N 
ATOM     20  N   UNL     1      44.090 131.380  15.983  1.00  0.00    -0.016 N 
ATOM     21  C   UNL     1      46.378 130.494  15.658  1.00  0.00     0.226 C 
ATOM     22  H   UNL     1      43.835 131.388  14.970  1.00  0.00     0.526 HD
BRANCH  14  23
ATOM     23  C   UNL     1      42.119 132.099  19.763  1.00  0.00     0.005 C 
ATOM     24  C   UNL     1      41.798 133.299  20.243  1.00  0.00     0.009 C 
ENDBRANCH  14  23
ENDBRANCH   1  12
TORSDOF 4
ENDMDL
MODEL 2
REMARK VINA RESULT:      -6.6      1.491      6.222
REMARK SMILES [H]/N=c1\[nH]cccc1Nc1ccc2c(n[nH+]n2C)c1C=C
REMARK SMILES IDX 9 1 8 3 3 4 4 5 7 6 5 7 6 8 2 10 1 11 10 12 11 13 19 14
REMARK SMILES IDX 12 15 14 16 13 17 15 18 17 19 16 20 18 21 20 23 21 24
REMARK H PARENT 9 2 4 9 16 22
ROOT
ATOM      1  N   UNL     1      44.997 131.892  17.921  1.00  0.00    -0.352 N 
ATOM      2  H   UNL     1      44.975 132.933  17.832  1.00  0.00     0.167 HD
ENDROOT
BRANCH   1   3
ATOM      3  C   UNL     1      45.397 131.111  16.777  1.00  0.00     0.081 A 
ATOM      4  C   UNL     1      45.930 131.738  15.632  1.00  0.00     0.146 A 
ATOM      5  N   UNL     1      46.317 130.984  14.560  1.00  0.00    -0.345 N 
ATOM      6  C   UNL     1      45.295 129.709  16.788  1.00  0.00     0.031 A 
ATOM      7  C   UNL     1      46.206 129.628  14.563  1.00  0.00     0.084 A 
ATOM      8  C   UNL     1      45.695 128.968  15.678  1.00  0.00     0.020 A 
ATOM      9  H   UNL     1      46.707 131.446  13.707  1.00  0.00     0.167 HD
BRANCH   4  10
ATOM     10  N   UNL     1      46.041 133.030  15.592  1.00  0.00    -0.283 NA
ATOM     11  H   UNL     1      46.546 133.569  16.331  1.00  0.00     0.189 HD
ENDBRANCH   4  10
ENDBRANCH   1   3
BRANCH   1  12
ATOM     12  C   UNL     1      44.789 131.340  19.232  1.00  0.00     0.048 A 
ATOM     13  C   UNL     1      45.769 130.460  19.758  1.00  0.00     0.029 A 
ATOM     14  C   UNL     1      43.636 131.673  20.005  1.00  0.00     0.032 A 
ATOM     15  C   UNL     1      45.614 129.876  21.026  1.00  0.00     0.037 A 
ATOM     16  C   UNL     1      43.527 131.066  21.265  1.00  0.00     0.171 A 
ATOM     17  C   UNL     1      44.469 130.203  21.742  1.00  0.00     0.133 A 
ATOM     18  N   UNL     1      42.597 131.259  22.225  1.00  0.00     0.026 NA
ATOM     19  N   UNL     1      44.103 129.846  22.983  1.00  0.00    -0.132 N 
ATOM     20  N   UNL     1      42.979 130.502  23.249  1.00  0.00    -0.016 N 
ATOM     21  C   UNL     1      44.835 129.013  23.931  1.00  0.00     0.226 C 
ATOM     22  H   UNL     1      42.464 130.450  24.157  1.00  0.00     0.526 HD
BRANCH  14  23
ATOM     23  C   UNL     1      42.664 132.688  19.533  1.00  0.00     0.005 C 
ATOM     24  C   UNL     1      41.706 132.419  18.648  1.00  0.00     0.009 C 
ENDBRANCH  14  23
ENDBRANCH   1  12
TORSDOF 4
ENDMDL
MODEL 3
REMARK VINA RESULT:      -6.4      1.191      5.974
REMARK SMILES [H]/N=c1\[nH]cccc1Nc1ccc2c(n[nH+]n2C)c1C=C
REMARK SMILES IDX 9 1 8 3 3 4 4 5 7 6 5 7 6 8 2 10 1 11 10 12 11 13 19 14
REMARK SMILES IDX 12 15 14 16 13 17 15 18 17 19 16 20 18 21 20 23 21 24
REMARK H PARENT 9 2 4 9 16 22
ROOT
ATOM      1  N   UNL     1      45.215 131.772  18.654  1.00  0.00    -0.352 N 
ATOM      2  H   UNL     1      45.630 132.731  18.687  1.00  0.00     0.167 HD
ENDROOT
BRANCH   1   3
ATOM      3  C   UNL     1      45.235 131.055  17.403  1.00  0.00     0.081 A 
ATOM      4  C   UNL     1      44.204 131.235  16.458  1.00  0.00     0.146 A 
ATOM      5  N   UNL     1      44.242 130.559  15.271  1.00  0.00    -0.345 N 
ATOM      6  C   UNL     1      46.293 130.187  17.084  1.00  0.00     0.031 A 
ATOM      7  C   UNL     1      45.258 129.709  14.965  1.00  0.00     0.084 A 
ATOM      8  C   UNL     1      46.302 129.510  15.866  1.00  0.00     0.020 A 
ATOM      9  H   UNL     1      43.476 130.686  14.570  1.00  0.00     0.167 HD
BRANCH   4  10
ATOM     10  N   UNL     1      43.214 132.032  16.721  1.00  0.00    -0.283 NA
ATOM     11  H   UNL     1      42.690 132.535  15.970  1.00  0.00     0.189 HD
ENDBRANCH   4  10
ENDBRANCH   1   3
BRANCH   1  12
ATOM     12  C   UNL     1      44.813 131.187  19.903  1.00  0.00     0.048 A 
ATOM     13  C   UNL     1      45.609 130.148  20.450  1.00  0.00     0.029 A 
ATOM     14  C   UNL     1      43.652 131.641  20.598  1.00  0.00     0.032 A 
ATOM     15  C   UNL     1      45.259 129.526  21.660  1.00  0.00     0.037 A 
ATOM     16  C   UNL     1      43.344 130.990  21.803  1.00  0.00     0.171 A 
ATOM     17  C   UNL     1      44.110 129.977  22.299  1.00  0.00     0.133 A 
ATOM     18  N   UNL     1      42.366 131.265  22.692  1.00  0.00     0.026 NA
ATOM     19  N   UNL     1      43.585 129.611  23.479  1.00  0.00    -0.132 N 
ATOM     20  N   UNL     1      42.544 130.407  23.693  1.00  0.00    -0.016 N 
ATOM     21  C   UNL     1      44.105 128.631  24.428  1.00  0.00     0.226 C 
ATOM     22  H   UNL     1      41.947 130.382  24.550  1.00  0.00     0.526 HD
BRANCH  14  23
ATOM     23  C   UNL     1      42.878 132.810  20.115  1.00  0.00     0.005 C 
ATOM     24  C   UNL     1      41.587 132.743  19.793  1.00  0.00     0.009 C 
ENDBRANCH  14  23
ENDBRANCH   1  12
TORSDOF 4
ENDMDL
MODEL 4
REMARK VINA RESULT:      -6.2      1.104      1.625
REMARK SMILES [H]/N=c1\[nH]cccc1Nc1ccc2c(n[nH+]n2C)c1C=C
REMARK SMILES IDX 9 1 8 3 3 4 4 5 7 6 5 7 6 8 2 10 1 11 10 12 11 13 19 14
REMARK SMILES IDX 12 15 14 16 13 17 15 18 17 19 16 20 18 21 20 23 21 24
REMARK H PARENT 9 2 4 9 16 22
ROOT
ATOM      1  N   UNL     1      44.709 131.019  22.322  1.00  0.00    -0.352 N 
ATOM      2  H   UNL     1      45.204 131.768  22.857  1.00  0.00     0.167 HD
ENDROOT
BRANCH   1   3
ATOM      3  C   UNL     1      43.858 130.105  23.043  1.00  0.00     0.081 A 
ATOM      4  C   UNL     1      44.149 128.725  23.070  1.00  0.00     0.146 A 
ATOM      5  N   UNL     1      43.340 127.873  23.768  1.00  0.00    -0.345 N 
ATOM      6  C   UNL     1      42.741 130.569  23.759  1.00  0.00     0.031 A 
ATOM      7  C   UNL     1      42.252 128.318  24.450  1.00  0.00     0.084 A 
ATOM      8  C   UNL     1      41.934 129.674  24.458  1.00  0.00     0.020 A 
ATOM      9  H   UNL     1      43.550 126.848  23.786  1.00  0.00     0.167 HD
BRANCH   4  10
ATOM     10  N   UNL     1      45.175 128.265  22.423  1.00  0.00    -0.283 NA
ATOM     11  H   UNL     1      46.129 128.227  22.846  1.00  0.00     0.189 HD
ENDBRANCH   4  10
ENDBRANCH   1   3
BRANCH   1  12
ATOM     12  C   UNL     1      44.790 131.073  20.888  1.00  0.00     0.048 A 
ATOM     13  C   UNL     1      45.956 130.570  20.258  1.00  0.00     0.029 A 
ATOM     14  C   UNL     1      43.722 131.601  20.102  1.00  0.00     0.032 A 
ATOM     15  C   UNL     1      46.101 130.609  18.861  1.00  0.00     0.037 A 
ATOM     16  C   UNL     1      43.912 131.618  18.712  1.00  0.00     0.171 A 
ATOM     17  C   UNL     1      45.052 131.152  18.128  1.00  0.00     0.133 A 
ATOM     18  N   UNL     1      43.048 131.981  17.740  1.00  0.00     0.026 NA
ATOM     19  N   UNL     1      44.899 131.255  16.798  1.00  0.00    -0.132 N 
ATOM     20  N   UNL     1      43.684 131.749  16.595  1.00  0.00    -0.016 N 
ATOM     21  C   UNL     1      45.810 130.802  15.751  1.00  0.00     0.226 C 
ATOM     22  H   UNL     1      43.263 131.917  15.653  1.00  0.00     0.526 HD
BRANCH  14  23
ATOM     23  C   UNL     1      42.441 132.012  20.726  1.00  0.00     0.005 C 
ATOM     24  C   UNL     1      41.791 133.123  20.386  1.00  0.00     0.009 C 
ENDBRANCH  14  23
ENDBRANCH   1  12
TORSDOF 4
ENDMDL
MODEL 5
REMARK VINA RESULT:      -6.2      1.557      6.159
REMARK SMILES [H]/N=c1\[nH]cccc1Nc1ccc2c(n[nH+]n2C)c1C=C
REMARK SMILES IDX 9 1 8 3 3 4 4 5 7 6 5 7 6 8 2 10 1 11 10 12 11 13 19 14
REMARK SMILES IDX 12 15 14 16 13 17 15 18 17 19 16 20 18 21 20 23 21 24
REMARK H PARENT 9 2 4 9 16 22
ROOT
ATOM      1  N   UNL     1      45.395 131.887  18.326  1.00  0.00    -0.352 N 
ATOM      2  H   UNL     1      46.059 132.692  18.387  1.00  0.00     0.167 HD
ENDROOT
BRANCH   1   3
ATOM      3  C   UNL     1      45.070 131.359  17.024  1.00  0.00     0.081 A 
ATOM      4  C   UNL     1      45.838 130.321  16.460  1.00  0.00     0.146 A 
ATOM      5  N   UNL     1      45.510 129.821  15.231  1.00  0.00    -0.345 N 
ATOM      6  C   UNL     1      43.965 131.844  16.304  1.00  0.00     0.031 A 
ATOM      7  C   UNL     1      44.450 130.298  14.526  1.00  0.00     0.084 A 
ATOM      8  C   UNL     1      43.658 131.316  15.051  1.00  0.00     0.020 A 
ATOM      9  H   UNL     1      46.082 129.055  14.807  1.00  0.00     0.167 HD
BRANCH   4  10
ATOM     10  N   UNL     1      46.863 129.849  17.102  1.00  0.00    -0.283 NA
ATOM     11  H   UNL     1      47.200 130.267  17.997  1.00  0.00     0.189 HD
ENDBRANCH   4  10
ENDBRANCH   1   3
BRANCH   1  12
ATOM     12  C   UNL     1      44.996 131.270  19.561  1.00  0.00     0.048 A 
ATOM     13  C   UNL     1      45.861 130.311  20.147  1.00  0.00     0.029 A 
ATOM     14  C   UNL     1      43.769 131.615  20.203  1.00  0.00     0.032 A 
ATOM     15  C   UNL     1      45.519 129.662  21.345  1.00  0.00     0.037 A 
ATOM     16  C   UNL     1      43.471 130.941  21.397  1.00  0.00     0.171 A 
ATOM     17  C   UNL     1      44.306 130.004  21.931  1.00  0.00     0.133 A 
ATOM     18  N   UNL     1      42.435 131.125  22.242  1.00  0.00     0.026 NA
ATOM     19  N   UNL     1      43.768 129.593  23.090  1.00  0.00    -0.132 N 
ATOM     20  N   UNL     1      42.649 130.289  23.255  1.00  0.00    -0.016 N 
ATOM     21  C   UNL     1      44.335 128.669  24.066  1.00  0.00     0.226 C 
ATOM     22  H   UNL     1      42.020 130.211  24.085  1.00  0.00     0.526 HD
BRANCH  14  23
ATOM     23  C   UNL     1      42.911 132.706  19.680  1.00  0.00     0.005 C 
ATOM     24  C   UNL     1      41.775 132.483  19.020  1.00  0.00     0.009 C 
ENDBRANCH  14  23
ENDBRANCH   1  12
TORSDOF 4
ENDMDL
MODEL 6
REMARK VINA RESULT:      -5.8      2.046      6.754
REMARK SMILES [H]/N=c1\[nH]cccc1Nc1ccc2c(n[nH+]n2C)c1C=C
REMARK SMILES IDX 9 1 8 3 3 4 4 5 7 6 5 7 6 8 2 10 1 11 10 12 11 13 19 14
REMARK SMILES IDX 12 15 14 16 13 17 15 18 17 19 16 20 18 21 20 23 21 24
REMARK H PARENT 9 2 4 9 16 22
ROOT
ATOM      1  N   UNL     1      45.848 130.274  17.726  1.00  0.00    -0.352 N 
ATOM      2  H   UNL     1      46.385 129.475  18.132  1.00  0.00     0.167 HD
ENDROOT
BRANCH   1   3
ATOM      3  C   UNL     1      46.014 130.574  16.325  1.00  0.00     0.081 A 
ATOM      4  C   UNL     1      45.811 129.576  15.350  1.00  0.00     0.146 A 
ATOM      5  N   UNL     1      45.959 129.879  14.025  1.00  0.00    -0.345 N 
ATOM      6  C   UNL     1      46.349 131.871  15.899  1.00  0.00     0.031 A 
ATOM      7  C   UNL     1      46.296 131.129  13.611  1.00  0.00     0.084 A 
ATOM      8  C   UNL     1      46.495 132.147  14.541  1.00  0.00     0.020 A 
ATOM      9  H   UNL     1      45.815 129.139  13.299  1.00  0.00     0.167 HD
BRANCH   4  10
ATOM     10  N   UNL     1      45.497 128.370  15.711  1.00  0.00    -0.283 NA
ATOM     11  H   UNL     1      45.998 127.871  16.479  1.00  0.00     0.189 HD
ENDBRANCH   4  10
ENDBRANCH   1   3
BRANCH   1  12
ATOM     12  C   UNL     1      44.863 130.898  18.565  1.00  0.00     0.048 A 
ATOM     13  C   UNL     1      43.805 131.613  17.948  1.00  0.00     0.029 A 
ATOM     14  C   UNL     1      44.924 130.796  19.988  1.00  0.00     0.032 A 
ATOM     15  C   UNL     1      42.820 132.257  18.715  1.00  0.00     0.037 A 
ATOM     16  C   UNL     1      43.918 131.455  20.710  1.00  0.00     0.171 A 
ATOM     17  C   UNL     1      42.923 132.157  20.097  1.00  0.00     0.133 A 
ATOM     18  N   UNL     1      43.690 131.458  22.041  1.00  0.00     0.026 NA
ATOM     19  N   UNL     1      42.099 132.614  21.054  1.00  0.00    -0.132 N 
ATOM     20  N   UNL     1      42.580 132.172  22.210  1.00  0.00    -0.016 N 
ATOM     21  C   UNL     1      40.845 133.340  20.887  1.00  0.00     0.226 C 
ATOM     22  H   UNL     1      42.135 132.342  23.140  1.00  0.00     0.526 HD
BRANCH  14  23
ATOM     23  C   UNL     1      45.944 129.949  20.652  1.00  0.00     0.005 C 
ATOM     24  C   UNL     1      45.644 128.821  21.295  1.00  0.00     0.009 C 
ENDBRANCH  14  23
ENDBRANCH   1  12
TORSDOF 4
ENDMDL
MODEL 7
REMARK VINA RESULT:      -5.8      1.034      1.082
REMARK SMILES [H]/N=c1\[nH]cccc1Nc1ccc2c(n[nH+]n2C)c1C=C
REMARK SMILES IDX 9 1 8 3 3 4 4 5 7 6 5 7 6 8 2 10 1 11 10 12 11 13 19 14
REMARK SMILES IDX 12 15 14 16 13 17 15 18 17 19 16 20 18 21 20 23 21 24
REMARK H PARENT 9 2 4 9 16 22
ROOT
ATOM      1  N   UNL     1      44.003 131.578  21.205  1.00  0.00    -0.352 N 
ATOM      2  H   UNL     1      43.406 132.419  21.374  1.00  0.00     0.167 HD
ENDROOT
BRANCH   1   3
ATOM      3  C   UNL     1      44.184 130.633  22.279  1.00  0.00     0.081 A 
ATOM      4  C   UNL     1      43.910 131.003  23.612  1.00  0.00     0.146 A 
ATOM      5  N   UNL     1      44.073 130.093  24.619  1.00  0.00    -0.345 N 
ATOM      6  C   UNL     1      44.604 129.317  22.021  1.00  0.00     0.031 A 
ATOM      7  C   UNL     1      44.493 128.823  24.373  1.00  0.00     0.084 A 
ATOM      8  C   UNL     1      44.764 128.413  23.069  1.00  0.00     0.020 A 
ATOM      9  H   UNL     1      43.877 130.366  25.609  1.00  0.00     0.167 HD
BRANCH   4  10
ATOM     10  N   UNL     1      43.517 132.209  23.883  1.00  0.00    -0.283 NA
ATOM     11  H   UNL     1      42.574 132.410  24.284  1.00  0.00     0.189 HD
ENDBRANCH   4  10
ENDBRANCH   1   3
BRANCH   1  12
ATOM     12  C   UNL     1      44.455 131.353  19.859  1.00  0.00     0.048 A 
ATOM     13  C   UNL     1      45.694 130.691  19.665  1.00  0.00     0.029 A 
ATOM     14  C   UNL     1      43.677 131.763  18.735  1.00  0.00     0.032 A 
ATOM     15  C   UNL     1      46.196 130.457  18.374  1.00  0.00     0.037 A 
ATOM     16  C   UNL     1      44.220 131.506  17.466  1.00  0.00     0.171 A 
ATOM     17  C   UNL     1      45.425 130.890  17.302  1.00  0.00     0.133 A 
ATOM     18  N   UNL     1      43.672 131.711  16.250  1.00  0.00     0.026 NA
ATOM     19  N   UNL     1      45.630 130.743  15.983  1.00  0.00    -0.132 N 
ATOM     20  N   UNL     1      44.557 131.238  15.377  1.00  0.00    -0.016 N 
ATOM     21  C   UNL     1      46.734 130.061  15.316  1.00  0.00     0.226 C 
ATOM     22  H   UNL     1      44.410 131.239  14.342  1.00  0.00     0.526 HD
BRANCH  14  23
ATOM     23  C   UNL     1      42.322 132.338  18.909  1.00  0.00     0.005 C 
ATOM     24  C   UNL     1      41.223 131.592  19.003  1.00  0.00     0.009 C 
ENDBRANCH  14  23
ENDBRANCH   1  12
TORSDOF 4
ENDMDL
MODEL 8
REMARK VINA RESULT:      -5.8      1.053      2.223
REMARK SMILES [H]/N=c1\[nH]cccc1Nc1ccc2c(n[nH+]n2C)c1C=C
REMARK SMILES IDX 9 1 8 3 3 4 4 5 7 6 5 7 6 8 2 10 1 11 10 12 11 13 19 14
REMARK SMILES IDX 12 15 14 16 13 17 15 18 17 19 16 20 18 21 20 23 21 24
REMARK H PARENT 9 2 4 9 16 22
ROOT
ATOM      1  N   UNL     1      43.474 131.836  21.686  1.00  0.00    -0.352 N 
ATOM      2  H   UNL     1      43.307 132.793  22.072  1.00  0.00     0.167 HD
ENDROOT
BRANCH   1   3
ATOM      3  C   UNL     1      43.350 130.705  22.571  1.00  0.00     0.081 A 
ATOM      4  C   UNL     1      42.398 130.709  23.610  1.00  0.00     0.146 A 
ATOM      5  N   UNL     1      42.284 129.623  24.433  1.00  0.00    -0.345 N 
ATOM      6  C   UNL     1      44.151 129.562  22.399  1.00  0.00     0.031 A 
ATOM      7  C   UNL     1      43.066 128.523  24.278  1.00  0.00     0.084 A 
ATOM      8  C   UNL     1      44.013 128.473  23.256  1.00  0.00     0.020 A 
ATOM      9  H   UNL     1      41.582 129.626  25.210  1.00  0.00     0.167 HD
BRANCH   4  10
ATOM     10  N   UNL     1      41.641 131.746  23.793  1.00  0.00    -0.283 NA
ATOM     11  H   UNL     1      41.873 132.490  24.489  1.00  0.00     0.189 HD
ENDBRANCH   4  10
ENDBRANCH   1   3
BRANCH   1  12
ATOM     12  C   UNL     1      43.645 131.723  20.264  1.00  0.00     0.048 A 
ATOM     13  C   UNL     1      42.526 131.965  19.427  1.00  0.00     0.029 A 
ATOM     14  C   UNL     1      44.910 131.392  19.691  1.00  0.00     0.032 A 
ATOM     15  C   UNL     1      42.628 131.855  18.030  1.00  0.00     0.037 A 
ATOM     16  C   UNL     1      44.962 131.295  18.292  1.00  0.00     0.171 A 
ATOM     17  C   UNL     1      43.868 131.508  17.507  1.00  0.00     0.133 A 
ATOM     18  N   UNL     1      46.029 131.079  17.493  1.00  0.00     0.026 NA
ATOM     19  N   UNL     1      44.258 131.395  16.227  1.00  0.00    -0.132 N 
ATOM     20  N   UNL     1      45.562 131.146  16.250  1.00  0.00    -0.016 N 
ATOM     21  C   UNL     1      43.466 131.627  15.023  1.00  0.00     0.226 C 
ATOM     22  H   UNL     1      46.158 131.035  15.399  1.00  0.00     0.526 HD
BRANCH  14  23
ATOM     23  C   UNL     1      46.123 131.262  20.534  1.00  0.00     0.005 C 
ATOM     24  C   UNL     1      46.674 132.290  21.178  1.00  0.00     0.009 C 
ENDBRANCH  14  23
ENDBRANCH   1  12
TORSDOF 4
ENDMDL
MODEL 9
REMARK VINA RESULT:      -5.7      2.384      4.471
REMARK SMILES [H]/N=c1\[nH]cccc1Nc1ccc2c(n[nH+]n2C)c1C=C
REMARK SMILES IDX 9 1 8 3 3 4 4 5 7 6 5 7 6 8 2 10 1 11 10 12 11 13 19 14
REMARK SMILES IDX 12 15 14 16 13 17 15 18 17 19 16 20 18 21 20 23 21 24
REMARK H PARENT 9 2 4 9 16 22
ROOT
ATOM      1  N   UNL     1      43.669 131.430  17.213  1.00  0.00    -0.352 N 
ATOM      2  H   UNL     1      42.726 131.485  16.765  1.00  0.00     0.167 HD
ENDROOT
BRANCH   1   3
ATOM      3  C   UNL     1      43.759 131.561  18.646  1.00  0.00     0.081 A 
ATOM      4  C   UNL     1      42.691 132.111  19.384  1.00  0.00     0.146 A 
ATOM      5  N   UNL     1      42.785 132.217  20.743  1.00  0.00    -0.345 N 
ATOM      6  C   UNL     1      44.897 131.117  19.342  1.00  0.00     0.031 A 
ATOM      7  C   UNL     1      43.890 131.800  21.418  1.00  0.00     0.084 A 
ATOM      8  C   UNL     1      44.964 131.241  20.728  1.00  0.00     0.020 A 
ATOM      9  H   UNL     1      41.997 132.629  21.293  1.00  0.00     0.167 HD
BRANCH   4  10
ATOM     10  N   UNL     1      41.625 132.527  18.772  1.00  0.00    -0.283 NA
ATOM     11  H   UNL     1      41.642 133.336  18.112  1.00  0.00     0.189 HD
ENDBRANCH   4  10
ENDBRANCH   1   3
BRANCH   1  12
ATOM     12  C   UNL     1      44.774 131.059  16.374  1.00  0.00     0.048 A 
ATOM     13  C   UNL     1      45.821 130.286  16.938  1.00  0.00     0.029 A 
ATOM     14  C   UNL     1      44.824 131.437  14.998  1.00  0.00     0.032 A 
ATOM     15  C   UNL     1      46.936 129.905  16.173  1.00  0.00     0.037 A 
ATOM     16  C   UNL     1      45.957 131.033  14.275  1.00  0.00     0.171 A 
ATOM     17  C   UNL     1      46.964 130.310  14.844  1.00  0.00     0.133 A 
ATOM     18  N   UNL     1      46.223 131.180  12.960  1.00  0.00     0.026 NA
ATOM     19  N   UNL     1      47.862 130.038  13.883  1.00  0.00    -0.132 N 
ATOM     20  N   UNL     1      47.387 130.566  12.761  1.00  0.00    -0.016 N 
ATOM     21  C   UNL     1      49.064 129.217  13.984  1.00  0.00     0.226 C 
ATOM     22  H   UNL     1      47.854 130.494  11.829  1.00  0.00     0.526 HD
BRANCH  14  23
ATOM     23  C   UNL     1      43.685 132.132  14.352  1.00  0.00     0.005 C 
ATOM     24  C   UNL     1      42.774 131.501  13.613  1.00  0.00     0.009 C 
ENDBRANCH  14  23
ENDBRANCH   1  12
TORSDOF 4
ENDMDL


