MODEL 1
REMARK VINA RESULT:      -9.9      0.000      0.000
REMARK SMILES [O-]c1ccc(-c2cc3cc(/N=C4\[CH]C=CC4)ncc3[nH+]c2Cl)cc1
REMARK SMILES IDX 10 1 17 2 18 3 19 4 8 5 9 6 7 7 6 8 21 9 22 10 20 11 11 13
REMARK SMILES IDX 12 14 13 15 14 16 15 17 16 18 5 19 4 20 23 21 3 22 24 23
REMARK SMILES IDX 2 24 1 25
REMARK H PARENT 20 12
ROOT
ATOM      1  C   UNL     1      43.830 131.572  20.831  1.00  0.00     0.152 A 
ATOM      2  N   UNL     1      42.653 132.111  20.404  1.00  0.00    -0.230 NA
ATOM      3  C   UNL     1      42.358 132.255  19.086  1.00  0.00     0.193 A 
ATOM      4  C   UNL     1      43.279 131.849  18.112  1.00  0.00     0.230 A 
ATOM      5  C   UNL     1      44.504 131.293  18.524  1.00  0.00     0.052 A 
ATOM      6  C   UNL     1      44.780 131.157  19.892  1.00  0.00     0.064 A 
ATOM      7  C   UNL     1      45.428 130.888  17.556  1.00  0.00     0.032 A 
ATOM      8  C   UNL     1      45.134 131.041  16.193  1.00  0.00     0.067 A 
ATOM      9  C   UNL     1      43.888 131.593  15.823  1.00  0.00     0.281 A 
ATOM     10  Cl  UNL     1      43.411 131.736  14.132  1.00  0.00    -0.010 Cl
ATOM     11  N   UNL     1      43.002 131.981  16.784  1.00  0.00    -0.193 N 
ATOM     12  H   UNL     1      42.084 132.383  16.484  1.00  0.00     0.455 HD
ENDROOT
BRANCH   1  13
ATOM     13  N   UNL     1      44.130 131.436  22.229  1.00  0.00    -0.237 NA
BRANCH  13  14
ATOM     14  C   UNL     1      43.833 130.435  23.008  1.00  0.00     0.032 C 
ATOM     15  C   UNL     1      44.492 129.095  23.004  1.00  0.00     0.069 C 
ATOM     16  C   UNL     1      43.725 128.385  24.066  1.00  0.00    -0.020 C 
ATOM     17  C   UNL     1      42.789 129.152  24.619  1.00  0.00    -0.025 C 
ATOM     18  C   UNL     1      42.751 130.519  24.026  1.00  0.00     0.079 C 
ENDBRANCH  13  14
ENDBRANCH   1  13
BRANCH   8  19
ATOM     19  C   UNL     1      46.133 130.618  15.186  1.00  0.00    -0.011 A 
ATOM     20  C   UNL     1      46.797 129.388  15.322  1.00  0.00     0.008 A 
ATOM     21  C   UNL     1      46.458 131.459  14.107  1.00  0.00     0.008 A 
ATOM     22  C   UNL     1      47.755 128.995  14.383  1.00  0.00    -0.008 A 
ATOM     23  C   UNL     1      47.417 131.062  13.169  1.00  0.00    -0.008 A 
ATOM     24  C   UNL     1      48.064 129.830  13.305  1.00  0.00    -0.109 A 
ATOM     25  O   UNL     1      49.015 129.437  12.372  1.00  0.00    -0.872 OA
ENDBRANCH   8  19
TORSDOF 3
ENDMDL
MODEL 2
REMARK VINA RESULT:      -9.9      0.369      1.323
REMARK SMILES [O-]c1ccc(-c2cc3cc(/N=C4\[CH]C=CC4)ncc3[nH+]c2Cl)cc1
REMARK SMILES IDX 10 1 17 2 18 3 19 4 8 5 9 6 7 7 6 8 21 9 22 10 20 11 11 13
REMARK SMILES IDX 12 14 13 15 14 16 15 17 16 18 5 19 4 20 23 21 3 22 24 23
REMARK SMILES IDX 2 24 1 25
REMARK H PARENT 20 12
ROOT
ATOM      1  C   UNL     1      43.614 131.865  20.702  1.00  0.00     0.152 A 
ATOM      2  N   UNL     1      42.437 132.338  20.203  1.00  0.00    -0.230 NA
ATOM      3  C   UNL     1      42.191 132.405  18.868  1.00  0.00     0.193 A 
ATOM      4  C   UNL     1      43.164 131.984  17.953  1.00  0.00     0.230 A 
ATOM      5  C   UNL     1      44.391 131.495  18.440  1.00  0.00     0.052 A 
ATOM      6  C   UNL     1      44.615 131.438  19.823  1.00  0.00     0.064 A 
ATOM      7  C   UNL     1      45.366 131.076  17.531  1.00  0.00     0.032 A 
ATOM      8  C   UNL     1      45.122 131.149  16.151  1.00  0.00     0.067 A 
ATOM      9  C   UNL     1      43.874 131.635  15.706  1.00  0.00     0.281 A 
ATOM     10  Cl  UNL     1      43.461 131.676  13.993  1.00  0.00    -0.010 Cl
ATOM     11  N   UNL     1      42.937 132.039  16.610  1.00  0.00    -0.193 N 
ATOM     12  H   UNL     1      42.018 132.391  16.255  1.00  0.00     0.455 HD
ENDROOT
BRANCH   1  13
ATOM     13  N   UNL     1      43.862 131.811  22.116  1.00  0.00    -0.237 NA
BRANCH  13  14
ATOM     14  C   UNL     1      43.468 130.894  22.953  1.00  0.00     0.032 C 
ATOM     15  C   UNL     1      42.376 131.038  23.961  1.00  0.00     0.069 C 
ATOM     16  C   UNL     1      42.409 129.704  24.624  1.00  0.00    -0.020 C 
ATOM     17  C   UNL     1      43.335 128.900  24.108  1.00  0.00    -0.025 C 
ATOM     18  C   UNL     1      44.099 129.548  23.006  1.00  0.00     0.079 C 
ENDBRANCH  13  14
ENDBRANCH   1  13
BRANCH   8  19
ATOM     19  C   UNL     1      46.175 130.713  15.207  1.00  0.00    -0.011 A 
ATOM     20  C   UNL     1      46.686 131.611  14.254  1.00  0.00     0.008 A 
ATOM     21  C   UNL     1      46.647 129.389  15.225  1.00  0.00     0.008 A 
ATOM     22  C   UNL     1      47.667 131.196  13.348  1.00  0.00    -0.008 A 
ATOM     23  C   UNL     1      47.629 128.978  14.318  1.00  0.00    -0.008 A 
ATOM     24  C   UNL     1      48.141 129.881  13.381  1.00  0.00    -0.109 A 
ATOM     25  O   UNL     1      49.116 129.471  12.482  1.00  0.00    -0.872 OA
ENDBRANCH   8  19
TORSDOF 3
ENDMDL
MODEL 3
REMARK VINA RESULT:      -8.7      0.569      1.020
REMARK SMILES [O-]c1ccc(-c2cc3cc(/N=C4\[CH]C=CC4)ncc3[nH+]c2Cl)cc1
REMARK SMILES IDX 10 1 17 2 18 3 19 4 8 5 9 6 7 7 6 8 21 9 22 10 20 11 11 13
REMARK SMILES IDX 12 14 13 15 14 16 15 17 16 18 5 19 4 20 23 21 3 22 24 23
REMARK SMILES IDX 2 24 1 25
REMARK H PARENT 20 12
ROOT
ATOM      1  C   UNL     1      43.863 131.754  20.449  1.00  0.00     0.152 A 
ATOM      2  N   UNL     1      42.642 132.138  19.980  1.00  0.00    -0.230 NA
ATOM      3  C   UNL     1      42.346 132.151  18.654  1.00  0.00     0.193 A 
ATOM      4  C   UNL     1      43.312 131.767  17.715  1.00  0.00     0.230 A 
ATOM      5  C   UNL     1      44.583 131.370  18.171  1.00  0.00     0.052 A 
ATOM      6  C   UNL     1      44.858 131.367  19.545  1.00  0.00     0.064 A 
ATOM      7  C   UNL     1      45.552 130.988  17.238  1.00  0.00     0.032 A 
ATOM      8  C   UNL     1      45.256 131.007  15.867  1.00  0.00     0.067 A 
ATOM      9  C   UNL     1      43.965 131.401  15.454  1.00  0.00     0.281 A 
ATOM     10  Cl  UNL     1      43.491 131.366  13.757  1.00  0.00    -0.010 Cl
ATOM     11  N   UNL     1      43.035 131.770  16.381  1.00  0.00    -0.193 N 
ATOM     12  H   UNL     1      42.084 132.053  16.050  1.00  0.00     0.455 HD
ENDROOT
BRANCH   1  13
ATOM     13  N   UNL     1      44.162 131.756  21.854  1.00  0.00    -0.237 NA
BRANCH  13  14
ATOM     14  C   UNL     1      43.535 131.113  22.796  1.00  0.00     0.032 C 
ATOM     15  C   UNL     1      42.645 131.720  23.831  1.00  0.00     0.069 C 
ATOM     16  C   UNL     1      42.255 130.521  24.625  1.00  0.00    -0.020 C 
ATOM     17  C   UNL     1      42.793 129.399  24.154  1.00  0.00    -0.025 C 
ATOM     18  C   UNL     1      43.650 129.638  22.959  1.00  0.00     0.079 C 
ENDBRANCH  13  14
ENDBRANCH   1  13
BRANCH   8  19
ATOM     19  C   UNL     1      46.302 130.612  14.896  1.00  0.00    -0.011 A 
ATOM     20  C   UNL     1      46.767 129.287  14.858  1.00  0.00     0.008 A 
ATOM     21  C   UNL     1      46.871 131.564  14.033  1.00  0.00     0.008 A 
ATOM     22  C   UNL     1      47.768 128.915  13.956  1.00  0.00    -0.008 A 
ATOM     23  C   UNL     1      47.872 131.189  13.131  1.00  0.00    -0.008 A 
ATOM     24  C   UNL     1      48.320 129.865  13.091  1.00  0.00    -0.109 A 
ATOM     25  O   UNL     1      49.314 129.494  12.194  1.00  0.00    -0.872 OA
ENDBRANCH   8  19
TORSDOF 3
ENDMDL
MODEL 4
REMARK VINA RESULT:      -8.4      0.773      1.163
REMARK SMILES [O-]c1ccc(-c2cc3cc(/N=C4\[CH]C=CC4)ncc3[nH+]c2Cl)cc1
REMARK SMILES IDX 10 1 17 2 18 3 19 4 8 5 9 6 7 7 6 8 21 9 22 10 20 11 11 13
REMARK SMILES IDX 12 14 13 15 14 16 15 17 16 18 5 19 4 20 23 21 3 22 24 23
REMARK SMILES IDX 2 24 1 25
REMARK H PARENT 20 12
ROOT
ATOM      1  C   UNL     1      43.956 131.099  21.351  1.00  0.00     0.152 A 
ATOM      2  N   UNL     1      42.822 131.786  21.031  1.00  0.00    -0.230 NA
ATOM      3  C   UNL     1      42.513 132.120  19.751  1.00  0.00     0.193 A 
ATOM      4  C   UNL     1      43.374 131.763  18.705  1.00  0.00     0.230 A 
ATOM      5  C   UNL     1      44.554 131.056  19.006  1.00  0.00     0.052 A 
ATOM      6  C   UNL     1      44.845 130.726  20.337  1.00  0.00     0.064 A 
ATOM      7  C   UNL     1      45.417 130.699  17.966  1.00  0.00     0.032 A 
ATOM      8  C   UNL     1      45.108 131.047  16.642  1.00  0.00     0.067 A 
ATOM      9  C   UNL     1      43.909 131.745  16.384  1.00  0.00     0.281 A 
ATOM     10  Cl  UNL     1      43.411 132.141  14.740  1.00  0.00    -0.010 Cl
ATOM     11  N   UNL     1      43.081 132.084  17.414  1.00  0.00    -0.193 N 
ATOM     12  H   UNL     1      42.196 132.598  17.196  1.00  0.00     0.455 HD
ENDROOT
BRANCH   1  13
ATOM     13  N   UNL     1      44.272 130.763  22.711  1.00  0.00    -0.237 NA
BRANCH  13  14
ATOM     14  C   UNL     1      44.407 129.572  23.220  1.00  0.00     0.032 C 
ATOM     15  C   UNL     1      44.076 129.174  24.621  1.00  0.00     0.069 C 
ATOM     16  C   UNL     1      44.460 127.734  24.617  1.00  0.00    -0.020 C 
ATOM     17  C   UNL     1      44.921 127.332  23.437  1.00  0.00    -0.025 C 
ATOM     18  C   UNL     1      44.939 128.429  22.429  1.00  0.00     0.079 C 
ENDBRANCH  13  14
ENDBRANCH   1  13
BRANCH   8  19
ATOM     19  C   UNL     1      46.044 130.671  15.559  1.00  0.00    -0.011 A 
ATOM     20  C   UNL     1      46.966 129.628  15.752  1.00  0.00     0.008 A 
ATOM     21  C   UNL     1      46.051 131.377  14.344  1.00  0.00     0.008 A 
ATOM     22  C   UNL     1      47.864 129.283  14.738  1.00  0.00    -0.008 A 
ATOM     23  C   UNL     1      46.951 131.029  13.331  1.00  0.00    -0.008 A 
ATOM     24  C   UNL     1      47.856 129.981  13.526  1.00  0.00    -0.109 A 
ATOM     25  O   UNL     1      48.748 129.636  12.520  1.00  0.00    -0.872 OA
ENDBRANCH   8  19
TORSDOF 3
ENDMDL
MODEL 5
REMARK VINA RESULT:      -7.7      0.670      1.446
REMARK SMILES [O-]c1ccc(-c2cc3cc(/N=C4\[CH]C=CC4)ncc3[nH+]c2Cl)cc1
REMARK SMILES IDX 10 1 17 2 18 3 19 4 8 5 9 6 7 7 6 8 21 9 22 10 20 11 11 13
REMARK SMILES IDX 12 14 13 15 14 16 15 17 16 18 5 19 4 20 23 21 3 22 24 23
REMARK SMILES IDX 2 24 1 25
REMARK H PARENT 20 12
ROOT
ATOM      1  C   UNL     1      43.420 131.229  21.235  1.00  0.00     0.152 A 
ATOM      2  N   UNL     1      42.275 131.830  20.805  1.00  0.00    -0.230 NA
ATOM      3  C   UNL     1      42.047 132.101  19.492  1.00  0.00     0.193 A 
ATOM      4  C   UNL     1      43.008 131.766  18.530  1.00  0.00     0.230 A 
ATOM      5  C   UNL     1      44.202 131.148  18.947  1.00  0.00     0.052 A 
ATOM      6  C   UNL     1      44.408 130.882  20.307  1.00  0.00     0.064 A 
ATOM      7  C   UNL     1      45.165 130.814  17.990  1.00  0.00     0.032 A 
ATOM      8  C   UNL     1      44.941 131.098  16.634  1.00  0.00     0.067 A 
ATOM      9  C   UNL     1      43.724 131.708  16.259  1.00  0.00     0.281 A 
ATOM     10  Cl  UNL     1      43.333 132.016  14.568  1.00  0.00    -0.010 Cl
ATOM     11  N   UNL     1      42.799 132.026  17.208  1.00  0.00    -0.193 N 
ATOM     12  H   UNL     1      41.904 132.473  16.904  1.00  0.00     0.455 HD
ENDROOT
BRANCH   1  13
ATOM     13  N   UNL     1      43.649 130.959  22.627  1.00  0.00    -0.237 NA
BRANCH  13  14
ATOM     14  C   UNL     1      43.955 129.816  23.171  1.00  0.00     0.032 C 
ATOM     15  C   UNL     1      43.664 129.408  24.578  1.00  0.00     0.069 C 
ATOM     16  C   UNL     1      44.262 128.044  24.619  1.00  0.00    -0.020 C 
ATOM     17  C   UNL     1      44.801 127.687  23.457  1.00  0.00    -0.025 C 
ATOM     18  C   UNL     1      44.668 128.749  22.420  1.00  0.00     0.079 C 
ENDBRANCH  13  14
ENDBRANCH   1  13
BRANCH   8  19
ATOM     19  C   UNL     1      45.981 130.748  15.641  1.00  0.00    -0.011 A 
ATOM     20  C   UNL     1      46.085 131.472  14.441  1.00  0.00     0.008 A 
ATOM     21  C   UNL     1      46.848 129.665  15.867  1.00  0.00     0.008 A 
ATOM     22  C   UNL     1      47.054 131.132  13.493  1.00  0.00    -0.008 A 
ATOM     23  C   UNL     1      47.817 129.327  14.916  1.00  0.00    -0.008 A 
ATOM     24  C   UNL     1      47.922 130.061  13.731  1.00  0.00    -0.109 A 
ATOM     25  O   UNL     1      48.885 129.725  12.788  1.00  0.00    -0.872 OA
ENDBRANCH   8  19
TORSDOF 3
ENDMDL
MODEL 6
REMARK VINA RESULT:      -7.1      1.268      1.600
REMARK SMILES [O-]c1ccc(-c2cc3cc(/N=C4\[CH]C=CC4)ncc3[nH+]c2Cl)cc1
REMARK SMILES IDX 10 1 17 2 18 3 19 4 8 5 9 6 7 7 6 8 21 9 22 10 20 11 11 13
REMARK SMILES IDX 12 14 13 15 14 16 15 17 16 18 5 19 4 20 23 21 3 22 24 23
REMARK SMILES IDX 2 24 1 25
REMARK H PARENT 20 12
ROOT
ATOM      1  C   UNL     1      44.320 130.317  21.950  1.00  0.00     0.152 A 
ATOM      2  N   UNL     1      43.165 131.030  21.822  1.00  0.00    -0.230 NA
ATOM      3  C   UNL     1      42.754 131.536  20.630  1.00  0.00     0.193 A 
ATOM      4  C   UNL     1      43.527 131.339  19.479  1.00  0.00     0.230 A 
ATOM      5  C   UNL     1      44.726 130.609  19.582  1.00  0.00     0.052 A 
ATOM      6  C   UNL     1      45.124 130.099  20.825  1.00  0.00     0.064 A 
ATOM      7  C   UNL     1      45.502 130.411  18.436  1.00  0.00     0.032 A 
ATOM      8  C   UNL     1      45.088 130.938  17.204  1.00  0.00     0.067 A 
ATOM      9  C   UNL     1      43.872 131.653  17.143  1.00  0.00     0.281 A 
ATOM     10  Cl  UNL     1      43.243 132.270  15.617  1.00  0.00    -0.010 Cl
ATOM     11  N   UNL     1      43.131 131.835  18.273  1.00  0.00    -0.193 N 
ATOM     12  H   UNL     1      42.232 132.365  18.201  1.00  0.00     0.455 HD
ENDROOT
BRANCH   1  13
ATOM     13  N   UNL     1      44.745 129.796  23.219  1.00  0.00    -0.237 NA
BRANCH  13  14
ATOM     14  C   UNL     1      44.616 128.577  23.657  1.00  0.00     0.032 C 
ATOM     15  C   UNL     1      45.630 127.487  23.529  1.00  0.00     0.069 C 
ATOM     16  C   UNL     1      44.921 126.347  24.176  1.00  0.00    -0.020 C 
ATOM     17  C   UNL     1      43.715 126.684  24.624  1.00  0.00    -0.025 C 
ATOM     18  C   UNL     1      43.387 128.112  24.355  1.00  0.00     0.079 C 
ENDBRANCH  13  14
ENDBRANCH   1  13
BRANCH   8  19
ATOM     19  C   UNL     1      45.933 130.727  16.007  1.00  0.00    -0.011 A 
ATOM     20  C   UNL     1      46.333 129.431  15.643  1.00  0.00     0.008 A 
ATOM     21  C   UNL     1      46.379 131.822  15.246  1.00  0.00     0.008 A 
ATOM     22  C   UNL     1      47.147 129.230  14.524  1.00  0.00    -0.008 A 
ATOM     23  C   UNL     1      47.193 131.618  14.127  1.00  0.00    -0.008 A 
ATOM     24  C   UNL     1      47.576 130.323  13.765  1.00  0.00    -0.109 A 
ATOM     25  O   UNL     1      48.384 130.122  12.653  1.00  0.00    -0.872 OA
ENDBRANCH   8  19
TORSDOF 3
ENDMDL


