REMARK SMILES O/C(=C\Cc1c(F)cccc1F)c1ccc(Nc2ccc3cc[nH]c3c2O)cc1
REMARK SMILES IDX 13 1 14 2 15 3 16 4 28 5 29 6 2 7 1 8 3 10 4 11 5 12 6 13
REMARK SMILES IDX 11 14 8 15 10 16 9 17 7 18 12 19 17 20 18 22 19 23 26 24
REMARK SMILES IDX 20 25 25 26 21 27 24 28 22 29 23 30 27 32
REMARK H PARENT 1 9 17 21 24 31 27 33
ROOT
ATOM      1  C   UNL     1       1.341  -0.266  -0.046  1.00  0.00     0.016 A 
ATOM      2  C   UNL     1      -0.033  -0.497  -0.217  1.00  0.00     0.014 A 
ATOM      3  C   UNL     1      -0.911   0.568  -0.437  1.00  0.00     0.027 A 
ATOM      4  C   UNL     1      -0.427   1.886  -0.508  1.00  0.00     0.039 A 
ATOM      5  C   UNL     1       0.943   2.120  -0.324  1.00  0.00     0.027 A 
ATOM      6  C   UNL     1       1.821   1.056  -0.103  1.00  0.00     0.014 A 
ENDROOT
BRANCH   1   7
ATOM      7  C   UNL     1       2.263  -1.409   0.178  1.00  0.00     0.119 C 
BRANCH   7   8
ATOM      8  O   UNL     1       2.060  -2.607  -0.510  1.00  0.00    -0.508 OA
ATOM      9  H   UNL     1       1.336  -2.706  -1.211  1.00  0.00     0.293 HD
ENDBRANCH   7   8
BRANCH   7  10
ATOM     10  C   UNL     1       3.284  -1.314   1.042  1.00  0.00     0.025 C 
BRANCH  10  11
ATOM     11  C   UNL     1       4.229  -2.460   1.274  1.00  0.00     0.073 C 
BRANCH  11  12
ATOM     12  C   UNL     1       5.285  -2.087   2.284  1.00  0.00     0.027 A 
ATOM     13  C   UNL     1       5.063  -2.298   3.659  1.00  0.00     0.129 A 
ATOM     14  C   UNL     1       6.479  -1.465   1.869  1.00  0.00     0.129 A 
ATOM     15  C   UNL     1       6.032  -1.921   4.595  1.00  0.00     0.040 A 
ATOM     16  C   UNL     1       7.442  -1.091   2.813  1.00  0.00     0.040 A 
ATOM     17  C   UNL     1       7.220  -1.321   4.172  1.00  0.00     0.006 A 
ATOM     18  F   UNL     1       3.908  -2.864   4.094  1.00  0.00    -0.207 F 
ATOM     19  F   UNL     1       6.709  -1.216   0.555  1.00  0.00    -0.207 F 
ENDBRANCH  11  12
ENDBRANCH  10  11
ENDBRANCH   7  10
ENDBRANCH   1   7
BRANCH   4  20
ATOM     20  N   UNL     1      -1.313   3.000  -0.714  1.00  0.00    -0.352 N 
ATOM     21  H   UNL     1      -1.034   3.929  -0.322  1.00  0.00     0.167 HD
BRANCH  20  22
ATOM     22  C   UNL     1      -2.602   2.901  -1.340  1.00  0.00     0.083 A 
ATOM     23  C   UNL     1      -3.703   3.568  -0.751  1.00  0.00     0.031 A 
ATOM     24  C   UNL     1      -2.774   2.196  -2.559  1.00  0.00     0.163 A 
ATOM     25  C   UNL     1      -4.979   3.505  -1.333  1.00  0.00     0.013 A 
ATOM     26  C   UNL     1      -4.063   2.147  -3.109  1.00  0.00     0.090 A 
ATOM     27  C   UNL     1      -5.122   2.780  -2.511  1.00  0.00     0.003 A 
ATOM     28  N   UNL     1      -4.460   1.534  -4.239  1.00  0.00    -0.358 N 
ATOM     29  C   UNL     1      -6.235   2.557  -3.291  1.00  0.00     0.028 A 
ATOM     30  C   UNL     1      -5.785   1.780  -4.352  1.00  0.00     0.083 A 
ATOM     31  H   UNL     1      -3.882   0.977  -4.905  1.00  0.00     0.166 HD
BRANCH  24  32
ATOM     32  O   UNL     1      -1.684   1.595  -3.190  1.00  0.00    -0.504 OA
ATOM     33  H   UNL     1      -1.772   1.091  -4.063  1.00  0.00     0.293 HD
ENDBRANCH  24  32
ENDBRANCH  20  22
ENDBRANCH   4  20
TORSDOF 8


