REMARK SMILES COCCN/C(S)=[N+]1/CC[C@H](C)[C@@H](F)[C@@H]1c1ccc(C(C)=O)cc1
REMARK SMILES IDX 6 1 5 2 7 4 8 6 9 7 15 8 10 9 13 10 11 11 14 12 12 13 16 14
REMARK SMILES IDX 17 15 24 16 18 17 23 18 19 19 20 20 22 21 21 22 4 23 3 24
REMARK SMILES IDX 2 25 1 26
REMARK H PARENT 5 3 7 5
ROOT
ATOM      1  C   UNL     1      -1.327  -1.157   1.567  1.00  0.00     0.303 C 
ATOM      2  N   UNL     1      -0.862  -0.015   2.317  1.00  0.00    -0.267 N 
ATOM      3  H   UNL     1      -0.514   0.832   1.815  1.00  0.00     0.305 HD
ENDROOT
BRANCH   1   4
ATOM      4  S   UNL     1      -1.320  -2.769   2.393  1.00  0.00    -0.056 SA
ATOM      5  H   UNL     1      -2.633  -2.591   2.865  1.00  0.00     0.116 HD
ENDBRANCH   1   4
BRANCH   1   6
ATOM      6  N   UNL     1      -1.743  -1.035   0.318  1.00  0.00    -0.247 N 
ATOM      7  C   UNL     1      -2.096  -2.240  -0.471  1.00  0.00     0.238 C 
ATOM      8  C   UNL     1      -1.970   0.304  -0.286  1.00  0.00     0.241 C 
ATOM      9  C   UNL     1      -2.040  -1.980  -1.981  1.00  0.00     0.052 C 
ATOM     10  C   UNL     1      -3.132   0.255  -1.307  1.00  0.00     0.219 C 
ATOM     11  C   UNL     1      -2.939  -0.806  -2.419  1.00  0.00     0.029 C 
ATOM     12  F   UNL     1      -4.299  -0.036  -0.616  1.00  0.00    -0.242 F 
ATOM     13  C   UNL     1      -2.408  -0.176  -3.715  1.00  0.00     0.011 C 
BRANCH   8  14
ATOM     14  C   UNL     1      -0.703   0.910  -0.880  1.00  0.00    -0.001 A 
ATOM     15  C   UNL     1       0.490   0.175  -1.024  1.00  0.00     0.009 A 
ATOM     16  C   UNL     1      -0.709   2.260  -1.267  1.00  0.00     0.009 A 
ATOM     17  C   UNL     1       1.632   0.768  -1.570  1.00  0.00     0.012 A 
ATOM     18  C   UNL     1       0.432   2.853  -1.813  1.00  0.00     0.012 A 
ATOM     19  C   UNL     1       1.617   2.115  -1.977  1.00  0.00     0.017 A 
BRANCH  19  20
ATOM     20  C   UNL     1       2.823   2.761  -2.562  1.00  0.00     0.159 C 
ATOM     21  O   UNL     1       2.777   3.971  -2.913  1.00  0.00    -0.295 OA
ATOM     22  C   UNL     1       4.109   2.013  -2.753  1.00  0.00     0.093 C 
ENDBRANCH  19  20
ENDBRANCH   8  14
ENDBRANCH   1   6
BRANCH   2  23
ATOM     23  C   UNL     1      -0.809  -0.020   3.780  1.00  0.00     0.262 C 
BRANCH  23  24
ATOM     24  C   UNL     1      -0.375   1.343   4.319  1.00  0.00     0.205 C 
BRANCH  24  25
ATOM     25  O   UNL     1      -0.354   1.295   5.729  1.00  0.00    -0.381 OA
ATOM     26  C   UNL     1       0.047   2.550   6.232  1.00  0.00     0.195 C 
ENDBRANCH  24  25
ENDBRANCH  23  24
ENDBRANCH   2  23
TORSDOF 7


