REMARK SMILES CC(=O)c1ccc(-c2ccc(OC(=O)[C@@H]3C[C@H]3C=O)cc2)c2c[n-]nc12
REMARK SMILES IDX 12 1 11 2 8 3 9 4 21 5 10 6 20 7 7 8 4 9 5 10 26 11 6 12
REMARK SMILES IDX 25 13 22 14 24 15 23 16 2 17 1 18 3 19 13 20 14 21 15 22
REMARK SMILES IDX 16 23 17 24 18 25 19 26
REMARK H PARENT
ROOT
ATOM      1  O   UNL     1      -1.728  -1.396  -2.266  1.00  0.00    -0.426 OA
ENDROOT
BRANCH   1   2
ATOM      2  C   UNL     1      -0.706  -1.311  -1.310  1.00  0.00     0.130 A 
ATOM      3  C   UNL     1       1.383  -1.228   0.584  1.00  0.00    -0.018 A 
ATOM      4  C   UNL     1       1.262  -2.314  -0.299  1.00  0.00     0.012 A 
ATOM      5  C   UNL     1       0.428  -0.199   0.533  1.00  0.00     0.012 A 
ATOM      6  C   UNL     1       0.224  -2.353  -1.235  1.00  0.00     0.048 A 
ATOM      7  C   UNL     1      -0.610  -0.240  -0.403  1.00  0.00     0.048 A 
BRANCH   3   8
ATOM      8  C   UNL     1       2.481  -1.181   1.578  1.00  0.00    -0.011 A 
ATOM      9  C   UNL     1       4.604  -1.087   3.507  1.00  0.00     0.042 A 
ATOM     10  C   UNL     1       3.263  -0.826   3.878  1.00  0.00     0.014 A 
ATOM     11  C   UNL     1       4.833  -1.385   2.151  1.00  0.00     0.058 A 
ATOM     12  C   UNL     1       2.220  -0.870   2.929  1.00  0.00     0.010 A 
ATOM     13  N   UNL     1       6.006  -1.623   1.536  1.00  0.00    -0.367 NA
ATOM     14  C   UNL     1       3.816  -1.429   1.233  1.00  0.00    -0.014 A 
ATOM     15  N   UNL     1       5.758  -1.811   0.244  1.00  0.00    -0.581 NA
ATOM     16  C   UNL     1       4.429  -1.694   0.028  1.00  0.00    -0.113 A 
BRANCH   9  17
ATOM     17  C   UNL     1       5.686  -1.024   4.530  1.00  0.00     0.161 C 
ATOM     18  C   UNL     1       7.102  -1.412   4.231  1.00  0.00     0.093 C 
ATOM     19  O   UNL     1       5.416  -0.623   5.694  1.00  0.00    -0.294 OA
ENDBRANCH   9  17
ENDBRANCH   3   8
ENDBRANCH   1   2
BRANCH   1  20
ATOM     20  C   UNL     1      -2.385  -0.304  -2.850  1.00  0.00     0.315 C 
ATOM     21  O   UNL     1      -1.891   0.855  -2.802  1.00  0.00    -0.251 OA
BRANCH  20  22
ATOM     22  C   UNL     1      -3.632  -0.538  -3.640  1.00  0.00     0.110 C 
ATOM     23  C   UNL     1      -4.861   0.178  -3.096  1.00  0.00     0.028 C 
ATOM     24  C   UNL     1      -4.707  -1.325  -2.903  1.00  0.00     0.068 C 
BRANCH  24  25
ATOM     25  C   UNL     1      -5.591  -2.148  -3.789  1.00  0.00     0.228 C 
ATOM     26  O   UNL     1      -6.795  -2.186  -3.590  1.00  0.00    -0.303 OA
ENDBRANCH  24  25
ENDBRANCH  20  22
ENDBRANCH   1  20
TORSDOF 6


