REMARK SMILES Oc1cc(-c2cccc3[nH+]coc23)cc(F)c1F
REMARK SMILES IDX 2 1 3 2 4 3 14 4 15 5 16 6 17 7 18 8 1 9 5 11 6 12 13 13
REMARK SMILES IDX 7 14 12 15 9 16 8 17 11 18 10 19
REMARK H PARENT 1 10 10 20
ROOT
ATOM      1  C   UNL     1      -2.989  -0.038  -0.767  1.00  0.00     0.154 A 
ATOM      2  C   UNL     1      -1.627  -0.105  -1.093  1.00  0.00     0.058 A 
ATOM      3  C   UNL     1      -0.656   0.416  -0.218  1.00  0.00    -0.008 A 
ATOM      4  C   UNL     1      -1.074   1.011   0.987  1.00  0.00     0.051 A 
ATOM      5  C   UNL     1      -2.432   1.076   1.311  1.00  0.00     0.163 A 
ATOM      6  F   UNL     1      -2.820   1.646   2.479  1.00  0.00    -0.204 F 
ATOM      7  C   UNL     1      -3.388   0.552   0.437  1.00  0.00     0.200 A 
ATOM      8  F   UNL     1      -4.705   0.618   0.757  1.00  0.00    -0.200 F 
ENDROOT
BRANCH   1   9
ATOM      9  O   UNL     1      -3.950  -0.553  -1.634  1.00  0.00    -0.505 OA
ATOM     10  H   UNL     1      -3.693  -0.986  -2.514  1.00  0.00     0.293 HD
ENDBRANCH   1   9
BRANCH   3  11
ATOM     11  C   UNL     1       0.786   0.349  -0.561  1.00  0.00     0.032 A 
ATOM     12  C   UNL     1       1.655   1.440  -0.315  1.00  0.00     0.013 A 
ATOM     13  C   UNL     1       1.358  -0.793  -1.136  1.00  0.00     0.212 A 
ATOM     14  C   UNL     1       3.027   1.362  -0.648  1.00  0.00     0.008 A 
ATOM     15  O   UNL     1       0.795  -1.938  -1.443  1.00  0.00    -0.403 OA
ATOM     16  C   UNL     1       2.682  -0.861  -1.456  1.00  0.00     0.249 A 
ATOM     17  C   UNL     1       3.557   0.196  -1.228  1.00  0.00     0.083 A 
ATOM     18  C   UNL     1       1.752  -2.699  -1.949  1.00  0.00     0.521 A 
ATOM     19  N   UNL     1       2.950  -2.067  -1.976  1.00  0.00    -0.176 N 
ATOM     20  H   UNL     1       3.865  -2.438  -2.317  1.00  0.00     0.457 HD
ENDBRANCH   3  11
TORSDOF 2


