REMARK SMILES CC(C)c1ccc(NC(=O)N(N)c2ccccc2-c2nc3ccccc3[n-]2)cc1
REMARK SMILES IDX 8 1 9 2 10 3 7 5 4 6 5 7 29 8 6 9 28 10 2 11 1 12 3 13 11 14
REMARK SMILES IDX 12 15 13 18 14 19 18 20 15 21 17 22 16 23 19 24 20 25 27 26
REMARK SMILES IDX 21 27 26 28 22 29 25 30 23 31 24 32
REMARK H PARENT 8 4 12 16 12 17
ROOT
ATOM      1  N   UNL     1      -0.425   0.178   0.421  1.00  0.00    -0.306 N 
ATOM      2  C   UNL     1      -0.291   0.190   1.855  1.00  0.00     0.340 C 
ATOM      3  O   UNL     1       0.487   1.016   2.405  1.00  0.00    -0.246 OA
ATOM      4  H   UNL     1      -0.901  -0.629  -0.037  1.00  0.00     0.171 HD
ENDROOT
BRANCH   1   5
ATOM      5  C   UNL     1       0.187   1.149  -0.444  1.00  0.00     0.042 A 
ATOM      6  C   UNL     1       1.345   3.029  -2.203  1.00  0.00    -0.045 A 
ATOM      7  C   UNL     1       1.288   1.667  -2.548  1.00  0.00     0.006 A 
ATOM      8  C   UNL     1       0.802   3.442  -0.971  1.00  0.00     0.006 A 
ATOM      9  C   UNL     1       0.707   0.739  -1.679  1.00  0.00     0.026 A 
ATOM     10  C   UNL     1       0.222   2.512  -0.104  1.00  0.00     0.026 A 
BRANCH   6  11
ATOM     11  C   UNL     1       1.978   4.027  -3.154  1.00  0.00     0.013 C 
ATOM     12  C   UNL     1       0.959   5.076  -3.616  1.00  0.00     0.012 C 
ATOM     13  C   UNL     1       3.205   4.692  -2.518  1.00  0.00     0.012 C 
ENDBRANCH   6  11
ENDBRANCH   1   5
BRANCH   2  14
ATOM     14  N   UNL     1      -1.013  -0.751   2.679  1.00  0.00    -0.229 N 
BRANCH  14  15
ATOM     15  N   UNL     1      -1.023  -0.603   4.077  1.00  0.00    -0.239 NA
ATOM     16  H   UNL     1      -1.393   0.350   4.296  1.00  0.00     0.144 HD
ATOM     17  H   UNL     1      -0.033  -0.649   4.412  1.00  0.00     0.144 HD
ENDBRANCH  14  15
BRANCH  14  18
ATOM     18  C   UNL     1      -1.814  -1.796   2.108  1.00  0.00     0.069 A 
ATOM     19  C   UNL     1      -3.209  -1.707   2.219  1.00  0.00     0.028 A 
ATOM     20  C   UNL     1      -1.232  -2.898   1.429  1.00  0.00    -0.001 A 
ATOM     21  C   UNL     1      -4.030  -2.676   1.641  1.00  0.00     0.002 A 
ATOM     22  C   UNL     1      -2.077  -3.857   0.841  1.00  0.00     0.010 A 
ATOM     23  C   UNL     1      -3.465  -3.745   0.947  1.00  0.00     0.001 A 
BRANCH  20  24
ATOM     24  C   UNL     1       0.238  -3.077   1.328  1.00  0.00    -0.049 A 
ATOM     25  N   UNL     1       1.121  -2.506   2.191  1.00  0.00    -0.435 NA
ATOM     26  N   UNL     1       0.818  -3.849   0.368  1.00  0.00    -0.435 NA
ATOM     27  C   UNL     1       2.304  -2.939   1.734  1.00  0.00    -0.038 A 
ATOM     28  C   UNL     1       2.124  -3.739   0.649  1.00  0.00    -0.038 A 
ATOM     29  C   UNL     1       3.569  -2.658   2.244  1.00  0.00     0.004 A 
ATOM     30  C   UNL     1       3.195  -4.328  -0.019  1.00  0.00     0.004 A 
ATOM     31  C   UNL     1       4.677  -3.236   1.595  1.00  0.00     0.000 A 
ATOM     32  C   UNL     1       4.490  -4.068   0.467  1.00  0.00     0.000 A 
ENDBRANCH  20  24
ENDBRANCH  14  18
ENDBRANCH   2  14
TORSDOF 6


