REMARK SMILES C=C1CC[C@@H](c2ccc(C)c(F)c2)[C@@H]2[NH2+]C=C[C@H]12
REMARK SMILES IDX 1 1 2 2 3 3 4 4 5 5 14 6 15 7 16 8 17 9 18 10 6 13 7 14
REMARK SMILES IDX 13 15 8 16 11 17 9 18 12 19 10 20
REMARK H PARENT 15 11 15 12
ROOT
ATOM      1  C   UNL     1      -1.217   0.081   2.902  1.00  0.00     0.008 C 
ATOM      2  C   UNL     1      -0.402   0.603   1.972  1.00  0.00    -0.064 C 
ATOM      3  C   UNL     1       0.984   0.016   1.827  1.00  0.00     0.032 C 
ATOM      4  C   UNL     1       1.878   0.817   0.884  1.00  0.00     0.019 C 
ATOM      5  C   UNL     1       1.164   1.172  -0.426  1.00  0.00     0.079 C 
ATOM      6  C   UNL     1      -0.060   2.097  -0.161  1.00  0.00     0.205 C 
ATOM      7  N   UNL     1       0.354   3.509   0.026  1.00  0.00    -0.317 N 
ATOM      8  C   UNL     1      -0.294   3.933   1.224  1.00  0.00     0.217 C 
ATOM      9  C   UNL     1      -0.985   2.993   1.835  1.00  0.00     0.046 C 
ATOM     10  C   UNL     1      -0.925   1.719   1.078  1.00  0.00     0.102 C 
ATOM     11  H   UNL     1       1.385   3.628   0.154  1.00  0.00     0.352 HD
ATOM     12  H   UNL     1       0.023   4.104  -0.769  1.00  0.00     0.352 HD
ENDROOT
BRANCH   5  13
ATOM     13  C   UNL     1       0.861  -0.074  -1.256  1.00  0.00    -0.036 A 
ATOM     14  C   UNL     1       1.874  -0.603  -2.077  1.00  0.00     0.005 A 
ATOM     15  C   UNL     1      -0.369  -0.758  -1.183  1.00  0.00     0.043 A 
ATOM     16  C   UNL     1       1.656  -1.762  -2.826  1.00  0.00     0.007 A 
ATOM     17  C   UNL     1      -0.588  -1.918  -1.932  1.00  0.00     0.126 A 
ATOM     18  C   UNL     1       0.420  -2.420  -2.770  1.00  0.00    -0.015 A 
ATOM     19  F   UNL     1      -1.782  -2.557  -1.834  1.00  0.00    -0.207 F 
ATOM     20  C   UNL     1       0.197  -3.682  -3.551  1.00  0.00     0.047 C 
ENDBRANCH   5  13
TORSDOF 1


