MODEL 1
REMARK VINA RESULT:     -10.0      0.000      0.000
REMARK SMILES COc1cccc(-c2cc3cc(F)ccc3[nH]2)n1
REMARK SMILES IDX 3 1 4 2 5 3 6 4 7 5 18 6 2 7 1 8 8 9 9 10 17 11 10 12 16 13
REMARK SMILES IDX 11 14 15 15 12 16 14 17 13 19
REMARK H PARENT 17 18
ROOT
ATOM      1  C   UNL     1      43.147 131.984  19.518  1.00  0.00     0.213 A 
ATOM      2  C   UNL     1      43.693 131.589  20.740  1.00  0.00     0.068 A 
ATOM      3  C   UNL     1      44.940 130.963  20.762  1.00  0.00     0.008 A 
ATOM      4  C   UNL     1      45.628 130.736  19.568  1.00  0.00     0.031 A 
ATOM      5  C   UNL     1      45.054 131.144  18.351  1.00  0.00     0.091 A 
ATOM      6  N   UNL     1      43.835 131.753  18.365  1.00  0.00    -0.212 NA
ENDROOT
BRANCH   1   7
ATOM      7  O   UNL     1      41.898 132.612  19.493  1.00  0.00    -0.481 OA
ATOM      8  C   UNL     1      41.337 133.254  20.632  1.00  0.00     0.280 C 
ENDBRANCH   1   7
BRANCH   5   9
ATOM      9  C   UNL     1      45.734 130.933  17.055  1.00  0.00     0.065 A 
ATOM     10  C   UNL     1      45.723 131.803  15.960  1.00  0.00     0.038 A 
ATOM     11  N   UNL     1      46.471 129.828  16.778  1.00  0.00    -0.353 N 
ATOM     12  C   UNL     1      46.488 131.178  14.999  1.00  0.00     0.003 A 
ATOM     13  C   UNL     1      46.924 129.991  15.524  1.00  0.00     0.046 A 
ATOM     14  C   UNL     1      46.825 131.579  13.708  1.00  0.00     0.049 A 
ATOM     15  C   UNL     1      47.728 129.118  14.794  1.00  0.00     0.030 A 
ATOM     16  C   UNL     1      47.636 130.719  12.944  1.00  0.00     0.123 A 
ATOM     17  C   UNL     1      48.086 129.494  13.486  1.00  0.00     0.041 A 
ATOM     18  H   UNL     1      46.653 129.013  17.406  1.00  0.00     0.167 HD
ATOM     19  F   UNL     1      47.989 131.068  11.683  1.00  0.00    -0.207 F 
ENDBRANCH   5   9
TORSDOF 2
ENDMDL
MODEL 2
REMARK VINA RESULT:      -9.9      1.555      2.489
REMARK SMILES COc1cccc(-c2cc3cc(F)ccc3[nH]2)n1
REMARK SMILES IDX 3 1 4 2 5 3 6 4 7 5 18 6 2 7 1 8 8 9 9 10 17 11 10 12 16 13
REMARK SMILES IDX 11 14 15 15 12 16 14 17 13 19
REMARK H PARENT 17 18
ROOT
ATOM      1  C   UNL     1      43.892 131.523  20.624  1.00  0.00     0.213 A 
ATOM      2  C   UNL     1      42.607 132.046  20.474  1.00  0.00     0.068 A 
ATOM      3  C   UNL     1      42.116 132.300  19.193  1.00  0.00     0.008 A 
ATOM      4  C   UNL     1      42.908 132.030  18.076  1.00  0.00     0.031 A 
ATOM      5  C   UNL     1      44.199 131.502  18.255  1.00  0.00     0.091 A 
ATOM      6  N   UNL     1      44.648 131.267  19.520  1.00  0.00    -0.212 NA
ENDROOT
BRANCH   1   7
ATOM      7  O   UNL     1      44.387 131.268  21.906  1.00  0.00    -0.481 OA
ATOM      8  C   UNL     1      44.538 129.952  22.424  1.00  0.00     0.280 C 
ENDBRANCH   1   7
BRANCH   5   9
ATOM      9  C   UNL     1      45.085 131.195  17.111  1.00  0.00     0.065 A 
ATOM     10  C   UNL     1      45.740 129.984  16.871  1.00  0.00     0.038 A 
ATOM     11  N   UNL     1      45.368 132.092  16.133  1.00  0.00    -0.353 N 
ATOM     12  C   UNL     1      46.439 130.180  15.700  1.00  0.00     0.003 A 
ATOM     13  C   UNL     1      46.192 131.460  15.282  1.00  0.00     0.046 A 
ATOM     14  C   UNL     1      47.267 129.319  14.982  1.00  0.00     0.049 A 
ATOM     15  C   UNL     1      46.759 131.972  14.115  1.00  0.00     0.030 A 
ATOM     16  C   UNL     1      47.854 129.806  13.800  1.00  0.00     0.123 A 
ATOM     17  C   UNL     1      47.600 131.127  13.368  1.00  0.00     0.041 A 
ATOM     18  H   UNL     1      45.020 133.073  16.053  1.00  0.00     0.167 HD
ATOM     19  F   UNL     1      48.667 129.003  13.071  1.00  0.00    -0.207 F 
ENDBRANCH   5   9
TORSDOF 2
ENDMDL
MODEL 3
REMARK VINA RESULT:      -9.7      1.398      1.937
REMARK SMILES COc1cccc(-c2cc3cc(F)ccc3[nH]2)n1
REMARK SMILES IDX 3 1 4 2 5 3 6 4 7 5 18 6 2 7 1 8 8 9 9 10 17 11 10 12 16 13
REMARK SMILES IDX 11 14 15 15 12 16 14 17 13 19
REMARK H PARENT 17 18
ROOT
ATOM      1  C   UNL     1      44.247 131.399  20.882  1.00  0.00     0.213 A 
ATOM      2  C   UNL     1      42.941 131.889  20.843  1.00  0.00     0.068 A 
ATOM      3  C   UNL     1      42.349 132.163  19.609  1.00  0.00     0.008 A 
ATOM      4  C   UNL     1      43.063 131.946  18.429  1.00  0.00     0.031 A 
ATOM      5  C   UNL     1      44.377 131.451  18.498  1.00  0.00     0.091 A 
ATOM      6  N   UNL     1      44.926 131.195  19.718  1.00  0.00    -0.212 NA
ENDROOT
BRANCH   1   7
ATOM      7  O   UNL     1      44.843 131.124  22.116  1.00  0.00    -0.481 OA
ATOM      8  C   UNL     1      44.122 131.156  23.342  1.00  0.00     0.280 C 
ENDBRANCH   1   7
BRANCH   5   9
ATOM      9  C   UNL     1      45.184 131.201  17.283  1.00  0.00     0.065 A 
ATOM     10  C   UNL     1      45.414 132.102  16.239  1.00  0.00     0.038 A 
ATOM     11  N   UNL     1      45.812 130.023  17.042  1.00  0.00    -0.353 N 
ATOM     12  C   UNL     1      46.212 131.421  15.347  1.00  0.00     0.003 A 
ATOM     13  C   UNL     1      46.434 130.171  15.861  1.00  0.00     0.046 A 
ATOM     14  C   UNL     1      46.753 131.820  14.126  1.00  0.00     0.049 A 
ATOM     15  C   UNL     1      47.212 129.230  15.190  1.00  0.00     0.030 A 
ATOM     16  C   UNL     1      47.544 130.892  13.424  1.00  0.00     0.123 A 
ATOM     17  C   UNL     1      47.773 129.603  13.954  1.00  0.00     0.041 A 
ATOM     18  H   UNL     1      45.816 129.171  17.647  1.00  0.00     0.167 HD
ATOM     19  F   UNL     1      48.090 131.237  12.232  1.00  0.00    -0.207 F 
ENDBRANCH   5   9
TORSDOF 2
ENDMDL
MODEL 4
REMARK VINA RESULT:      -9.6      0.847      1.491
REMARK SMILES COc1cccc(-c2cc3cc(F)ccc3[nH]2)n1
REMARK SMILES IDX 3 1 4 2 5 3 6 4 7 5 18 6 2 7 1 8 8 9 9 10 17 11 10 12 16 13
REMARK SMILES IDX 11 14 15 15 12 16 14 17 13 19
REMARK H PARENT 17 18
ROOT
ATOM      1  C   UNL     1      43.061 132.019  19.643  1.00  0.00     0.213 A 
ATOM      2  C   UNL     1      43.595 131.643  20.876  1.00  0.00     0.068 A 
ATOM      3  C   UNL     1      44.843 131.020  20.921  1.00  0.00     0.008 A 
ATOM      4  C   UNL     1      45.545 130.778  19.738  1.00  0.00     0.031 A 
ATOM      5  C   UNL     1      44.983 131.167  18.509  1.00  0.00     0.091 A 
ATOM      6  N   UNL     1      43.763 131.772  18.501  1.00  0.00    -0.212 NA
ENDROOT
BRANCH   1   7
ATOM      7  O   UNL     1      41.812 132.643  19.595  1.00  0.00    -0.481 OA
ATOM      8  C   UNL     1      41.265 133.355  20.698  1.00  0.00     0.280 C 
ENDBRANCH   1   7
BRANCH   5   9
ATOM      9  C   UNL     1      45.678 130.938  17.223  1.00  0.00     0.065 A 
ATOM     10  C   UNL     1      46.352 129.775  16.840  1.00  0.00     0.038 A 
ATOM     11  N   UNL     1      45.737 131.869  16.238  1.00  0.00    -0.353 N 
ATOM     12  C   UNL     1      46.829 130.037  15.574  1.00  0.00     0.003 A 
ATOM     13  C   UNL     1      46.440 131.307  15.241  1.00  0.00     0.046 A 
ATOM     14  C   UNL     1      47.572 129.243  14.702  1.00  0.00     0.049 A 
ATOM     15  C   UNL     1      46.768 131.876  14.012  1.00  0.00     0.030 A 
ATOM     16  C   UNL     1      47.919 129.789  13.453  1.00  0.00     0.123 A 
ATOM     17  C   UNL     1      47.518 131.099  13.109  1.00  0.00     0.041 A 
ATOM     18  H   UNL     1      45.324 132.828  16.247  1.00  0.00     0.167 HD
ATOM     19  F   UNL     1      48.642 129.053  12.573  1.00  0.00    -0.207 F 
ENDBRANCH   5   9
TORSDOF 2
ENDMDL
MODEL 5
REMARK VINA RESULT:      -9.0      1.789      2.434
REMARK SMILES COc1cccc(-c2cc3cc(F)ccc3[nH]2)n1
REMARK SMILES IDX 3 1 4 2 5 3 6 4 7 5 18 6 2 7 1 8 8 9 9 10 17 11 10 12 16 13
REMARK SMILES IDX 11 14 15 15 12 16 14 17 13 19
REMARK H PARENT 17 18
ROOT
ATOM      1  C   UNL     1      44.204 130.765  21.679  1.00  0.00     0.213 A 
ATOM      2  C   UNL     1      43.053 131.542  21.818  1.00  0.00     0.068 A 
ATOM      3  C   UNL     1      42.536 132.204  20.704  1.00  0.00     0.008 A 
ATOM      4  C   UNL     1      43.170 132.086  19.465  1.00  0.00     0.031 A 
ATOM      5  C   UNL     1      44.328 131.297  19.354  1.00  0.00     0.091 A 
ATOM      6  N   UNL     1      44.807 130.664  20.461  1.00  0.00    -0.212 NA
ENDROOT
BRANCH   1   7
ATOM      7  O   UNL     1      44.725 130.100  22.793  1.00  0.00    -0.481 OA
ATOM      8  C   UNL     1      44.117 128.940  23.349  1.00  0.00     0.280 C 
ENDBRANCH   1   7
BRANCH   5   9
ATOM      9  C   UNL     1      45.043 131.133  18.069  1.00  0.00     0.065 A 
ATOM     10  C   UNL     1      45.111 132.069  17.032  1.00  0.00     0.038 A 
ATOM     11  N   UNL     1      45.738 130.014  17.747  1.00  0.00    -0.353 N 
ATOM     12  C   UNL     1      45.880 131.469  16.059  1.00  0.00     0.003 A 
ATOM     13  C   UNL     1      46.242 130.233  16.521  1.00  0.00     0.046 A 
ATOM     14  C   UNL     1      46.280 131.932  14.807  1.00  0.00     0.049 A 
ATOM     15  C   UNL     1      47.030 129.368  15.764  1.00  0.00     0.030 A 
ATOM     16  C   UNL     1      47.077 131.083  14.017  1.00  0.00     0.123 A 
ATOM     17  C   UNL     1      47.451 129.807  14.494  1.00  0.00     0.041 A 
ATOM     18  H   UNL     1      45.860 129.154  18.328  1.00  0.00     0.167 HD
ATOM     19  F   UNL     1      47.489 131.492  12.792  1.00  0.00    -0.207 F 
ENDBRANCH   5   9
TORSDOF 2
ENDMDL
MODEL 6
REMARK VINA RESULT:      -9.0      1.897      2.979
REMARK SMILES COc1cccc(-c2cc3cc(F)ccc3[nH]2)n1
REMARK SMILES IDX 3 1 4 2 5 3 6 4 7 5 18 6 2 7 1 8 8 9 9 10 17 11 10 12 16 13
REMARK SMILES IDX 11 14 15 15 12 16 14 17 13 19
REMARK H PARENT 17 18
ROOT
ATOM      1  C   UNL     1      43.791 131.133  21.920  1.00  0.00     0.213 A 
ATOM      2  C   UNL     1      42.696 131.984  22.071  1.00  0.00     0.068 A 
ATOM      3  C   UNL     1      42.171 132.630  20.951  1.00  0.00     0.008 A 
ATOM      4  C   UNL     1      42.743 132.423  19.694  1.00  0.00     0.031 A 
ATOM      5  C   UNL     1      43.846 131.561  19.570  1.00  0.00     0.091 A 
ATOM      6  N   UNL     1      44.334 130.946  20.684  1.00  0.00    -0.212 NA
ENDROOT
BRANCH   1   7
ATOM      7  O   UNL     1      44.320 130.484  23.039  1.00  0.00    -0.481 OA
ATOM      8  C   UNL     1      44.063 130.916  24.370  1.00  0.00     0.280 C 
ENDBRANCH   1   7
BRANCH   5   9
ATOM      9  C   UNL     1      44.494 131.301  18.266  1.00  0.00     0.065 A 
ATOM     10  C   UNL     1      45.616 130.497  18.043  1.00  0.00     0.038 A 
ATOM     11  N   UNL     1      44.051 131.835  17.100  1.00  0.00    -0.353 N 
ATOM     12  C   UNL     1      45.840 130.565  16.685  1.00  0.00     0.003 A 
ATOM     13  C   UNL     1      44.880 131.379  16.147  1.00  0.00     0.046 A 
ATOM     14  C   UNL     1      46.821 129.965  15.897  1.00  0.00     0.049 A 
ATOM     15  C   UNL     1      44.831 131.653  14.782  1.00  0.00     0.030 A 
ATOM     16  C   UNL     1      46.799 130.222  14.513  1.00  0.00     0.123 A 
ATOM     17  C   UNL     1      45.807 131.062  13.958  1.00  0.00     0.041 A 
ATOM     18  H   UNL     1      43.235 132.473  16.965  1.00  0.00     0.167 HD
ATOM     19  F   UNL     1      47.733 129.660  13.709  1.00  0.00    -0.207 F 
ENDBRANCH   5   9
TORSDOF 2
ENDMDL
MODEL 7
REMARK VINA RESULT:      -9.0      3.721      7.266
REMARK SMILES COc1cccc(-c2cc3cc(F)ccc3[nH]2)n1
REMARK SMILES IDX 3 1 4 2 5 3 6 4 7 5 18 6 2 7 1 8 8 9 9 10 17 11 10 12 16 13
REMARK SMILES IDX 11 14 15 15 12 16 14 17 13 19
REMARK H PARENT 17 18
ROOT
ATOM      1  C   UNL     1      46.622 130.226  15.054  1.00  0.00     0.213 A 
ATOM      2  C   UNL     1      45.849 130.756  14.020  1.00  0.00     0.068 A 
ATOM      3  C   UNL     1      44.678 131.450  14.326  1.00  0.00     0.008 A 
ATOM      4  C   UNL     1      44.289 131.609  15.657  1.00  0.00     0.031 A 
ATOM      5  C   UNL     1      45.086 131.065  16.680  1.00  0.00     0.091 A 
ATOM      6  N   UNL     1      46.223 130.393  16.347  1.00  0.00    -0.212 NA
ENDROOT
BRANCH   1   7
ATOM      7  O   UNL     1      47.795 129.530  14.751  1.00  0.00    -0.481 OA
ATOM      8  C   UNL     1      48.388 129.548  13.458  1.00  0.00     0.280 C 
ENDBRANCH   1   7
BRANCH   5   9
ATOM      9  C   UNL     1      44.726 131.201  18.108  1.00  0.00     0.065 A 
ATOM     10  C   UNL     1      45.506 130.809  19.201  1.00  0.00     0.038 A 
ATOM     11  N   UNL     1      43.556 131.744  18.528  1.00  0.00    -0.353 N 
ATOM     12  C   UNL     1      44.756 131.136  20.310  1.00  0.00     0.003 A 
ATOM     13  C   UNL     1      43.588 131.697  19.870  1.00  0.00     0.046 A 
ATOM     14  C   UNL     1      45.030 130.976  21.668  1.00  0.00     0.049 A 
ATOM     15  C   UNL     1      42.607 132.138  20.756  1.00  0.00     0.030 A 
ATOM     16  C   UNL     1      44.059 131.412  22.588  1.00  0.00     0.123 A 
ATOM     17  C   UNL     1      42.853 131.992  22.134  1.00  0.00     0.041 A 
ATOM     18  H   UNL     1      42.783 132.121  17.935  1.00  0.00     0.167 HD
ATOM     19  F   UNL     1      44.282 131.276  23.918  1.00  0.00    -0.207 F 
ENDBRANCH   5   9
TORSDOF 2
ENDMDL
MODEL 8
REMARK VINA RESULT:      -8.9      3.780      7.157
REMARK SMILES COc1cccc(-c2cc3cc(F)ccc3[nH]2)n1
REMARK SMILES IDX 3 1 4 2 5 3 6 4 7 5 18 6 2 7 1 8 8 9 9 10 17 11 10 12 16 13
REMARK SMILES IDX 11 14 15 15 12 16 14 17 13 19
REMARK H PARENT 17 18
ROOT
ATOM      1  C   UNL     1      46.713 130.239  14.959  1.00  0.00     0.213 A 
ATOM      2  C   UNL     1      45.957 130.731  13.894  1.00  0.00     0.068 A 
ATOM      3  C   UNL     1      44.757 131.394  14.155  1.00  0.00     0.008 A 
ATOM      4  C   UNL     1      44.323 131.558  15.472  1.00  0.00     0.031 A 
ATOM      5  C   UNL     1      45.104 131.052  16.526  1.00  0.00     0.091 A 
ATOM      6  N   UNL     1      46.270 130.410  16.236  1.00  0.00    -0.212 NA
ENDROOT
BRANCH   1   7
ATOM      7  O   UNL     1      47.915 129.574  14.701  1.00  0.00    -0.481 OA
ATOM      8  C   UNL     1      48.484 129.490  13.400  1.00  0.00     0.280 C 
ENDBRANCH   1   7
BRANCH   5   9
ATOM      9  C   UNL     1      44.697 131.196  17.940  1.00  0.00     0.065 A 
ATOM     10  C   UNL     1      43.494 131.734  18.407  1.00  0.00     0.038 A 
ATOM     11  N   UNL     1      45.478 130.804  18.979  1.00  0.00    -0.353 N 
ATOM     12  C   UNL     1      43.575 131.655  19.780  1.00  0.00     0.003 A 
ATOM     13  C   UNL     1      44.782 131.089  20.091  1.00  0.00     0.046 A 
ATOM     14  C   UNL     1      42.668 132.041  20.766  1.00  0.00     0.049 A 
ATOM     15  C   UNL     1      45.171 130.870  21.412  1.00  0.00     0.030 A 
ATOM     16  C   UNL     1      43.031 131.832  22.109  1.00  0.00     0.123 A 
ATOM     17  C   UNL     1      44.277 131.249  22.431  1.00  0.00     0.041 A 
ATOM     18  H   UNL     1      46.426 130.370  18.929  1.00  0.00     0.167 HD
ATOM     19  F   UNL     1      42.180 132.193  23.101  1.00  0.00    -0.207 F 
ENDBRANCH   5   9
TORSDOF 2
ENDMDL


