REMARK SMILES C=C[C@@H]1C[C@@]([NH2+]c2ccc3cc[nH]c3c2)(c2ccc(C(C)=O)cc2)[C@H](F)C[C@@H]1O
REMARK SMILES IDX 3 1 4 2 5 3 25 4 26 5 27 6 28 7 2 8 1 9 29 10 6 12 7 15 8 16
REMARK SMILES IDX 15 17 9 18 14 19 10 20 13 21 11 22 12 23 16 25 17 26 24 27
REMARK SMILES IDX 18 28 23 29 19 30 20 31 21 32 22 33
REMARK H PARENT 29 11 6 13 6 14 13 24
ROOT
ATOM      1  C   UNL     1      -1.757   0.731  -2.105  1.00  0.00     0.047 C 
ATOM      2  C   UNL     1      -1.312   1.471  -0.819  1.00  0.00     0.087 C 
ATOM      3  C   UNL     1       0.236   1.727  -0.754  1.00  0.00     0.158 C 
ATOM      4  C   UNL     1       0.588   2.539  -2.052  1.00  0.00     0.235 C 
ATOM      5  F   UNL     1      -0.032   3.780  -2.028  1.00  0.00    -0.240 F 
ATOM      6  C   UNL     1       0.177   1.800  -3.337  1.00  0.00     0.077 C 
ATOM      7  C   UNL     1      -1.330   1.505  -3.372  1.00  0.00     0.124 C 
ENDROOT
BRANCH   1   8
ATOM      8  C   UNL     1      -3.251   0.491  -2.084  1.00  0.00    -0.028 C 
ATOM      9  C   UNL     1      -3.838  -0.351  -2.940  1.00  0.00     0.004 C 
ENDBRANCH   1   8
BRANCH   7  10
ATOM     10  O   UNL     1      -2.043   2.712  -3.488  1.00  0.00    -0.392 OA
ATOM     11  H   UNL     1      -2.894   2.505  -3.956  1.00  0.00     0.210 HD
ENDBRANCH   7  10
BRANCH   3  12
ATOM     12  N   UNL     1       0.561   2.580   0.428  1.00  0.00    -0.303 N 
ATOM     13  H   UNL     1       0.012   3.471   0.392  1.00  0.00     0.353 HD
ATOM     14  H   UNL     1       1.569   2.864   0.389  1.00  0.00     0.353 HD
BRANCH  12  15
ATOM     15  C   UNL     1       0.311   1.942   1.706  1.00  0.00     0.132 A 
ATOM     16  C   UNL     1       1.330   1.178   2.341  1.00  0.00     0.068 A 
ATOM     17  C   UNL     1      -0.942   2.093   2.348  1.00  0.00     0.094 A 
ATOM     18  C   UNL     1       1.093   0.543   3.572  1.00  0.00     0.016 A 
ATOM     19  C   UNL     1      -1.141   1.450   3.567  1.00  0.00     0.051 A 
ATOM     20  C   UNL     1      -0.160   0.700   4.154  1.00  0.00    -0.000 A 
ATOM     21  N   UNL     1      -2.252   1.457   4.321  1.00  0.00    -0.361 N 
ATOM     22  C   UNL     1      -0.669   0.206   5.335  1.00  0.00     0.028 A 
ATOM     23  C   UNL     1      -1.969   0.697   5.403  1.00  0.00     0.083 A 
ATOM     24  H   UNL     1      -3.152   1.946   4.117  1.00  0.00     0.166 HD
ENDBRANCH  12  15
ENDBRANCH   3  12
BRANCH   3  25
ATOM     25  C   UNL     1       1.075   0.416  -0.687  1.00  0.00     0.016 A 
ATOM     26  C   UNL     1       0.526  -0.812  -0.246  1.00  0.00     0.011 A 
ATOM     27  C   UNL     1       2.469   0.452  -0.914  1.00  0.00     0.011 A 
ATOM     28  C   UNL     1       1.314  -1.959  -0.130  1.00  0.00     0.012 A 
ATOM     29  C   UNL     1       3.255  -0.696  -0.797  1.00  0.00     0.012 A 
ATOM     30  C   UNL     1       2.688  -1.920  -0.413  1.00  0.00     0.017 A 
BRANCH  30  31
ATOM     31  C   UNL     1       3.541  -3.133  -0.290  1.00  0.00     0.159 C 
ATOM     32  C   UNL     1       2.982  -4.454   0.147  1.00  0.00     0.093 C 
ATOM     33  O   UNL     1       4.771  -3.063  -0.559  1.00  0.00    -0.295 OA
ENDBRANCH  30  31
ENDBRANCH   3  25
TORSDOF 6


