REMARK SMILES CCC[C@H](C)/N=C(\O)N(c1ccc(C)cc1)c1ccc2cc[nH]c2c1O
REMARK SMILES IDX 7 1 8 2 6 4 4 5 5 6 3 7 2 8 1 9 9 10 10 11 11 12 16 13 12 14
REMARK SMILES IDX 15 15 13 16 14 17 17 18 18 19 25 20 19 21 24 22 20 23 23 24
REMARK SMILES IDX 21 25 22 26 26 28
REMARK H PARENT 8 3 23 27 26 29
ROOT
ATOM      1  C   UNL     1       0.484   0.517  -1.263  1.00  0.00     0.294 C 
ENDROOT
BRANCH   1   2
ATOM      2  O   UNL     1      -0.435   0.924  -2.232  1.00  0.00    -0.480 OA
ATOM      3  H   UNL     1      -1.422   1.016  -2.028  1.00  0.00     0.296 HD
ENDBRANCH   1   2
BRANCH   1   4
ATOM      4  N   UNL     1       1.728   0.321  -1.587  1.00  0.00    -0.232 NA
BRANCH   4   5
ATOM      5  C   UNL     1       2.279   0.512  -2.930  1.00  0.00     0.108 C 
ATOM      6  C   UNL     1       2.476   2.011  -3.197  1.00  0.00     0.033 C 
BRANCH   5   7
ATOM      7  C   UNL     1       3.608  -0.268  -3.020  1.00  0.00     0.027 C 
BRANCH   7   8
ATOM      8  C   UNL     1       4.286  -0.243  -4.402  1.00  0.00    -0.001 C 
ATOM      9  C   UNL     1       3.440  -0.892  -5.498  1.00  0.00     0.004 C 
ENDBRANCH   7   8
ENDBRANCH   5   7
ENDBRANCH   4   5
ENDBRANCH   1   4
BRANCH   1  10
ATOM     10  N   UNL     1       0.060   0.296   0.098  1.00  0.00    -0.261 N 
BRANCH  10  11
ATOM     11  C   UNL     1      -1.058   1.028   0.643  1.00  0.00     0.051 A 
ATOM     12  C   UNL     1      -2.014   0.377   1.441  1.00  0.00     0.027 A 
ATOM     13  C   UNL     1      -1.188   2.408   0.410  1.00  0.00     0.027 A 
ATOM     14  C   UNL     1      -3.087   1.089   1.983  1.00  0.00     0.005 A 
ATOM     15  C   UNL     1      -2.261   3.119   0.952  1.00  0.00     0.005 A 
ATOM     16  C   UNL     1      -3.226   2.461   1.729  1.00  0.00    -0.051 A 
ATOM     17  C   UNL     1      -4.356   3.233   2.345  1.00  0.00     0.044 C 
ENDBRANCH  10  11
BRANCH  10  18
ATOM     18  C   UNL     1       0.756  -0.669   0.915  1.00  0.00     0.095 A 
ATOM     19  C   UNL     1       0.985  -1.977   0.416  1.00  0.00     0.031 A 
ATOM     20  C   UNL     1       1.213  -0.322   2.212  1.00  0.00     0.164 A 
ATOM     21  C   UNL     1       1.651  -2.939   1.192  1.00  0.00     0.013 A 
ATOM     22  C   UNL     1       1.871  -1.308   2.961  1.00  0.00     0.090 A 
ATOM     23  C   UNL     1       2.078  -2.567   2.462  1.00  0.00     0.003 A 
ATOM     24  N   UNL     1       2.382  -1.205   4.202  1.00  0.00    -0.358 N 
ATOM     25  C   UNL     1       2.746  -3.292   3.424  1.00  0.00     0.028 A 
ATOM     26  C   UNL     1       2.916  -2.414   4.487  1.00  0.00     0.083 A 
ATOM     27  H   UNL     1       2.377  -0.373   4.831  1.00  0.00     0.166 HD
BRANCH  20  28
ATOM     28  O   UNL     1       1.022   0.969   2.706  1.00  0.00    -0.504 OA
ATOM     29  H   UNL     1       1.337   1.252   3.625  1.00  0.00     0.293 HD
ENDBRANCH  20  28
ENDBRANCH  10  18
ENDBRANCH   1  10
TORSDOF 9


