REMARK SMILES Fc1cnc(Nc2c[n-]c3nccc-3c2)c(N=C=S)c1
REMARK SMILES IDX 5 1 4 2 3 3 2 4 1 5 20 6 16 7 6 8 7 10 12 11 11 12 13 13
REMARK SMILES IDX 10 14 14 15 9 16 15 17 8 18 17 19 18 20 19 21
REMARK H PARENT 6 9
ROOT
ATOM      1  C   UNL     1      -0.064   1.032   0.553  1.00  0.00     0.157 A 
ATOM      2  N   UNL     1      -0.644   0.465  -0.542  1.00  0.00    -0.234 NA
ATOM      3  C   UNL     1      -1.529   1.136  -1.324  1.00  0.00     0.152 A 
ATOM      4  C   UNL     1      -1.864   2.454  -1.024  1.00  0.00     0.143 A 
ATOM      5  F   UNL     1      -2.746   3.130  -1.802  1.00  0.00    -0.205 F 
ATOM      6  C   UNL     1      -1.283   3.073   0.082  1.00  0.00     0.074 A 
ATOM      7  C   UNL     1      -0.367   2.368   0.888  1.00  0.00     0.119 A 
ENDROOT
BRANCH   1   8
ATOM      8  N   UNL     1       0.890   0.283   1.328  1.00  0.00    -0.339 N 
ATOM      9  H   UNL     1       1.608   0.808   1.877  1.00  0.00     0.168 HD
BRANCH   8  10
ATOM     10  C   UNL     1       0.990  -1.151   1.304  1.00  0.00     0.036 A 
ATOM     11  C   UNL     1      -0.037  -5.535   1.167  1.00  0.00    -0.022 A 
ATOM     12  N   UNL     1       1.278  -5.237   1.342  1.00  0.00    -0.442 NA
ATOM     13  C   UNL     1      -0.839  -4.396   1.057  1.00  0.00     0.003 A 
ATOM     14  C   UNL     1       1.315  -3.896   1.340  1.00  0.00    -0.052 A 
ATOM     15  C   UNL     1       0.020  -3.334   1.165  1.00  0.00    -0.025 A 
ATOM     16  N   UNL     1       2.409  -3.120   1.508  1.00  0.00    -0.440 NA
ATOM     17  C   UNL     1      -0.161  -1.961   1.153  1.00  0.00     0.033 A 
ATOM     18  C   UNL     1       2.262  -1.760   1.496  1.00  0.00     0.004 A 
ENDBRANCH   8  10
ENDBRANCH   1   8
BRANCH   7  19
ATOM     19  N   UNL     1       0.248   2.968   2.041  1.00  0.00    -0.191 NA
BRANCH  19  20
ATOM     20  C   UNL     1       0.032   4.164   2.421  1.00  0.00     0.064 C 
ATOM     21  S   UNL     1      -0.240   5.678   2.902  1.00  0.00    -0.006 S 
ENDBRANCH  19  20
ENDBRANCH   7  19
TORSDOF 4


