MODEL 1
REMARK VINA RESULT:      -6.5      0.000      0.000
REMARK SMILES CC(=O)[C@H]1CC[C@@H](c2cc3ccccc3[nH]2)C/[N+]1=C(\O)c1nc[nH+][nH]1
REMARK SMILES IDX 18 1 17 2 7 3 6 4 5 5 4 6 19 7 20 8 21 10 22 11 25 12 23 13
REMARK SMILES IDX 24 14 2 17 3 18 1 19 8 20 9 21 16 22 10 23 15 24 11 25 14 26
REMARK SMILES IDX 12 27 13 28
REMARK H PARENT 20 9 25 15 24 16 16 29
ROOT
ATOM      1  N   UNL     1      45.632 130.248  16.451  1.00  0.00    -0.182 N 
ATOM      2  C   UNL     1      45.332 129.746  17.813  1.00  0.00     0.365 C 
ATOM      3  C   UNL     1      45.726 130.761  18.894  1.00  0.00     0.102 C 
ATOM      4  C   UNL     1      45.067 132.113  18.621  1.00  0.00     0.024 C 
ATOM      5  C   UNL     1      45.508 132.637  17.257  1.00  0.00     0.086 C 
ATOM      6  C   UNL     1      45.237 131.640  16.109  1.00  0.00     0.330 C 
ENDROOT
BRANCH   1   7
ATOM      7  C   UNL     1      45.958 129.378  15.512  1.00  0.00     0.435 C 
BRANCH   7   8
ATOM      8  O   UNL     1      45.344 128.123  15.472  1.00  0.00    -0.456 OA
ATOM      9  H   UNL     1      44.603 127.914  14.814  1.00  0.00     0.300 HD
ENDBRANCH   7   8
BRANCH   7  10
ATOM     10  C   UNL     1      46.946 129.670  14.449  1.00  0.00     0.387 A 
ATOM     11  N   UNL     1      46.975 130.813  13.728  1.00  0.00    -0.014 NA
ATOM     12  N   UNL     1      47.994 128.878  14.170  1.00  0.00    -0.181 N 
ATOM     13  C   UNL     1      48.083 130.652  12.973  1.00  0.00     0.472 A 
ATOM     14  N   UNL     1      48.699 129.487  13.239  1.00  0.00    -0.172 N 
ATOM     15  H   UNL     1      48.229 127.953  14.598  1.00  0.00     0.217 HD
ATOM     16  H   UNL     1      49.577 129.121  12.808  1.00  0.00     0.339 HD
ENDBRANCH   7  10
ENDBRANCH   1   7
BRANCH   6  17
ATOM     17  C   UNL     1      43.789 131.678  15.659  1.00  0.00     0.197 C 
ATOM     18  O   UNL     1      42.894 131.774  16.485  1.00  0.00    -0.293 OA
ATOM     19  C   UNL     1      43.421 131.574  14.207  1.00  0.00     0.095 C 
ENDBRANCH   6  17
BRANCH   3  20
ATOM     20  C   UNL     1      45.348 130.254  20.262  1.00  0.00     0.025 A 
ATOM     21  C   UNL     1      44.720 131.015  21.246  1.00  0.00     0.032 A 
ATOM     22  N   UNL     1      45.583 128.993  20.698  1.00  0.00    -0.358 N 
ATOM     23  C   UNL     1      44.576 130.160  22.317  1.00  0.00    -0.000 A 
ATOM     24  C   UNL     1      45.107 128.950  21.953  1.00  0.00     0.046 A 
ATOM     25  C   UNL     1      44.018 130.371  23.576  1.00  0.00     0.010 A 
ATOM     26  C   UNL     1      45.117 127.863  22.826  1.00  0.00     0.026 A 
ATOM     27  C   UNL     1      44.013 129.291  24.479  1.00  0.00     0.001 A 
ATOM     28  C   UNL     1      44.560 128.043  24.106  1.00  0.00     0.002 A 
ATOM     29  H   UNL     1      46.041 128.214  20.174  1.00  0.00     0.166 HD
ENDBRANCH   3  20
TORSDOF 5
ENDMDL
MODEL 2
REMARK VINA RESULT:      -5.6      2.998      5.342
REMARK SMILES CC(=O)[C@H]1CC[C@@H](c2cc3ccccc3[nH]2)C/[N+]1=C(\O)c1nc[nH+][nH]1
REMARK SMILES IDX 18 1 17 2 7 3 6 4 5 5 4 6 19 7 20 8 21 10 22 11 25 12 23 13
REMARK SMILES IDX 24 14 2 17 3 18 1 19 8 20 9 21 16 22 10 23 15 24 11 25 14 26
REMARK SMILES IDX 12 27 13 28
REMARK H PARENT 20 9 25 15 24 16 16 29
ROOT
ATOM      1  N   UNL     1      44.612 131.144  21.591  1.00  0.00    -0.182 N 
ATOM      2  C   UNL     1      44.437 129.683  21.769  1.00  0.00     0.365 C 
ATOM      3  C   UNL     1      44.011 129.330  23.199  1.00  0.00     0.102 C 
ATOM      4  C   UNL     1      42.756 130.112  23.591  1.00  0.00     0.024 C 
ATOM      5  C   UNL     1      43.035 131.611  23.507  1.00  0.00     0.086 C 
ATOM      6  C   UNL     1      43.561 132.052  22.123  1.00  0.00     0.330 C 
ENDROOT
BRANCH   1   7
ATOM      7  C   UNL     1      45.517 131.575  20.731  1.00  0.00     0.435 C 
BRANCH   7   8
ATOM      8  O   UNL     1      46.577 132.375  21.166  1.00  0.00    -0.456 OA
ATOM      9  H   UNL     1      47.127 132.133  21.981  1.00  0.00     0.300 HD
ENDBRANCH   7   8
BRANCH   7  10
ATOM     10  C   UNL     1      45.493 131.228  19.292  1.00  0.00     0.387 A 
ATOM     11  N   UNL     1      44.989 132.025  18.323  1.00  0.00    -0.014 NA
ATOM     12  N   UNL     1      46.079 130.132  18.782  1.00  0.00    -0.181 N 
ATOM     13  C   UNL     1      45.275 131.332  17.200  1.00  0.00     0.472 A 
ATOM     14  N   UNL     1      45.933 130.192  17.474  1.00  0.00    -0.172 N 
ATOM     15  H   UNL     1      46.566 129.367  19.301  1.00  0.00     0.217 HD
ATOM     16  H   UNL     1      46.280 129.482  16.793  1.00  0.00     0.339 HD
ENDBRANCH   7  10
ENDBRANCH   1   7
BRANCH   6  17
ATOM     17  C   UNL     1      42.438 132.200  21.114  1.00  0.00     0.197 C 
ATOM     18  O   UNL     1      41.581 133.055  21.273  1.00  0.00    -0.293 OA
ATOM     19  C   UNL     1      42.339 131.293  19.921  1.00  0.00     0.095 C 
ENDBRANCH   6  17
BRANCH   3  20
ATOM     20  C   UNL     1      43.773 127.848  23.332  1.00  0.00     0.025 A 
ATOM     21  C   UNL     1      44.579 126.859  22.771  1.00  0.00     0.032 A 
ATOM     22  N   UNL     1      42.735 127.302  24.011  1.00  0.00    -0.358 N 
ATOM     23  C   UNL     1      43.988 125.670  23.139  1.00  0.00    -0.000 A 
ATOM     24  C   UNL     1      42.879 125.973  23.885  1.00  0.00     0.046 A 
ATOM     25  C   UNL     1      44.354 124.353  22.864  1.00  0.00     0.010 A 
ATOM     26  C   UNL     1      42.056 124.977  24.410  1.00  0.00     0.026 A 
ATOM     27  C   UNL     1      43.541 123.327  23.381  1.00  0.00     0.001 A 
ATOM     28  C   UNL     1      42.398 123.637  24.150  1.00  0.00     0.002 A 
ATOM     29  H   UNL     1      41.976 127.805  24.525  1.00  0.00     0.166 HD
ENDBRANCH   3  20
TORSDOF 5
ENDMDL
MODEL 3
REMARK VINA RESULT:      -5.5      0.747      1.368
REMARK SMILES CC(=O)[C@H]1CC[C@@H](c2cc3ccccc3[nH]2)C/[N+]1=C(\O)c1nc[nH+][nH]1
REMARK SMILES IDX 18 1 17 2 7 3 6 4 5 5 4 6 19 7 20 8 21 10 22 11 25 12 23 13
REMARK SMILES IDX 24 14 2 17 3 18 1 19 8 20 9 21 16 22 10 23 15 24 11 25 14 26
REMARK SMILES IDX 12 27 13 28
REMARK H PARENT 20 9 25 15 24 16 16 29
ROOT
ATOM      1  N   UNL     1      45.591 130.248  16.630  1.00  0.00    -0.182 N 
ATOM      2  C   UNL     1      45.307 129.697  17.977  1.00  0.00     0.365 C 
ATOM      3  C   UNL     1      45.738 130.661  19.089  1.00  0.00     0.102 C 
ATOM      4  C   UNL     1      45.098 132.034  18.883  1.00  0.00     0.024 C 
ATOM      5  C   UNL     1      45.525 132.605  17.532  1.00  0.00     0.086 C 
ATOM      6  C   UNL     1      45.216 131.660  16.351  1.00  0.00     0.330 C 
ENDROOT
BRANCH   1   7
ATOM      7  C   UNL     1      45.886 129.411  15.651  1.00  0.00     0.435 C 
BRANCH   7   8
ATOM      8  O   UNL     1      45.265 128.161  15.585  1.00  0.00    -0.456 OA
ATOM      9  H   UNL     1      45.692 127.332  15.981  1.00  0.00     0.300 HD
ENDBRANCH   7   8
BRANCH   7  10
ATOM     10  C   UNL     1      46.844 129.737  14.571  1.00  0.00     0.387 A 
ATOM     11  N   UNL     1      46.851 130.901  13.883  1.00  0.00    -0.014 NA
ATOM     12  N   UNL     1      47.886 128.956  14.241  1.00  0.00    -0.181 N 
ATOM     13  C   UNL     1      47.938 130.765  13.094  1.00  0.00     0.472 A 
ATOM     14  N   UNL     1      48.564 129.595  13.309  1.00  0.00    -0.172 N 
ATOM     15  H   UNL     1      48.134 128.020  14.634  1.00  0.00     0.217 HD
ATOM     16  H   UNL     1      49.430 129.244  12.844  1.00  0.00     0.339 HD
ENDBRANCH   7  10
ENDBRANCH   1   7
BRANCH   6  17
ATOM     17  C   UNL     1      43.761 131.740  15.930  1.00  0.00     0.197 C 
ATOM     18  O   UNL     1      43.465 131.723  14.745  1.00  0.00    -0.293 OA
ATOM     19  C   UNL     1      42.662 131.866  16.946  1.00  0.00     0.095 C 
ENDBRANCH   6  17
BRANCH   3  20
ATOM     20  C   UNL     1      45.374 130.106  20.443  1.00  0.00     0.025 A 
ATOM     21  C   UNL     1      45.666 128.815  20.878  1.00  0.00     0.032 A 
ATOM     22  N   UNL     1      44.710 130.802  21.397  1.00  0.00    -0.358 N 
ATOM     23  C   UNL     1      45.150 128.746  22.154  1.00  0.00    -0.000 A 
ATOM     24  C   UNL     1      44.580 129.960  22.435  1.00  0.00     0.046 A 
ATOM     25  C   UNL     1      45.144 127.699  23.073  1.00  0.00     0.010 A 
ATOM     26  C   UNL     1      43.964 130.213  23.659  1.00  0.00     0.026 A 
ATOM     27  C   UNL     1      44.529 127.926  24.319  1.00  0.00     0.001 A 
ATOM     28  C   UNL     1      43.942 129.176  24.611  1.00  0.00     0.002 A 
ATOM     29  H   UNL     1      44.366 131.787  21.341  1.00  0.00     0.166 HD
ENDBRANCH   3  20
TORSDOF 5
ENDMDL
MODEL 4
REMARK VINA RESULT:      -5.5      3.417      6.215
REMARK SMILES CC(=O)[C@H]1CC[C@@H](c2cc3ccccc3[nH]2)C/[N+]1=C(\O)c1nc[nH+][nH]1
REMARK SMILES IDX 18 1 17 2 7 3 6 4 5 5 4 6 19 7 20 8 21 10 22 11 25 12 23 13
REMARK SMILES IDX 24 14 2 17 3 18 1 19 8 20 9 21 16 22 10 23 15 24 11 25 14 26
REMARK SMILES IDX 12 27 13 28
REMARK H PARENT 20 9 25 15 24 16 16 29
ROOT
ATOM      1  N   UNL     1      44.930 130.605  22.164  1.00  0.00    -0.182 N 
ATOM      2  C   UNL     1      44.762 129.160  21.880  1.00  0.00     0.365 C 
ATOM      3  C   UNL     1      44.987 128.304  23.133  1.00  0.00     0.102 C 
ATOM      4  C   UNL     1      44.082 128.775  24.272  1.00  0.00     0.024 C 
ATOM      5  C   UNL     1      44.385 130.235  24.601  1.00  0.00     0.086 C 
ATOM      6  C   UNL     1      44.275 131.168  23.376  1.00  0.00     0.330 C 
ENDROOT
BRANCH   1   7
ATOM      7  C   UNL     1      45.389 131.391  21.207  1.00  0.00     0.435 C 
BRANCH   7   8
ATOM      8  O   UNL     1      46.290 132.415  21.510  1.00  0.00    -0.456 OA
ATOM      9  H   UNL     1      45.977 133.311  21.867  1.00  0.00     0.300 HD
ENDBRANCH   7   8
BRANCH   7  10
ATOM     10  C   UNL     1      45.018 131.230  19.783  1.00  0.00     0.387 A 
ATOM     11  N   UNL     1      43.903 131.749  19.222  1.00  0.00    -0.014 NA
ATOM     12  N   UNL     1      45.813 130.651  18.868  1.00  0.00    -0.181 N 
ATOM     13  C   UNL     1      44.053 131.421  17.921  1.00  0.00     0.472 A 
ATOM     14  N   UNL     1      45.205 130.761  17.705  1.00  0.00    -0.172 N 
ATOM     15  H   UNL     1      46.742 130.197  19.024  1.00  0.00     0.217 HD
ATOM     16  H   UNL     1      45.570 130.405  16.795  1.00  0.00     0.339 HD
ENDBRANCH   7  10
ENDBRANCH   1   7
BRANCH   6  17
ATOM     17  C   UNL     1      42.835 131.532  23.071  1.00  0.00     0.197 C 
ATOM     18  O   UNL     1      42.577 132.282  22.142  1.00  0.00    -0.293 OA
ATOM     19  C   UNL     1      41.704 131.006  23.908  1.00  0.00     0.095 C 
ENDBRANCH   6  17
BRANCH   3  20
ATOM     20  C   UNL     1      44.742 126.848  22.832  1.00  0.00     0.025 A 
ATOM     21  C   UNL     1      45.742 125.896  22.641  1.00  0.00     0.032 A 
ATOM     22  N   UNL     1      43.512 126.293  22.702  1.00  0.00    -0.358 N 
ATOM     23  C   UNL     1      45.068 124.720  22.389  1.00  0.00    -0.000 A 
ATOM     24  C   UNL     1      43.727 124.995  22.432  1.00  0.00     0.046 A 
ATOM     25  C   UNL     1      45.550 123.439  22.124  1.00  0.00     0.010 A 
ATOM     26  C   UNL     1      42.769 124.006  22.214  1.00  0.00     0.026 A 
ATOM     27  C   UNL     1      44.606 122.420  21.900  1.00  0.00     0.001 A 
ATOM     28  C   UNL     1      43.222 122.701  21.944  1.00  0.00     0.002 A 
ATOM     29  H   UNL     1      42.587 126.771  22.790  1.00  0.00     0.166 HD
ENDBRANCH   3  20
TORSDOF 5
ENDMDL
MODEL 5
REMARK VINA RESULT:      -5.2      2.665      7.805
REMARK SMILES CC(=O)[C@H]1CC[C@@H](c2cc3ccccc3[nH]2)C/[N+]1=C(\O)c1nc[nH+][nH]1
REMARK SMILES IDX 18 1 17 2 7 3 6 4 5 5 4 6 19 7 20 8 21 10 22 11 25 12 23 13
REMARK SMILES IDX 24 14 2 17 3 18 1 19 8 20 9 21 16 22 10 23 15 24 11 25 14 26
REMARK SMILES IDX 12 27 13 28
REMARK H PARENT 20 9 25 15 24 16 16 29
ROOT
ATOM      1  N   UNL     1      44.751 130.110  21.030  1.00  0.00    -0.182 N 
ATOM      2  C   UNL     1      45.454 130.027  19.728  1.00  0.00     0.365 C 
ATOM      3  C   UNL     1      44.677 130.739  18.614  1.00  0.00     0.102 C 
ATOM      4  C   UNL     1      44.376 132.184  19.013  1.00  0.00     0.024 C 
ATOM      5  C   UNL     1      43.546 132.203  20.295  1.00  0.00     0.086 C 
ATOM      6  C   UNL     1      44.205 131.427  21.455  1.00  0.00     0.330 C 
ENDROOT
BRANCH   1   7
ATOM      7  C   UNL     1      44.884 129.114  21.888  1.00  0.00     0.435 C 
BRANCH   7   8
ATOM      8  O   UNL     1      45.913 128.183  21.729  1.00  0.00    -0.456 OA
ATOM      9  H   UNL     1      46.394 128.067  20.845  1.00  0.00     0.300 HD
ENDBRANCH   7   8
BRANCH   7  10
ATOM     10  C   UNL     1      43.998 128.935  23.060  1.00  0.00     0.387 A 
ATOM     11  N   UNL     1      43.193 129.898  23.563  1.00  0.00    -0.014 NA
ATOM     12  N   UNL     1      43.812 127.757  23.677  1.00  0.00    -0.181 N 
ATOM     13  C   UNL     1      42.533 129.242  24.541  1.00  0.00     0.472 A 
ATOM     14  N   UNL     1      42.903 127.951  24.611  1.00  0.00    -0.172 N 
ATOM     15  H   UNL     1      44.282 126.846  23.473  1.00  0.00     0.217 HD
ATOM     16  H   UNL     1      42.543 127.223  25.266  1.00  0.00     0.339 HD
ENDBRANCH   7  10
ENDBRANCH   1   7
BRANCH   6  17
ATOM     17  C   UNL     1      45.286 132.244  22.138  1.00  0.00     0.197 C 
ATOM     18  O   UNL     1      45.176 132.539  23.318  1.00  0.00    -0.293 OA
ATOM     19  C   UNL     1      46.491 132.727  21.384  1.00  0.00     0.095 C 
ENDBRANCH   6  17
BRANCH   3  20
ATOM     20  C   UNL     1      45.447 130.699  17.319  1.00  0.00     0.025 A 
ATOM     21  C   UNL     1      45.536 131.753  16.413  1.00  0.00     0.032 A 
ATOM     22  N   UNL     1      46.141 129.621  16.880  1.00  0.00    -0.358 N 
ATOM     23  C   UNL     1      46.323 131.275  15.388  1.00  0.00    -0.000 A 
ATOM     24  C   UNL     1      46.669 129.987  15.701  1.00  0.00     0.046 A 
ATOM     25  C   UNL     1      46.748 131.887  14.210  1.00  0.00     0.010 A 
ATOM     26  C   UNL     1      47.469 129.218  14.856  1.00  0.00     0.026 A 
ATOM     27  C   UNL     1      47.557 131.135  13.338  1.00  0.00     0.001 A 
ATOM     28  C   UNL     1      47.916 129.808  13.659  1.00  0.00     0.002 A 
ATOM     29  H   UNL     1      46.244 128.695  17.353  1.00  0.00     0.166 HD
ENDBRANCH   3  20
TORSDOF 5
ENDMDL
MODEL 6
REMARK VINA RESULT:      -5.1      5.930      9.112
REMARK SMILES CC(=O)[C@H]1CC[C@@H](c2cc3ccccc3[nH]2)C/[N+]1=C(\O)c1nc[nH+][nH]1
REMARK SMILES IDX 18 1 17 2 7 3 6 4 5 5 4 6 19 7 20 8 21 10 22 11 25 12 23 13
REMARK SMILES IDX 24 14 2 17 3 18 1 19 8 20 9 21 16 22 10 23 15 24 11 25 14 26
REMARK SMILES IDX 12 27 13 28
REMARK H PARENT 20 9 25 15 24 16 16 29
ROOT
ATOM      1  N   UNL     1      44.238 124.120  22.997  1.00  0.00    -0.182 N 
ATOM      2  C   UNL     1      43.926 125.537  22.693  1.00  0.00     0.365 C 
ATOM      3  C   UNL     1      44.369 126.473  23.825  1.00  0.00     0.102 C 
ATOM      4  C   UNL     1      45.851 126.265  24.141  1.00  0.00     0.024 C 
ATOM      5  C   UNL     1      46.090 124.818  24.565  1.00  0.00     0.086 C 
ATOM      6  C   UNL     1      45.589 123.792  23.526  1.00  0.00     0.330 C 
ENDROOT
BRANCH   1   7
ATOM      7  C   UNL     1      43.441 123.179  22.524  1.00  0.00     0.435 C 
BRANCH   7   8
ATOM      8  O   UNL     1      43.854 122.378  21.457  1.00  0.00    -0.456 OA
ATOM      9  H   UNL     1      44.647 121.753  21.537  1.00  0.00     0.300 HD
ENDBRANCH   7   8
BRANCH   7  10
ATOM     10  C   UNL     1      42.103 122.894  23.092  1.00  0.00     0.387 A 
ATOM     11  N   UNL     1      40.991 122.685  22.353  1.00  0.00    -0.014 NA
ATOM     12  N   UNL     1      41.879 122.694  24.401  1.00  0.00    -0.181 N 
ATOM     13  C   UNL     1      40.072 122.379  23.294  1.00  0.00     0.472 A 
ATOM     14  N   UNL     1      40.605 122.383  24.529  1.00  0.00    -0.172 N 
ATOM     15  H   UNL     1      42.566 122.763  25.186  1.00  0.00     0.217 HD
ATOM     16  H   UNL     1      40.122 122.171  25.429  1.00  0.00     0.339 HD
ENDBRANCH   7  10
ENDBRANCH   1   7
BRANCH   6  17
ATOM     17  C   UNL     1      46.571 123.623  22.382  1.00  0.00     0.197 C 
ATOM     18  O   UNL     1      46.486 122.657  21.640  1.00  0.00    -0.293 OA
ATOM     19  C   UNL     1      47.675 124.615  22.150  1.00  0.00     0.095 C 
ENDBRANCH   6  17
BRANCH   3  20
ATOM     20  C   UNL     1      44.103 127.911  23.460  1.00  0.00     0.025 A 
ATOM     21  C   UNL     1      43.138 128.718  24.059  1.00  0.00     0.032 A 
ATOM     22  N   UNL     1      44.772 128.587  22.495  1.00  0.00    -0.358 N 
ATOM     23  C   UNL     1      43.244 129.933  23.416  1.00  0.00    -0.000 A 
ATOM     24  C   UNL     1      44.237 129.819  22.479  1.00  0.00     0.046 A 
ATOM     25  C   UNL     1      42.532 131.117  23.595  1.00  0.00     0.010 A 
ATOM     26  C   UNL     1      44.590 130.885  21.653  1.00  0.00     0.026 A 
ATOM     27  C   UNL     1      42.867 132.211  22.775  1.00  0.00     0.001 A 
ATOM     28  C   UNL     1      43.890 132.096  21.809  1.00  0.00     0.002 A 
ATOM     29  H   UNL     1      45.541 128.229  21.885  1.00  0.00     0.166 HD
ENDBRANCH   3  20
TORSDOF 5
ENDMDL
MODEL 7
REMARK VINA RESULT:      -5.0      2.623      7.911
REMARK SMILES CC(=O)[C@H]1CC[C@@H](c2cc3ccccc3[nH]2)C/[N+]1=C(\O)c1nc[nH+][nH]1
REMARK SMILES IDX 18 1 17 2 7 3 6 4 5 5 4 6 19 7 20 8 21 10 22 11 25 12 23 13
REMARK SMILES IDX 24 14 2 17 3 18 1 19 8 20 9 21 16 22 10 23 15 24 11 25 14 26
REMARK SMILES IDX 12 27 13 28
REMARK H PARENT 20 9 25 15 24 16 16 29
ROOT
ATOM      1  N   UNL     1      44.796 130.176  20.950  1.00  0.00    -0.182 N 
ATOM      2  C   UNL     1      45.485 130.055  19.644  1.00  0.00     0.365 C 
ATOM      3  C   UNL     1      44.724 130.781  18.528  1.00  0.00     0.102 C 
ATOM      4  C   UNL     1      44.474 132.240  18.914  1.00  0.00     0.024 C 
ATOM      5  C   UNL     1      43.655 132.300  20.202  1.00  0.00     0.086 C 
ATOM      6  C   UNL     1      44.298 131.515  21.365  1.00  0.00     0.330 C 
ENDROOT
BRANCH   1   7
ATOM      7  C   UNL     1      44.902 129.185  21.818  1.00  0.00     0.435 C 
BRANCH   7   8
ATOM      8  O   UNL     1      45.935 128.252  21.695  1.00  0.00    -0.456 OA
ATOM      9  H   UNL     1      46.349 127.807  22.505  1.00  0.00     0.300 HD
ENDBRANCH   7   8
BRANCH   7  10
ATOM     10  C   UNL     1      43.983 129.014  22.965  1.00  0.00     0.387 A 
ATOM     11  N   UNL     1      42.949 129.840  23.244  1.00  0.00    -0.014 NA
ATOM     12  N   UNL     1      44.005 127.949  23.782  1.00  0.00    -0.181 N 
ATOM     13  C   UNL     1      42.367 129.230  24.299  1.00  0.00     0.472 A 
ATOM     14  N   UNL     1      43.001 128.089  24.624  1.00  0.00    -0.172 N 
ATOM     15  H   UNL     1      44.677 127.148  23.772  1.00  0.00     0.217 HD
ATOM     16  H   UNL     1      42.754 127.422  25.388  1.00  0.00     0.339 HD
ENDBRANCH   7  10
ENDBRANCH   1   7
BRANCH   6  17
ATOM     17  C   UNL     1      45.411 132.302  22.031  1.00  0.00     0.197 C 
ATOM     18  O   UNL     1      46.394 132.636  21.387  1.00  0.00    -0.293 OA
ATOM     19  C   UNL     1      45.344 132.666  23.486  1.00  0.00     0.095 C 
ENDBRANCH   6  17
BRANCH   3  20
ATOM     20  C   UNL     1      45.482 130.701  17.228  1.00  0.00     0.025 A 
ATOM     21  C   UNL     1      46.123 129.560  16.750  1.00  0.00     0.032 A 
ATOM     22  N   UNL     1      45.635 131.740  16.371  1.00  0.00    -0.358 N 
ATOM     23  C   UNL     1      46.681 129.943  15.549  1.00  0.00    -0.000 A 
ATOM     24  C   UNL     1      46.368 131.263  15.352  1.00  0.00     0.046 A 
ATOM     25  C   UNL     1      47.439 129.220  14.630  1.00  0.00     0.010 A 
ATOM     26  C   UNL     1      46.792 131.954  14.217  1.00  0.00     0.026 A 
ATOM     27  C   UNL     1      47.880 129.891  13.475  1.00  0.00     0.001 A 
ATOM     28  C   UNL     1      47.559 131.251  13.269  1.00  0.00     0.002 A 
ATOM     29  H   UNL     1      45.265 132.711  16.477  1.00  0.00     0.166 HD
ENDBRANCH   3  20
TORSDOF 5
ENDMDL
MODEL 8
REMARK VINA RESULT:      -4.7      2.389      7.505
REMARK SMILES CC(=O)[C@H]1CC[C@@H](c2cc3ccccc3[nH]2)C/[N+]1=C(\O)c1nc[nH+][nH]1
REMARK SMILES IDX 18 1 17 2 7 3 6 4 5 5 4 6 19 7 20 8 21 10 22 11 25 12 23 13
REMARK SMILES IDX 24 14 2 17 3 18 1 19 8 20 9 21 16 22 10 23 15 24 11 25 14 26
REMARK SMILES IDX 12 27 13 28
REMARK H PARENT 20 9 25 15 24 16 16 29
ROOT
ATOM      1  N   UNL     1      44.250 130.986  20.183  1.00  0.00    -0.182 N 
ATOM      2  C   UNL     1      45.164 130.969  19.017  1.00  0.00     0.365 C 
ATOM      3  C   UNL     1      44.491 130.375  17.774  1.00  0.00     0.102 C 
ATOM      4  C   UNL     1      43.186 131.112  17.470  1.00  0.00     0.024 C 
ATOM      5  C   UNL     1      42.236 130.991  18.660  1.00  0.00     0.086 C 
ATOM      6  C   UNL     1      42.861 131.480  19.985  1.00  0.00     0.330 C 
ENDROOT
BRANCH   1   7
ATOM      7  C   UNL     1      44.762 130.850  21.394  1.00  0.00     0.435 C 
BRANCH   7   8
ATOM      8  O   UNL     1      45.692 131.777  21.871  1.00  0.00    -0.456 OA
ATOM      9  H   UNL     1      45.426 132.518  22.510  1.00  0.00     0.300 HD
ENDBRANCH   7   8
BRANCH   7  10
ATOM     10  C   UNL     1      44.378 129.757  22.315  1.00  0.00     0.387 A 
ATOM     11  N   UNL     1      43.309 129.795  23.140  1.00  0.00    -0.014 NA
ATOM     12  N   UNL     1      44.986 128.559  22.340  1.00  0.00    -0.181 N 
ATOM     13  C   UNL     1      43.324 128.562  23.691  1.00  0.00     0.472 A 
ATOM     14  N   UNL     1      44.333 127.816  23.210  1.00  0.00    -0.172 N 
ATOM     15  H   UNL     1      45.816 128.251  21.785  1.00  0.00     0.217 HD
ATOM     16  H   UNL     1      44.565 126.829  23.457  1.00  0.00     0.339 HD
ENDBRANCH   7  10
ENDBRANCH   1   7
BRANCH   6  17
ATOM     17  C   UNL     1      42.822 132.992  20.102  1.00  0.00     0.197 C 
ATOM     18  O   UNL     1      43.845 133.643  19.957  1.00  0.00    -0.293 OA
ATOM     19  C   UNL     1      41.546 133.717  20.420  1.00  0.00     0.095 C 
ENDBRANCH   6  17
BRANCH   3  20
ATOM     20  C   UNL     1      45.419 130.434  16.588  1.00  0.00     0.025 A 
ATOM     21  C   UNL     1      45.618 131.558  15.789  1.00  0.00     0.032 A 
ATOM     22  N   UNL     1      46.166 129.391  16.153  1.00  0.00    -0.358 N 
ATOM     23  C   UNL     1      46.531 131.159  14.836  1.00  0.00    -0.000 A 
ATOM     24  C   UNL     1      46.839 129.847  15.084  1.00  0.00     0.046 A 
ATOM     25  C   UNL     1      47.100 131.862  13.776  1.00  0.00     0.010 A 
ATOM     26  C   UNL     1      47.742 129.144  14.288  1.00  0.00     0.026 A 
ATOM     27  C   UNL     1      48.015 131.178  12.955  1.00  0.00     0.001 A 
ATOM     28  C   UNL     1      48.335 129.826  13.209  1.00  0.00     0.002 A 
ATOM     29  H   UNL     1      46.211 128.429  16.559  1.00  0.00     0.166 HD
ENDBRANCH   3  20
TORSDOF 5
ENDMDL
MODEL 9
REMARK VINA RESULT:      -4.6      2.864      7.944
REMARK SMILES CC(=O)[C@H]1CC[C@@H](c2cc3ccccc3[nH]2)C/[N+]1=C(\O)c1nc[nH+][nH]1
REMARK SMILES IDX 18 1 17 2 7 3 6 4 5 5 4 6 19 7 20 8 21 10 22 11 25 12 23 13
REMARK SMILES IDX 24 14 2 17 3 18 1 19 8 20 9 21 16 22 10 23 15 24 11 25 14 26
REMARK SMILES IDX 12 27 13 28
REMARK H PARENT 20 9 25 15 24 16 16 29
ROOT
ATOM      1  N   UNL     1      44.488 130.292  21.223  1.00  0.00    -0.182 N 
ATOM      2  C   UNL     1      45.190 130.150  19.926  1.00  0.00     0.365 C 
ATOM      3  C   UNL     1      44.495 130.944  18.813  1.00  0.00     0.102 C 
ATOM      4  C   UNL     1      44.335 132.409  19.222  1.00  0.00     0.024 C 
ATOM      5  C   UNL     1      43.502 132.500  20.498  1.00  0.00     0.086 C 
ATOM      6  C   UNL     1      44.073 131.653  21.656  1.00  0.00     0.330 C 
ENDROOT
BRANCH   1   7
ATOM      7  C   UNL     1      44.516 129.282  22.074  1.00  0.00     0.435 C 
BRANCH   7   8
ATOM      8  O   UNL     1      45.657 128.481  22.177  1.00  0.00    -0.456 OA
ATOM      9  H   UNL     1      45.596 127.472  22.239  1.00  0.00     0.300 HD
ENDBRANCH   7   8
BRANCH   7  10
ATOM     10  C   UNL     1      43.387 128.951  22.972  1.00  0.00     0.387 A 
ATOM     11  N   UNL     1      43.341 127.861  23.770  1.00  0.00    -0.014 NA
ATOM     12  N   UNL     1      42.339 129.765  23.179  1.00  0.00    -0.181 N 
ATOM     13  C   UNL     1      42.188 128.045  24.448  1.00  0.00     0.472 A 
ATOM     14  N   UNL     1      41.583 129.193  24.094  1.00  0.00    -0.172 N 
ATOM     15  H   UNL     1      42.140 130.682  22.718  1.00  0.00     0.217 HD
ATOM     16  H   UNL     1      40.690 129.581  24.469  1.00  0.00     0.339 HD
ENDBRANCH   7  10
ENDBRANCH   1   7
BRANCH   6  17
ATOM     17  C   UNL     1      45.223 132.354  22.353  1.00  0.00     0.197 C 
ATOM     18  O   UNL     1      45.204 132.504  23.565  1.00  0.00    -0.293 OA
ATOM     19  C   UNL     1      46.389 132.896  21.578  1.00  0.00     0.095 C 
ENDBRANCH   6  17
BRANCH   3  20
ATOM     20  C   UNL     1      45.267 130.838  17.523  1.00  0.00     0.025 A 
ATOM     21  C   UNL     1      45.927 129.692  17.083  1.00  0.00     0.032 A 
ATOM     22  N   UNL     1      45.417 131.854  16.639  1.00  0.00    -0.358 N 
ATOM     23  C   UNL     1      46.493 130.049  15.878  1.00  0.00    -0.000 A 
ATOM     24  C   UNL     1      46.167 131.358  15.641  1.00  0.00     0.046 A 
ATOM     25  C   UNL     1      47.268 129.310  14.986  1.00  0.00     0.010 A 
ATOM     26  C   UNL     1      46.594 132.023  14.492  1.00  0.00     0.026 A 
ATOM     27  C   UNL     1      47.714 129.954  13.817  1.00  0.00     0.001 A 
ATOM     28  C   UNL     1      47.379 131.304  13.571  1.00  0.00     0.002 A 
ATOM     29  H   UNL     1      45.034 132.823  16.714  1.00  0.00     0.166 HD
ENDBRANCH   3  20
TORSDOF 5
ENDMDL


