MODEL 1
REMARK VINA RESULT:      -6.8      0.000      0.000
REMARK SMILES Cc1ccc(-c2ccc(/N=C(\O)C[C@H]([NH3+])C(=O)[O-])c(C=O)c2)cc1
REMARK SMILES IDX 11 1 12 2 10 4 9 5 8 6 19 7 7 8 22 9 6 10 20 11 21 12 5 13
REMARK SMILES IDX 4 14 23 15 3 16 24 17 2 18 1 19 13 20 14 21 16 22 17 23
REMARK SMILES IDX 18 24 15 25
REMARK H PARENT 12 3 15 26 15 27 15 28
ROOT
ATOM      1  C   UNL     1      42.392 131.572  22.177  1.00  0.00     0.192 C 
ENDROOT
BRANCH   1   2
ATOM      2  O   UNL     1      42.049 130.254  21.877  1.00  0.00    -0.496 OA
ATOM      3  H   UNL     1      42.434 129.479  22.404  1.00  0.00     0.294 HD
ENDBRANCH   1   2
BRANCH   1   4
ATOM      4  N   UNL     1      42.792 132.388  21.246  1.00  0.00    -0.217 NA
BRANCH   4   5
ATOM      5  C   UNL     1      43.529 132.032  20.063  1.00  0.00     0.077 A 
ATOM      6  C   UNL     1      42.863 131.843  18.839  1.00  0.00     0.030 A 
ATOM      7  C   UNL     1      44.942 131.959  20.099  1.00  0.00     0.041 A 
ATOM      8  C   UNL     1      43.575 131.537  17.679  1.00  0.00     0.011 A 
ATOM      9  C   UNL     1      45.646 131.651  18.922  1.00  0.00     0.022 A 
ATOM     10  C   UNL     1      44.973 131.433  17.708  1.00  0.00    -0.018 A 
BRANCH   7  11
ATOM     11  C   UNL     1      45.726 132.177  21.339  1.00  0.00     0.262 C 
ATOM     12  O   UNL     1      46.981 132.263  21.328  1.00  0.00    -0.298 OA
ENDBRANCH   7  11
BRANCH  10  13
ATOM     13  C   UNL     1      45.729 131.108  16.472  1.00  0.00    -0.018 A 
ATOM     14  C   UNL     1      46.263 129.821  16.279  1.00  0.00     0.009 A 
ATOM     15  C   UNL     1      45.925 132.082  15.475  1.00  0.00     0.009 A 
ATOM     16  C   UNL     1      46.974 129.515  15.115  1.00  0.00     0.004 A 
ATOM     17  C   UNL     1      46.635 131.773  14.311  1.00  0.00     0.004 A 
ATOM     18  C   UNL     1      47.151 130.484  14.118  1.00  0.00    -0.051 A 
ATOM     19  C   UNL     1      47.948 130.166  12.887  1.00  0.00     0.044 C 
ENDBRANCH  10  13
ENDBRANCH   4   5
ENDBRANCH   1   4
BRANCH   1  20
ATOM     20  C   UNL     1      42.314 132.058  23.595  1.00  0.00     0.168 C 
BRANCH  20  21
ATOM     21  C   UNL     1      43.415 131.425  24.470  1.00  0.00     0.237 C 
BRANCH  21  22
ATOM     22  C   UNL     1      43.515 129.952  24.177  1.00  0.00     0.100 C 
ATOM     23  O   UNL     1      44.569 129.469  23.681  1.00  0.00    -0.544 OA
ATOM     24  O   UNL     1      42.435 129.117  24.437  1.00  0.00    -0.544 OA
ENDBRANCH  21  22
BRANCH  21  25
ATOM     25  N   UNL     1      44.714 132.077  24.254  1.00  0.00    -0.350 N 
ATOM     26  H   UNL     1      45.483 131.533  24.711  1.00  0.00     0.345 HD
ATOM     27  H   UNL     1      44.696 133.044  24.651  1.00  0.00     0.345 HD
ATOM     28  H   UNL     1      44.911 132.155  23.230  1.00  0.00     0.345 HD
ENDBRANCH  21  25
ENDBRANCH  20  21
ENDBRANCH   1  20
TORSDOF 9
ENDMDL
MODEL 2
REMARK VINA RESULT:      -6.6      1.488      2.499
REMARK SMILES Cc1ccc(-c2ccc(/N=C(\O)C[C@H]([NH3+])C(=O)[O-])c(C=O)c2)cc1
REMARK SMILES IDX 11 1 12 2 10 4 9 5 8 6 19 7 7 8 22 9 6 10 20 11 21 12 5 13
REMARK SMILES IDX 4 14 23 15 3 16 24 17 2 18 1 19 13 20 14 21 16 22 17 23
REMARK SMILES IDX 18 24 15 25
REMARK H PARENT 12 3 15 26 15 27 15 28
ROOT
ATOM      1  C   UNL     1      44.371 131.480  22.459  1.00  0.00     0.192 C 
ENDROOT
BRANCH   1   2
ATOM      2  O   UNL     1      45.434 132.383  22.440  1.00  0.00    -0.496 OA
ATOM      3  H   UNL     1      45.828 132.711  21.567  1.00  0.00     0.294 HD
ENDBRANCH   1   2
BRANCH   1   4
ATOM      4  N   UNL     1      43.816 131.076  21.354  1.00  0.00    -0.217 NA
BRANCH   4   5
ATOM      5  C   UNL     1      44.426 131.064  20.052  1.00  0.00     0.077 A 
ATOM      6  C   UNL     1      45.728 130.561  19.879  1.00  0.00     0.030 A 
ATOM      7  C   UNL     1      43.688 131.474  18.915  1.00  0.00     0.041 A 
ATOM      8  C   UNL     1      46.311 130.510  18.614  1.00  0.00     0.011 A 
ATOM      9  C   UNL     1      44.289 131.415  17.646  1.00  0.00     0.022 A 
ATOM     10  C   UNL     1      45.601 130.939  17.484  1.00  0.00    -0.018 A 
BRANCH   7  11
ATOM     11  C   UNL     1      42.299 131.986  19.002  1.00  0.00     0.262 C 
ATOM     12  O   UNL     1      42.005 133.000  19.688  1.00  0.00    -0.298 OA
ENDBRANCH   7  11
BRANCH  10  13
ATOM     13  C   UNL     1      46.224 130.883  16.137  1.00  0.00    -0.018 A 
ATOM     14  C   UNL     1      46.195 132.005  15.288  1.00  0.00     0.009 A 
ATOM     15  C   UNL     1      46.851 129.707  15.686  1.00  0.00     0.009 A 
ATOM     16  C   UNL     1      46.782 131.952  14.021  1.00  0.00     0.004 A 
ATOM     17  C   UNL     1      47.438 129.656  14.419  1.00  0.00     0.004 A 
ATOM     18  C   UNL     1      47.421 130.782  13.585  1.00  0.00    -0.051 A 
ATOM     19  C   UNL     1      48.015 130.714  12.209  1.00  0.00     0.044 C 
ENDBRANCH  10  13
ENDBRANCH   4   5
ENDBRANCH   1   4
BRANCH   1  20
ATOM     20  C   UNL     1      43.846 130.975  23.771  1.00  0.00     0.168 C 
BRANCH  20  21
ATOM     21  C   UNL     1      42.395 130.469  23.642  1.00  0.00     0.237 C 
BRANCH  21  22
ATOM     22  C   UNL     1      42.338 128.996  23.948  1.00  0.00     0.100 C 
ATOM     23  O   UNL     1      43.351 128.399  24.402  1.00  0.00    -0.544 OA
ATOM     24  O   UNL     1      41.170 128.283  23.711  1.00  0.00    -0.544 OA
ENDBRANCH  21  22
BRANCH  21  25
ATOM     25  N   UNL     1      41.486 131.209  24.529  1.00  0.00    -0.350 N 
ATOM     26  H   UNL     1      41.620 130.916  25.525  1.00  0.00     0.345 HD
ATOM     27  H   UNL     1      40.494 131.031  24.250  1.00  0.00     0.345 HD
ATOM     28  H   UNL     1      41.662 132.236  24.448  1.00  0.00     0.345 HD
ENDBRANCH  21  25
ENDBRANCH  20  21
ENDBRANCH   1  20
TORSDOF 9
ENDMDL
MODEL 3
REMARK VINA RESULT:      -5.8      1.884      2.657
REMARK SMILES Cc1ccc(-c2ccc(/N=C(\O)C[C@H]([NH3+])C(=O)[O-])c(C=O)c2)cc1
REMARK SMILES IDX 11 1 12 2 10 4 9 5 8 6 19 7 7 8 22 9 6 10 20 11 21 12 5 13
REMARK SMILES IDX 4 14 23 15 3 16 24 17 2 18 1 19 13 20 14 21 16 22 17 23
REMARK SMILES IDX 18 24 15 25
REMARK H PARENT 12 3 15 26 15 27 15 28
ROOT
ATOM      1  C   UNL     1      44.531 129.349  22.619  1.00  0.00     0.192 C 
ENDROOT
BRANCH   1   2
ATOM      2  O   UNL     1      44.923 128.122  22.085  1.00  0.00    -0.496 OA
ATOM      3  H   UNL     1      44.483 127.258  22.377  1.00  0.00     0.294 HD
ENDBRANCH   1   2
BRANCH   1   4
ATOM      4  N   UNL     1      44.338 130.383  21.854  1.00  0.00    -0.217 NA
BRANCH   4   5
ATOM      5  C   UNL     1      44.819 130.544  20.508  1.00  0.00     0.077 A 
ATOM      6  C   UNL     1      45.915 129.793  20.047  1.00  0.00     0.030 A 
ATOM      7  C   UNL     1      44.136 131.394  19.605  1.00  0.00     0.041 A 
ATOM      8  C   UNL     1      46.361 129.914  18.732  1.00  0.00     0.011 A 
ATOM      9  C   UNL     1      44.597 131.506  18.282  1.00  0.00     0.022 A 
ATOM     10  C   UNL     1      45.711 130.775  17.835  1.00  0.00    -0.018 A 
BRANCH   7  11
ATOM     11  C   UNL     1      42.953 132.198  19.997  1.00  0.00     0.262 C 
ATOM     12  O   UNL     1      42.140 132.646  19.147  1.00  0.00    -0.298 OA
ENDBRANCH   7  11
BRANCH  10  13
ATOM     13  C   UNL     1      46.188 130.902  16.435  1.00  0.00    -0.018 A 
ATOM     14  C   UNL     1      47.005 129.909  15.865  1.00  0.00     0.009 A 
ATOM     15  C   UNL     1      45.832 132.019  15.655  1.00  0.00     0.009 A 
ATOM     16  C   UNL     1      47.454 130.029  14.547  1.00  0.00     0.004 A 
ATOM     17  C   UNL     1      46.281 132.136  14.337  1.00  0.00     0.004 A 
ATOM     18  C   UNL     1      47.082 131.135  13.770  1.00  0.00    -0.051 A 
ATOM     19  C   UNL     1      47.597 131.282  12.369  1.00  0.00     0.044 C 
ENDBRANCH  10  13
ENDBRANCH   4   5
ENDBRANCH   1   4
BRANCH   1  20
ATOM     20  C   UNL     1      44.340 129.489  24.102  1.00  0.00     0.168 C 
BRANCH  20  21
ATOM     21  C   UNL     1      43.179 128.610  24.607  1.00  0.00     0.237 C 
BRANCH  21  22
ATOM     22  C   UNL     1      41.887 129.062  23.981  1.00  0.00     0.100 C 
ATOM     23  O   UNL     1      41.182 128.256  23.316  1.00  0.00    -0.544 OA
ATOM     24  O   UNL     1      41.474 130.382  24.119  1.00  0.00    -0.544 OA
ENDBRANCH  21  22
BRANCH  21  25
ATOM     25  N   UNL     1      43.415 127.188  24.317  1.00  0.00    -0.350 N 
ATOM     26  H   UNL     1      43.233 126.601  25.164  1.00  0.00     0.345 HD
ATOM     27  H   UNL     1      44.404 127.049  24.008  1.00  0.00     0.345 HD
ATOM     28  H   UNL     1      42.790 126.872  23.541  1.00  0.00     0.345 HD
ENDBRANCH  21  25
ENDBRANCH  20  21
ENDBRANCH   1  20
TORSDOF 9
ENDMDL
MODEL 4
REMARK VINA RESULT:      -5.3      1.401      2.207
REMARK SMILES Cc1ccc(-c2ccc(/N=C(\O)C[C@H]([NH3+])C(=O)[O-])c(C=O)c2)cc1
REMARK SMILES IDX 11 1 12 2 10 4 9 5 8 6 19 7 7 8 22 9 6 10 20 11 21 12 5 13
REMARK SMILES IDX 4 14 23 15 3 16 24 17 2 18 1 19 13 20 14 21 16 22 17 23
REMARK SMILES IDX 18 24 15 25
REMARK H PARENT 12 3 15 26 15 27 15 28
ROOT
ATOM      1  C   UNL     1      42.563 131.764  21.772  1.00  0.00     0.192 C 
ENDROOT
BRANCH   1   2
ATOM      2  O   UNL     1      41.390 132.515  21.708  1.00  0.00    -0.496 OA
ATOM      3  H   UNL     1      40.727 132.389  20.951  1.00  0.00     0.294 HD
ENDBRANCH   1   2
BRANCH   1   4
ATOM      4  N   UNL     1      43.689 132.242  21.328  1.00  0.00    -0.217 NA
BRANCH   4   5
ATOM      5  C   UNL     1      44.294 131.948  20.057  1.00  0.00     0.077 A 
ATOM      6  C   UNL     1      45.669 131.670  19.968  1.00  0.00     0.030 A 
ATOM      7  C   UNL     1      43.492 131.845  18.894  1.00  0.00     0.041 A 
ATOM      8  C   UNL     1      46.254 131.345  18.745  1.00  0.00     0.011 A 
ATOM      9  C   UNL     1      44.096 131.516  17.668  1.00  0.00     0.022 A 
ATOM     10  C   UNL     1      45.476 131.268  17.581  1.00  0.00    -0.018 A 
BRANCH   7  11
ATOM     11  C   UNL     1      42.030 132.090  18.903  1.00  0.00     0.262 C 
ATOM     12  O   UNL     1      41.546 133.244  18.770  1.00  0.00    -0.298 OA
ENDBRANCH   7  11
BRANCH  10  13
ATOM     13  C   UNL     1      46.102 130.921  16.279  1.00  0.00    -0.018 A 
ATOM     14  C   UNL     1      46.587 129.622  16.044  1.00  0.00     0.009 A 
ATOM     15  C   UNL     1      46.220 131.886  15.262  1.00  0.00     0.009 A 
ATOM     16  C   UNL     1      47.176 129.296  14.819  1.00  0.00     0.004 A 
ATOM     17  C   UNL     1      46.808 131.557  14.037  1.00  0.00     0.004 A 
ATOM     18  C   UNL     1      47.276 130.256  13.803  1.00  0.00    -0.051 A 
ATOM     19  C   UNL     1      47.943 129.916  12.503  1.00  0.00     0.044 C 
ENDBRANCH  10  13
ENDBRANCH   4   5
ENDBRANCH   1   4
BRANCH   1  20
ATOM     20  C   UNL     1      42.531 130.379  22.349  1.00  0.00     0.168 C 
BRANCH  20  21
ATOM     21  C   UNL     1      42.587 130.406  23.889  1.00  0.00     0.237 C 
BRANCH  21  22
ATOM     22  C   UNL     1      44.016 130.309  24.350  1.00  0.00     0.100 C 
ATOM     23  O   UNL     1      44.561 129.183  24.507  1.00  0.00    -0.544 OA
ATOM     24  O   UNL     1      44.738 131.464  24.624  1.00  0.00    -0.544 OA
ENDBRANCH  21  22
BRANCH  21  25
ATOM     25  N   UNL     1      41.960 131.622  24.428  1.00  0.00    -0.350 N 
ATOM     26  H   UNL     1      42.676 132.366  24.596  1.00  0.00     0.345 HD
ATOM     27  H   UNL     1      41.475 131.403  25.328  1.00  0.00     0.345 HD
ATOM     28  H   UNL     1      41.242 131.983  23.758  1.00  0.00     0.345 HD
ENDBRANCH  21  25
ENDBRANCH  20  21
ENDBRANCH   1  20
TORSDOF 9
ENDMDL
MODEL 5
REMARK VINA RESULT:      -5.1      1.024      1.642
REMARK SMILES Cc1ccc(-c2ccc(/N=C(\O)C[C@H]([NH3+])C(=O)[O-])c(C=O)c2)cc1
REMARK SMILES IDX 11 1 12 2 10 4 9 5 8 6 19 7 7 8 22 9 6 10 20 11 21 12 5 13
REMARK SMILES IDX 4 14 23 15 3 16 24 17 2 18 1 19 13 20 14 21 16 22 17 23
REMARK SMILES IDX 18 24 15 25
REMARK H PARENT 12 3 15 26 15 27 15 28
ROOT
ATOM      1  C   UNL     1      42.897 131.471  20.944  1.00  0.00     0.192 C 
ENDROOT
BRANCH   1   2
ATOM      2  O   UNL     1      42.190 130.275  21.062  1.00  0.00    -0.496 OA
ATOM      3  H   UNL     1      42.320 129.665  21.861  1.00  0.00     0.294 HD
ENDBRANCH   1   2
BRANCH   1   4
ATOM      4  N   UNL     1      42.990 132.084  19.800  1.00  0.00    -0.217 NA
BRANCH   4   5
ATOM      5  C   UNL     1      43.809 131.686  18.687  1.00  0.00     0.077 A 
ATOM      6  C   UNL     1      43.388 131.932  17.368  1.00  0.00     0.030 A 
ATOM      7  C   UNL     1      45.089 131.124  18.910  1.00  0.00     0.041 A 
ATOM      8  C   UNL     1      44.195 131.584  16.285  1.00  0.00     0.011 A 
ATOM      9  C   UNL     1      45.892 130.779  17.809  1.00  0.00     0.022 A 
ATOM     10  C   UNL     1      45.453 131.001  16.492  1.00  0.00    -0.018 A 
BRANCH   7  11
ATOM     11  C   UNL     1      45.625 130.860  20.268  1.00  0.00     0.262 C 
ATOM     12  O   UNL     1      46.361 131.687  20.866  1.00  0.00    -0.298 OA
ENDBRANCH   7  11
BRANCH  10  13
ATOM     13  C   UNL     1      46.311 130.632  15.337  1.00  0.00    -0.018 A 
ATOM     14  C   UNL     1      46.256 131.370  14.142  1.00  0.00     0.009 A 
ATOM     15  C   UNL     1      47.190 129.536  15.419  1.00  0.00     0.009 A 
ATOM     16  C   UNL     1      47.062 131.023  13.055  1.00  0.00     0.004 A 
ATOM     17  C   UNL     1      47.997 129.191  14.331  1.00  0.00     0.004 A 
ATOM     18  C   UNL     1      47.950 129.942  13.148  1.00  0.00    -0.051 A 
ATOM     19  C   UNL     1      48.787 129.546  11.968  1.00  0.00     0.044 C 
ENDBRANCH  10  13
ENDBRANCH   4   5
ENDBRANCH   1   4
BRANCH   1  20
ATOM     20  C   UNL     1      43.575 132.057  22.148  1.00  0.00     0.168 C 
BRANCH  20  21
ATOM     21  C   UNL     1      42.984 131.498  23.458  1.00  0.00     0.237 C 
BRANCH  21  22
ATOM     22  C   UNL     1      43.359 130.048  23.609  1.00  0.00     0.100 C 
ATOM     23  O   UNL     1      44.559 129.682  23.486  1.00  0.00    -0.544 OA
ATOM     24  O   UNL     1      42.376 129.101  23.866  1.00  0.00    -0.544 OA
ENDBRANCH  21  22
BRANCH  21  25
ATOM     25  N   UNL     1      43.440 132.267  24.625  1.00  0.00    -0.350 N 
ATOM     26  H   UNL     1      42.627 132.594  25.195  1.00  0.00     0.345 HD
ATOM     27  H   UNL     1      43.994 133.096  24.309  1.00  0.00     0.345 HD
ATOM     28  H   UNL     1      44.063 131.676  25.223  1.00  0.00     0.345 HD
ENDBRANCH  21  25
ENDBRANCH  20  21
ENDBRANCH   1  20
TORSDOF 9
ENDMDL
MODEL 6
REMARK VINA RESULT:      -4.8      1.529      2.056
REMARK SMILES Cc1ccc(-c2ccc(/N=C(\O)C[C@H]([NH3+])C(=O)[O-])c(C=O)c2)cc1
REMARK SMILES IDX 11 1 12 2 10 4 9 5 8 6 19 7 7 8 22 9 6 10 20 11 21 12 5 13
REMARK SMILES IDX 4 14 23 15 3 16 24 17 2 18 1 19 13 20 14 21 16 22 17 23
REMARK SMILES IDX 18 24 15 25
REMARK H PARENT 12 3 15 26 15 27 15 28
ROOT
ATOM      1  C   UNL     1      42.514 131.663  20.640  1.00  0.00     0.192 C 
ENDROOT
BRANCH   1   2
ATOM      2  O   UNL     1      41.189 131.936  20.301  1.00  0.00    -0.496 OA
ATOM      3  H   UNL     1      40.845 131.779  19.361  1.00  0.00     0.294 HD
ENDBRANCH   1   2
BRANCH   1   4
ATOM      4  N   UNL     1      43.496 132.296  20.067  1.00  0.00    -0.217 NA
BRANCH   4   5
ATOM      5  C   UNL     1      44.232 131.854  18.913  1.00  0.00     0.077 A 
ATOM      6  C   UNL     1      43.716 132.051  17.620  1.00  0.00     0.030 A 
ATOM      7  C   UNL     1      45.526 131.299  19.063  1.00  0.00     0.041 A 
ATOM      8  C   UNL     1      44.443 131.662  16.495  1.00  0.00     0.011 A 
ATOM      9  C   UNL     1      46.247 130.913  17.920  1.00  0.00     0.022 A 
ATOM     10  C   UNL     1      45.713 131.085  16.632  1.00  0.00    -0.018 A 
BRANCH   7  11
ATOM     11  C   UNL     1      46.159 131.086  20.387  1.00  0.00     0.262 C 
ATOM     12  O   UNL     1      46.737 132.017  21.007  1.00  0.00    -0.298 OA
ENDBRANCH   7  11
BRANCH  10  13
ATOM     13  C   UNL     1      46.485 130.672  15.432  1.00  0.00    -0.018 A 
ATOM     14  C   UNL     1      46.753 131.592  14.403  1.00  0.00     0.009 A 
ATOM     15  C   UNL     1      46.958 129.352  15.304  1.00  0.00     0.009 A 
ATOM     16  C   UNL     1      47.479 131.204  13.274  1.00  0.00     0.004 A 
ATOM     17  C   UNL     1      47.685 128.966  14.175  1.00  0.00     0.004 A 
ATOM     18  C   UNL     1      47.963 129.893  13.160  1.00  0.00    -0.051 A 
ATOM     19  C   UNL     1      48.709 129.466  11.930  1.00  0.00     0.044 C 
ENDBRANCH  10  13
ENDBRANCH   4   5
ENDBRANCH   1   4
BRANCH   1  20
ATOM     20  C   UNL     1      42.819 130.615  21.670  1.00  0.00     0.168 C 
BRANCH  20  21
ATOM     21  C   UNL     1      43.894 131.096  22.665  1.00  0.00     0.237 C 
BRANCH  21  22
ATOM     22  C   UNL     1      43.264 131.973  23.713  1.00  0.00     0.100 C 
ATOM     23  O   UNL     1      43.971 132.505  24.611  1.00  0.00    -0.544 OA
ATOM     24  O   UNL     1      41.891 132.185  23.707  1.00  0.00    -0.544 OA
ENDBRANCH  21  22
BRANCH  21  25
ATOM     25  N   UNL     1      44.587 129.964  23.297  1.00  0.00    -0.350 N 
ATOM     26  H   UNL     1      45.454 130.286  23.786  1.00  0.00     0.345 HD
ATOM     27  H   UNL     1      44.845 129.256  22.571  1.00  0.00     0.345 HD
ATOM     28  H   UNL     1      43.956 129.497  23.988  1.00  0.00     0.345 HD
ENDBRANCH  21  25
ENDBRANCH  20  21
ENDBRANCH   1  20
TORSDOF 9
ENDMDL
MODEL 7
REMARK VINA RESULT:      -4.4      1.589      2.058
REMARK SMILES Cc1ccc(-c2ccc(/N=C(\O)C[C@H]([NH3+])C(=O)[O-])c(C=O)c2)cc1
REMARK SMILES IDX 11 1 12 2 10 4 9 5 8 6 19 7 7 8 22 9 6 10 20 11 21 12 5 13
REMARK SMILES IDX 4 14 23 15 3 16 24 17 2 18 1 19 13 20 14 21 16 22 17 23
REMARK SMILES IDX 18 24 15 25
REMARK H PARENT 12 3 15 26 15 27 15 28
ROOT
ATOM      1  C   UNL     1      43.205 131.179  21.603  1.00  0.00     0.192 C 
ENDROOT
BRANCH   1   2
ATOM      2  O   UNL     1      41.970 131.026  20.973  1.00  0.00    -0.496 OA
ATOM      3  H   UNL     1      41.782 131.459  20.076  1.00  0.00     0.294 HD
ENDBRANCH   1   2
BRANCH   1   4
ATOM      4  N   UNL     1      44.186 131.799  21.015  1.00  0.00    -0.217 NA
BRANCH   4   5
ATOM      5  C   UNL     1      44.708 131.512  19.706  1.00  0.00     0.077 A 
ATOM      6  C   UNL     1      44.309 132.277  18.596  1.00  0.00     0.030 A 
ATOM      7  C   UNL     1      45.700 130.516  19.538  1.00  0.00     0.041 A 
ATOM      8  C   UNL     1      44.842 132.031  17.331  1.00  0.00     0.011 A 
ATOM      9  C   UNL     1      46.228 130.280  18.257  1.00  0.00     0.022 A 
ATOM     10  C   UNL     1      45.804 131.027  17.146  1.00  0.00    -0.018 A 
BRANCH   7  11
ATOM     11  C   UNL     1      46.202 129.686  20.659  1.00  0.00     0.262 C 
ATOM     12  O   UNL     1      45.529 128.736  21.139  1.00  0.00    -0.298 OA
ENDBRANCH   7  11
BRANCH  10  13
ATOM     13  C   UNL     1      46.370 130.767  15.798  1.00  0.00    -0.018 A 
ATOM     14  C   UNL     1      46.152 131.674  14.745  1.00  0.00     0.009 A 
ATOM     15  C   UNL     1      47.131 129.609  15.552  1.00  0.00     0.009 A 
ATOM     16  C   UNL     1      46.685 131.429  13.476  1.00  0.00     0.004 A 
ATOM     17  C   UNL     1      47.664 129.367  14.283  1.00  0.00     0.004 A 
ATOM     18  C   UNL     1      47.458 130.283  13.241  1.00  0.00    -0.051 A 
ATOM     19  C   UNL     1      47.996 130.002  11.870  1.00  0.00     0.044 C 
ENDBRANCH  10  13
ENDBRANCH   4   5
ENDBRANCH   1   4
BRANCH   1  20
ATOM     20  C   UNL     1      43.415 130.609  22.976  1.00  0.00     0.168 C 
BRANCH  20  21
ATOM     21  C   UNL     1      42.322 129.582  23.335  1.00  0.00     0.237 C 
BRANCH  21  22
ATOM     22  C   UNL     1      42.918 128.468  24.153  1.00  0.00     0.100 C 
ATOM     23  O   UNL     1      44.135 128.496  24.481  1.00  0.00    -0.544 OA
ATOM     24  O   UNL     1      42.130 127.389  24.534  1.00  0.00    -0.544 OA
ENDBRANCH  21  22
BRANCH  21  25
ATOM     25  N   UNL     1      41.212 130.212  24.065  1.00  0.00    -0.350 N 
ATOM     26  H   UNL     1      41.572 130.891  24.775  1.00  0.00     0.345 HD
ATOM     27  H   UNL     1      40.644 129.478  24.548  1.00  0.00     0.345 HD
ATOM     28  H   UNL     1      40.584 130.715  23.398  1.00  0.00     0.345 HD
ENDBRANCH  21  25
ENDBRANCH  20  21
ENDBRANCH   1  20
TORSDOF 9
ENDMDL
MODEL 8
REMARK VINA RESULT:      -4.4      1.576      2.368
REMARK SMILES Cc1ccc(-c2ccc(/N=C(\O)C[C@H]([NH3+])C(=O)[O-])c(C=O)c2)cc1
REMARK SMILES IDX 11 1 12 2 10 4 9 5 8 6 19 7 7 8 22 9 6 10 20 11 21 12 5 13
REMARK SMILES IDX 4 14 23 15 3 16 24 17 2 18 1 19 13 20 14 21 16 22 17 23
REMARK SMILES IDX 18 24 15 25
REMARK H PARENT 12 3 15 26 15 27 15 28
ROOT
ATOM      1  C   UNL     1      43.313 131.359  21.942  1.00  0.00     0.192 C 
ENDROOT
BRANCH   1   2
ATOM      2  O   UNL     1      42.372 130.330  21.962  1.00  0.00    -0.496 OA
ATOM      3  H   UNL     1      42.247 129.717  21.165  1.00  0.00     0.294 HD
ENDBRANCH   1   2
BRANCH   1   4
ATOM      4  N   UNL     1      43.377 132.188  20.942  1.00  0.00    -0.217 NA
BRANCH   4   5
ATOM      5  C   UNL     1      44.024 131.947  19.680  1.00  0.00     0.077 A 
ATOM      6  C   UNL     1      45.418 131.780  19.613  1.00  0.00     0.030 A 
ATOM      7  C   UNL     1      43.252 131.784  18.504  1.00  0.00     0.041 A 
ATOM      8  C   UNL     1      46.047 131.506  18.399  1.00  0.00     0.011 A 
ATOM      9  C   UNL     1      43.899 131.508  17.288  1.00  0.00     0.022 A 
ATOM     10  C   UNL     1      45.296 131.371  17.222  1.00  0.00    -0.018 A 
BRANCH   7  11
ATOM     11  C   UNL     1      41.774 131.912  18.490  1.00  0.00     0.262 C 
ATOM     12  O   UNL     1      41.181 132.702  17.710  1.00  0.00    -0.298 OA
ENDBRANCH   7  11
BRANCH  10  13
ATOM     13  C   UNL     1      45.969 131.079  15.930  1.00  0.00    -0.018 A 
ATOM     14  C   UNL     1      45.858 129.808  15.339  1.00  0.00     0.009 A 
ATOM     15  C   UNL     1      46.728 132.068  15.278  1.00  0.00     0.009 A 
ATOM     16  C   UNL     1      46.490 129.533  14.123  1.00  0.00     0.004 A 
ATOM     17  C   UNL     1      47.359 131.792  14.062  1.00  0.00     0.004 A 
ATOM     18  C   UNL     1      47.231 130.527  13.470  1.00  0.00    -0.051 A 
ATOM     19  C   UNL     1      47.942 130.219  12.185  1.00  0.00     0.044 C 
ENDBRANCH  10  13
ENDBRANCH   4   5
ENDBRANCH   1   4
BRANCH   1  20
ATOM     20  C   UNL     1      44.277 131.509  23.082  1.00  0.00     0.168 C 
BRANCH  20  21
ATOM     21  C   UNL     1      43.940 130.544  24.237  1.00  0.00     0.237 C 
BRANCH  21  22
ATOM     22  C   UNL     1      42.460 130.572  24.511  1.00  0.00     0.100 C 
ATOM     23  O   UNL     1      41.811 129.498  24.624  1.00  0.00    -0.544 OA
ATOM     24  O   UNL     1      41.798 131.789  24.621  1.00  0.00    -0.544 OA
ENDBRANCH  21  22
BRANCH  21  25
ATOM     25  N   UNL     1      44.377 129.173  23.937  1.00  0.00    -0.350 N 
ATOM     26  H   UNL     1      44.661 129.085  22.934  1.00  0.00     0.345 HD
ATOM     27  H   UNL     1      43.599 128.502  24.133  1.00  0.00     0.345 HD
ATOM     28  H   UNL     1      45.185 128.912  24.547  1.00  0.00     0.345 HD
ENDBRANCH  21  25
ENDBRANCH  20  21
ENDBRANCH   1  20
TORSDOF 9
ENDMDL
MODEL 9
REMARK VINA RESULT:      -4.2      7.470      8.724
REMARK SMILES Cc1ccc(-c2ccc(/N=C(\O)C[C@H]([NH3+])C(=O)[O-])c(C=O)c2)cc1
REMARK SMILES IDX 11 1 12 2 10 4 9 5 8 6 19 7 7 8 22 9 6 10 20 11 21 12 5 13
REMARK SMILES IDX 4 14 23 15 3 16 24 17 2 18 1 19 13 20 14 21 16 22 17 23
REMARK SMILES IDX 18 24 15 25
REMARK H PARENT 12 3 15 26 15 27 15 28
ROOT
ATOM      1  C   UNL     1      42.216 124.135  22.092  1.00  0.00     0.192 C 
ENDROOT
BRANCH   1   2
ATOM      2  O   UNL     1      42.261 123.889  20.720  1.00  0.00    -0.496 OA
ATOM      3  H   UNL     1      41.428 123.622  20.208  1.00  0.00     0.294 HD
ENDBRANCH   1   2
BRANCH   1   4
ATOM      4  N   UNL     1      43.186 123.758  22.873  1.00  0.00    -0.217 NA
BRANCH   4   5
ATOM      5  C   UNL     1      44.589 123.782  22.557  1.00  0.00     0.077 A 
ATOM      6  C   UNL     1      45.179 122.718  21.852  1.00  0.00     0.030 A 
ATOM      7  C   UNL     1      45.370 124.920  22.871  1.00  0.00     0.041 A 
ATOM      8  C   UNL     1      46.529 122.754  21.506  1.00  0.00     0.011 A 
ATOM      9  C   UNL     1      46.730 124.942  22.516  1.00  0.00     0.022 A 
ATOM     10  C   UNL     1      47.321 123.863  21.837  1.00  0.00    -0.018 A 
BRANCH   7  11
ATOM     11  C   UNL     1      44.821 126.099  23.583  1.00  0.00     0.262 C 
ATOM     12  O   UNL     1      43.869 126.777  23.115  1.00  0.00    -0.298 OA
ENDBRANCH   7  11
BRANCH  10  13
ATOM     13  C   UNL     1      48.759 123.898  21.468  1.00  0.00    -0.018 A 
ATOM     14  C   UNL     1      49.157 123.739  20.128  1.00  0.00     0.009 A 
ATOM     15  C   UNL     1      49.747 124.088  22.452  1.00  0.00     0.009 A 
ATOM     16  C   UNL     1      50.510 123.772  19.780  1.00  0.00     0.004 A 
ATOM     17  C   UNL     1      51.100 124.122  22.102  1.00  0.00     0.004 A 
ATOM     18  C   UNL     1      51.489 123.980  20.763  1.00  0.00    -0.051 A 
ATOM     19  C   UNL     1      52.943 123.976  20.394  1.00  0.00     0.044 C 
ENDBRANCH  10  13
ENDBRANCH   4   5
ENDBRANCH   1   4
BRANCH   1  20
ATOM     20  C   UNL     1      41.026 124.833  22.685  1.00  0.00     0.168 C 
BRANCH  20  21
ATOM     21  C   UNL     1      40.335 123.962  23.753  1.00  0.00     0.237 C 
BRANCH  21  22
ATOM     22  C   UNL     1      38.863 124.274  23.791  1.00  0.00     0.100 C 
ATOM     23  O   UNL     1      38.440 125.407  23.436  1.00  0.00    -0.544 OA
ATOM     24  O   UNL     1      37.962 123.316  24.238  1.00  0.00    -0.544 OA
ENDBRANCH  21  22
BRANCH  21  25
ATOM     25  N   UNL     1      40.545 122.530  23.497  1.00  0.00    -0.350 N 
ATOM     26  H   UNL     1      41.434 122.374  22.968  1.00  0.00     0.345 HD
ATOM     27  H   UNL     1      39.745 122.147  22.944  1.00  0.00     0.345 HD
ATOM     28  H   UNL     1      40.589 122.006  24.402  1.00  0.00     0.345 HD
ENDBRANCH  21  25
ENDBRANCH  20  21
ENDBRANCH   1  20
TORSDOF 9
ENDMDL


