REMARK SMILES C[C@@]1(C(=O)N(c2ccc3[nH]ccc3c2)c2cccc3c2CCC3)CC[C@H]([NH3+])C1
REMARK SMILES IDX 3 1 4 2 2 3 24 4 28 5 25 6 26 7 1 8 27 9 5 13 6 14 7 15
REMARK SMILES IDX 14 16 8 17 13 18 9 19 12 20 10 21 11 22 15 24 16 25 20 26
REMARK SMILES IDX 17 27 19 28 21 29 18 30 23 31 22 32
REMARK H PARENT 27 10 27 11 27 12 10 23
ROOT
ATOM      1  C   UNL     1      -0.275   0.428   1.478  1.00  0.00     0.237 C 
ATOM      2  O   UNL     1      -0.055   1.509   2.089  1.00  0.00    -0.273 OA
ENDROOT
BRANCH   1   3
ATOM      3  C   UNL     1      -1.643  -0.232   1.611  1.00  0.00     0.053 C 
ATOM      4  C   UNL     1      -1.927  -1.267   0.510  1.00  0.00     0.023 C 
ATOM      5  C   UNL     1      -2.759   0.806   1.408  1.00  0.00     0.081 C 
ATOM      6  C   UNL     1      -3.440  -1.298   0.331  1.00  0.00     0.066 C 
ATOM      7  C   UNL     1      -3.974   0.035   0.874  1.00  0.00     0.181 C 
ATOM      8  C   UNL     1      -1.766  -0.880   3.007  1.00  0.00     0.022 C 
BRANCH   7   9
ATOM      9  N   UNL     1      -4.685   0.795  -0.160  1.00  0.00    -0.355 N 
ATOM     10  H   UNL     1      -5.009   1.707   0.236  1.00  0.00     0.344 HD
ATOM     11  H   UNL     1      -5.524   0.256  -0.477  1.00  0.00     0.344 HD
ATOM     12  H   UNL     1      -4.062   0.976  -0.982  1.00  0.00     0.344 HD
ENDBRANCH   7   9
ENDBRANCH   1   3
BRANCH   1  13
ATOM     13  N   UNL     1       0.768  -0.125   0.653  1.00  0.00    -0.280 N 
BRANCH  13  14
ATOM     14  C   UNL     1       1.196  -1.488   0.825  1.00  0.00     0.050 A 
ATOM     15  C   UNL     1       1.347  -2.334  -0.305  1.00  0.00     0.029 A 
ATOM     16  C   UNL     1       1.495  -1.981   2.114  1.00  0.00     0.037 A 
ATOM     17  C   UNL     1       1.775  -3.665  -0.153  1.00  0.00     0.029 A 
ATOM     18  C   UNL     1       1.915  -3.304   2.228  1.00  0.00     0.001 A 
ATOM     19  C   UNL     1       2.050  -4.117   1.135  1.00  0.00     0.045 A 
ATOM     20  C   UNL     1       2.268  -4.040   3.337  1.00  0.00     0.028 A 
ATOM     21  N   UNL     1       2.471  -5.339   1.500  1.00  0.00    -0.361 N 
ATOM     22  C   UNL     1       2.606  -5.297   2.845  1.00  0.00     0.083 A 
ATOM     23  H   UNL     1       2.661  -6.154   0.876  1.00  0.00     0.166 HD
ENDBRANCH  13  14
BRANCH  13  24
ATOM     24  C   UNL     1       1.380   0.712  -0.347  1.00  0.00     0.052 A 
ATOM     25  C   UNL     1       0.577   1.455  -1.237  1.00  0.00     0.027 A 
ATOM     26  C   UNL     1       2.779   0.830  -0.459  1.00  0.00    -0.021 A 
ATOM     27  C   UNL     1       1.166   2.278  -2.211  1.00  0.00     0.002 A 
ATOM     28  C   UNL     1       3.346   1.650  -1.405  1.00  0.00    -0.043 A 
ATOM     29  C   UNL     1       3.816   0.190   0.392  1.00  0.00     0.038 C 
ATOM     30  C   UNL     1       2.560   2.379  -2.300  1.00  0.00     0.004 A 
ATOM     31  C   UNL     1       4.824   1.660  -1.330  1.00  0.00     0.036 C 
ATOM     32  C   UNL     1       5.135   0.836  -0.069  1.00  0.00     0.010 C 
ENDBRANCH  13  24
ENDBRANCH   1  13
TORSDOF 5


