REMARK SMILES O=C1NCc2[nH+]cc(-c3ccc4[nH]ccc4c3)cc21
REMARK SMILES IDX 1 1 2 2 3 3 4 4 5 5 6 6 7 7 8 8 18 9 19 10 9 13 10 14 17 15
REMARK SMILES IDX 11 16 16 17 12 18 15 19 13 20 14 21
REMARK H PARENT 3 11 6 12 13 22
ROOT
ATOM      1  O   UNL     1       4.910   0.539   0.204  1.00  0.00    -0.269 OA
ATOM      2  C   UNL     1       4.377  -0.569   0.475  1.00  0.00     0.258 C 
ATOM      3  N   UNL     1       5.105  -1.752   0.782  1.00  0.00    -0.342 N 
ATOM      4  C   UNL     1       4.150  -2.833   1.042  1.00  0.00     0.225 C 
ATOM      5  C   UNL     1       2.820  -2.163   0.857  1.00  0.00     0.211 A 
ATOM      6  N   UNL     1       1.592  -2.726   0.987  1.00  0.00    -0.212 N 
ATOM      7  C   UNL     1       0.472  -1.968   0.785  1.00  0.00     0.315 A 
ATOM      8  C   UNL     1       0.576  -0.595   0.441  1.00  0.00     0.046 A 
ATOM      9  C   UNL     1       1.861  -0.023   0.308  1.00  0.00     0.035 A 
ATOM     10  C   UNL     1       2.964  -0.840   0.524  1.00  0.00     0.109 A 
ATOM     11  H   UNL     1       6.145  -1.835   0.817  1.00  0.00     0.164 HD
ATOM     12  H   UNL     1       1.502  -3.736   1.237  1.00  0.00     0.453 HD
ENDROOT
BRANCH   8  13
ATOM     13  C   UNL     1      -0.641   0.226   0.223  1.00  0.00    -0.012 A 
ATOM     14  C   UNL     1      -1.780   0.060   1.058  1.00  0.00     0.011 A 
ATOM     15  C   UNL     1      -0.679   1.185  -0.818  1.00  0.00     0.019 A 
ATOM     16  C   UNL     1      -2.939   0.833   0.860  1.00  0.00     0.027 A 
ATOM     17  C   UNL     1      -1.843   1.931  -0.984  1.00  0.00    -0.000 A 
ATOM     18  C   UNL     1      -2.933   1.762  -0.175  1.00  0.00     0.045 A 
ATOM     19  C   UNL     1      -2.157   2.912  -1.900  1.00  0.00     0.028 A 
ATOM     20  N   UNL     1      -3.927   2.592  -0.533  1.00  0.00    -0.361 N 
ATOM     21  C   UNL     1      -3.457   3.297  -1.588  1.00  0.00     0.083 A 
ATOM     22  H   UNL     1      -4.870   2.678  -0.093  1.00  0.00     0.166 HD
ENDBRANCH   8  13
TORSDOF 1


