MODEL 1
REMARK VINA RESULT:      -6.9      0.000      0.000
REMARK SMILES COCC[NH2+]C(=S)n1[nH+]c2cc(-c3c[nH+]c(F)cc3C)ccc2c1C
REMARK SMILES IDX 5 1 4 4 3 5 2 6 1 7 6 8 7 9 8 10 9 11 24 12 10 13 23 14
REMARK SMILES IDX 11 15 22 16 12 17 21 18 25 20 13 21 14 22 19 23 15 24 18 25
REMARK SMILES IDX 16 26 20 27 17 29
REMARK H PARENT 5 2 5 3 9 19 15 28
ROOT
ATOM      1  N   UNL     1      42.348 130.913  23.197  1.00  0.00    -0.283 N 
ATOM      2  H   UNL     1      41.717 130.492  22.479  1.00  0.00     0.354 HD
ATOM      3  H   UNL     1      41.782 131.629  23.710  1.00  0.00     0.354 HD
ENDROOT
BRANCH   1   4
ATOM      4  C   UNL     1      42.777 129.883  24.159  1.00  0.00     0.296 C 
BRANCH   4   5
ATOM      5  C   UNL     1      41.633 128.962  24.610  1.00  0.00     0.221 C 
BRANCH   5   6
ATOM      6  O   UNL     1      41.887 127.635  24.196  1.00  0.00    -0.379 OA
ATOM      7  C   UNL     1      40.688 127.046  23.746  1.00  0.00     0.195 C 
ENDBRANCH   5   6
ENDBRANCH   4   5
ENDBRANCH   1   4
BRANCH   1   8
ATOM      8  C   UNL     1      43.475 131.559  22.572  1.00  0.00     0.327 C 
ATOM      9  S   UNL     1      44.611 132.293  23.507  1.00  0.00     0.009 S 
BRANCH   8  10
ATOM     10  N   UNL     1      43.599 131.575  21.136  1.00  0.00    -0.062 N 
ATOM     11  N   UNL     1      44.675 131.139  20.488  1.00  0.00    -0.113 N 
ATOM     12  C   UNL     1      42.703 132.065  20.233  1.00  0.00     0.100 A 
ATOM     13  C   UNL     1      44.475 131.334  19.175  1.00  0.00     0.237 A 
ATOM     14  C   UNL     1      43.249 131.908  18.972  1.00  0.00     0.074 A 
ATOM     15  C   UNL     1      45.336 131.040  18.122  1.00  0.00     0.091 A 
ATOM     16  C   UNL     1      42.793 132.235  17.697  1.00  0.00     0.018 A 
ATOM     17  C   UNL     1      44.906 131.346  16.811  1.00  0.00    -0.005 A 
ATOM     18  C   UNL     1      43.637 131.951  16.608  1.00  0.00     0.010 A 
ATOM     19  H   UNL     1      45.518 130.705  20.926  1.00  0.00     0.489 HD
ATOM     20  C   UNL     1      41.379 132.692  20.555  1.00  0.00     0.072 C 
BRANCH  17  21
ATOM     21  C   UNL     1      45.794 131.067  15.662  1.00  0.00     0.049 A 
ATOM     22  C   UNL     1      46.510 132.129  15.084  1.00  0.00     0.317 A 
ATOM     23  C   UNL     1      45.955 129.768  15.126  1.00  0.00    -0.028 A 
ATOM     24  N   UNL     1      47.317 131.915  14.010  1.00  0.00    -0.186 N 
ATOM     25  C   UNL     1      46.781 129.589  14.006  1.00  0.00     0.118 A 
ATOM     26  C   UNL     1      47.459 130.680  13.462  1.00  0.00     0.358 A 
ATOM     27  C   UNL     1      45.252 128.570  15.712  1.00  0.00     0.045 C 
ATOM     28  H   UNL     1      47.833 132.723  13.594  1.00  0.00     0.456 HD
ATOM     29  F   UNL     1      48.264 130.505  12.385  1.00  0.00    -0.136 F 
ENDBRANCH  17  21
ENDBRANCH   8  10
ENDBRANCH   1   8
TORSDOF 6
ENDMDL
MODEL 2
REMARK VINA RESULT:      -6.6      1.442      1.902
REMARK SMILES COCC[NH2+]C(=S)n1[nH+]c2cc(-c3c[nH+]c(F)cc3C)ccc2c1C
REMARK SMILES IDX 5 1 4 4 3 5 2 6 1 7 6 8 7 9 8 10 9 11 24 12 10 13 23 14
REMARK SMILES IDX 11 15 22 16 12 17 21 18 25 20 13 21 14 22 19 23 15 24 18 25
REMARK SMILES IDX 16 26 20 27 17 29
REMARK H PARENT 5 2 5 3 9 19 15 28
ROOT
ATOM      1  N   UNL     1      43.895 129.781  24.435  1.00  0.00    -0.283 N 
ATOM      2  H   UNL     1      43.396 129.983  25.330  1.00  0.00     0.354 HD
ATOM      3  H   UNL     1      44.780 129.283  24.690  1.00  0.00     0.354 HD
ENDROOT
BRANCH   1   4
ATOM      4  C   UNL     1      43.084 128.885  23.594  1.00  0.00     0.296 C 
BRANCH   4   5
ATOM      5  C   UNL     1      43.385 127.397  23.831  1.00  0.00     0.221 C 
BRANCH   5   6
ATOM      6  O   UNL     1      42.276 126.768  24.440  1.00  0.00    -0.379 OA
ATOM      7  C   UNL     1      41.921 125.623  23.700  1.00  0.00     0.195 C 
ENDBRANCH   5   6
ENDBRANCH   4   5
ENDBRANCH   1   4
BRANCH   1   8
ATOM      8  C   UNL     1      44.222 131.005  23.746  1.00  0.00     0.327 C 
ATOM      9  S   UNL     1      44.632 132.340  24.612  1.00  0.00     0.009 S 
BRANCH   8  10
ATOM     10  N   UNL     1      44.176 131.062  22.306  1.00  0.00    -0.062 N 
ATOM     11  N   UNL     1      45.139 130.588  21.522  1.00  0.00    -0.113 N 
ATOM     12  C   UNL     1      43.211 131.632  21.531  1.00  0.00     0.100 A 
ATOM     13  C   UNL     1      44.797 130.838  20.249  1.00  0.00     0.237 A 
ATOM     14  C   UNL     1      43.593 131.486  20.209  1.00  0.00     0.074 A 
ATOM     15  C   UNL     1      45.509 130.530  19.092  1.00  0.00     0.091 A 
ATOM     16  C   UNL     1      43.010 131.881  19.007  1.00  0.00     0.018 A 
ATOM     17  C   UNL     1      44.945 130.903  17.851  1.00  0.00    -0.005 A 
ATOM     18  C   UNL     1      43.701 131.586  17.817  1.00  0.00     0.010 A 
ATOM     19  H   UNL     1      46.000 130.092  21.844  1.00  0.00     0.489 HD
ATOM     20  C   UNL     1      41.974 132.322  22.026  1.00  0.00     0.072 C 
BRANCH  17  21
ATOM     21  C   UNL     1      45.673 130.614  16.597  1.00  0.00     0.049 A 
ATOM     22  C   UNL     1      45.966 129.278  16.274  1.00  0.00     0.317 A 
ATOM     23  C   UNL     1      46.080 131.634  15.705  1.00  0.00    -0.028 A 
ATOM     24  N   UNL     1      46.657 128.976  15.142  1.00  0.00    -0.186 N 
ATOM     25  C   UNL     1      46.807 131.285  14.556  1.00  0.00     0.118 A 
ATOM     26  C   UNL     1      47.084 129.944  14.289  1.00  0.00     0.358 A 
ATOM     27  C   UNL     1      45.771 133.087  15.959  1.00  0.00     0.045 C 
ATOM     28  H   UNL     1      46.869 127.976  14.927  1.00  0.00     0.456 HD
ATOM     29  F   UNL     1      47.778 129.608  13.174  1.00  0.00    -0.136 F 
ENDBRANCH  17  21
ENDBRANCH   8  10
ENDBRANCH   1   8
TORSDOF 6
ENDMDL
MODEL 3
REMARK VINA RESULT:      -6.4      1.397      1.725
REMARK SMILES COCC[NH2+]C(=S)n1[nH+]c2cc(-c3c[nH+]c(F)cc3C)ccc2c1C
REMARK SMILES IDX 5 1 4 4 3 5 2 6 1 7 6 8 7 9 8 10 9 11 24 12 10 13 23 14
REMARK SMILES IDX 11 15 22 16 12 17 21 18 25 20 13 21 14 22 19 23 15 24 18 25
REMARK SMILES IDX 16 26 20 27 17 29
REMARK H PARENT 5 2 5 3 9 19 15 28
ROOT
ATOM      1  N   UNL     1      42.275 130.348  23.021  1.00  0.00    -0.283 N 
ATOM      2  H   UNL     1      42.023 129.599  22.338  1.00  0.00     0.354 HD
ATOM      3  H   UNL     1      41.395 130.875  23.228  1.00  0.00     0.354 HD
ENDROOT
BRANCH   1   4
ATOM      4  C   UNL     1      42.761 129.745  24.274  1.00  0.00     0.296 C 
BRANCH   4   5
ATOM      5  C   UNL     1      43.622 128.493  24.049  1.00  0.00     0.221 C 
BRANCH   5   6
ATOM      6  O   UNL     1      44.534 128.715  22.993  1.00  0.00    -0.379 OA
ATOM      7  C   UNL     1      45.213 127.516  22.699  1.00  0.00     0.195 C 
ENDBRANCH   5   6
ENDBRANCH   4   5
ENDBRANCH   1   4
BRANCH   1   8
ATOM      8  C   UNL     1      43.246 131.251  22.455  1.00  0.00     0.327 C 
ATOM      9  S   UNL     1      44.070 132.278  23.440  1.00  0.00     0.009 S 
BRANCH   8  10
ATOM     10  N   UNL     1      43.483 131.266  21.033  1.00  0.00    -0.062 N 
ATOM     11  N   UNL     1      44.532 130.685  20.459  1.00  0.00    -0.113 N 
ATOM     12  C   UNL     1      42.742 131.893  20.077  1.00  0.00     0.100 A 
ATOM     13  C   UNL     1      44.465 130.922  19.139  1.00  0.00     0.237 A 
ATOM     14  C   UNL     1      43.356 131.671  18.857  1.00  0.00     0.074 A 
ATOM     15  C   UNL     1      45.355 130.517  18.148  1.00  0.00     0.091 A 
ATOM     16  C   UNL     1      43.053 132.077  17.559  1.00  0.00     0.018 A 
ATOM     17  C   UNL     1      45.077 130.898  16.816  1.00  0.00    -0.005 A 
ATOM     18  C   UNL     1      43.930 131.685  16.531  1.00  0.00     0.010 A 
ATOM     19  H   UNL     1      45.266 130.127  20.949  1.00  0.00     0.489 HD
ATOM     20  C   UNL     1      41.501 132.703  20.311  1.00  0.00     0.072 C 
BRANCH  17  21
ATOM     21  C   UNL     1      46.003 130.506  15.731  1.00  0.00     0.049 A 
ATOM     22  C   UNL     1      47.082 129.657  16.032  1.00  0.00     0.317 A 
ATOM     23  C   UNL     1      45.838 130.950  14.398  1.00  0.00    -0.028 A 
ATOM     24  N   UNL     1      47.968 129.297  15.066  1.00  0.00    -0.186 N 
ATOM     25  C   UNL     1      46.783 130.572  13.432  1.00  0.00     0.118 A 
ATOM     26  C   UNL     1      47.845 129.739  13.787  1.00  0.00     0.358 A 
ATOM     27  C   UNL     1      44.687 131.830  13.985  1.00  0.00     0.045 C 
ATOM     28  H   UNL     1      48.766 128.671  15.316  1.00  0.00     0.456 HD
ATOM     29  F   UNL     1      48.752 129.367  12.850  1.00  0.00    -0.136 F 
ENDBRANCH  17  21
ENDBRANCH   8  10
ENDBRANCH   1   8
TORSDOF 6
ENDMDL
MODEL 4
REMARK VINA RESULT:      -6.3      1.554      1.994
REMARK SMILES COCC[NH2+]C(=S)n1[nH+]c2cc(-c3c[nH+]c(F)cc3C)ccc2c1C
REMARK SMILES IDX 5 1 4 4 3 5 2 6 1 7 6 8 7 9 8 10 9 11 24 12 10 13 23 14
REMARK SMILES IDX 11 15 22 16 12 17 21 18 25 20 13 21 14 22 19 23 15 24 18 25
REMARK SMILES IDX 16 26 20 27 17 29
REMARK H PARENT 5 2 5 3 9 19 15 28
ROOT
ATOM      1  N   UNL     1      43.766 130.388  23.719  1.00  0.00    -0.283 N 
ATOM      2  H   UNL     1      42.725 130.438  23.654  1.00  0.00     0.354 HD
ATOM      3  H   UNL     1      44.012 130.541  24.725  1.00  0.00     0.354 HD
ENDROOT
BRANCH   1   4
ATOM      4  C   UNL     1      44.233 129.048  23.326  1.00  0.00     0.296 C 
BRANCH   4   5
ATOM      5  C   UNL     1      44.195 128.032  24.479  1.00  0.00     0.221 C 
BRANCH   5   6
ATOM      6  O   UNL     1      44.996 126.912  24.164  1.00  0.00    -0.379 OA
ATOM      7  C   UNL     1      45.059 126.757  22.765  1.00  0.00     0.195 C 
ENDBRANCH   5   6
ENDBRANCH   4   5
ENDBRANCH   1   4
BRANCH   1   8
ATOM      8  C   UNL     1      44.379 131.420  22.919  1.00  0.00     0.327 C 
ATOM      9  S   UNL     1      45.095 132.702  23.659  1.00  0.00     0.009 S 
BRANCH   8  10
ATOM     10  N   UNL     1      44.351 131.336  21.481  1.00  0.00    -0.062 N 
ATOM     11  N   UNL     1      45.372 130.894  20.752  1.00  0.00    -0.113 N 
ATOM     12  C   UNL     1      43.346 131.727  20.648  1.00  0.00     0.100 A 
ATOM     13  C   UNL     1      45.027 130.985  19.458  1.00  0.00     0.237 A 
ATOM     14  C   UNL     1      43.764 131.498  19.349  1.00  0.00     0.074 A 
ATOM     15  C   UNL     1      45.786 130.647  18.342  1.00  0.00     0.091 A 
ATOM     16  C   UNL     1      43.163 131.716  18.110  1.00  0.00     0.018 A 
ATOM     17  C   UNL     1      45.209 130.841  17.067  1.00  0.00    -0.005 A 
ATOM     18  C   UNL     1      43.901 131.384  16.959  1.00  0.00     0.010 A 
ATOM     19  H   UNL     1      46.274 130.522  21.126  1.00  0.00     0.489 HD
ATOM     20  C   UNL     1      42.036 132.328  21.065  1.00  0.00     0.072 C 
BRANCH  17  21
ATOM     21  C   UNL     1      45.984 130.512  15.851  1.00  0.00     0.049 A 
ATOM     22  C   UNL     1      46.189 129.162  15.519  1.00  0.00     0.317 A 
ATOM     23  C   UNL     1      46.522 131.509  15.003  1.00  0.00    -0.028 A 
ATOM     24  N   UNL     1      46.919 128.822  14.423  1.00  0.00    -0.186 N 
ATOM     25  C   UNL     1      47.285 131.120  13.891  1.00  0.00     0.118 A 
ATOM     26  C   UNL     1      47.470 129.765  13.615  1.00  0.00     0.358 A 
ATOM     27  C   UNL     1      46.315 132.979  15.267  1.00  0.00     0.045 C 
ATOM     28  H   UNL     1      47.063 127.811  14.202  1.00  0.00     0.456 HD
ATOM     29  F   UNL     1      48.200 129.391  12.536  1.00  0.00    -0.136 F 
ENDBRANCH  17  21
ENDBRANCH   8  10
ENDBRANCH   1   8
TORSDOF 6
ENDMDL
MODEL 5
REMARK VINA RESULT:      -6.2      1.522      1.748
REMARK SMILES COCC[NH2+]C(=S)n1[nH+]c2cc(-c3c[nH+]c(F)cc3C)ccc2c1C
REMARK SMILES IDX 5 1 4 4 3 5 2 6 1 7 6 8 7 9 8 10 9 11 24 12 10 13 23 14
REMARK SMILES IDX 11 15 22 16 12 17 21 18 25 20 13 21 14 22 19 23 15 24 18 25
REMARK SMILES IDX 16 26 20 27 17 29
REMARK H PARENT 5 2 5 3 9 19 15 28
ROOT
ATOM      1  N   UNL     1      44.905 130.090  23.814  1.00  0.00    -0.283 N 
ATOM      2  H   UNL     1      44.260 129.937  24.620  1.00  0.00     0.354 HD
ATOM      3  H   UNL     1      45.862 130.229  24.216  1.00  0.00     0.354 HD
ENDROOT
BRANCH   1   4
ATOM      4  C   UNL     1      44.931 128.895  22.953  1.00  0.00     0.296 C 
BRANCH   4   5
ATOM      5  C   UNL     1      43.631 128.078  23.013  1.00  0.00     0.221 C 
BRANCH   5   6
ATOM      6  O   UNL     1      43.876 126.821  23.609  1.00  0.00    -0.379 OA
ATOM      7  C   UNL     1      42.925 126.590  24.624  1.00  0.00     0.195 C 
ENDBRANCH   5   6
ENDBRANCH   4   5
ENDBRANCH   1   4
BRANCH   1   8
ATOM      8  C   UNL     1      44.527 131.269  23.074  1.00  0.00     0.327 C 
ATOM      9  S   UNL     1      44.166 132.654  23.883  1.00  0.00     0.009 S 
BRANCH   8  10
ATOM     10  N   UNL     1      44.452 131.231  21.635  1.00  0.00    -0.062 N 
ATOM     11  N   UNL     1      45.441 130.796  20.861  1.00  0.00    -0.113 N 
ATOM     12  C   UNL     1      43.427 131.663  20.848  1.00  0.00     0.100 A 
ATOM     13  C   UNL     1      45.057 130.933  19.582  1.00  0.00     0.237 A 
ATOM     14  C   UNL     1      43.799 131.468  19.530  1.00  0.00     0.074 A 
ATOM     15  C   UNL     1      45.774 130.617  18.431  1.00  0.00     0.091 A 
ATOM     16  C   UNL     1      43.163 131.733  18.319  1.00  0.00     0.018 A 
ATOM     17  C   UNL     1      45.159 130.860  17.183  1.00  0.00    -0.005 A 
ATOM     18  C   UNL     1      43.858 131.426  17.134  1.00  0.00     0.010 A 
ATOM     19  H   UNL     1      46.349 130.399  21.193  1.00  0.00     0.489 HD
ATOM     20  C   UNL     1      42.141 132.270  21.326  1.00  0.00     0.072 C 
BRANCH  17  21
ATOM     21  C   UNL     1      45.889 130.558  15.932  1.00  0.00     0.049 A 
ATOM     22  C   UNL     1      47.015 129.720  15.988  1.00  0.00     0.317 A 
ATOM     23  C   UNL     1      45.490 131.077  14.678  1.00  0.00    -0.028 A 
ATOM     24  N   UNL     1      47.727 129.440  14.864  1.00  0.00    -0.186 N 
ATOM     25  C   UNL     1      46.260 130.782  13.542  1.00  0.00     0.118 A 
ATOM     26  C   UNL     1      47.378 129.955  13.656  1.00  0.00     0.358 A 
ATOM     27  C   UNL     1      44.273 131.952  14.526  1.00  0.00     0.045 C 
ATOM     28  H   UNL     1      48.565 128.821  14.933  1.00  0.00     0.456 HD
ATOM     29  F   UNL     1      48.115 129.664  12.556  1.00  0.00    -0.136 F 
ENDBRANCH  17  21
ENDBRANCH   8  10
ENDBRANCH   1   8
TORSDOF 6
ENDMDL
MODEL 6
REMARK VINA RESULT:      -5.8      1.359      1.868
REMARK SMILES COCC[NH2+]C(=S)n1[nH+]c2cc(-c3c[nH+]c(F)cc3C)ccc2c1C
REMARK SMILES IDX 5 1 4 4 3 5 2 6 1 7 6 8 7 9 8 10 9 11 24 12 10 13 23 14
REMARK SMILES IDX 11 15 22 16 12 17 21 18 25 20 13 21 14 22 19 23 15 24 18 25
REMARK SMILES IDX 16 26 20 27 17 29
REMARK H PARENT 5 2 5 3 9 19 15 28
ROOT
ATOM      1  N   UNL     1      44.980 130.086  23.340  1.00  0.00    -0.283 N 
ATOM      2  H   UNL     1      44.726 130.111  24.352  1.00  0.00     0.354 HD
ATOM      3  H   UNL     1      45.991 130.350  23.277  1.00  0.00     0.354 HD
ENDROOT
BRANCH   1   4
ATOM      4  C   UNL     1      44.823 128.719  22.813  1.00  0.00     0.296 C 
BRANCH   4   5
ATOM      5  C   UNL     1      43.642 127.962  23.440  1.00  0.00     0.221 C 
BRANCH   5   6
ATOM      6  O   UNL     1      43.225 128.609  24.625  1.00  0.00    -0.379 OA
ATOM      7  C   UNL     1      41.855 128.926  24.530  1.00  0.00     0.195 C 
ENDBRANCH   5   6
ENDBRANCH   4   5
ENDBRANCH   1   4
BRANCH   1   8
ATOM      8  C   UNL     1      44.194 131.036  22.592  1.00  0.00     0.327 C 
ATOM      9  S   UNL     1      43.189 132.064  23.389  1.00  0.00     0.009 S 
BRANCH   8  10
ATOM     10  N   UNL     1      44.279 131.076  21.154  1.00  0.00    -0.062 N 
ATOM     11  N   UNL     1      45.302 130.580  20.465  1.00  0.00    -0.113 N 
ATOM     12  C   UNL     1      43.396 131.649  20.288  1.00  0.00     0.100 A 
ATOM     13  C   UNL     1      45.080 130.818  19.163  1.00  0.00     0.237 A 
ATOM     14  C   UNL     1      43.894 131.481  19.008  1.00  0.00     0.074 A 
ATOM     15  C   UNL     1      45.888 130.487  18.080  1.00  0.00     0.091 A 
ATOM     16  C   UNL     1      43.426 131.869  17.754  1.00  0.00     0.018 A 
ATOM     17  C   UNL     1      45.444 130.852  16.788  1.00  0.00    -0.005 A 
ATOM     18  C   UNL     1      44.218 131.550  16.635  1.00  0.00     0.010 A 
ATOM     19  H   UNL     1      46.124 130.077  20.869  1.00  0.00     0.489 HD
ATOM     20  C   UNL     1      42.129 132.361  20.661  1.00  0.00     0.072 C 
BRANCH  17  21
ATOM     21  C   UNL     1      46.278 130.537  15.608  1.00  0.00     0.049 A 
ATOM     22  C   UNL     1      46.724 129.218  15.423  1.00  0.00     0.317 A 
ATOM     23  C   UNL     1      46.639 131.517  14.653  1.00  0.00    -0.028 A 
ATOM     24  N   UNL     1      47.514 128.897  14.364  1.00  0.00    -0.186 N 
ATOM     25  C   UNL     1      47.471 131.152  13.583  1.00  0.00     0.118 A 
ATOM     26  C   UNL     1      47.897 129.830  13.453  1.00  0.00     0.358 A 
ATOM     27  C   UNL     1      46.171 132.945  14.758  1.00  0.00     0.045 C 
ATOM     28  H   UNL     1      47.839 127.910  14.252  1.00  0.00     0.456 HD
ATOM     29  F   UNL     1      48.693 129.478  12.414  1.00  0.00    -0.136 F 
ENDBRANCH  17  21
ENDBRANCH   8  10
ENDBRANCH   1   8
TORSDOF 6
ENDMDL
MODEL 7
REMARK VINA RESULT:      -5.0      2.701      3.690
REMARK SMILES COCC[NH2+]C(=S)n1[nH+]c2cc(-c3c[nH+]c(F)cc3C)ccc2c1C
REMARK SMILES IDX 5 1 4 4 3 5 2 6 1 7 6 8 7 9 8 10 9 11 24 12 10 13 23 14
REMARK SMILES IDX 11 15 22 16 12 17 21 18 25 20 13 21 14 22 19 23 15 24 18 25
REMARK SMILES IDX 16 26 20 27 17 29
REMARK H PARENT 5 2 5 3 9 19 15 28
ROOT
ATOM      1  N   UNL     1      44.915 132.655  23.889  1.00  0.00    -0.283 N 
ATOM      2  H   UNL     1      44.774 132.584  24.921  1.00  0.00     0.354 HD
ATOM      3  H   UNL     1      44.318 133.449  23.558  1.00  0.00     0.354 HD
ENDROOT
BRANCH   1   4
ATOM      4  C   UNL     1      46.321 132.974  23.591  1.00  0.00     0.296 C 
BRANCH   4   5
ATOM      5  C   UNL     1      46.490 133.854  22.343  1.00  0.00     0.221 C 
BRANCH   5   6
ATOM      6  O   UNL     1      47.840 133.854  21.928  1.00  0.00    -0.379 OA
ATOM      7  C   UNL     1      48.286 135.182  21.778  1.00  0.00     0.195 C 
ENDBRANCH   5   6
ENDBRANCH   4   5
ENDBRANCH   1   4
BRANCH   1   8
ATOM      8  C   UNL     1      44.495 131.441  23.231  1.00  0.00     0.327 C 
ATOM      9  S   UNL     1      44.149 130.109  24.130  1.00  0.00     0.009 S 
BRANCH   8  10
ATOM     10  N   UNL     1      44.393 131.392  21.795  1.00  0.00    -0.062 N 
ATOM     11  N   UNL     1      45.366 130.948  21.005  1.00  0.00    -0.113 N 
ATOM     12  C   UNL     1      43.355 131.823  21.023  1.00  0.00     0.100 A 
ATOM     13  C   UNL     1      44.958 131.077  19.733  1.00  0.00     0.237 A 
ATOM     14  C   UNL     1      43.702 131.616  19.700  1.00  0.00     0.074 A 
ATOM     15  C   UNL     1      45.653 130.750  18.572  1.00  0.00     0.091 A 
ATOM     16  C   UNL     1      43.044 131.874  18.499  1.00  0.00     0.018 A 
ATOM     17  C   UNL     1      45.015 130.985  17.332  1.00  0.00    -0.005 A 
ATOM     18  C   UNL     1      43.715 131.556  17.304  1.00  0.00     0.010 A 
ATOM     19  H   UNL     1      46.278 130.550  21.324  1.00  0.00     0.489 HD
ATOM     20  C   UNL     1      42.080 132.438  21.521  1.00  0.00     0.072 C 
BRANCH  17  21
ATOM     21  C   UNL     1      45.721 130.670  16.071  1.00  0.00     0.049 A 
ATOM     22  C   UNL     1      46.881 129.880  16.120  1.00  0.00     0.317 A 
ATOM     23  C   UNL     1      45.266 131.132  14.813  1.00  0.00    -0.028 A 
ATOM     24  N   UNL     1      47.571 129.592  14.984  1.00  0.00    -0.186 N 
ATOM     25  C   UNL     1      46.014 130.830  13.665  1.00  0.00     0.118 A 
ATOM     26  C   UNL     1      47.167 130.052  13.771  1.00  0.00     0.358 A 
ATOM     27  C   UNL     1      44.010 131.952  14.670  1.00  0.00     0.045 C 
ATOM     28  H   UNL     1      48.435 129.008  15.048  1.00  0.00     0.456 HD
ATOM     29  F   UNL     1      47.884 129.754  12.660  1.00  0.00    -0.136 F 
ENDBRANCH  17  21
ENDBRANCH   8  10
ENDBRANCH   1   8
TORSDOF 6
ENDMDL
MODEL 8
REMARK VINA RESULT:      -4.2      2.058      2.338
REMARK SMILES COCC[NH2+]C(=S)n1[nH+]c2cc(-c3c[nH+]c(F)cc3C)ccc2c1C
REMARK SMILES IDX 5 1 4 4 3 5 2 6 1 7 6 8 7 9 8 10 9 11 24 12 10 13 23 14
REMARK SMILES IDX 11 15 22 16 12 17 21 18 25 20 13 21 14 22 19 23 15 24 18 25
REMARK SMILES IDX 16 26 20 27 17 29
REMARK H PARENT 5 2 5 3 9 19 15 28
ROOT
ATOM      1  N   UNL     1      45.258 127.851  23.046  1.00  0.00    -0.283 N 
ATOM      2  H   UNL     1      46.262 127.806  22.763  1.00  0.00     0.354 HD
ATOM      3  H   UNL     1      44.745 127.162  22.447  1.00  0.00     0.354 HD
ENDROOT
BRANCH   1   4
ATOM      4  C   UNL     1      45.110 127.444  24.454  1.00  0.00     0.296 C 
BRANCH   4   5
ATOM      5  C   UNL     1      44.408 126.086  24.619  1.00  0.00     0.221 C 
BRANCH   5   6
ATOM      6  O   UNL     1      43.851 125.675  23.388  1.00  0.00    -0.379 OA
ATOM      7  C   UNL     1      42.801 124.767  23.628  1.00  0.00     0.195 C 
ENDBRANCH   5   6
ENDBRANCH   4   5
ENDBRANCH   1   4
BRANCH   1   8
ATOM      8  C   UNL     1      44.719 129.170  22.816  1.00  0.00     0.327 C 
ATOM      9  S   UNL     1      44.079 130.015  24.072  1.00  0.00     0.009 S 
BRANCH   8  10
ATOM     10  N   UNL     1      44.729 129.737  21.491  1.00  0.00    -0.062 N 
ATOM     11  N   UNL     1      45.425 129.226  20.479  1.00  0.00    -0.113 N 
ATOM     12  C   UNL     1      44.103 130.872  21.072  1.00  0.00     0.100 A 
ATOM     13  C   UNL     1      45.242 130.016  19.410  1.00  0.00     0.237 A 
ATOM     14  C   UNL     1      44.416 131.056  19.737  1.00  0.00     0.074 A 
ATOM     15  C   UNL     1      45.785 129.876  18.136  1.00  0.00     0.091 A 
ATOM     16  C   UNL     1      44.072 132.041  18.812  1.00  0.00     0.018 A 
ATOM     17  C   UNL     1      45.451 130.847  17.165  1.00  0.00    -0.005 A 
ATOM     18  C   UNL     1      44.602 131.931  17.514  1.00  0.00     0.010 A 
ATOM     19  H   UNL     1      45.997 128.352  20.511  1.00  0.00     0.489 HD
ATOM     20  C   UNL     1      43.253 131.775  21.917  1.00  0.00     0.072 C 
BRANCH  17  21
ATOM     21  C   UNL     1      46.018 130.750  15.803  1.00  0.00     0.049 A 
ATOM     22  C   UNL     1      47.272 130.140  15.630  1.00  0.00     0.317 A 
ATOM     23  C   UNL     1      45.340 131.244  14.663  1.00  0.00    -0.028 A 
ATOM     24  N   UNL     1      47.836 130.056  14.396  1.00  0.00    -0.186 N 
ATOM     25  C   UNL     1      45.962 131.156  13.408  1.00  0.00     0.118 A 
ATOM     26  C   UNL     1      47.215 130.553  13.294  1.00  0.00     0.358 A 
ATOM     27  C   UNL     1      43.975 131.876  14.758  1.00  0.00     0.045 C 
ATOM     28  H   UNL     1      48.773 129.605  14.295  1.00  0.00     0.456 HD
ATOM     29  F   UNL     1      47.810 130.460  12.080  1.00  0.00    -0.136 F 
ENDBRANCH  17  21
ENDBRANCH   8  10
ENDBRANCH   1   8
TORSDOF 6
ENDMDL
MODEL 9
REMARK VINA RESULT:      -4.1      2.255      2.556
REMARK SMILES COCC[NH2+]C(=S)n1[nH+]c2cc(-c3c[nH+]c(F)cc3C)ccc2c1C
REMARK SMILES IDX 5 1 4 4 3 5 2 6 1 7 6 8 7 9 8 10 9 11 24 12 10 13 23 14
REMARK SMILES IDX 11 15 22 16 12 17 21 18 25 20 13 21 14 22 19 23 15 24 18 25
REMARK SMILES IDX 16 26 20 27 17 29
REMARK H PARENT 5 2 5 3 9 19 15 28
ROOT
ATOM      1  N   UNL     1      43.744 128.425  23.686  1.00  0.00    -0.283 N 
ATOM      2  H   UNL     1      42.710 128.368  23.817  1.00  0.00     0.354 HD
ATOM      3  H   UNL     1      44.179 128.125  24.590  1.00  0.00     0.354 HD
ENDROOT
BRANCH   1   4
ATOM      4  C   UNL     1      44.172 127.489  22.632  1.00  0.00     0.296 C 
BRANCH   4   5
ATOM      5  C   UNL     1      44.791 126.196  23.186  1.00  0.00     0.221 C 
BRANCH   5   6
ATOM      6  O   UNL     1      45.765 125.702  22.291  1.00  0.00    -0.379 OA
ATOM      7  C   UNL     1      46.952 126.449  22.428  1.00  0.00     0.195 C 
ENDBRANCH   5   6
ENDBRANCH   4   5
ENDBRANCH   1   4
BRANCH   1   8
ATOM      8  C   UNL     1      44.149 129.777  23.391  1.00  0.00     0.327 C 
ATOM      9  S   UNL     1      44.493 130.808  24.624  1.00  0.00     0.009 S 
BRANCH   8  10
ATOM     10  N   UNL     1      44.237 130.227  22.024  1.00  0.00    -0.062 N 
ATOM     11  N   UNL     1      44.982 129.626  21.101  1.00  0.00    -0.113 N 
ATOM     12  C   UNL     1      43.647 131.326  21.475  1.00  0.00     0.100 A 
ATOM     13  C   UNL     1      44.866 130.322  19.959  1.00  0.00     0.237 A 
ATOM     14  C   UNL     1      44.035 131.392  20.149  1.00  0.00     0.074 A 
ATOM     15  C   UNL     1      45.476 130.068  18.734  1.00  0.00     0.091 A 
ATOM     16  C   UNL     1      43.754 132.295  19.125  1.00  0.00     0.018 A 
ATOM     17  C   UNL     1      45.207 130.954  17.666  1.00  0.00    -0.005 A 
ATOM     18  C   UNL     1      44.352 132.069  17.872  1.00  0.00     0.010 A 
ATOM     19  H   UNL     1      45.541 128.755  21.239  1.00  0.00     0.489 HD
ATOM     20  C   UNL     1      42.763 132.305  22.190  1.00  0.00     0.072 C 
BRANCH  17  21
ATOM     21  C   UNL     1      45.846 130.735  16.350  1.00  0.00     0.049 A 
ATOM     22  C   UNL     1      47.134 130.175  16.305  1.00  0.00     0.317 A 
ATOM     23  C   UNL     1      45.205 131.064  15.133  1.00  0.00    -0.028 A 
ATOM     24  N   UNL     1      47.763 129.983  15.115  1.00  0.00    -0.186 N 
ATOM     25  C   UNL     1      45.893 130.869  13.925  1.00  0.00     0.118 A 
ATOM     26  C   UNL     1      47.177 130.322  13.937  1.00  0.00     0.358 A 
ATOM     27  C   UNL     1      43.810 131.633  15.093  1.00  0.00     0.045 C 
ATOM     28  H   UNL     1      48.723 129.571  15.108  1.00  0.00     0.456 HD
ATOM     29  F   UNL     1      47.837 130.126  12.769  1.00  0.00    -0.136 F 
ENDBRANCH  17  21
ENDBRANCH   8  10
ENDBRANCH   1   8
TORSDOF 6
ENDMDL


