REMARK SMILES Cc1cc(-c2cccc3[nH+]coc23)cc(O/C(S)=[NH+]/c2ccc(-n3cccn3)cc2)c1F
REMARK SMILES IDX 17 1 18 2 16 4 15 5 14 6 31 7 4 8 2 9 3 10 32 11 1 12 5 13
REMARK SMILES IDX 6 14 13 15 7 16 9 17 12 18 8 19 10 20 11 21 19 23 20 25
REMARK SMILES IDX 21 26 30 27 22 28 29 29 23 30 24 31 28 32 25 33 27 34 26 35
REMARK H PARENT 18 3 10 22 19 24
ROOT
ATOM      1  C   UNL     1       1.990   1.440   0.064  1.00  0.00     0.407 C 
ENDROOT
BRANCH   1   2
ATOM      2  S   UNL     1       2.153   3.230   0.073  1.00  0.00    -0.031 SA
ATOM      3  H   UNL     1       3.313   3.184  -0.722  1.00  0.00     0.118 HD
ENDBRANCH   1   2
BRANCH   1   4
ATOM      4  O   UNL     1       2.684   0.728   1.053  1.00  0.00    -0.397 OA
BRANCH   4   5
ATOM      5  C   UNL     1       2.215  -0.427   1.698  1.00  0.00     0.171 A 
ATOM      6  C   UNL     1       0.841  -0.680   1.856  1.00  0.00     0.059 A 
ATOM      7  C   UNL     1       3.147  -1.325   2.230  1.00  0.00     0.168 A 
ATOM      8  C   UNL     1       0.396  -1.843   2.506  1.00  0.00    -0.010 A 
ATOM      9  C   UNL     1       2.718  -2.486   2.894  1.00  0.00    -0.011 A 
ATOM     10  C   UNL     1       1.345  -2.747   3.013  1.00  0.00     0.015 A 
ATOM     11  F   UNL     1       4.473  -1.072   2.087  1.00  0.00    -0.203 F 
ATOM     12  C   UNL     1       3.725  -3.462   3.431  1.00  0.00     0.048 C 
BRANCH   8  13
ATOM     13  C   UNL     1      -1.055  -2.120   2.645  1.00  0.00     0.032 A 
ATOM     14  C   UNL     1      -1.580  -3.421   2.446  1.00  0.00     0.013 A 
ATOM     15  C   UNL     1      -1.974  -1.114   2.973  1.00  0.00     0.212 A 
ATOM     16  C   UNL     1      -2.966  -3.669   2.573  1.00  0.00     0.008 A 
ATOM     17  C   UNL     1      -3.310  -1.361   3.093  1.00  0.00     0.249 A 
ATOM     18  O   UNL     1      -1.759   0.154   3.228  1.00  0.00    -0.403 OA
ATOM     19  C   UNL     1      -3.852  -2.628   2.901  1.00  0.00     0.083 A 
ATOM     20  N   UNL     1      -3.941  -0.225   3.422  1.00  0.00    -0.176 N 
ATOM     21  C   UNL     1      -2.941   0.686   3.495  1.00  0.00     0.521 A 
ATOM     22  H   UNL     1      -4.961  -0.076   3.590  1.00  0.00     0.457 HD
ENDBRANCH   8  13
ENDBRANCH   4   5
ENDBRANCH   1   4
BRANCH   1  23
ATOM     23  N   UNL     1       1.266   0.813  -0.827  1.00  0.00    -0.167 N 
ATOM     24  H   UNL     1       1.194  -0.228  -0.789  1.00  0.00     0.458 HD
BRANCH  23  25
ATOM     25  C   UNL     1       0.488   1.468  -1.839  1.00  0.00     0.207 A 
ATOM     26  C   UNL     1      -0.895   1.264  -1.885  1.00  0.00     0.081 A 
ATOM     27  C   UNL     1       1.103   2.245  -2.831  1.00  0.00     0.081 A 
ATOM     28  C   UNL     1      -1.666   1.863  -2.885  1.00  0.00     0.035 A 
ATOM     29  C   UNL     1       0.335   2.846  -3.833  1.00  0.00     0.035 A 
ATOM     30  C   UNL     1      -1.060   2.663  -3.873  1.00  0.00     0.065 A 
BRANCH  30  31
ATOM     31  N   UNL     1      -1.839   3.293  -4.912  1.00  0.00    -0.241 N 
ATOM     32  N   UNL     1      -1.358   4.223  -5.725  1.00  0.00    -0.177 NA
ATOM     33  C   UNL     1      -3.128   3.048  -5.232  1.00  0.00     0.115 A 
ATOM     34  C   UNL     1      -2.341   4.585  -6.570  1.00  0.00     0.135 A 
ATOM     35  C   UNL     1      -3.480   3.860  -6.289  1.00  0.00     0.042 A 
ENDBRANCH  30  31
ENDBRANCH  23  25
ENDBRANCH   1  23
TORSDOF 7


