REMARK SMILES Cc1cc(Cl)ccc1C(=O)[N-][C@H]1CC12CCC2
REMARK SMILES IDX 9 1 10 2 8 3 2 4 3 5 4 6 7 7 6 8 1 9 5 10 11 11 12 12 13 13
REMARK SMILES IDX 14 14 15 15 17 16 16 17
REMARK H PARENT
ROOT
ATOM      1  C   UNL     1       1.381   0.595   0.248  1.00  0.00     0.082 C 
ATOM      2  O   UNL     1       2.102   0.431   1.271  1.00  0.00    -0.315 OA
ENDROOT
BRANCH   1   3
ATOM      3  C   UNL     1       1.965   1.207  -0.973  1.00  0.00     0.002 A 
ATOM      4  C   UNL     1       1.492   0.923  -2.285  1.00  0.00    -0.040 A 
ATOM      5  C   UNL     1       2.069   1.585  -3.384  1.00  0.00     0.024 A 
ATOM      6  C   UNL     1       3.119   2.487  -3.203  1.00  0.00     0.041 A 
ATOM      7  C   UNL     1       3.035   2.109  -0.818  1.00  0.00     0.012 A 
ATOM      8  C   UNL     1       3.605   2.743  -1.923  1.00  0.00     0.021 A 
ATOM      9  C   UNL     1       0.392  -0.073  -2.548  1.00  0.00     0.045 C 
ATOM     10  Cl  UNL     1       3.831   3.295  -4.589  1.00  0.00    -0.084 Cl
ENDBRANCH   1   3
BRANCH   1  11
ATOM     11  N   UNL     1      -0.001   0.235   0.297  1.00  0.00    -0.646 NA
BRANCH  11  12
ATOM     12  C   UNL     1      -0.622  -0.338   1.482  1.00  0.00    -0.100 C 
ATOM     13  C   UNL     1      -1.295   0.699   2.389  1.00  0.00    -0.010 C 
ATOM     14  C   UNL     1      -2.122  -0.194   1.471  1.00  0.00    -0.044 C 
ATOM     15  C   UNL     1      -3.182  -1.044   2.109  1.00  0.00     0.006 C 
ATOM     16  C   UNL     1      -3.050   0.482   0.503  1.00  0.00     0.006 C 
ATOM     17  C   UNL     1      -4.170  -0.374   1.131  1.00  0.00     0.001 C 
ENDBRANCH  11  12
ENDBRANCH   1  11
TORSDOF 3


