REMARK SMILES CC(=O)c1ccc([C@H]2[C@H](F)[C@H](C)CCN2C(=S)[NH2+]c2[nH+]c3ccccc3s2)cc1F
REMARK SMILES IDX 8 1 9 2 10 3 11 4 12 5 13 6 14 7 15 8 7 9 4 10 5 11 29 12
REMARK SMILES IDX 6 13 28 14 30 15 2 16 1 17 3 18 16 19 17 20 18 21 19 24
REMARK SMILES IDX 20 25 27 26 21 27 26 28 22 29 25 30 23 31 24 32
REMARK H PARENT 18 22 18 23 20 33
ROOT
ATOM      1  C   UNL     1       2.215   0.746   0.911  1.00  0.00     0.153 C 
ATOM      2  C   UNL     1       3.450   0.338   1.754  1.00  0.00     0.196 C 
ATOM      3  F   UNL     1       4.249   1.456   1.938  1.00  0.00    -0.245 F 
ATOM      4  C   UNL     1       4.268  -0.778   1.072  1.00  0.00     0.024 C 
ATOM      5  C   UNL     1       5.494  -1.155   1.912  1.00  0.00     0.011 C 
ATOM      6  C   UNL     1       4.692  -0.342  -0.341  1.00  0.00     0.028 C 
ATOM      7  C   UNL     1       3.457  -0.004  -1.172  1.00  0.00     0.124 C 
ATOM      8  N   UNL     1       2.640   1.017  -0.482  1.00  0.00    -0.308 N 
ENDROOT
BRANCH   1   9
ATOM      9  C   UNL     1       1.061  -0.256   1.012  1.00  0.00    -0.019 A 
ATOM     10  C   UNL     1      -1.214  -1.941   1.277  1.00  0.00     0.053 A 
ATOM     11  C   UNL     1      -0.681  -1.643   0.012  1.00  0.00     0.015 A 
ATOM     12  C   UNL     1      -0.609  -1.365   2.413  1.00  0.00     0.134 A 
ATOM     13  C   UNL     1       0.429  -0.807  -0.120  1.00  0.00     0.007 A 
ATOM     14  C   UNL     1       0.504  -0.530   2.275  1.00  0.00     0.046 A 
ATOM     15  F   UNL     1      -1.114  -1.555   3.657  1.00  0.00    -0.206 F 
BRANCH  10  16
ATOM     16  C   UNL     1      -2.413  -2.817   1.369  1.00  0.00     0.162 C 
ATOM     17  C   UNL     1      -2.795  -3.527   2.633  1.00  0.00     0.093 C 
ATOM     18  O   UNL     1      -3.149  -2.970   0.356  1.00  0.00    -0.294 OA
ENDBRANCH  10  16
ENDBRANCH   1   9
BRANCH   8  19
ATOM     19  C   UNL     1       2.501   2.345  -1.056  1.00  0.00     0.280 C 
ATOM     20  S   UNL     1       3.783   3.026  -1.831  1.00  0.00     0.004 S 
BRANCH  19  21
ATOM     21  N   UNL     1       1.375   3.194  -0.738  1.00  0.00    -0.191 N 
ATOM     22  H   UNL     1       1.337   4.002  -1.402  1.00  0.00     0.366 HD
ATOM     23  H   UNL     1       1.489   3.578   0.227  1.00  0.00     0.366 HD
BRANCH  21  24
ATOM     24  C   UNL     1       0.130   2.492  -0.856  1.00  0.00     0.433 A 
ATOM     25  N   UNL     1      -0.276   1.868  -1.991  1.00  0.00    -0.146 N 
ATOM     26  S   UNL     1      -1.043   2.419   0.367  1.00  0.00    -0.000 S 
ATOM     27  C   UNL     1      -1.503   1.308  -1.835  1.00  0.00     0.227 A 
ATOM     28  C   UNL     1      -2.082   1.508  -0.590  1.00  0.00     0.111 A 
ATOM     29  C   UNL     1      -2.162   0.549  -2.805  1.00  0.00     0.081 A 
ATOM     30  C   UNL     1      -3.319   0.966  -0.254  1.00  0.00     0.026 A 
ATOM     31  C   UNL     1      -3.414  -0.008  -2.490  1.00  0.00     0.007 A 
ATOM     32  C   UNL     1      -3.989   0.199  -1.220  1.00  0.00     0.002 A 
ATOM     33  H   UNL     1       0.294   1.810  -2.865  1.00  0.00     0.461 HD
ENDBRANCH  21  24
ENDBRANCH  19  21
ENDBRANCH   8  19
TORSDOF 5


