REMARK SMILES C=Cc1cc(-c2ccc(C(C)=O)c3n[nH]cc23)ccc1O
REMARK SMILES IDX 6 1 7 2 8 3 9 4 13 5 14 6 15 7 16 8 17 9 5 11 3 12 4 13
REMARK SMILES IDX 20 14 19 15 18 16 2 17 1 18 21 19 10 21 11 22 12 23
REMARK H PARENT 15 10 21 20
ROOT
ATOM      1  C   UNL     1      -0.421  -1.263   1.249  1.00  0.00    -0.007 A 
ATOM      2  C   UNL     1       0.524  -0.716   2.142  1.00  0.00     0.010 A 
ATOM      3  C   UNL     1       1.435  -1.545   2.831  1.00  0.00     0.015 A 
ATOM      4  C   UNL     1       1.435  -2.949   2.646  1.00  0.00     0.045 A 
ATOM      5  C   UNL     1       0.490  -3.463   1.740  1.00  0.00     0.103 A 
ATOM      6  N   UNL     1       0.319  -4.740   1.351  1.00  0.00    -0.175 NA
ATOM      7  N   UNL     1      -0.659  -4.747   0.454  1.00  0.00    -0.284 N 
ATOM      8  C   UNL     1      -1.117  -3.493   0.253  1.00  0.00     0.114 A 
ATOM      9  C   UNL     1      -0.397  -2.652   1.074  1.00  0.00     0.028 A 
ATOM     10  H   UNL     1      -1.004  -5.606  -0.028  1.00  0.00     0.189 HD
ENDROOT
BRANCH   1  11
ATOM     11  C   UNL     1      -1.381  -0.389   0.535  1.00  0.00    -0.017 A 
ATOM     12  C   UNL     1      -1.835   1.617  -0.794  1.00  0.00     0.016 A 
ATOM     13  C   UNL     1      -0.931   0.769  -0.121  1.00  0.00     0.020 A 
ATOM     14  C   UNL     1      -3.202   1.277  -0.815  1.00  0.00     0.122 A 
ATOM     15  C   UNL     1      -3.650   0.126  -0.154  1.00  0.00     0.047 A 
ATOM     16  C   UNL     1      -2.749  -0.696   0.522  1.00  0.00     0.012 A 
BRANCH  12  17
ATOM     17  C   UNL     1      -1.373   2.834  -1.510  1.00  0.00     0.004 C 
ATOM     18  C   UNL     1      -0.252   3.491  -1.209  1.00  0.00     0.009 C 
ENDBRANCH  12  17
BRANCH  14  19
ATOM     19  O   UNL     1      -4.118   2.090  -1.485  1.00  0.00    -0.507 OA
ATOM     20  H   UNL     1      -5.107   1.868  -1.511  1.00  0.00     0.293 HD
ENDBRANCH  14  19
ENDBRANCH   1  11
BRANCH   4  21
ATOM     21  C   UNL     1       2.411  -3.797   3.385  1.00  0.00     0.162 C 
ATOM     22  C   UNL     1       2.345  -5.295   3.378  1.00  0.00     0.093 C 
ATOM     23  O   UNL     1       3.337  -3.248   4.042  1.00  0.00    -0.294 OA
ENDBRANCH   4  21
TORSDOF 4


