MODEL 1
REMARK VINA RESULT:      -5.0      0.000      0.000
REMARK SMILES N#Cc1cnc(N(c2cn3ccccc3n2)c2cc3ccccc3[n-]2)cn1
REMARK SMILES IDX 3 1 4 2 5 3 6 4 26 5 27 6 2 7 1 8 7 9 8 10 9 11 16 12 10 13
REMARK SMILES IDX 15 14 11 15 14 16 12 17 13 18 17 19 18 20 25 21 19 22 24 23
REMARK SMILES IDX 20 24 23 25 21 26 22 27
REMARK H PARENT
ROOT
ATOM      1  C   UNL     1      41.670 123.729  23.490  1.00  0.00     0.158 A 
ATOM      2  C   UNL     1      41.993 124.024  22.163  1.00  0.00     0.151 A 
ATOM      3  N   UNL     1      43.121 124.734  21.894  1.00  0.00    -0.256 NA
ATOM      4  C   UNL     1      43.944 125.169  22.887  1.00  0.00     0.075 A 
ATOM      5  C   UNL     1      43.616 124.864  24.219  1.00  0.00     0.137 A 
ATOM      6  N   UNL     1      42.489 124.154  24.486  1.00  0.00    -0.242 NA
ENDROOT
BRANCH   1   7
ATOM      7  C   UNL     1      40.485 122.980  23.806  1.00  0.00     0.121 C 
ATOM      8  N   UNL     1      39.531 122.376  24.062  1.00  0.00    -0.191 NA
ENDBRANCH   1   7
BRANCH   4   9
ATOM      9  N   UNL     1      45.135 125.915  22.564  1.00  0.00    -0.384 N 
BRANCH   9  10
ATOM     10  C   UNL     1      45.053 127.336  22.340  1.00  0.00     0.075 A 
ATOM     11  C   UNL     1      44.354 128.242  23.128  1.00  0.00     0.117 A 
ATOM     12  N   UNL     1      45.644 127.966  21.294  1.00  0.00    -0.233 NA
ATOM     13  N   UNL     1      44.522 129.445  22.563  1.00  0.00    -0.307 N 
ATOM     14  C   UNL     1      45.291 129.254  21.478  1.00  0.00     0.136 A 
ATOM     15  C   UNL     1      44.042 130.658  22.939  1.00  0.00     0.093 A 
ATOM     16  C   UNL     1      45.648 130.322  20.658  1.00  0.00     0.048 A 
ATOM     17  C   UNL     1      44.371 131.771  22.151  1.00  0.00     0.018 A 
ATOM     18  C   UNL     1      45.177 131.598  21.008  1.00  0.00     0.005 A 
ENDBRANCH   9  10
BRANCH   9  19
ATOM     19  C   UNL     1      46.385 125.222  22.380  1.00  0.00    -0.051 A 
ATOM     20  C   UNL     1      46.508 123.888  21.995  1.00  0.00     0.008 A 
ATOM     21  N   UNL     1      47.593 125.811  22.568  1.00  0.00    -0.435 NA
ATOM     22  C   UNL     1      47.861 123.666  21.949  1.00  0.00    -0.023 A 
ATOM     23  C   UNL     1      48.482 124.837  22.298  1.00  0.00    -0.034 A 
ATOM     24  C   UNL     1      48.581 122.516  21.629  1.00  0.00     0.008 A 
ATOM     25  C   UNL     1      49.871 124.939  22.349  1.00  0.00     0.004 A 
ATOM     26  C   UNL     1      49.984 122.590  21.671  1.00  0.00     0.001 A 
ATOM     27  C   UNL     1      50.627 123.795  22.030  1.00  0.00     0.000 A 
ENDBRANCH   9  19
ENDBRANCH   4   9
TORSDOF 4
ENDMDL
MODEL 2
REMARK VINA RESULT:      -3.9      1.689      6.068
REMARK SMILES N#Cc1cnc(N(c2cn3ccccc3n2)c2cc3ccccc3[n-]2)cn1
REMARK SMILES IDX 3 1 4 2 5 3 6 4 26 5 27 6 2 7 1 8 7 9 8 10 9 11 16 12 10 13
REMARK SMILES IDX 15 14 11 15 14 16 12 17 13 18 17 19 18 20 25 21 19 22 24 23
REMARK SMILES IDX 20 24 23 25 21 26 22 27
REMARK H PARENT
ROOT
ATOM      1  C   UNL     1      40.743 123.760  23.504  1.00  0.00     0.158 A 
ATOM      2  C   UNL     1      40.825 125.004  24.138  1.00  0.00     0.151 A 
ATOM      3  N   UNL     1      41.989 125.703  24.085  1.00  0.00    -0.256 NA
ATOM      4  C   UNL     1      43.082 125.222  23.432  1.00  0.00     0.075 A 
ATOM      5  C   UNL     1      42.992 123.974  22.792  1.00  0.00     0.137 A 
ATOM      6  N   UNL     1      41.828 123.276  22.845  1.00  0.00    -0.242 NA
ENDROOT
BRANCH   1   7
ATOM      7  C   UNL     1      39.527 122.997  23.542  1.00  0.00     0.121 C 
ATOM      8  N   UNL     1      38.547 122.382  23.573  1.00  0.00    -0.191 NA
ENDBRANCH   1   7
BRANCH   4   9
ATOM      9  N   UNL     1      44.299 125.995  23.392  1.00  0.00    -0.384 N 
BRANCH   9  10
ATOM     10  C   UNL     1      45.569 125.346  23.600  1.00  0.00     0.075 A 
ATOM     11  C   UNL     1      45.753 124.068  24.111  1.00  0.00     0.117 A 
ATOM     12  N   UNL     1      46.762 125.934  23.337  1.00  0.00    -0.233 NA
ATOM     13  N   UNL     1      47.075 123.863  24.157  1.00  0.00    -0.307 N 
ATOM     14  C   UNL     1      47.652 124.985  23.692  1.00  0.00     0.136 A 
ATOM     15  C   UNL     1      47.775 122.780  24.580  1.00  0.00     0.093 A 
ATOM     16  C   UNL     1      49.038 125.097  23.616  1.00  0.00     0.048 A 
ATOM     17  C   UNL     1      49.176 122.836  24.525  1.00  0.00     0.018 A 
ATOM     18  C   UNL     1      49.805 124.000  24.041  1.00  0.00     0.005 A 
ENDBRANCH   9  10
BRANCH   9  19
ATOM     19  C   UNL     1      44.232 127.426  23.232  1.00  0.00    -0.051 A 
ATOM     20  C   UNL     1      44.866 128.145  22.221  1.00  0.00     0.008 A 
ATOM     21  N   UNL     1      43.530 128.233  24.067  1.00  0.00    -0.435 NA
ATOM     22  C   UNL     1      44.526 129.452  22.462  1.00  0.00    -0.023 A 
ATOM     23  C   UNL     1      43.726 129.469  23.575  1.00  0.00    -0.034 A 
ATOM     24  C   UNL     1      44.870 130.619  21.782  1.00  0.00     0.008 A 
ATOM     25  C   UNL     1      43.211 130.661  24.083  1.00  0.00     0.004 A 
ATOM     26  C   UNL     1      44.365 131.836  22.273  1.00  0.00     0.001 A 
ATOM     27  C   UNL     1      43.539 131.857  23.418  1.00  0.00     0.000 A 
ENDBRANCH   9  19
ENDBRANCH   4   9
TORSDOF 4
ENDMDL
MODEL 3
REMARK VINA RESULT:      -3.7      1.343      1.785
REMARK SMILES N#Cc1cnc(N(c2cn3ccccc3n2)c2cc3ccccc3[n-]2)cn1
REMARK SMILES IDX 3 1 4 2 5 3 6 4 26 5 27 6 2 7 1 8 7 9 8 10 9 11 16 12 10 13
REMARK SMILES IDX 15 14 11 15 14 16 12 17 13 18 17 19 18 20 25 21 19 22 24 23
REMARK SMILES IDX 20 24 23 25 21 26 22 27
REMARK H PARENT
ROOT
ATOM      1  C   UNL     1      40.660 124.352  23.391  1.00  0.00     0.158 A 
ATOM      2  C   UNL     1      41.586 123.889  22.452  1.00  0.00     0.151 A 
ATOM      3  N   UNL     1      42.793 124.504  22.347  1.00  0.00    -0.256 NA
ATOM      4  C   UNL     1      43.124 125.565  23.134  1.00  0.00     0.075 A 
ATOM      5  C   UNL     1      42.191 126.022  24.081  1.00  0.00     0.137 A 
ATOM      6  N   UNL     1      40.985 125.405  24.184  1.00  0.00    -0.242 NA
ENDROOT
BRANCH   1   7
ATOM      7  C   UNL     1      39.376 123.722  23.525  1.00  0.00     0.121 C 
ATOM      8  N   UNL     1      38.341 123.216  23.634  1.00  0.00    -0.191 NA
ENDBRANCH   1   7
BRANCH   4   9
ATOM      9  N   UNL     1      44.417 126.189  22.999  1.00  0.00    -0.384 N 
BRANCH   9  10
ATOM     10  C   UNL     1      44.508 127.590  22.674  1.00  0.00     0.075 A 
ATOM     11  C   UNL     1      45.206 128.130  21.602  1.00  0.00     0.117 A 
ATOM     12  N   UNL     1      43.927 128.570  23.411  1.00  0.00    -0.233 NA
ATOM     13  N   UNL     1      45.049 129.458  21.676  1.00  0.00    -0.307 N 
ATOM     14  C   UNL     1      44.286 129.693  22.757  1.00  0.00     0.136 A 
ATOM     15  C   UNL     1      45.533 130.438  20.872  1.00  0.00     0.093 A 
ATOM     16  C   UNL     1      43.939 130.993  23.118  1.00  0.00     0.048 A 
ATOM     17  C   UNL     1      45.215 131.768  21.186  1.00  0.00     0.018 A 
ATOM     18  C   UNL     1      44.416 132.041  22.314  1.00  0.00     0.005 A 
ENDBRANCH   9  10
BRANCH   9  19
ATOM     19  C   UNL     1      45.612 125.389  23.105  1.00  0.00    -0.051 A 
ATOM     20  C   UNL     1      46.012 124.702  24.250  1.00  0.00     0.008 A 
ATOM     21  N   UNL     1      46.484 125.222  22.079  1.00  0.00    -0.435 NA
ATOM     22  C   UNL     1      47.187 124.091  23.891  1.00  0.00    -0.023 A 
ATOM     23  C   UNL     1      47.441 124.423  22.586  1.00  0.00    -0.034 A 
ATOM     24  C   UNL     1      48.044 123.272  24.625  1.00  0.00     0.008 A 
ATOM     25  C   UNL     1      48.574 123.955  21.923  1.00  0.00     0.004 A 
ATOM     26  C   UNL     1      49.195 122.786  23.981  1.00  0.00     0.001 A 
ATOM     27  C   UNL     1      49.459 123.126  22.635  1.00  0.00     0.000 A 
ENDBRANCH   9  19
ENDBRANCH   4   9
TORSDOF 4
ENDMDL
MODEL 4
REMARK VINA RESULT:      -3.1      1.265      1.478
REMARK SMILES N#Cc1cnc(N(c2cn3ccccc3n2)c2cc3ccccc3[n-]2)cn1
REMARK SMILES IDX 3 1 4 2 5 3 6 4 26 5 27 6 2 7 1 8 7 9 8 10 9 11 16 12 10 13
REMARK SMILES IDX 15 14 11 15 14 16 12 17 13 18 17 19 18 20 25 21 19 22 24 23
REMARK SMILES IDX 20 24 23 25 21 26 22 27
REMARK H PARENT
ROOT
ATOM      1  C   UNL     1      40.936 124.586  23.791  1.00  0.00     0.158 A 
ATOM      2  C   UNL     1      41.081 125.575  22.814  1.00  0.00     0.151 A 
ATOM      3  N   UNL     1      42.258 126.249  22.718  1.00  0.00    -0.256 NA
ATOM      4  C   UNL     1      43.300 125.987  23.554  1.00  0.00     0.075 A 
ATOM      5  C   UNL     1      43.150 124.988  24.530  1.00  0.00     0.137 A 
ATOM      6  N   UNL     1      41.973 124.315  24.625  1.00  0.00    -0.242 NA
ENDROOT
BRANCH   1   7
ATOM      7  C   UNL     1      39.705 123.856  23.917  1.00  0.00     0.121 C 
ATOM      8  N   UNL     1      38.713 123.269  24.019  1.00  0.00    -0.191 NA
ENDBRANCH   1   7
BRANCH   4   9
ATOM      9  N   UNL     1      44.536 126.718  23.419  1.00  0.00    -0.384 N 
BRANCH   9  10
ATOM     10  C   UNL     1      44.516 128.159  23.374  1.00  0.00     0.075 A 
ATOM     11  C   UNL     1      44.287 129.001  24.455  1.00  0.00     0.117 A 
ATOM     12  N   UNL     1      44.699 128.876  22.238  1.00  0.00    -0.233 NA
ATOM     13  N   UNL     1      44.336 130.251  23.979  1.00  0.00    -0.307 N 
ATOM     14  C   UNL     1      44.582 130.150  22.662  1.00  0.00     0.136 A 
ATOM     15  C   UNL     1      44.172 131.435  24.623  1.00  0.00     0.093 A 
ATOM     16  C   UNL     1      44.687 131.288  21.865  1.00  0.00     0.048 A 
ATOM     17  C   UNL     1      44.269 132.615  23.871  1.00  0.00     0.018 A 
ATOM     18  C   UNL     1      44.528 132.537  22.488  1.00  0.00     0.005 A 
ENDBRANCH   9  10
BRANCH   9  19
ATOM     19  C   UNL     1      45.775 126.003  23.242  1.00  0.00    -0.051 A 
ATOM     20  C   UNL     1      45.937 124.879  22.435  1.00  0.00     0.008 A 
ATOM     21  N   UNL     1      46.931 126.361  23.857  1.00  0.00    -0.435 NA
ATOM     22  C   UNL     1      47.261 124.545  22.573  1.00  0.00    -0.023 A 
ATOM     23  C   UNL     1      47.826 125.452  23.431  1.00  0.00    -0.034 A 
ATOM     24  C   UNL     1      47.998 123.507  22.005  1.00  0.00     0.008 A 
ATOM     25  C   UNL     1      49.174 125.383  23.780  1.00  0.00     0.004 A 
ATOM     26  C   UNL     1      49.361 123.413  22.340  1.00  0.00     0.001 A 
ATOM     27  C   UNL     1      49.946 124.346  23.223  1.00  0.00     0.000 A 
ENDBRANCH   9  19
ENDBRANCH   4   9
TORSDOF 4
ENDMDL
MODEL 5
REMARK VINA RESULT:      -3.0      1.764      6.160
REMARK SMILES N#Cc1cnc(N(c2cn3ccccc3n2)c2cc3ccccc3[n-]2)cn1
REMARK SMILES IDX 3 1 4 2 5 3 6 4 26 5 27 6 2 7 1 8 7 9 8 10 9 11 16 12 10 13
REMARK SMILES IDX 15 14 11 15 14 16 12 17 13 18 17 19 18 20 25 21 19 22 24 23
REMARK SMILES IDX 20 24 23 25 21 26 22 27
REMARK H PARENT
ROOT
ATOM      1  C   UNL     1      40.967 123.940  23.174  1.00  0.00     0.158 A 
ATOM      2  C   UNL     1      41.420 124.403  24.412  1.00  0.00     0.151 A 
ATOM      3  N   UNL     1      42.506 125.219  24.463  1.00  0.00    -0.256 NA
ATOM      4  C   UNL     1      43.168 125.596  23.334  1.00  0.00     0.075 A 
ATOM      5  C   UNL     1      42.705 125.132  22.091  1.00  0.00     0.137 A 
ATOM      6  N   UNL     1      41.618 124.317  22.043  1.00  0.00    -0.242 NA
ENDROOT
BRANCH   1   7
ATOM      7  C   UNL     1      39.822 123.077  23.088  1.00  0.00     0.121 C 
ATOM      8  N   UNL     1      38.900 122.381  23.018  1.00  0.00    -0.191 NA
ENDBRANCH   1   7
BRANCH   4   9
ATOM      9  N   UNL     1      44.313 126.467  23.426  1.00  0.00    -0.384 N 
BRANCH   9  10
ATOM     10  C   UNL     1      45.639 125.906  23.496  1.00  0.00     0.075 A 
ATOM     11  C   UNL     1      46.078 124.776  22.820  1.00  0.00     0.117 A 
ATOM     12  N   UNL     1      46.628 126.416  24.272  1.00  0.00    -0.233 NA
ATOM     13  N   UNL     1      47.355 124.591  23.177  1.00  0.00    -0.307 N 
ATOM     14  C   UNL     1      47.657 125.577  24.039  1.00  0.00     0.136 A 
ATOM     15  C   UNL     1      48.234 123.626  22.802  1.00  0.00     0.093 A 
ATOM     16  C   UNL     1      48.926 125.665  24.608  1.00  0.00     0.048 A 
ATOM     17  C   UNL     1      49.528 123.666  23.342  1.00  0.00     0.018 A 
ATOM     18  C   UNL     1      49.871 124.690  24.247  1.00  0.00     0.005 A 
ENDBRANCH   9  10
BRANCH   9  19
ATOM     19  C   UNL     1      44.121 127.892  23.533  1.00  0.00    -0.051 A 
ATOM     20  C   UNL     1      42.995 128.580  23.086  1.00  0.00     0.008 A 
ATOM     21  N   UNL     1      45.037 128.722  24.094  1.00  0.00    -0.435 NA
ATOM     22  C   UNL     1      43.249 129.893  23.394  1.00  0.00    -0.023 A 
ATOM     23  C   UNL     1      44.479 129.943  23.996  1.00  0.00    -0.034 A 
ATOM     24  C   UNL     1      42.484 131.038  23.181  1.00  0.00     0.008 A 
ATOM     25  C   UNL     1      45.029 131.148  24.430  1.00  0.00     0.004 A 
ATOM     26  C   UNL     1      43.014 132.268  23.610  1.00  0.00     0.001 A 
ATOM     27  C   UNL     1      44.281 132.323  24.231  1.00  0.00     0.000 A 
ENDBRANCH   9  19
ENDBRANCH   4   9
TORSDOF 4
ENDMDL
MODEL 6
REMARK VINA RESULT:      -2.7      1.227      1.673
REMARK SMILES N#Cc1cnc(N(c2cn3ccccc3n2)c2cc3ccccc3[n-]2)cn1
REMARK SMILES IDX 3 1 4 2 5 3 6 4 26 5 27 6 2 7 1 8 7 9 8 10 9 11 16 12 10 13
REMARK SMILES IDX 15 14 11 15 14 16 12 17 13 18 17 19 18 20 25 21 19 22 24 23
REMARK SMILES IDX 20 24 23 25 21 26 22 27
REMARK H PARENT
ROOT
ATOM      1  C   UNL     1      41.389 123.981  22.782  1.00  0.00     0.158 A 
ATOM      2  C   UNL     1      41.423 125.301  22.324  1.00  0.00     0.151 A 
ATOM      3  N   UNL     1      42.607 125.968  22.303  1.00  0.00    -0.256 NA
ATOM      4  C   UNL     1      43.764 125.383  22.721  1.00  0.00     0.075 A 
ATOM      5  C   UNL     1      43.723 124.054  23.174  1.00  0.00     0.137 A 
ATOM      6  N   UNL     1      42.539 123.388  23.194  1.00  0.00    -0.242 NA
ENDROOT
BRANCH   1   7
ATOM      7  C   UNL     1      40.153 123.249  22.815  1.00  0.00     0.121 C 
ATOM      8  N   UNL     1      39.157 122.660  22.843  1.00  0.00    -0.191 NA
ENDBRANCH   1   7
BRANCH   4   9
ATOM      9  N   UNL     1      45.002 126.120  22.679  1.00  0.00    -0.384 N 
BRANCH   9  10
ATOM     10  C   UNL     1      44.989 127.531  22.386  1.00  0.00     0.075 A 
ATOM     11  C   UNL     1      45.757 128.166  21.419  1.00  0.00     0.117 A 
ATOM     12  N   UNL     1      44.223 128.428  23.055  1.00  0.00    -0.233 NA
ATOM     13  N   UNL     1      45.456 129.469  21.489  1.00  0.00    -0.307 N 
ATOM     14  C   UNL     1      44.543 129.598  22.467  1.00  0.00     0.136 A 
ATOM     15  C   UNL     1      45.934 130.513  20.766  1.00  0.00     0.093 A 
ATOM     16  C   UNL     1      44.023 130.847  22.798  1.00  0.00     0.048 A 
ATOM     17  C   UNL     1      45.445 131.796  21.055  1.00  0.00     0.018 A 
ATOM     18  C   UNL     1      44.486 131.958  22.075  1.00  0.00     0.005 A 
ENDBRANCH   9  10
BRANCH   9  19
ATOM     19  C   UNL     1      46.254 125.425  22.845  1.00  0.00    -0.051 A 
ATOM     20  C   UNL     1      47.222 125.279  21.852  1.00  0.00     0.008 A 
ATOM     21  N   UNL     1      46.623 124.830  24.007  1.00  0.00    -0.435 NA
ATOM     22  C   UNL     1      48.224 124.559  22.452  1.00  0.00    -0.023 A 
ATOM     23  C   UNL     1      47.834 124.307  23.741  1.00  0.00    -0.034 A 
ATOM     24  C   UNL     1      49.444 124.111  21.949  1.00  0.00     0.008 A 
ATOM     25  C   UNL     1      48.642 123.587  24.619  1.00  0.00     0.004 A 
ATOM     26  C   UNL     1      50.280 123.381  22.813  1.00  0.00     0.001 A 
ATOM     27  C   UNL     1      49.881 123.120  24.142  1.00  0.00     0.000 A 
ENDBRANCH   9  19
ENDBRANCH   4   9
TORSDOF 4
ENDMDL
MODEL 7
REMARK VINA RESULT:      -2.3      0.953      5.906
REMARK SMILES N#Cc1cnc(N(c2cn3ccccc3n2)c2cc3ccccc3[n-]2)cn1
REMARK SMILES IDX 3 1 4 2 5 3 6 4 26 5 27 6 2 7 1 8 7 9 8 10 9 11 16 12 10 13
REMARK SMILES IDX 15 14 11 15 14 16 12 17 13 18 17 19 18 20 25 21 19 22 24 23
REMARK SMILES IDX 20 24 23 25 21 26 22 27
REMARK H PARENT
ROOT
ATOM      1  C   UNL     1      40.892 123.930  23.016  1.00  0.00     0.158 A 
ATOM      2  C   UNL     1      41.002 124.962  22.080  1.00  0.00     0.151 A 
ATOM      3  N   UNL     1      42.188 125.611  21.939  1.00  0.00    -0.256 NA
ATOM      4  C   UNL     1      43.275 125.283  22.691  1.00  0.00     0.075 A 
ATOM      5  C   UNL     1      43.160 124.240  23.626  1.00  0.00     0.137 A 
ATOM      6  N   UNL     1      41.973 123.592  23.765  1.00  0.00    -0.242 NA
ENDROOT
BRANCH   1   7
ATOM      7  C   UNL     1      39.652 123.225  23.188  1.00  0.00     0.121 C 
ATOM      8  N   UNL     1      38.653 122.658  23.326  1.00  0.00    -0.191 NA
ENDBRANCH   1   7
BRANCH   4   9
ATOM      9  N   UNL     1      44.518 125.989  22.510  1.00  0.00    -0.384 N 
BRANCH   9  10
ATOM     10  C   UNL     1      45.759 125.257  22.459  1.00  0.00     0.075 A 
ATOM     11  C   UNL     1      47.029 125.816  22.419  1.00  0.00     0.117 A 
ATOM     12  N   UNL     1      45.829 123.903  22.418  1.00  0.00    -0.233 NA
ATOM     13  N   UNL     1      47.893 124.795  22.359  1.00  0.00    -0.307 N 
ATOM     14  C   UNL     1      47.156 123.671  22.360  1.00  0.00     0.136 A 
ATOM     15  C   UNL     1      49.249 124.802  22.297  1.00  0.00     0.093 A 
ATOM     16  C   UNL     1      47.763 122.418  22.298  1.00  0.00     0.048 A 
ATOM     17  C   UNL     1      49.915 123.569  22.235  1.00  0.00     0.018 A 
ATOM     18  C   UNL     1      49.165 122.376  22.236  1.00  0.00     0.005 A 
ENDBRANCH   9  10
BRANCH   9  19
ATOM     19  C   UNL     1      44.523 127.430  22.468  1.00  0.00    -0.051 A 
ATOM     20  C   UNL     1      43.743 128.253  23.277  1.00  0.00     0.008 A 
ATOM     21  N   UNL     1      45.305 128.143  21.618  1.00  0.00    -0.435 NA
ATOM     22  C   UNL     1      44.075 129.528  22.892  1.00  0.00    -0.023 A 
ATOM     23  C   UNL     1      45.012 129.426  21.898  1.00  0.00    -0.034 A 
ATOM     24  C   UNL     1      43.613 130.762  23.348  1.00  0.00     0.008 A 
ATOM     25  C   UNL     1      45.554 130.557  21.290  1.00  0.00     0.004 A 
ATOM     26  C   UNL     1      44.143 131.920  22.752  1.00  0.00     0.001 A 
ATOM     27  C   UNL     1      45.109 131.818  21.727  1.00  0.00     0.000 A 
ENDBRANCH   9  19
ENDBRANCH   4   9
TORSDOF 4
ENDMDL
MODEL 8
REMARK VINA RESULT:      -2.1      4.788      8.825
REMARK SMILES N#Cc1cnc(N(c2cn3ccccc3n2)c2cc3ccccc3[n-]2)cn1
REMARK SMILES IDX 3 1 4 2 5 3 6 4 26 5 27 6 2 7 1 8 7 9 8 10 9 11 16 12 10 13
REMARK SMILES IDX 15 14 11 15 14 16 12 17 13 18 17 19 18 20 25 21 19 22 24 23
REMARK SMILES IDX 20 24 23 25 21 26 22 27
REMARK H PARENT
ROOT
ATOM      1  C   UNL     1      48.279 134.236  21.995  1.00  0.00     0.158 A 
ATOM      2  C   UNL     1      48.677 132.985  21.515  1.00  0.00     0.151 A 
ATOM      3  N   UNL     1      47.734 132.105  21.084  1.00  0.00    -0.256 NA
ATOM      4  C   UNL     1      46.408 132.410  21.112  1.00  0.00     0.075 A 
ATOM      5  C   UNL     1      46.014 133.672  21.591  1.00  0.00     0.137 A 
ATOM      6  N   UNL     1      46.958 134.550  22.020  1.00  0.00    -0.242 NA
ENDROOT
BRANCH   1   7
ATOM      7  C   UNL     1      49.251 135.187  22.457  1.00  0.00     0.121 C 
ATOM      8  N   UNL     1      50.035 135.953  22.828  1.00  0.00    -0.191 NA
ENDBRANCH   1   7
BRANCH   4   9
ATOM      9  N   UNL     1      45.436 131.454  20.642  1.00  0.00    -0.384 N 
BRANCH   9  10
ATOM     10  C   UNL     1      44.661 130.694  21.589  1.00  0.00     0.075 A 
ATOM     11  C   UNL     1      43.509 131.131  22.231  1.00  0.00     0.117 A 
ATOM     12  N   UNL     1      44.989 129.441  21.992  1.00  0.00    -0.233 NA
ATOM     13  N   UNL     1      43.120 130.133  23.034  1.00  0.00    -0.307 N 
ATOM     14  C   UNL     1      44.014 129.142  22.873  1.00  0.00     0.136 A 
ATOM     15  C   UNL     1      42.058 130.056  23.877  1.00  0.00     0.093 A 
ATOM     16  C   UNL     1      43.893 127.949  23.583  1.00  0.00     0.048 A 
ATOM     17  C   UNL     1      41.886 128.877  24.617  1.00  0.00     0.018 A 
ATOM     18  C   UNL     1      42.809 127.823  24.466  1.00  0.00     0.005 A 
ENDBRANCH   9  10
BRANCH   9  19
ATOM     19  C   UNL     1      45.308 131.202  19.229  1.00  0.00    -0.051 A 
ATOM     20  C   UNL     1      46.023 130.235  18.523  1.00  0.00     0.008 A 
ATOM     21  N   UNL     1      44.459 131.894  18.427  1.00  0.00    -0.435 NA
ATOM     22  C   UNL     1      45.579 130.355  17.231  1.00  0.00    -0.023 A 
ATOM     23  C   UNL     1      44.644 131.356  17.207  1.00  0.00    -0.034 A 
ATOM     24  C   UNL     1      45.939 129.653  16.080  1.00  0.00     0.008 A 
ATOM     25  C   UNL     1      44.001 131.725  16.027  1.00  0.00     0.004 A 
ATOM     26  C   UNL     1      45.305 130.005  14.875  1.00  0.00     0.001 A 
ATOM     27  C   UNL     1      44.341 131.036  14.848  1.00  0.00     0.000 A 
ENDBRANCH   9  19
ENDBRANCH   4   9
TORSDOF 4
ENDMDL
MODEL 9
REMARK VINA RESULT:      -2.0      4.765      8.058
REMARK SMILES N#Cc1cnc(N(c2cn3ccccc3n2)c2cc3ccccc3[n-]2)cn1
REMARK SMILES IDX 3 1 4 2 5 3 6 4 26 5 27 6 2 7 1 8 7 9 8 10 9 11 16 12 10 13
REMARK SMILES IDX 15 14 11 15 14 16 12 17 13 18 17 19 18 20 25 21 19 22 24 23
REMARK SMILES IDX 20 24 23 25 21 26 22 27
REMARK H PARENT
ROOT
ATOM      1  C   UNL     1      44.047 131.602  16.572  1.00  0.00     0.158 A 
ATOM      2  C   UNL     1      45.374 131.413  16.969  1.00  0.00     0.151 A 
ATOM      3  N   UNL     1      45.692 131.487  18.288  1.00  0.00    -0.256 NA
ATOM      4  C   UNL     1      44.749 131.744  19.236  1.00  0.00     0.075 A 
ATOM      5  C   UNL     1      43.415 131.926  18.832  1.00  0.00     0.137 A 
ATOM      6  N   UNL     1      43.099 131.852  17.512  1.00  0.00    -0.242 NA
ENDROOT
BRANCH   1   7
ATOM      7  C   UNL     1      43.680 131.530  15.185  1.00  0.00     0.121 C 
ATOM      8  N   UNL     1      43.385 131.471  14.068  1.00  0.00    -0.191 NA
ENDBRANCH   1   7
BRANCH   4   9
ATOM      9  N   UNL     1      45.122 131.808  20.628  1.00  0.00    -0.384 N 
BRANCH   9  10
ATOM     10  C   UNL     1      46.168 132.705  21.049  1.00  0.00     0.075 A 
ATOM     11  C   UNL     1      47.108 132.447  22.039  1.00  0.00     0.117 A 
ATOM     12  N   UNL     1      46.344 133.947  20.533  1.00  0.00    -0.233 NA
ATOM     13  N   UNL     1      47.876 133.539  22.128  1.00  0.00    -0.307 N 
ATOM     14  C   UNL     1      47.403 134.414  21.224  1.00  0.00     0.136 A 
ATOM     15  C   UNL     1      48.931 133.799  22.943  1.00  0.00     0.093 A 
ATOM     16  C   UNL     1      47.988 135.669  21.070  1.00  0.00     0.048 A 
ATOM     17  C   UNL     1      49.561 135.047  22.830  1.00  0.00     0.018 A 
ATOM     18  C   UNL     1      49.085 135.982  21.890  1.00  0.00     0.005 A 
ENDBRANCH   9  10
BRANCH   9  19
ATOM     19  C   UNL     1      44.506 130.914  21.576  1.00  0.00    -0.051 A 
ATOM     20  C   UNL     1      43.344 131.190  22.294  1.00  0.00     0.008 A 
ATOM     21  N   UNL     1      45.008 129.687  21.869  1.00  0.00    -0.435 NA
ATOM     22  C   UNL     1      43.138 130.069  23.059  1.00  0.00    -0.023 A 
ATOM     23  C   UNL     1      44.152 129.190  22.781  1.00  0.00    -0.034 A 
ATOM     24  C   UNL     1      42.133 129.771  23.977  1.00  0.00     0.008 A 
ATOM     25  C   UNL     1      44.228 127.946  23.404  1.00  0.00     0.004 A 
ATOM     26  C   UNL     1      42.185 128.522  24.622  1.00  0.00     0.001 A 
ATOM     27  C   UNL     1      43.228 127.614  24.337  1.00  0.00     0.000 A 
ENDBRANCH   9  19
ENDBRANCH   4   9
TORSDOF 4
ENDMDL


